MODEL        1
REMARK 921   NORMALIZED FREE ENERGY PREDICTED BY IDOCK:   -6.61 KCAL/MOL
REMARK 922        TOTAL FREE ENERGY PREDICTED BY IDOCK:  -10.64 KCAL/MOL
REMARK 923 INTER-LIGAND FREE ENERGY PREDICTED BY IDOCK:   -8.92 KCAL/MOL
REMARK 924 INTRA-LIGAND FREE ENERGY PREDICTED BY IDOCK:   -1.72 KCAL/MOL
REMARK 927      BINDING AFFINITY PREDICTED BY RF-SCORE:    0.00 PKD
ROOT
HETATM    1  C   UNK A   1      -9.495  15.318  66.068  1.00  0.00    -0.337 C  
HETATM    2  C   UNK A   1      -8.169  15.934  66.505  1.00  0.00    -0.307 C  
ENDROOT
BRANCH   1   3
HETATM    3  C   UNK A   1      -9.562  13.846  66.561  1.00  0.00    -0.287 C  
ATOM      4  CA  PRO A   2     -10.757  13.127  64.411  1.00  0.00    -0.407 C  
ATOM      5  N   PRO A   2     -10.269  12.933  65.791  1.00  0.00    -0.285 N  
ATOM      6  C   PRO A   2     -12.156  13.760  64.371  1.00  0.00    -0.436 C  
HETATM    7  O   UNK A   1      -9.029  13.510  67.623  1.00  0.00    -0.180 OA 
ATOM      8  CB  PRO A   2     -10.811  11.717  63.809  1.00  0.00    -0.493 C  
ATOM      9  O   PRO A   2     -12.690  13.991  65.593  1.00  0.00    -0.526 OA 
ATOM     10  CD  PRO A   2     -10.317  11.523  66.145  1.00  0.00    -0.245 C  
ATOM     11  OXT PRO A   2     -12.743  14.032  63.336  1.00  0.00    -0.796 OA 
ATOM     12  CG  PRO A   2     -10.106  10.817  64.820  1.00  0.00    -0.396 C  
ENDBRANCH   1   3
BRANCH   1  13
HETATM   13  N   UNK A   1     -10.668  16.033  66.629  1.00  0.00    -0.289 NA 
HETATM   14  H   UNK A   1     -11.410  15.368  66.848  1.00  0.00     0.000 HD 
BRANCH  13  15
HETATM   15  C   UNK A   1     -10.386  16.899  67.820  1.00  0.00    -0.327 C  
HETATM   16  O   UNK A   1     -10.898  16.534  70.203  1.00  0.00    -0.321 OA 
HETATM   17  O   UNK A   1     -11.983  15.285  68.661  1.00  0.00    -0.320 OA 
HETATM   18  C   UNK A   1     -11.097  16.246  69.033  1.00  0.00    -0.331 C  
BRANCH  15  19
HETATM   19  C   UNK A   1     -10.860  18.361  67.652  1.00  0.00    -0.295 C  
BRANCH  19  20
HETATM   20  C   UNK A   1      -9.926  19.381  68.324  1.00  0.00    -0.516 C  
BRANCH  20  21
HETATM   21  C   UNK A   1      -8.554  19.467  67.697  1.00  0.00    -0.355 A  
HETATM   22  C   UNK A   1      -6.016  19.746  66.522  1.00  0.00    -0.171 A  
HETATM   23  C   UNK A   1      -8.426  19.755  66.333  1.00  0.00    -0.391 A  
HETATM   24  C   UNK A   1      -7.165  19.895  65.748  1.00  0.00    -0.329 A  
HETATM   25  C   UNK A   1      -6.129  19.453  67.879  1.00  0.00    -0.227 A  
HETATM   26  C   UNK A   1      -7.389  19.316  68.469  1.00  0.00    -0.355 A  
ENDBRANCH  20  21
ENDBRANCH  19  20
ENDBRANCH  15  19
ENDBRANCH  13  15
ENDBRANCH   1  13
TORSDOF 6
ENDMDL
MODEL        2
REMARK 921   NORMALIZED FREE ENERGY PREDICTED BY IDOCK:   -6.49 KCAL/MOL
REMARK 922        TOTAL FREE ENERGY PREDICTED BY IDOCK:  -10.48 KCAL/MOL
REMARK 923 INTER-LIGAND FREE ENERGY PREDICTED BY IDOCK:   -9.61 KCAL/MOL
REMARK 924 INTRA-LIGAND FREE ENERGY PREDICTED BY IDOCK:   -0.87 KCAL/MOL
REMARK 927      BINDING AFFINITY PREDICTED BY RF-SCORE:    0.00 PKD
ROOT
HETATM    1  C   UNK A   1     -10.204  15.461  66.078  1.00  0.00    -0.324 C  
HETATM    2  C   UNK A   1      -8.702  15.369  66.334  1.00  0.00    -0.307 C  
ENDROOT
BRANCH   1   3
HETATM    3  C   UNK A   1     -10.600  16.952  65.888  1.00  0.00    -0.233 C  
ATOM      4  CA  PRO A   2      -9.928  17.491  68.301  1.00  0.00    -0.330 C  
ATOM      5  N   PRO A   2     -10.557  17.783  66.998  1.00  0.00    -0.306 N  
ATOM      6  C   PRO A   2     -10.888  16.783  69.268  1.00  0.00    -0.275 C  
HETATM    7  O   UNK A   1     -10.974  17.370  64.788  1.00  0.00    -0.964 OA 
ATOM      8  CB  PRO A   2      -9.541  18.863  68.870  1.00  0.00    -0.393 C  
ATOM      9  O   PRO A   2     -12.129  16.588  68.764  1.00  0.00     0.122 OA 
ATOM     10  CD  PRO A   2     -10.842  19.205  66.888  1.00  0.00    -0.348 C  
ATOM     11  OXT PRO A   2     -10.572  16.426  70.391  1.00  0.00    -0.142 OA 
ATOM     12  CG  PRO A   2      -9.758  19.851  67.727  1.00  0.00    -0.516 C  
ENDBRANCH   1   3
BRANCH   1  13
HETATM   13  N   UNK A   1     -10.621  14.726  64.859  1.00  0.00    -0.499 NA 
HETATM   14  H   UNK A   1      -9.826  14.610  64.231  1.00  0.00     0.000 HD 
BRANCH  13  15
HETATM   15  C   UNK A   1     -11.283  13.402  65.100  1.00  0.00    -0.305 C  
HETATM   16  O   UNK A   1     -12.910  12.168  63.720  1.00  0.00    -0.718 OA 
HETATM   17  O   UNK A   1     -12.590  14.368  63.306  1.00  0.00    -0.655 OA 
HETATM   18  C   UNK A   1     -12.345  13.217  63.986  1.00  0.00    -0.346 C  
BRANCH  15  19
HETATM   19  C   UNK A   1     -11.946  13.282  66.491  1.00  0.00    -0.448 C  
BRANCH  19  20
HETATM   20  C   UNK A   1     -11.404  12.105  67.320  1.00  0.00    -0.398 C  
BRANCH  20  21
HETATM   21  C   UNK A   1     -11.874  12.095  68.756  1.00  0.00    -0.356 A  
HETATM   22  C   UNK A   1     -12.857  12.108  71.389  1.00  0.00    -0.378 A  
HETATM   23  C   UNK A   1     -12.151  13.301  69.409  1.00  0.00    -0.301 A  
HETATM   24  C   UNK A   1     -12.642  13.309  70.718  1.00  0.00    -0.357 A  
HETATM   25  C   UNK A   1     -12.579  10.900  70.753  1.00  0.00    -0.470 A  
HETATM   26  C   UNK A   1     -12.092  10.888  69.443  1.00  0.00    -0.362 A  
ENDBRANCH  20  21
ENDBRANCH  19  20
ENDBRANCH  15  19
ENDBRANCH  13  15
ENDBRANCH   1  13
TORSDOF 6
ENDMDL
MODEL        3
REMARK 921   NORMALIZED FREE ENERGY PREDICTED BY IDOCK:   -6.35 KCAL/MOL
REMARK 922        TOTAL FREE ENERGY PREDICTED BY IDOCK:  -10.30 KCAL/MOL
REMARK 923 INTER-LIGAND FREE ENERGY PREDICTED BY IDOCK:   -8.91 KCAL/MOL
REMARK 924 INTRA-LIGAND FREE ENERGY PREDICTED BY IDOCK:   -1.39 KCAL/MOL
REMARK 927      BINDING AFFINITY PREDICTED BY RF-SCORE:    0.00 PKD
ROOT
HETATM    1  C   UNK A   1      -8.591  16.850  68.169  1.00  0.00    -0.221 C  
HETATM    2  C   UNK A   1      -8.134  15.646  68.987  1.00  0.00    -0.222 C  
ENDROOT
BRANCH   1   3
HETATM    3  C   UNK A   1      -7.593  17.083  67.000  1.00  0.00    -0.189 C  
ATOM      4  CA  PRO A   2      -7.840  19.623  67.226  1.00  0.00    -0.268 C  
ATOM      5  N   PRO A   2      -7.404  18.383  66.555  1.00  0.00    -0.222 N  
ATOM      6  C   PRO A   2      -9.265  20.033  66.826  1.00  0.00    -0.382 C  
HETATM    7  O   UNK A   1      -7.014  16.132  66.466  1.00  0.00    -0.191 OA 
ATOM      8  CB  PRO A   2      -6.845  20.695  66.763  1.00  0.00    -0.343 C  
ATOM      9  O   PRO A   2      -9.839  19.210  65.918  1.00  0.00    -0.453 OA 
ATOM     10  CD  PRO A   2      -6.434  18.692  65.515  1.00  0.00    -0.286 C  
ATOM     11  OXT PRO A   2      -9.837  21.012  67.278  1.00  0.00    -0.386 OA 
ATOM     12  CG  PRO A   2      -5.739  19.935  66.036  1.00  0.00    -0.181 C  
ENDBRANCH   1   3
BRANCH   1  13
HETATM   13  N   UNK A   1      -9.938  16.661  67.578  1.00  0.00    -0.258 NA 
HETATM   14  H   UNK A   1     -10.019  17.198  66.714  1.00  0.00     0.000 HD 
BRANCH  13  15
HETATM   15  C   UNK A   1     -10.343  15.238  67.338  1.00  0.00    -0.256 C  
HETATM   16  O   UNK A   1     -10.607  13.999  65.224  1.00  0.00    -0.321 OA 
HETATM   17  O   UNK A   1     -10.547  16.258  65.152  1.00  0.00    -0.576 OA 
HETATM   18  C   UNK A   1     -10.516  15.068  65.807  1.00  0.00    -0.337 C  
BRANCH  15  19
HETATM   19  C   UNK A   1     -11.643  14.829  68.067  1.00  0.00    -0.367 C  
BRANCH  19  20
HETATM   20  C   UNK A   1     -11.402  13.863  69.239  1.00  0.00    -0.321 C  
BRANCH  20  21
HETATM   21  C   UNK A   1     -11.941  14.353  70.563  1.00  0.00    -0.395 A  
HETATM   22  C   UNK A   1     -12.880  15.177  73.080  1.00  0.00    -0.606 A  
HETATM   23  C   UNK A   1     -12.894  13.595  71.253  1.00  0.00    -0.424 A  
HETATM   24  C   UNK A   1     -13.361  14.003  72.506  1.00  0.00    -0.639 A  
HETATM   25  C   UNK A   1     -11.936  15.944  72.402  1.00  0.00    -0.620 A  
HETATM   26  C   UNK A   1     -11.464  15.537  71.151  1.00  0.00    -0.442 A  
ENDBRANCH  20  21
ENDBRANCH  19  20
ENDBRANCH  15  19
ENDBRANCH  13  15
ENDBRANCH   1  13
TORSDOF 6
ENDMDL
MODEL        4
REMARK 921   NORMALIZED FREE ENERGY PREDICTED BY IDOCK:   -6.33 KCAL/MOL
REMARK 922        TOTAL FREE ENERGY PREDICTED BY IDOCK:  -10.26 KCAL/MOL
REMARK 923 INTER-LIGAND FREE ENERGY PREDICTED BY IDOCK:   -9.15 KCAL/MOL
REMARK 924 INTRA-LIGAND FREE ENERGY PREDICTED BY IDOCK:   -1.10 KCAL/MOL
REMARK 927      BINDING AFFINITY PREDICTED BY RF-SCORE:    0.00 PKD
ROOT
HETATM    1  C   UNK A   1     -10.602  14.935  65.740  1.00  0.00    -0.331 C  
HETATM    2  C   UNK A   1     -10.354  14.142  64.459  1.00  0.00    -0.133 C  
ENDROOT
BRANCH   1   3
HETATM    3  C   UNK A   1     -10.834  16.429  65.379  1.00  0.00    -0.239 C  
ATOM      4  CA  PRO A   2      -9.328  17.184  67.309  1.00  0.00    -0.242 C  
ATOM      5  N   PRO A   2     -10.311  17.393  66.229  1.00  0.00    -0.347 N  
ATOM      6  C   PRO A   2      -9.997  16.827  68.646  1.00  0.00    -0.276 C  
HETATM    7  O   UNK A   1     -11.493  16.743  64.383  1.00  0.00    -1.024 OA 
ATOM      8  CB  PRO A   2      -8.593  18.524  67.441  1.00  0.00    -0.266 C  
ATOM      9  O   PRO A   2     -11.349  16.804  68.594  1.00  0.00    -0.253 OA 
ATOM     10  CD  PRO A   2     -10.422  18.811  65.922  1.00  0.00    -0.376 C  
ATOM     11  OXT PRO A   2      -9.374  16.588  69.668  1.00  0.00    -0.012 OA 
ATOM     12  CG  PRO A   2      -9.043  19.353  66.242  1.00  0.00    -0.380 C  
ENDBRANCH   1   3
BRANCH   1  13
HETATM   13  N   UNK A   1     -11.795  14.462  66.483  1.00  0.00    -0.396 NA 
HETATM   14  H   UNK A   1     -12.500  14.120  65.830  1.00  0.00     0.000 HD 
BRANCH  13  15
HETATM   15  C   UNK A   1     -11.529  13.430  67.538  1.00  0.00    -0.323 C  
HETATM   16  O   UNK A   1     -11.442  10.973  67.367  1.00  0.00    -0.475 OA 
HETATM   17  O   UNK A   1     -12.429  12.138  65.699  1.00  0.00    -0.501 OA 
HETATM   18  C   UNK A   1     -11.782  12.045  66.890  1.00  0.00    -0.266 C  
BRANCH  15  19
HETATM   19  C   UNK A   1     -12.405  13.592  68.802  1.00  0.00    -0.012 C  
BRANCH  19  20
HETATM   20  C   UNK A   1     -11.583  13.740  70.093  1.00  0.00    -0.230 C  
BRANCH  20  21
HETATM   21  C   UNK A   1     -12.275  14.534  71.177  1.00  0.00    -0.411 A  
HETATM   22  C   UNK A   1     -13.591  15.906  73.246  1.00  0.00    -0.512 A  
HETATM   23  C   UNK A   1     -13.672  14.543  71.252  1.00  0.00    -0.407 A  
HETATM   24  C   UNK A   1     -14.328  15.224  72.281  1.00  0.00    -0.586 A  
HETATM   25  C   UNK A   1     -12.200  15.909  73.180  1.00  0.00    -0.622 A  
HETATM   26  C   UNK A   1     -11.540  15.226  72.154  1.00  0.00    -0.535 A  
ENDBRANCH  20  21
ENDBRANCH  19  20
ENDBRANCH  15  19
ENDBRANCH  13  15
ENDBRANCH   1  13
TORSDOF 6
ENDMDL
MODEL        5
REMARK 921   NORMALIZED FREE ENERGY PREDICTED BY IDOCK:   -6.30 KCAL/MOL
REMARK 922        TOTAL FREE ENERGY PREDICTED BY IDOCK:  -10.22 KCAL/MOL
REMARK 923 INTER-LIGAND FREE ENERGY PREDICTED BY IDOCK:   -9.10 KCAL/MOL
REMARK 924 INTRA-LIGAND FREE ENERGY PREDICTED BY IDOCK:   -1.12 KCAL/MOL
REMARK 927      BINDING AFFINITY PREDICTED BY RF-SCORE:    0.00 PKD
ROOT
HETATM    1  C   UNK A   1     -12.046  10.182  71.230  1.00  0.00    -0.394 C  
HETATM    2  C   UNK A   1     -13.282  10.978  71.642  1.00  0.00    -0.461 C  
ENDROOT
BRANCH   1   3
HETATM    3  C   UNK A   1     -12.220   8.702  71.673  1.00  0.00    -0.333 C  
ATOM      4  CA  PRO A   2      -9.805   8.619  72.523  1.00  0.00    -0.198 C  
ATOM      5  N   PRO A   2     -11.103   8.028  72.143  1.00  0.00    -0.286 N  
ATOM      6  C   PRO A   2      -8.842   8.729  71.332  1.00  0.00    -0.225 C  
HETATM    7  O   UNK A   1     -13.315   8.139  71.577  1.00  0.00    -0.325 OA 
ATOM      8  CB  PRO A   2      -9.224   7.658  73.570  1.00  0.00    -0.331 C  
ATOM      9  O   PRO A   2      -9.343   8.240  70.174  1.00  0.00    -0.157 OA 
ATOM     10  CD  PRO A   2     -11.198   6.665  72.645  1.00  0.00    -0.249 C  
ATOM     11  OXT PRO A   2      -7.723   9.210  71.412  1.00  0.00    -0.301 OA 
ATOM     12  CG  PRO A   2     -10.356   6.692  73.905  1.00  0.00    -0.385 C  
ENDBRANCH   1   3
BRANCH   1  13
HETATM   13  N   UNK A   1     -11.825  10.188  69.763  1.00  0.00    -0.453 NA 
HETATM   14  H   UNK A   1     -12.405   9.476  69.319  1.00  0.00     0.000 HD 
BRANCH  13  15
HETATM   15  C   UNK A   1     -12.029  11.511  69.087  1.00  0.00    -0.320 C  
HETATM   16  O   UNK A   1     -11.923  12.103  66.697  1.00  0.00    -0.616 OA 
HETATM   17  O   UNK A   1     -10.999  10.151  67.368  1.00  0.00    -0.292 OA 
HETATM   18  C   UNK A   1     -11.658  11.318  67.594  1.00  0.00    -0.210 C  
BRANCH  15  19
HETATM   19  C   UNK A   1     -11.191  12.658  69.697  1.00  0.00    -0.077 C  
BRANCH  19  20
HETATM   20  C   UNK A   1     -11.819  14.046  69.484  1.00  0.00    -0.378 C  
BRANCH  20  21
HETATM   21  C   UNK A   1     -12.333  14.691  70.750  1.00  0.00    -0.398 A  
HETATM   22  C   UNK A   1     -13.322  15.781  73.144  1.00  0.00    -0.685 A  
HETATM   23  C   UNK A   1     -13.711  14.771  70.983  1.00  0.00    -0.322 A  
HETATM   24  C   UNK A   1     -14.204  15.312  72.173  1.00  0.00    -0.667 A  
HETATM   25  C   UNK A   1     -11.949  15.713  72.922  1.00  0.00    -0.588 A  
HETATM   26  C   UNK A   1     -11.451  15.169  71.734  1.00  0.00    -0.452 A  
ENDBRANCH  20  21
ENDBRANCH  19  20
ENDBRANCH  15  19
ENDBRANCH  13  15
ENDBRANCH   1  13
TORSDOF 6
ENDMDL
MODEL        6
REMARK 921   NORMALIZED FREE ENERGY PREDICTED BY IDOCK:   -6.30 KCAL/MOL
REMARK 922        TOTAL FREE ENERGY PREDICTED BY IDOCK:  -10.22 KCAL/MOL
REMARK 923 INTER-LIGAND FREE ENERGY PREDICTED BY IDOCK:   -9.28 KCAL/MOL
REMARK 924 INTRA-LIGAND FREE ENERGY PREDICTED BY IDOCK:   -0.95 KCAL/MOL
REMARK 927      BINDING AFFINITY PREDICTED BY RF-SCORE:    0.00 PKD
ROOT
HETATM    1  C   UNK A   1      -9.990  13.542  67.367  1.00  0.00    -0.234 C  
HETATM    2  C   UNK A   1      -8.711  14.284  66.990  1.00  0.00    -0.231 C  
ENDROOT
BRANCH   1   3
HETATM    3  C   UNK A   1      -9.879  12.063  66.902  1.00  0.00    -0.204 C  
ATOM      4  CA  PRO A   2     -10.528  12.713  64.510  1.00  0.00    -0.355 C  
ATOM      5  N   PRO A   2     -10.265  11.758  65.604  1.00  0.00    -0.236 N  
ATOM      6  C   PRO A   2     -11.988  13.191  64.491  1.00  0.00    -0.389 C  
HETATM    7  O   UNK A   1      -9.491  11.184  67.678  1.00  0.00    -0.163 OA 
ATOM      8  CB  PRO A   2     -10.222  11.935  63.223  1.00  0.00    -0.428 C  
ATOM      9  O   PRO A   2     -12.762  12.630  65.449  1.00  0.00    -0.635 OA 
ATOM     10  CD  PRO A   2     -10.123  10.412  65.070  1.00  0.00    -0.309 C  
ATOM     11  OXT PRO A   2     -12.421  14.001  63.687  1.00  0.00    -0.803 OA 
ATOM     12  CG  PRO A   2      -9.559  10.639  63.682  1.00  0.00    -0.360 C  
ENDBRANCH   1   3
BRANCH   1  13
HETATM   13  N   UNK A   1     -10.236  13.535  68.831  1.00  0.00    -0.420 NA 
HETATM   14  H   UNK A   1      -9.616  14.201  69.292  1.00  0.00     0.000 HD 
BRANCH  13  15
HETATM   15  C   UNK A   1     -11.655  13.782  69.246  1.00  0.00    -0.312 C  
HETATM   16  O   UNK A   1     -12.723  15.832  70.101  1.00  0.00    -0.302 OA 
HETATM   17  O   UNK A   1     -10.466  15.696  70.131  1.00  0.00    -0.305 OA 
HETATM   18  C   UNK A   1     -11.704  15.201  69.869  1.00  0.00    -0.315 C  
BRANCH  15  19
HETATM   19  C   UNK A   1     -12.198  12.742  70.254  1.00  0.00    -0.351 C  
BRANCH  19  20
HETATM   20  C   UNK A   1     -12.278  11.321  69.672  1.00  0.00    -0.340 C  
BRANCH  20  21
HETATM   21  C   UNK A   1     -11.985  10.228  70.673  1.00  0.00    -0.436 A  
HETATM   22  C   UNK A   1     -11.492   8.116  72.460  1.00  0.00    -0.470 A  
HETATM   23  C   UNK A   1     -13.030   9.652  71.405  1.00  0.00    -0.474 A  
HETATM   24  C   UNK A   1     -12.787   8.601  72.293  1.00  0.00    -0.438 A  
HETATM   25  C   UNK A   1     -10.442   8.683  71.743  1.00  0.00    -0.394 A  
HETATM   26  C   UNK A   1     -10.682   9.732  70.851  1.00  0.00    -0.375 A  
ENDBRANCH  20  21
ENDBRANCH  19  20
ENDBRANCH  15  19
ENDBRANCH  13  15
ENDBRANCH   1  13
TORSDOF 6
ENDMDL
MODEL        7
REMARK 921   NORMALIZED FREE ENERGY PREDICTED BY IDOCK:   -6.30 KCAL/MOL
REMARK 922        TOTAL FREE ENERGY PREDICTED BY IDOCK:  -10.22 KCAL/MOL
REMARK 923 INTER-LIGAND FREE ENERGY PREDICTED BY IDOCK:   -8.82 KCAL/MOL
REMARK 924 INTRA-LIGAND FREE ENERGY PREDICTED BY IDOCK:   -1.39 KCAL/MOL
REMARK 927      BINDING AFFINITY PREDICTED BY RF-SCORE:    0.00 PKD
ROOT
HETATM    1  C   UNK A   1     -11.432  14.088  68.907  1.00  0.00    -0.294 C  
HETATM    2  C   UNK A   1     -11.528  15.393  69.693  1.00  0.00    -0.331 C  
ENDROOT
BRANCH   1   3
HETATM    3  C   UNK A   1     -11.964  12.922  69.787  1.00  0.00    -0.296 C  
ATOM      4  CA  PRO A   2     -10.249  11.309  68.775  1.00  0.00    -0.202 C  
ATOM      5  N   PRO A   2     -11.444  11.654  69.569  1.00  0.00    -0.291 N  
ATOM      6  C   PRO A   2     -10.580  11.079  67.293  1.00  0.00    -0.245 C  
HETATM    7  O   UNK A   1     -12.846  13.117  70.629  1.00  0.00    -0.163 OA 
ATOM      8  CB  PRO A   2      -9.723  10.008  69.395  1.00  0.00    -0.240 C  
ATOM      9  O   PRO A   2     -11.895  11.201  66.998  1.00  0.00    -0.411 OA 
ATOM     10  CD  PRO A   2     -11.836  10.525  70.399  1.00  0.00    -0.340 C  
ATOM     11  OXT PRO A   2      -9.740  10.807  66.449  1.00  0.00    -0.187 OA 
ATOM     12  CG  PRO A   2     -10.524   9.819  70.680  1.00  0.00    -0.358 C  
ENDBRANCH   1   3
BRANCH   1  13
HETATM   13  N   UNK A   1     -12.235  14.112  67.660  1.00  0.00    -0.574 NA 
HETATM   14  H   UNK A   1     -13.178  14.447  67.858  1.00  0.00     0.000 HD 
BRANCH  13  15
HETATM   15  C   UNK A   1     -11.640  14.893  66.526  1.00  0.00    -0.252 C  
HETATM   16  O   UNK A   1     -12.315  15.016  64.159  1.00  0.00    -0.659 OA 
HETATM   17  O   UNK A   1     -13.093  13.305  65.417  1.00  0.00    -0.606 OA 
HETATM   18  C   UNK A   1     -12.365  14.438  65.234  1.00  0.00    -0.371 C  
BRANCH  15  19
HETATM   19  C   UNK A   1     -10.113  14.701  66.373  1.00  0.00    -0.288 C  
BRANCH  19  20
HETATM   20  C   UNK A   1      -9.397  15.954  65.840  1.00  0.00    -0.353 C  
BRANCH  20  21
HETATM   21  C   UNK A   1      -9.638  17.198  66.662  1.00  0.00    -0.279 A  
HETATM   22  C   UNK A   1      -9.974  19.550  68.163  1.00  0.00    -0.522 A  
HETATM   23  C   UNK A   1      -8.973  17.369  67.882  1.00  0.00    -0.251 A  
HETATM   24  C   UNK A   1      -9.138  18.539  68.629  1.00  0.00    -0.325 A  
HETATM   25  C   UNK A   1     -10.647  19.391  66.954  1.00  0.00    -0.581 A  
HETATM   26  C   UNK A   1     -10.481  18.224  66.202  1.00  0.00    -0.403 A  
ENDBRANCH  20  21
ENDBRANCH  19  20
ENDBRANCH  15  19
ENDBRANCH  13  15
ENDBRANCH   1  13
TORSDOF 6
ENDMDL
MODEL        8
REMARK 921   NORMALIZED FREE ENERGY PREDICTED BY IDOCK:   -6.27 KCAL/MOL
REMARK 922        TOTAL FREE ENERGY PREDICTED BY IDOCK:  -10.19 KCAL/MOL
REMARK 923 INTER-LIGAND FREE ENERGY PREDICTED BY IDOCK:   -8.70 KCAL/MOL
REMARK 924 INTRA-LIGAND FREE ENERGY PREDICTED BY IDOCK:   -1.49 KCAL/MOL
REMARK 927      BINDING AFFINITY PREDICTED BY RF-SCORE:    0.00 PKD
ROOT
HETATM    1  C   UNK A   1      -9.124  13.538  67.287  1.00  0.00    -0.225 C  
HETATM    2  C   UNK A   1      -7.726  14.054  67.618  1.00  0.00    -0.188 C  
ENDROOT
BRANCH   1   3
HETATM    3  C   UNK A   1      -9.006  12.168  66.564  1.00  0.00    -0.179 C  
ATOM      4  CA  PRO A   2     -10.812  12.844  64.878  1.00  0.00    -0.308 C  
ATOM      5  N   PRO A   2      -9.906  11.890  65.546  1.00  0.00    -0.233 N  
ATOM      6  C   PRO A   2     -12.161  12.973  65.601  1.00  0.00    -0.466 C  
HETATM    7  O   UNK A   1      -8.156  11.342  66.911  1.00  0.00    -0.142 OA 
ATOM      8  CB  PRO A   2     -11.033  12.265  63.474  1.00  0.00    -0.521 C  
ATOM      9  O   PRO A   2     -12.281  12.173  66.686  1.00  0.00    -0.566 OA 
ATOM     10  CD  PRO A   2      -9.816  10.661  64.772  1.00  0.00    -0.310 C  
ATOM     11  OXT PRO A   2     -13.052  13.724  65.237  1.00  0.00    -0.756 OA 
ATOM     12  CG  PRO A   2     -10.027  11.124  63.344  1.00  0.00    -0.430 C  
ENDBRANCH   1   3
BRANCH   1  13
HETATM   13  N   UNK A   1      -9.959  13.337  68.497  1.00  0.00    -0.334 NA 
HETATM   14  H   UNK A   1      -9.429  12.834  69.208  1.00  0.00     0.000 HD 
BRANCH  13  15
HETATM   15  C   UNK A   1     -10.553  14.583  69.084  1.00  0.00    -0.234 C  
HETATM   16  O   UNK A   1     -12.218  14.852  70.881  1.00  0.00    -0.283 OA 
HETATM   17  O   UNK A   1     -12.010  12.827  69.895  1.00  0.00    -0.321 OA 
HETATM   18  C   UNK A   1     -11.678  14.135  70.052  1.00  0.00    -0.291 C  
BRANCH  15  19
HETATM   19  C   UNK A   1     -11.120  15.559  68.028  1.00  0.00    -0.322 C  
BRANCH  19  20
HETATM   20  C   UNK A   1     -11.119  17.025  68.497  1.00  0.00    -0.156 C  
BRANCH  20  21
HETATM   21  C   UNK A   1     -10.267  17.942  67.652  1.00  0.00    -0.369 A  
HETATM   22  C   UNK A   1      -8.652  19.709  66.180  1.00  0.00    -0.357 A  
HETATM   23  C   UNK A   1     -10.680  19.259  67.416  1.00  0.00    -0.594 A  
HETATM   24  C   UNK A   1      -9.877  20.139  66.685  1.00  0.00    -0.588 A  
HETATM   25  C   UNK A   1      -8.232  18.400  66.402  1.00  0.00    -0.280 A  
HETATM   26  C   UNK A   1      -9.031  17.518  67.135  1.00  0.00    -0.245 A  
ENDBRANCH  20  21
ENDBRANCH  19  20
ENDBRANCH  15  19
ENDBRANCH  13  15
ENDBRANCH   1  13
TORSDOF 6
ENDMDL
MODEL        9
REMARK 921   NORMALIZED FREE ENERGY PREDICTED BY IDOCK:   -6.21 KCAL/MOL
REMARK 922        TOTAL FREE ENERGY PREDICTED BY IDOCK:  -10.10 KCAL/MOL
REMARK 923 INTER-LIGAND FREE ENERGY PREDICTED BY IDOCK:   -8.89 KCAL/MOL
REMARK 924 INTRA-LIGAND FREE ENERGY PREDICTED BY IDOCK:   -1.21 KCAL/MOL
REMARK 927      BINDING AFFINITY PREDICTED BY RF-SCORE:    0.00 PKD
ROOT
HETATM    1  C   UNK A   1     -11.536  12.649  66.126  1.00  0.00    -0.393 C  
HETATM    2  C   UNK A   1     -12.364  13.237  64.986  1.00  0.00    -0.499 C  
ENDROOT
BRANCH   1   3
HETATM    3  C   UNK A   1     -10.534  11.611  65.549  1.00  0.00    -0.273 C  
ATOM      4  CA  PRO A   2     -10.840  10.101  67.596  1.00  0.00    -0.290 C  
ATOM      5  N   PRO A   2     -10.181  10.533  66.348  1.00  0.00    -0.234 N  
ATOM      6  C   PRO A   2     -10.260  10.799  68.835  1.00  0.00    -0.203 C  
HETATM    7  O   UNK A   1     -10.045  11.763  64.425  1.00  0.00    -0.262 OA 
ATOM      8  CB  PRO A   2     -10.575   8.592  67.682  1.00  0.00    -0.268 C  
ATOM      9  O   PRO A   2      -9.242  11.647  68.560  1.00  0.00    -0.193 OA 
ATOM     10  CD  PRO A   2      -9.307   9.481  65.854  1.00  0.00    -0.226 C  
ATOM     11  OXT PRO A   2     -10.671  10.611  69.969  1.00  0.00    -0.251 OA 
ATOM     12  CG  PRO A   2      -9.979   8.208  66.330  1.00  0.00    -0.238 C  
ENDBRANCH   1   3
BRANCH   1  13
HETATM   13  N   UNK A   1     -10.750  13.678  66.850  1.00  0.00    -0.274 NA 
HETATM   14  H   UNK A   1      -9.808  13.734  66.463  1.00  0.00     0.000 HD 
BRANCH  13  15
HETATM   15  C   UNK A   1     -11.367  15.044  66.899  1.00  0.00    -0.302 C  
HETATM   16  O   UNK A   1     -10.660  17.143  65.819  1.00  0.00    -0.405 OA 
HETATM   17  O   UNK A   1      -9.167  15.451  65.972  1.00  0.00    -0.316 OA 
HETATM   18  C   UNK A   1     -10.389  16.008  66.179  1.00  0.00    -0.328 C  
BRANCH  15  19
HETATM   19  C   UNK A   1     -11.649  15.548  68.333  1.00  0.00    -0.368 C  
BRANCH  19  20
HETATM   20  C   UNK A   1     -11.396  14.480  69.411  1.00  0.00    -0.314 C  
BRANCH  20  21
HETATM   21  C   UNK A   1     -11.990  14.812  70.760  1.00  0.00    -0.371 A  
HETATM   22  C   UNK A   1     -13.026  15.343  73.317  1.00  0.00    -0.648 A  
HETATM   23  C   UNK A   1     -12.890  13.927  71.364  1.00  0.00    -0.439 A  
HETATM   24  C   UNK A   1     -13.405  14.189  72.636  1.00  0.00    -0.638 A  
HETATM   25  C   UNK A   1     -12.136  16.236  72.725  1.00  0.00    -0.637 A  
HETATM   26  C   UNK A   1     -11.615  15.975  71.454  1.00  0.00    -0.520 A  
ENDBRANCH  20  21
ENDBRANCH  19  20
ENDBRANCH  15  19
ENDBRANCH  13  15
ENDBRANCH   1  13
TORSDOF 6
ENDMDL
MODEL       10
REMARK 921   NORMALIZED FREE ENERGY PREDICTED BY IDOCK:   -6.16 KCAL/MOL
REMARK 922        TOTAL FREE ENERGY PREDICTED BY IDOCK:  -10.03 KCAL/MOL
REMARK 923 INTER-LIGAND FREE ENERGY PREDICTED BY IDOCK:   -8.58 KCAL/MOL
REMARK 924 INTRA-LIGAND FREE ENERGY PREDICTED BY IDOCK:   -1.45 KCAL/MOL
REMARK 927      BINDING AFFINITY PREDICTED BY RF-SCORE:    0.00 PKD
ROOT
HETATM    1  C   UNK A   1     -11.432  13.844  68.727  1.00  0.00    -0.292 C  
HETATM    2  C   UNK A   1     -11.790  15.043  69.600  1.00  0.00    -0.358 C  
ENDROOT
BRANCH   1   3
HETATM    3  C   UNK A   1     -11.709  12.535  69.518  1.00  0.00    -0.309 C  
ATOM      4  CA  PRO A   2      -9.657  11.409  68.475  1.00  0.00    -0.189 C  
ATOM      5  N   PRO A   2     -10.915  11.430  69.245  1.00  0.00    -0.238 N  
ATOM      6  C   PRO A   2      -9.897  11.208  66.971  1.00  0.00    -0.185 C  
HETATM    7  O   UNK A   1     -12.630  12.476  70.338  1.00  0.00    -0.157 OA 
ATOM      8  CB  PRO A   2      -8.868  10.219  69.036  1.00  0.00    -0.170 C  
ATOM      9  O   PRO A   2     -11.199  11.055  66.638  1.00  0.00    -0.237 OA 
ATOM     10  CD  PRO A   2     -11.063  10.191  69.994  1.00  0.00    -0.308 C  
ATOM     11  OXT PRO A   2      -8.999  11.184  66.143  1.00  0.00    -0.185 OA 
ATOM     12  CG  PRO A   2      -9.634   9.776  70.279  1.00  0.00    -0.264 C  
ENDBRANCH   1   3
BRANCH   1  13
HETATM   13  N   UNK A   1     -12.228  13.790  67.476  1.00  0.00    -0.439 NA 
HETATM   14  H   UNK A   1     -13.212  13.965  67.681  1.00  0.00     0.000 HD 
BRANCH  13  15
HETATM   15  C   UNK A   1     -11.763  14.698  66.377  1.00  0.00    -0.322 C  
HETATM   16  O   UNK A   1     -12.492  14.846  64.028  1.00  0.00    -0.807 OA 
HETATM   17  O   UNK A   1     -13.012  12.987  65.205  1.00  0.00    -0.697 OA 
HETATM   18  C   UNK A   1     -12.445  14.214  65.072  1.00  0.00    -0.419 C  
BRANCH  15  19
HETATM   19  C   UNK A   1     -10.228  14.721  66.196  1.00  0.00    -0.310 C  
BRANCH  19  20
HETATM   20  C   UNK A   1      -9.705  16.051  65.628  1.00  0.00    -0.273 C  
BRANCH  20  21
HETATM   21  C   UNK A   1      -9.955  17.244  66.521  1.00  0.00    -0.310 A  
HETATM   22  C   UNK A   1     -10.302  19.487  68.177  1.00  0.00    -0.550 A  
HETATM   23  C   UNK A   1      -9.526  17.221  67.853  1.00  0.00    -0.266 A  
HETATM   24  C   UNK A   1      -9.697  18.337  68.678  1.00  0.00    -0.379 A  
HETATM   25  C   UNK A   1     -10.739  19.521  66.855  1.00  0.00    -0.576 A  
HETATM   26  C   UNK A   1     -10.566  18.409  66.026  1.00  0.00    -0.339 A  
ENDBRANCH  20  21
ENDBRANCH  19  20
ENDBRANCH  15  19
ENDBRANCH  13  15
ENDBRANCH   1  13
TORSDOF 6
ENDMDL
MODEL       11
REMARK 921   NORMALIZED FREE ENERGY PREDICTED BY IDOCK:   -6.11 KCAL/MOL
REMARK 922        TOTAL FREE ENERGY PREDICTED BY IDOCK:   -9.97 KCAL/MOL
REMARK 923 INTER-LIGAND FREE ENERGY PREDICTED BY IDOCK:   -8.86 KCAL/MOL
REMARK 924 INTRA-LIGAND FREE ENERGY PREDICTED BY IDOCK:   -1.11 KCAL/MOL
REMARK 927      BINDING AFFINITY PREDICTED BY RF-SCORE:    0.00 PKD
ROOT
HETATM    1  C   UNK A   1      -9.776  12.606  67.539  1.00  0.00    -0.196 C  
HETATM    2  C   UNK A   1      -8.459  13.366  67.418  1.00  0.00    -0.197 C  
ENDROOT
BRANCH   1   3
HETATM    3  C   UNK A   1      -9.716  11.333  66.648  1.00  0.00    -0.196 C  
ATOM      4  CA  PRO A   2     -10.331  12.696  64.568  1.00  0.00    -0.344 C  
ATOM      5  N   PRO A   2     -10.106  11.447  65.322  1.00  0.00    -0.254 N  
ATOM      6  C   PRO A   2     -11.773  13.208  64.703  1.00  0.00    -0.361 C  
HETATM    7  O   UNK A   1      -9.362  10.248  67.121  1.00  0.00    -0.151 OA 
ATOM      8  CB  PRO A   2     -10.047  12.332  63.105  1.00  0.00     0.008 C  
ATOM      9  O   PRO A   2     -12.570  12.412  65.452  1.00  0.00    -0.637 OA 
ATOM     10  CD  PRO A   2     -10.009  10.321  64.406  1.00  0.00    -0.261 C  
ATOM     11  OXT PRO A   2     -12.174  14.237  64.183  1.00  0.00    -0.550 OA 
ATOM     12  CG  PRO A   2      -9.431  10.936  63.147  1.00  0.00    -0.361 C  
ENDBRANCH   1   3
BRANCH   1  13
HETATM   13  N   UNK A   1     -10.059  12.169  68.928  1.00  0.00    -0.418 NA 
HETATM   14  H   UNK A   1      -9.208  12.218  69.489  1.00  0.00     0.000 HD 
BRANCH  13  15
HETATM   15  C   UNK A   1     -11.172  12.898  69.619  1.00  0.00    -0.002 C  
HETATM   16  O   UNK A   1     -12.950  12.045  71.096  1.00  0.00    -0.287 OA 
HETATM   17  O   UNK A   1     -11.821  10.573  69.804  1.00  0.00    -0.265 OA 
HETATM   18  C   UNK A   1     -12.086  11.824  70.262  1.00  0.00    -0.342 C  
BRANCH  15  19
HETATM   19  C   UNK A   1     -12.000  13.805  68.679  1.00  0.00    -0.401 C  
BRANCH  19  20
HETATM   20  C   UNK A   1     -11.956  15.290  69.077  1.00  0.00    -0.304 C  
BRANCH  20  21
HETATM   21  C   UNK A   1     -12.435  15.565  70.483  1.00  0.00    -0.472 A  
HETATM   22  C   UNK A   1     -13.326  15.958  73.119  1.00  0.00    -0.681 A  
HETATM   23  C   UNK A   1     -13.756  15.273  70.842  1.00  0.00    -0.363 A  
HETATM   24  C   UNK A   1     -14.200  15.467  72.153  1.00  0.00    -0.660 A  
HETATM   25  C   UNK A   1     -12.011  16.259  72.775  1.00  0.00    -0.636 A  
HETATM   26  C   UNK A   1     -11.561  16.063  71.466  1.00  0.00    -0.529 A  
ENDBRANCH  20  21
ENDBRANCH  19  20
ENDBRANCH  15  19
ENDBRANCH  13  15
ENDBRANCH   1  13
TORSDOF 6
ENDMDL
MODEL       12
REMARK 921   NORMALIZED FREE ENERGY PREDICTED BY IDOCK:   -6.07 KCAL/MOL
REMARK 922        TOTAL FREE ENERGY PREDICTED BY IDOCK:   -9.92 KCAL/MOL
REMARK 923 INTER-LIGAND FREE ENERGY PREDICTED BY IDOCK:   -8.47 KCAL/MOL
REMARK 924 INTRA-LIGAND FREE ENERGY PREDICTED BY IDOCK:   -1.45 KCAL/MOL
REMARK 927      BINDING AFFINITY PREDICTED BY RF-SCORE:    0.00 PKD
ROOT
HETATM    1  C   UNK A   1     -11.420  15.432  68.404  1.00  0.00    -0.355 C  
HETATM    2  C   UNK A   1     -12.101  14.830  69.630  1.00  0.00    -0.346 C  
ENDROOT
BRANCH   1   3
HETATM    3  C   UNK A   1     -10.176  16.247  68.859  1.00  0.00    -0.256 C  
ATOM      4  CA  PRO A   2     -10.673  18.070  67.129  1.00  0.00    -0.262 C  
ATOM      5  N   PRO A   2      -9.841  17.381  68.135  1.00  0.00    -0.287 N  
ATOM      6  C   PRO A   2     -10.474  17.499  65.717  1.00  0.00    -0.207 C  
HETATM    7  O   UNK A   1      -9.492  15.872  69.816  1.00  0.00    -0.221 OA 
ATOM      8  CB  PRO A   2     -10.210  19.532  67.165  1.00  0.00    -0.542 C  
ATOM      9  O   PRO A   2      -9.559  16.505  65.651  1.00  0.00    -0.511 OA 
ATOM     10  CD  PRO A   2      -8.736  18.237  68.540  1.00  0.00    -0.308 C  
ATOM     11  OXT PRO A   2     -11.080  17.901  64.736  1.00  0.00    -0.785 OA 
ATOM     12  CG  PRO A   2      -9.295  19.637  68.382  1.00  0.00    -0.425 C  
ENDBRANCH   1   3
BRANCH   1  13
HETATM   13  N   UNK A   1     -10.955  14.401  67.444  1.00  0.00    -0.292 NA 
HETATM   14  H   UNK A   1     -10.091  14.705  66.996  1.00  0.00     0.000 HD 
BRANCH  13  15
HETATM   15  C   UNK A   1     -10.783  13.024  68.012  1.00  0.00    -0.232 C  
HETATM   16  O   UNK A   1      -8.726  11.779  68.555  1.00  0.00    -0.163 OA 
HETATM   17  O   UNK A   1      -8.572  13.579  67.195  1.00  0.00    -0.205 OA 
HETATM   18  C   UNK A   1      -9.267  12.703  67.967  1.00  0.00    -0.208 C  
BRANCH  15  19
HETATM   19  C   UNK A   1     -11.578  11.935  67.255  1.00  0.00    -0.364 C  
BRANCH  19  20
HETATM   20  C   UNK A   1     -11.660  12.188  65.740  1.00  0.00    -0.414 C  
BRANCH  20  21
HETATM   21  C   UNK A   1     -10.657  11.402  64.929  1.00  0.00    -0.368 A  
HETATM   22  C   UNK A   1      -8.711  10.030  63.436  1.00  0.00    -0.226 A  
HETATM   23  C   UNK A   1     -10.308  11.832  63.643  1.00  0.00    -0.476 A  
HETATM   24  C   UNK A   1      -9.339  11.151  62.900  1.00  0.00    -0.385 A  
HETATM   25  C   UNK A   1      -9.053   9.588  64.712  1.00  0.00    -0.271 A  
HETATM   26  C   UNK A   1     -10.019  10.268  65.459  1.00  0.00    -0.364 A  
ENDBRANCH  20  21
ENDBRANCH  19  20
ENDBRANCH  15  19
ENDBRANCH  13  15
ENDBRANCH   1  13
TORSDOF 6
ENDMDL
MODEL       13
REMARK 921   NORMALIZED FREE ENERGY PREDICTED BY IDOCK:   -6.06 KCAL/MOL
REMARK 922        TOTAL FREE ENERGY PREDICTED BY IDOCK:   -9.90 KCAL/MOL
REMARK 923 INTER-LIGAND FREE ENERGY PREDICTED BY IDOCK:   -9.64 KCAL/MOL
REMARK 924 INTRA-LIGAND FREE ENERGY PREDICTED BY IDOCK:   -0.26 KCAL/MOL
REMARK 927      BINDING AFFINITY PREDICTED BY RF-SCORE:    0.00 PKD
ROOT
HETATM    1  C   UNK A   1     -10.627  15.670  66.564  1.00  0.00    -0.307 C  
HETATM    2  C   UNK A   1     -10.911  16.371  65.238  1.00  0.00    -0.271 C  
ENDROOT
BRANCH   1   3
HETATM    3  C   UNK A   1     -10.706  16.709  67.718  1.00  0.00    -0.327 C  
ATOM      4  CA  PRO A   2      -9.203  18.334  66.429  1.00  0.00    -0.263 C  
ATOM      5  N   PRO A   2      -9.921  17.849  67.623  1.00  0.00    -0.310 N  
ATOM      6  C   PRO A   2      -7.791  17.741  66.315  1.00  0.00    -0.264 C  
HETATM    7  O   UNK A   1     -11.422  16.503  68.704  1.00  0.00    -0.313 OA 
ATOM      8  CB  PRO A   2      -9.111  19.855  66.613  1.00  0.00    -0.466 C  
ATOM      9  O   PRO A   2      -7.458  16.918  67.336  1.00  0.00    -0.151 OA 
ATOM     10  CD  PRO A   2      -9.994  18.901  68.625  1.00  0.00    -0.412 C  
ATOM     11  OXT PRO A   2      -7.030  17.986  65.393  1.00  0.00    -0.481 OA 
ATOM     12  CG  PRO A   2     -10.012  20.174  67.803  1.00  0.00    -0.549 C  
ENDBRANCH   1   3
BRANCH   1  13
HETATM   13  N   UNK A   1     -11.602  14.592  66.861  1.00  0.00    -0.369 NA 
HETATM   14  H   UNK A   1     -12.548  14.909  66.649  1.00  0.00     0.000 HD 
BRANCH  13  15
HETATM   15  C   UNK A   1     -11.336  13.280  66.187  1.00  0.00    -0.309 C  
HETATM   16  O   UNK A   1     -12.469  12.224  64.270  1.00  0.00    -0.446 OA 
HETATM   17  O   UNK A   1     -13.515  13.916  65.345  1.00  0.00    -0.672 OA 
HETATM   18  C   UNK A   1     -12.477  13.059  65.161  1.00  0.00    -0.496 C  
BRANCH  15  19
HETATM   19  C   UNK A   1     -11.262  12.083  67.163  1.00  0.00    -0.374 C  
BRANCH  19  20
HETATM   20  C   UNK A   1     -10.683  12.458  68.538  1.00  0.00    -0.262 C  
BRANCH  20  21
HETATM   21  C   UNK A   1     -11.615  12.186  69.695  1.00  0.00    -0.361 A  
HETATM   22  C   UNK A   1     -13.254  11.652  71.914  1.00  0.00    -0.475 A  
HETATM   23  C   UNK A   1     -11.839  10.870  70.117  1.00  0.00    -0.438 A  
HETATM   24  C   UNK A   1     -12.653  10.603  71.222  1.00  0.00    -0.533 A  
HETATM   25  C   UNK A   1     -13.045  12.965  71.501  1.00  0.00    -0.390 A  
HETATM   26  C   UNK A   1     -12.229  13.236  70.399  1.00  0.00    -0.404 A  
ENDBRANCH  20  21
ENDBRANCH  19  20
ENDBRANCH  15  19
ENDBRANCH  13  15
ENDBRANCH   1  13
TORSDOF 6
ENDMDL
MODEL       14
REMARK 921   NORMALIZED FREE ENERGY PREDICTED BY IDOCK:   -6.05 KCAL/MOL
REMARK 922        TOTAL FREE ENERGY PREDICTED BY IDOCK:   -9.89 KCAL/MOL
REMARK 923 INTER-LIGAND FREE ENERGY PREDICTED BY IDOCK:   -8.90 KCAL/MOL
REMARK 924 INTRA-LIGAND FREE ENERGY PREDICTED BY IDOCK:   -0.99 KCAL/MOL
REMARK 927      BINDING AFFINITY PREDICTED BY RF-SCORE:    0.00 PKD
ROOT
HETATM    1  C   UNK A   1     -10.457  15.863  66.278  1.00  0.00    -0.318 C  
HETATM    2  C   UNK A   1     -10.770  16.409  64.888  1.00  0.00    -0.213 C  
ENDROOT
BRANCH   1   3
HETATM    3  C   UNK A   1     -10.163  17.048  67.240  1.00  0.00    -0.310 C  
ATOM      4  CA  PRO A   2      -7.641  16.634  67.062  1.00  0.00    -0.202 C  
ATOM      5  N   PRO A   2      -8.851  17.250  67.641  1.00  0.00    -0.218 N  
ATOM      6  C   PRO A   2      -7.298  15.290  67.721  1.00  0.00    -0.163 C  
HETATM    7  O   UNK A   1     -11.079  17.764  67.657  1.00  0.00    -0.201 OA 
ATOM      8  CB  PRO A   2      -6.516  17.643  67.329  1.00  0.00    -0.180 C  
ATOM      9  O   PRO A   2      -8.139  14.938  68.721  1.00  0.00    -0.145 OA 
ATOM     10  CD  PRO A   2      -8.483  18.381  68.480  1.00  0.00    -0.325 C  
ATOM     11  OXT PRO A   2      -6.353  14.595  67.382  1.00  0.00    -0.323 OA 
ATOM     12  CG  PRO A   2      -7.213  18.902  67.838  1.00  0.00    -0.260 C  
ENDBRANCH   1   3
BRANCH   1  13
HETATM   13  N   UNK A   1     -11.583  15.086  66.853  1.00  0.00    -0.282 NA 
HETATM   14  H   UNK A   1     -12.465  15.390  66.439  1.00  0.00     0.000 HD 
BRANCH  13  15
HETATM   15  C   UNK A   1     -11.456  13.596  66.753  1.00  0.00    -0.346 C  
HETATM   16  O   UNK A   1     -12.389  12.032  65.091  1.00  0.00    -0.423 OA 
HETATM   17  O   UNK A   1     -13.270  14.110  65.234  1.00  0.00    -0.760 OA 
HETATM   18  C   UNK A   1     -12.402  13.136  65.614  1.00  0.00    -0.461 C  
BRANCH  15  19
HETATM   19  C   UNK A   1     -11.802  12.852  68.063  1.00  0.00    -0.390 C  
BRANCH  19  20
HETATM   20  C   UNK A   1     -11.187  13.507  69.311  1.00  0.00    -0.285 C  
BRANCH  20  21
HETATM   21  C   UNK A   1     -12.190  13.841  70.390  1.00  0.00    -0.433 A  
HETATM   22  C   UNK A   1     -14.141  14.473  72.311  1.00  0.00    -0.594 A  
HETATM   23  C   UNK A   1     -12.678  15.148  70.510  1.00  0.00    -0.416 A  
HETATM   24  C   UNK A   1     -13.649  15.464  71.464  1.00  0.00    -0.604 A  
HETATM   25  C   UNK A   1     -13.660  13.171  72.207  1.00  0.00    -0.677 A  
HETATM   26  C   UNK A   1     -12.692  12.850  71.251  1.00  0.00    -0.371 A  
ENDBRANCH  20  21
ENDBRANCH  19  20
ENDBRANCH  15  19
ENDBRANCH  13  15
ENDBRANCH   1  13
TORSDOF 6
ENDMDL
MODEL       15
REMARK 921   NORMALIZED FREE ENERGY PREDICTED BY IDOCK:   -6.05 KCAL/MOL
REMARK 922        TOTAL FREE ENERGY PREDICTED BY IDOCK:   -9.88 KCAL/MOL
REMARK 923 INTER-LIGAND FREE ENERGY PREDICTED BY IDOCK:   -8.94 KCAL/MOL
REMARK 924 INTRA-LIGAND FREE ENERGY PREDICTED BY IDOCK:   -0.94 KCAL/MOL
REMARK 927      BINDING AFFINITY PREDICTED BY RF-SCORE:    0.00 PKD
ROOT
HETATM    1  C   UNK A   1     -11.390  15.544  68.406  1.00  0.00    -0.354 C  
HETATM    2  C   UNK A   1     -11.971  15.381  69.808  1.00  0.00    -0.381 C  
ENDROOT
BRANCH   1   3
HETATM    3  C   UNK A   1     -10.026  16.283  68.500  1.00  0.00    -0.234 C  
ATOM      4  CA  PRO A   2     -10.625  17.755  66.491  1.00  0.00    -0.220 C  
ATOM      5  N   PRO A   2      -9.710  17.196  67.505  1.00  0.00    -0.251 N  
ATOM      6  C   PRO A   2     -10.697  16.886  65.226  1.00  0.00    -0.134 C  
HETATM    7  O   UNK A   1      -9.236  16.036  69.417  1.00  0.00    -0.251 OA 
ATOM      8  CB  PRO A   2     -10.037  19.128  66.140  1.00  0.00    -0.492 C  
ATOM      9  O   PRO A   2      -9.892  15.798  65.262  1.00  0.00    -0.375 OA 
ATOM     10  CD  PRO A   2      -8.486  17.981  67.560  1.00  0.00    -0.237 C  
ATOM     11  OXT PRO A   2     -11.410  17.145  64.270  1.00  0.00    -1.126 OA 
ATOM     12  CG  PRO A   2      -8.940  19.374  67.172  1.00  0.00    -0.347 C  
ENDBRANCH   1   3
BRANCH   1  13
HETATM   13  N   UNK A   1     -11.152  14.245  67.731  1.00  0.00    -0.271 NA 
HETATM   14  H   UNK A   1     -10.527  14.374  66.935  1.00  0.00     0.000 HD 
BRANCH  13  15
HETATM   15  C   UNK A   1     -10.638  13.146  68.613  1.00  0.00    -0.239 C  
HETATM   16  O   UNK A   1      -8.577  11.807  68.441  1.00  0.00    -0.160 OA 
HETATM   17  O   UNK A   1      -9.273  12.956  66.622  1.00  0.00    -0.241 OA 
HETATM   18  C   UNK A   1      -9.389  12.551  67.914  1.00  0.00    -0.200 C  
BRANCH  15  19
HETATM   19  C   UNK A   1     -11.675  12.031  68.885  1.00  0.00    -0.383 C  
BRANCH  19  20
HETATM   20  C   UNK A   1     -12.171  12.009  70.341  1.00  0.00    -0.379 C  
BRANCH  20  21
HETATM   21  C   UNK A   1     -12.115  10.646  70.990  1.00  0.00    -0.473 A  
HETATM   22  C   UNK A   1     -11.932   8.155  72.278  1.00  0.00    -0.434 A  
HETATM   23  C   UNK A   1     -10.972   9.851  70.849  1.00  0.00    -0.392 A  
HETATM   24  C   UNK A   1     -10.879   8.612  71.490  1.00  0.00    -0.352 A  
HETATM   25  C   UNK A   1     -13.078   8.932  72.421  1.00  0.00    -0.476 A  
HETATM   26  C   UNK A   1     -13.174  10.173  71.785  1.00  0.00    -0.542 A  
ENDBRANCH  20  21
ENDBRANCH  19  20
ENDBRANCH  15  19
ENDBRANCH  13  15
ENDBRANCH   1  13
TORSDOF 6
ENDMDL
MODEL       16
REMARK 921   NORMALIZED FREE ENERGY PREDICTED BY IDOCK:   -5.99 KCAL/MOL
REMARK 922        TOTAL FREE ENERGY PREDICTED BY IDOCK:   -9.80 KCAL/MOL
REMARK 923 INTER-LIGAND FREE ENERGY PREDICTED BY IDOCK:   -8.97 KCAL/MOL
REMARK 924 INTRA-LIGAND FREE ENERGY PREDICTED BY IDOCK:   -0.83 KCAL/MOL
REMARK 927      BINDING AFFINITY PREDICTED BY RF-SCORE:    0.00 PKD
ROOT
HETATM    1  C   UNK A   1      -9.948   8.844  70.214  1.00  0.00    -0.186 C  
HETATM    2  C   UNK A   1      -8.791   8.396  69.326  1.00  0.00    -0.142 C  
ENDROOT
BRANCH   1   3
HETATM    3  C   UNK A   1      -9.632   8.473  71.690  1.00  0.00    -0.249 C  
ATOM      4  CA  PRO A   2     -11.585   6.816  71.746  1.00  0.00    -0.297 C  
ATOM      5  N   PRO A   2     -10.511   7.627  72.351  1.00  0.00    -0.229 N  
ATOM      6  C   PRO A   2     -12.910   7.586  71.641  1.00  0.00    -0.358 C  
HETATM    7  O   UNK A   1      -8.647   8.947  72.263  1.00  0.00    -0.397 OA 
ATOM      8  CB  PRO A   2     -11.758   5.619  72.691  1.00  0.00    -0.256 C  
ATOM      9  O   PRO A   2     -12.857   8.840  72.146  1.00  0.00    -0.350 OA 
ATOM     10  CD  PRO A   2     -10.248   7.175  73.709  1.00  0.00    -0.352 C  
ATOM     11  OXT PRO A   2     -13.925   7.118  71.150  1.00  0.00    -0.294 OA 
ATOM     12  CG  PRO A   2     -10.584   5.698  73.663  1.00  0.00    -0.310 C  
ENDBRANCH   1   3
BRANCH   1  13
HETATM   13  N   UNK A   1     -10.179  10.308  70.158  1.00  0.00    -0.424 NA 
HETATM   14  H   UNK A   1      -9.386  10.770  69.712  1.00  0.00     0.000 HD 
BRANCH  13  15
HETATM   15  C   UNK A   1     -11.457  10.734  69.499  1.00  0.00    -0.294 C  
HETATM   16  O   UNK A   1     -11.856  11.612  67.232  1.00  0.00    -0.609 OA 
HETATM   17  O   UNK A   1      -9.745  11.629  68.040  1.00  0.00    -0.171 OA 
HETATM   18  C   UNK A   1     -11.075  11.369  68.138  1.00  0.00    -0.248 C  
BRANCH  15  19
HETATM   19  C   UNK A   1     -12.285  11.735  70.338  1.00  0.00    -0.416 C  
BRANCH  19  20
HETATM   20  C   UNK A   1     -11.890  13.202  70.092  1.00  0.00    -0.328 C  
BRANCH  20  21
HETATM   21  C   UNK A   1     -12.352  14.153  71.171  1.00  0.00    -0.447 A  
HETATM   22  C   UNK A   1     -13.218  16.010  73.094  1.00  0.00    -0.633 A  
HETATM   23  C   UNK A   1     -11.500  15.171  71.616  1.00  0.00    -0.445 A  
HETATM   24  C   UNK A   1     -11.930  16.096  72.571  1.00  0.00    -0.660 A  
HETATM   25  C   UNK A   1     -14.073  14.999  72.665  1.00  0.00    -0.397 A  
HETATM   26  C   UNK A   1     -13.649  14.074  71.707  1.00  0.00    -0.476 A  
ENDBRANCH  20  21
ENDBRANCH  19  20
ENDBRANCH  15  19
ENDBRANCH  13  15
ENDBRANCH   1  13
TORSDOF 6
ENDMDL
MODEL       17
REMARK 921   NORMALIZED FREE ENERGY PREDICTED BY IDOCK:   -5.97 KCAL/MOL
REMARK 922        TOTAL FREE ENERGY PREDICTED BY IDOCK:   -9.78 KCAL/MOL
REMARK 923 INTER-LIGAND FREE ENERGY PREDICTED BY IDOCK:   -9.50 KCAL/MOL
REMARK 924 INTRA-LIGAND FREE ENERGY PREDICTED BY IDOCK:   -0.28 KCAL/MOL
REMARK 927      BINDING AFFINITY PREDICTED BY RF-SCORE:    0.00 PKD
ROOT
HETATM    1  C   UNK A   1     -10.327  14.574  66.789  1.00  0.00    -0.269 C  
HETATM    2  C   UNK A   1      -9.583  15.185  65.605  1.00  0.00    -0.295 C  
ENDROOT
BRANCH   1   3
HETATM    3  C   UNK A   1     -10.122  13.033  66.782  1.00  0.00    -0.247 C  
ATOM      4  CA  PRO A   2     -10.720  12.913  64.293  1.00  0.00    -0.406 C  
ATOM      5  N   PRO A   2     -10.445  12.339  65.625  1.00  0.00    -0.254 N  
ATOM      6  C   PRO A   2     -12.202  13.274  64.109  1.00  0.00    -0.401 C  
HETATM    7  O   UNK A   1      -9.715  12.446  67.789  1.00  0.00    -0.190 OA 
ATOM      8  CB  PRO A   2     -10.329  11.813  63.298  1.00  0.00    -0.446 C  
ATOM      9  O   PRO A   2     -12.978  12.972  65.175  1.00  0.00    -0.729 OA 
ATOM     10  CD  PRO A   2     -10.213  10.907  65.513  1.00  0.00    -0.271 C  
ATOM     11  OXT PRO A   2     -12.649  13.785  63.094  1.00  0.00    -0.793 OA 
ATOM     12  CG  PRO A   2      -9.614  10.752  64.129  1.00  0.00    -0.333 C  
ENDBRANCH   1   3
BRANCH   1  13
HETATM   13  N   UNK A   1      -9.843  15.085  68.095  1.00  0.00    -0.214 NA 
HETATM   14  H   UNK A   1      -8.853  15.326  68.030  1.00  0.00     0.000 HD 
BRANCH  13  15
HETATM   15  C   UNK A   1     -10.616  16.238  68.662  1.00  0.00    -0.297 C  
HETATM   16  O   UNK A   1     -10.122  18.652  68.619  1.00  0.00    -0.369 OA 
HETATM   17  O   UNK A   1      -8.449  17.200  68.168  1.00  0.00    -0.213 OA 
HETATM   18  C   UNK A   1      -9.734  17.502  68.492  1.00  0.00    -0.319 C  
BRANCH  15  19
HETATM   19  C   UNK A   1     -11.002  16.057  70.148  1.00  0.00    -0.369 C  
BRANCH  19  20
HETATM   20  C   UNK A   1     -12.469  15.637  70.345  1.00  0.00    -0.409 C  
BRANCH  20  21
HETATM   21  C   UNK A   1     -12.644  14.212  70.813  1.00  0.00    -0.432 A  
HETATM   22  C   UNK A   1     -13.081  11.560  71.636  1.00  0.00    -0.478 A  
HETATM   23  C   UNK A   1     -13.511  13.927  71.875  1.00  0.00    -0.511 A  
HETATM   24  C   UNK A   1     -13.731  12.608  72.284  1.00  0.00    -0.429 A  
HETATM   25  C   UNK A   1     -12.212  11.830  70.582  1.00  0.00    -0.443 A  
HETATM   26  C   UNK A   1     -11.992  13.147  70.167  1.00  0.00    -0.381 A  
ENDBRANCH  20  21
ENDBRANCH  19  20
ENDBRANCH  15  19
ENDBRANCH  13  15
ENDBRANCH   1  13
TORSDOF 6
ENDMDL
MODEL       18
REMARK 921   NORMALIZED FREE ENERGY PREDICTED BY IDOCK:   -5.90 KCAL/MOL
REMARK 922        TOTAL FREE ENERGY PREDICTED BY IDOCK:   -9.69 KCAL/MOL
REMARK 923 INTER-LIGAND FREE ENERGY PREDICTED BY IDOCK:   -8.67 KCAL/MOL
REMARK 924 INTRA-LIGAND FREE ENERGY PREDICTED BY IDOCK:   -1.02 KCAL/MOL
REMARK 927      BINDING AFFINITY PREDICTED BY RF-SCORE:    0.00 PKD
ROOT
HETATM    1  C   UNK A   1      -8.954  13.940  67.006  1.00  0.00    -0.240 C  
HETATM    2  C   UNK A   1      -7.488  14.301  67.231  1.00  0.00    -0.082 C  
ENDROOT
BRANCH   1   3
HETATM    3  C   UNK A   1      -9.085  12.399  66.856  1.00  0.00    -0.211 C  
ATOM      4  CA  PRO A   2     -10.432  12.671  64.694  1.00  0.00    -0.337 C  
ATOM      5  N   PRO A   2      -9.885  11.910  65.834  1.00  0.00    -0.233 N  
ATOM      6  C   PRO A   2     -11.790  13.312  65.018  1.00  0.00    -0.352 C  
HETATM    7  O   UNK A   1      -8.518  11.638  67.647  1.00  0.00    -0.132 OA 
ATOM      8  CB  PRO A   2     -10.603  11.637  63.573  1.00  0.00    -0.496 C  
ATOM      9  O   PRO A   2     -12.244  13.036  66.262  1.00  0.00    -0.406 OA 
ATOM     10  CD  PRO A   2     -10.000  10.481  65.583  1.00  0.00    -0.270 C  
ATOM     11  OXT PRO A   2     -12.412  14.006  64.230  1.00  0.00    -0.645 OA 
ATOM     12  CG  PRO A   2      -9.902  10.377  64.074  1.00  0.00    -0.355 C  
ENDBRANCH   1   3
BRANCH   1  13
HETATM   13  N   UNK A   1      -9.824  14.358  68.133  1.00  0.00    -0.217 NA 
HETATM   14  H   UNK A   1      -9.258  14.545  68.961  1.00  0.00     0.000 HD 
BRANCH  13  15
HETATM   15  C   UNK A   1     -10.726  15.523  67.853  1.00  0.00    -0.294 C  
HETATM   16  O   UNK A   1     -10.382  17.928  68.264  1.00  0.00    -0.362 OA 
HETATM   17  O   UNK A   1      -9.052  16.448  69.338  1.00  0.00    -0.187 OA 
HETATM   18  C   UNK A   1     -10.062  16.771  68.489  1.00  0.00    -0.281 C  
BRANCH  15  19
HETATM   19  C   UNK A   1     -12.159  15.346  68.405  1.00  0.00    -0.022 C  
BRANCH  19  20
HETATM   20  C   UNK A   1     -12.255  14.284  69.513  1.00  0.00    -0.341 C  
BRANCH  20  21
HETATM   21  C   UNK A   1     -12.571  14.846  70.880  1.00  0.00    -0.403 A  
HETATM   22  C   UNK A   1     -13.116  15.997  73.385  1.00  0.00    -0.677 A  
HETATM   23  C   UNK A   1     -11.533  15.139  71.772  1.00  0.00    -0.452 A  
HETATM   24  C   UNK A   1     -11.802  15.713  73.017  1.00  0.00    -0.558 A  
HETATM   25  C   UNK A   1     -14.158  15.705  72.509  1.00  0.00    -0.562 A  
HETATM   26  C   UNK A   1     -13.893  15.134  71.261  1.00  0.00    -0.553 A  
ENDBRANCH  20  21
ENDBRANCH  19  20
ENDBRANCH  15  19
ENDBRANCH  13  15
ENDBRANCH   1  13
TORSDOF 6
ENDMDL
MODEL       19
REMARK 921   NORMALIZED FREE ENERGY PREDICTED BY IDOCK:   -5.90 KCAL/MOL
REMARK 922        TOTAL FREE ENERGY PREDICTED BY IDOCK:   -9.68 KCAL/MOL
REMARK 923 INTER-LIGAND FREE ENERGY PREDICTED BY IDOCK:   -9.03 KCAL/MOL
REMARK 924 INTRA-LIGAND FREE ENERGY PREDICTED BY IDOCK:   -0.65 KCAL/MOL
REMARK 927      BINDING AFFINITY PREDICTED BY RF-SCORE:    0.00 PKD
ROOT
HETATM    1  C   UNK A   1      -9.578  18.786  66.812  1.00  0.00    -0.321 C  
HETATM    2  C   UNK A   1      -9.940  20.092  66.110  1.00  0.00    -0.532 C  
ENDROOT
BRANCH   1   3
HETATM    3  C   UNK A   1      -8.948  19.106  68.196  1.00  0.00    -0.322 C  
ATOM      4  CA  PRO A   2      -6.588  19.009  67.203  1.00  0.00    -0.196 C  
ATOM      5  N   PRO A   2      -7.566  19.066  68.307  1.00  0.00    -0.285 N  
ATOM      6  C   PRO A   2      -6.275  17.568  66.774  1.00  0.00    -0.183 C  
HETATM    7  O   UNK A   1      -9.663  19.355  69.172  1.00  0.00    -0.406 OA 
ATOM      8  CB  PRO A   2      -5.320  19.668  67.762  1.00  0.00    -0.186 C  
ATOM      9  O   PRO A   2      -6.921  16.627  67.500  1.00  0.00    -0.129 OA 
ATOM     10  CD  PRO A   2      -6.897  19.424  69.549  1.00  0.00    -0.268 C  
ATOM     11  OXT PRO A   2      -5.513  17.287  65.863  1.00  0.00    -0.289 OA 
ATOM     12  CG  PRO A   2      -5.739  20.289  69.092  1.00  0.00    -0.326 C  
ENDBRANCH   1   3
BRANCH   1  13
HETATM   13  N   UNK A   1     -10.757  17.916  67.044  1.00  0.00    -0.274 NA 
HETATM   14  H   UNK A   1     -11.529  18.207  66.445  1.00  0.00     0.000 HD 
BRANCH  13  15
HETATM   15  C   UNK A   1     -10.512  16.445  66.890  1.00  0.00    -0.289 C  
HETATM   16  O   UNK A   1     -10.182  15.097  64.853  1.00  0.00    -0.341 OA 
HETATM   17  O   UNK A   1     -11.087  17.160  64.649  1.00  0.00    -1.036 OA 
HETATM   18  C   UNK A   1     -10.566  16.134  65.372  1.00  0.00    -0.380 C  
BRANCH  15  19
HETATM   19  C   UNK A   1     -11.530  15.562  67.648  1.00  0.00    -0.211 C  
BRANCH  19  20
HETATM   20  C   UNK A   1     -10.921  14.845  68.865  1.00  0.00    -0.257 C  
BRANCH  20  21
HETATM   21  C   UNK A   1     -11.891  14.629  70.003  1.00  0.00    -0.363 A  
HETATM   22  C   UNK A   1     -13.602  14.210  72.192  1.00  0.00    -0.568 A  
HETATM   23  C   UNK A   1     -12.073  13.346  70.532  1.00  0.00    -0.399 A  
HETATM   24  C   UNK A   1     -12.923  13.136  71.622  1.00  0.00    -0.429 A  
HETATM   25  C   UNK A   1     -13.435  15.491  71.672  1.00  0.00    -0.584 A  
HETATM   26  C   UNK A   1     -12.584  15.705  70.584  1.00  0.00    -0.461 A  
ENDBRANCH  20  21
ENDBRANCH  19  20
ENDBRANCH  15  19
ENDBRANCH  13  15
ENDBRANCH   1  13
TORSDOF 6
ENDMDL
MODEL       20
REMARK 921   NORMALIZED FREE ENERGY PREDICTED BY IDOCK:   -5.89 KCAL/MOL
REMARK 922        TOTAL FREE ENERGY PREDICTED BY IDOCK:   -9.67 KCAL/MOL
REMARK 923 INTER-LIGAND FREE ENERGY PREDICTED BY IDOCK:   -8.58 KCAL/MOL
REMARK 924 INTRA-LIGAND FREE ENERGY PREDICTED BY IDOCK:   -1.10 KCAL/MOL
REMARK 927      BINDING AFFINITY PREDICTED BY RF-SCORE:    0.00 PKD
ROOT
HETATM    1  C   UNK A   1     -10.806  10.134  69.192  1.00  0.00    -0.226 C  
HETATM    2  C   UNK A   1     -10.480   9.330  67.936  1.00  0.00    -0.290 C  
ENDROOT
BRANCH   1   3
HETATM    3  C   UNK A   1     -10.029   9.538  70.398  1.00  0.00    -0.267 C  
ATOM      4  CA  PRO A   2     -12.067   8.149  71.092  1.00  0.00    -0.260 C  
ATOM      5  N   PRO A   2     -10.725   8.731  71.287  1.00  0.00    -0.246 N  
ATOM      6  C   PRO A   2     -13.186   9.089  71.566  1.00  0.00    -0.334 C  
HETATM    7  O   UNK A   1      -8.836   9.804  70.574  1.00  0.00    -0.182 OA 
ATOM      8  CB  PRO A   2     -12.071   6.871  71.941  1.00  0.00    -0.370 C  
ATOM      9  O   PRO A   2     -12.739  10.249  72.098  1.00  0.00    -0.358 OA 
ATOM     10  CD  PRO A   2     -10.053   8.077  72.399  1.00  0.00    -0.266 C  
ATOM     11  OXT PRO A   2     -14.373   8.821  71.476  1.00  0.00    -0.377 OA 
ATOM     12  CG  PRO A   2     -10.624   6.673  72.382  1.00  0.00    -0.242 C  
ENDBRANCH   1   3
BRANCH   1  13
HETATM   13  N   UNK A   1     -10.422  11.562  69.071  1.00  0.00    -0.337 NA 
HETATM   14  H   UNK A   1      -9.412  11.643  68.950  1.00  0.00     0.000 HD 
BRANCH  13  15
HETATM   15  C   UNK A   1     -11.131  12.332  67.997  1.00  0.00    -0.239 C  
HETATM   16  O   UNK A   1     -10.268  13.279  65.892  1.00  0.00    -0.283 OA 
HETATM   17  O   UNK A   1      -8.790  12.698  67.502  1.00  0.00    -0.167 OA 
HETATM   18  C   UNK A   1     -10.048  12.827  67.005  1.00  0.00    -0.240 C  
BRANCH  15  19
HETATM   19  C   UNK A   1     -11.952  13.529  68.529  1.00  0.00    -0.379 C  
BRANCH  19  20
HETATM   20  C   UNK A   1     -11.152  14.435  69.481  1.00  0.00    -0.267 C  
BRANCH  20  21
HETATM   21  C   UNK A   1     -11.863  14.746  70.778  1.00  0.00    -0.370 A  
HETATM   22  C   UNK A   1     -13.110  15.246  73.246  1.00  0.00    -0.630 A  
HETATM   23  C   UNK A   1     -12.703  13.789  71.360  1.00  0.00    -0.450 A  
HETATM   24  C   UNK A   1     -13.323  14.036  72.588  1.00  0.00    -0.643 A  
HETATM   25  C   UNK A   1     -12.281  16.208  72.674  1.00  0.00    -0.625 A  
HETATM   26  C   UNK A   1     -11.657  15.964  71.448  1.00  0.00    -0.529 A  
ENDBRANCH  20  21
ENDBRANCH  19  20
ENDBRANCH  15  19
ENDBRANCH  13  15
ENDBRANCH   1  13
TORSDOF 6
ENDMDL
MODEL       21
REMARK 921   NORMALIZED FREE ENERGY PREDICTED BY IDOCK:   -5.86 KCAL/MOL
REMARK 922        TOTAL FREE ENERGY PREDICTED BY IDOCK:   -9.63 KCAL/MOL
REMARK 923 INTER-LIGAND FREE ENERGY PREDICTED BY IDOCK:   -8.62 KCAL/MOL
REMARK 924 INTRA-LIGAND FREE ENERGY PREDICTED BY IDOCK:   -1.01 KCAL/MOL
REMARK 927      BINDING AFFINITY PREDICTED BY RF-SCORE:    0.00 PKD
ROOT
HETATM    1  C   UNK A   1     -11.390  15.466  68.323  1.00  0.00    -0.348 C  
HETATM    2  C   UNK A   1     -11.968  15.119  69.693  1.00  0.00    -0.359 C  
ENDROOT
BRANCH   1   3
HETATM    3  C   UNK A   1     -10.154  16.390  68.509  1.00  0.00    -0.248 C  
ATOM      4  CA  PRO A   2     -10.783  17.736  66.421  1.00  0.00    -0.097 C  
ATOM      5  N   PRO A   2      -9.887  17.325  67.519  1.00  0.00    -0.268 N  
ATOM      6  C   PRO A   2     -10.627  16.848  65.177  1.00  0.00    -0.069 C  
HETATM    7  O   UNK A   1      -9.418  16.269  69.492  1.00  0.00    -0.203 OA 
ATOM      8  CB  PRO A   2     -10.365  19.173  66.085  1.00  0.00    -0.561 C  
ATOM      9  O   PRO A   2      -9.685  15.885  65.304  1.00  0.00    -0.385 OA 
ATOM     10  CD  PRO A   2      -8.793  18.275  67.653  1.00  0.00    -0.256 C  
ATOM     11  OXT PRO A   2     -11.287  16.991  64.160  1.00  0.00    -1.164 OA 
ATOM     12  CG  PRO A   2      -9.402  19.585  67.195  1.00  0.00    -0.409 C  
ENDBRANCH   1   3
BRANCH   1  13
HETATM   13  N   UNK A   1     -10.945  14.266  67.571  1.00  0.00    -0.283 NA 
HETATM   14  H   UNK A   1     -10.129  13.853  68.023  1.00  0.00     0.000 HD 
BRANCH  13  15
HETATM   15  C   UNK A   1     -11.995  13.219  67.350  1.00  0.00    -0.335 C  
HETATM   16  O   UNK A   1     -12.325  11.044  68.462  1.00  0.00    -0.536 OA 
HETATM   17  O   UNK A   1     -10.319  12.070  68.666  1.00  0.00    -0.216 OA 
HETATM   18  C   UNK A   1     -11.595  11.990  68.206  1.00  0.00    -0.334 C  
BRANCH  15  19
HETATM   19  C   UNK A   1     -12.158  12.804  65.870  1.00  0.00    -0.485 C  
BRANCH  19  20
HETATM   20  C   UNK A   1     -10.925  13.132  65.010  1.00  0.00    -0.322 C  
BRANCH  20  21
HETATM   21  C   UNK A   1     -10.185  11.916  64.505  1.00  0.00    -0.320 A  
HETATM   22  C   UNK A   1      -8.894   9.586  63.611  1.00  0.00    -0.236 A  
HETATM   23  C   UNK A   1      -9.532  11.070  65.409  1.00  0.00    -0.257 A  
HETATM   24  C   UNK A   1      -8.890   9.910  64.966  1.00  0.00    -0.220 A  
HETATM   25  C   UNK A   1      -9.534  10.422  62.701  1.00  0.00    -0.324 A  
HETATM   26  C   UNK A   1     -10.180  11.581  63.140  1.00  0.00    -0.389 A  
ENDBRANCH  20  21
ENDBRANCH  19  20
ENDBRANCH  15  19
ENDBRANCH  13  15
ENDBRANCH   1  13
TORSDOF 6
ENDMDL
MODEL       22
REMARK 921   NORMALIZED FREE ENERGY PREDICTED BY IDOCK:   -5.83 KCAL/MOL
REMARK 922        TOTAL FREE ENERGY PREDICTED BY IDOCK:   -9.59 KCAL/MOL
REMARK 923 INTER-LIGAND FREE ENERGY PREDICTED BY IDOCK:   -8.51 KCAL/MOL
REMARK 924 INTRA-LIGAND FREE ENERGY PREDICTED BY IDOCK:   -1.08 KCAL/MOL
REMARK 927      BINDING AFFINITY PREDICTED BY RF-SCORE:    0.00 PKD
ROOT
HETATM    1  C   UNK A   1     -10.872  10.953  69.323  1.00  0.00    -0.241 C  
HETATM    2  C   UNK A   1     -12.313  11.149  69.785  1.00  0.00    -0.315 C  
ENDROOT
BRANCH   1   3
HETATM    3  C   UNK A   1     -10.748   9.581  68.603  1.00  0.00    -0.184 C  
ATOM      4  CA  PRO A   2     -10.438   8.375  70.842  1.00  0.00    -0.196 C  
ATOM      5  N   PRO A   2     -10.425   8.470  69.370  1.00  0.00    -0.220 N  
ATOM      6  C   PRO A   2      -9.098   8.795  71.466  1.00  0.00    -0.252 C  
HETATM    7  O   UNK A   1     -10.899   9.494  67.381  1.00  0.00    -0.269 OA 
ATOM      8  CB  PRO A   2     -10.704   6.894  71.142  1.00  0.00    -0.252 C  
ATOM      9  O   PRO A   2      -8.155   9.140  70.559  1.00  0.00    -0.126 OA 
ATOM     10  CD  PRO A   2     -10.363   7.140  68.783  1.00  0.00    -0.192 C  
ATOM     11  OXT PRO A   2      -8.893   8.817  72.669  1.00  0.00    -0.394 OA 
ATOM     12  CG  PRO A   2     -11.076   6.270  69.799  1.00  0.00    -0.473 C  
ENDBRANCH   1   3
BRANCH   1  13
HETATM   13  N   UNK A   1     -10.429  12.001  68.372  1.00  0.00    -0.213 NA 
HETATM   14  H   UNK A   1     -10.227  11.585  67.462  1.00  0.00     0.000 HD 
BRANCH  13  15
HETATM   15  C   UNK A   1     -11.366  13.161  68.210  1.00  0.00    -0.297 C  
HETATM   16  O   UNK A   1     -12.530  13.990  66.202  1.00  0.00    -0.467 OA 
HETATM   17  O   UNK A   1     -10.775  12.590  65.932  1.00  0.00    -0.255 OA 
HETATM   18  C   UNK A   1     -11.640  13.312  66.691  1.00  0.00    -0.365 C  
BRANCH  15  19
HETATM   19  C   UNK A   1     -10.819  14.487  68.785  1.00  0.00    -0.256 C  
BRANCH  19  20
HETATM   20  C   UNK A   1     -11.928  15.468  69.205  1.00  0.00    -0.331 C  
BRANCH  20  21
HETATM   21  C   UNK A   1     -12.338  15.350  70.654  1.00  0.00    -0.451 A  
HETATM   22  C   UNK A   1     -13.158  15.238  73.339  1.00  0.00    -0.612 A  
HETATM   23  C   UNK A   1     -11.743  16.173  71.618  1.00  0.00    -0.558 A  
HETATM   24  C   UNK A   1     -12.151  16.119  72.953  1.00  0.00    -0.643 A  
HETATM   25  C   UNK A   1     -13.754  14.409  72.392  1.00  0.00    -0.590 A  
HETATM   26  C   UNK A   1     -13.352  14.463  71.054  1.00  0.00    -0.359 A  
ENDBRANCH  20  21
ENDBRANCH  19  20
ENDBRANCH  15  19
ENDBRANCH  13  15
ENDBRANCH   1  13
TORSDOF 6
ENDMDL
MODEL       23
REMARK 921   NORMALIZED FREE ENERGY PREDICTED BY IDOCK:   -5.82 KCAL/MOL
REMARK 922        TOTAL FREE ENERGY PREDICTED BY IDOCK:   -9.58 KCAL/MOL
REMARK 923 INTER-LIGAND FREE ENERGY PREDICTED BY IDOCK:   -8.71 KCAL/MOL
REMARK 924 INTRA-LIGAND FREE ENERGY PREDICTED BY IDOCK:   -0.87 KCAL/MOL
REMARK 927      BINDING AFFINITY PREDICTED BY RF-SCORE:    0.00 PKD
ROOT
HETATM    1  C   UNK A   1     -10.194  15.449  65.963  1.00  0.00    -0.324 C  
HETATM    2  C   UNK A   1      -8.683  15.318  66.128  1.00  0.00    -0.060 C  
ENDROOT
BRANCH   1   3
HETATM    3  C   UNK A   1     -10.570  16.955  65.874  1.00  0.00    -0.233 C  
ATOM      4  CA  PRO A   2      -9.827  17.337  68.296  1.00  0.00    -0.304 C  
ATOM      5  N   PRO A   2     -10.484  17.717  67.030  1.00  0.00    -0.329 N  
ATOM      6  C   PRO A   2     -10.775  16.586  69.243  1.00  0.00    -0.331 C  
HETATM    7  O   UNK A   1     -10.964  17.445  64.811  1.00  0.00    -0.964 OA 
ATOM      8  CB  PRO A   2      -9.403  18.666  68.936  1.00  0.00    -0.274 C  
ATOM      9  O   PRO A   2     -12.032  16.442  68.762  1.00  0.00    -0.114 OA 
ATOM     10  CD  PRO A   2     -10.748  19.147  67.013  1.00  0.00    -0.448 C  
ATOM     11  OXT PRO A   2     -10.436  16.157  70.335  1.00  0.00    -0.155 OA 
ATOM     12  CG  PRO A   2      -9.632  19.724  67.861  1.00  0.00    -0.482 C  
ENDBRANCH   1   3
BRANCH   1  13
HETATM   13  N   UNK A   1     -10.695  14.787  64.733  1.00  0.00    -0.567 NA 
HETATM   14  H   UNK A   1      -9.973  14.800  64.012  1.00  0.00     0.000 HD 
BRANCH  13  15
HETATM   15  C   UNK A   1     -11.213  13.392  64.918  1.00  0.00    -0.331 C  
HETATM   16  O   UNK A   1     -12.802  12.097  63.550  1.00  0.00    -0.768 OA 
HETATM   17  O   UNK A   1     -12.716  14.340  63.274  1.00  0.00    -0.665 OA 
HETATM   18  C   UNK A   1     -12.322  13.178  63.856  1.00  0.00    -0.365 C  
BRANCH  15  19
HETATM   19  C   UNK A   1     -11.772  13.118  66.333  1.00  0.00    -0.429 C  
BRANCH  19  20
HETATM   20  C   UNK A   1     -11.492  11.689  66.828  1.00  0.00    -0.299 C  
BRANCH  20  21
HETATM   21  C   UNK A   1     -10.120  11.170  66.469  1.00  0.00    -0.265 A  
HETATM   22  C   UNK A   1      -7.567  10.140  65.903  1.00  0.00    -0.128 A  
HETATM   23  C   UNK A   1      -8.997  11.615  67.177  1.00  0.00    -0.173 A  
HETATM   24  C   UNK A   1      -7.727  11.102  66.898  1.00  0.00    -0.148 A  
HETATM   25  C   UNK A   1      -8.674   9.694  65.187  1.00  0.00    -0.192 A  
HETATM   26  C   UNK A   1      -9.947  10.201  65.465  1.00  0.00    -0.363 A  
ENDBRANCH  20  21
ENDBRANCH  19  20
ENDBRANCH  15  19
ENDBRANCH  13  15
ENDBRANCH   1  13
TORSDOF 6
ENDMDL
MODEL       24
REMARK 921   NORMALIZED FREE ENERGY PREDICTED BY IDOCK:   -5.81 KCAL/MOL
REMARK 922        TOTAL FREE ENERGY PREDICTED BY IDOCK:   -9.56 KCAL/MOL
REMARK 923 INTER-LIGAND FREE ENERGY PREDICTED BY IDOCK:   -8.61 KCAL/MOL
REMARK 924 INTRA-LIGAND FREE ENERGY PREDICTED BY IDOCK:   -0.95 KCAL/MOL
REMARK 927      BINDING AFFINITY PREDICTED BY RF-SCORE:    0.00 PKD
ROOT
HETATM    1  C   UNK A   1     -11.557  13.155  68.502  1.00  0.00    -0.326 C  
HETATM    2  C   UNK A   1     -12.149  11.827  68.966  1.00  0.00    -0.276 C  
ENDROOT
BRANCH   1   3
HETATM    3  C   UNK A   1     -11.767  13.301  66.969  1.00  0.00    -0.389 C  
ATOM      4  CA  PRO A   2      -9.657  11.926  66.497  1.00  0.00    -0.214 C  
ATOM      5  N   PRO A   2     -10.779  12.811  66.127  1.00  0.00    -0.271 N  
ATOM      6  C   PRO A   2      -8.422  12.712  66.963  1.00  0.00    -0.150 C  
HETATM    7  O   UNK A   1     -12.768  13.867  66.520  1.00  0.00    -0.302 OA 
ATOM      8  CB  PRO A   2      -9.323  11.153  65.214  1.00  0.00    -0.243 C  
ATOM      9  O   PRO A   2      -8.577  14.055  66.918  1.00  0.00    -0.204 OA 
ATOM     10  CD  PRO A   2     -10.934  12.844  64.681  1.00  0.00    -0.332 C  
ATOM     11  OXT PRO A   2      -7.389  12.181  67.339  1.00  0.00    -0.130 OA 
ATOM     12  CG  PRO A   2     -10.454  11.475  64.241  1.00  0.00    -0.393 C  
ENDBRANCH   1   3
BRANCH   1  13
HETATM   13  N   UNK A   1     -12.194  14.325  69.157  1.00  0.00    -0.513 NA 
HETATM   14  H   UNK A   1     -13.104  14.061  69.533  1.00  0.00     0.000 HD 
BRANCH  13  15
HETATM   15  C   UNK A   1     -11.373  14.995  70.218  1.00  0.00    -0.263 C  
HETATM   16  O   UNK A   1     -12.068  16.016  72.350  1.00  0.00    -0.448 OA 
HETATM   17  O   UNK A   1     -13.643  15.629  70.774  1.00  0.00    -0.524 OA 
HETATM   18  C   UNK A   1     -12.367  15.604  71.240  1.00  0.00    -0.426 C  
BRANCH  15  19
HETATM   19  C   UNK A   1     -10.431  16.093  69.675  1.00  0.00    -0.291 C  
BRANCH  19  20
HETATM   20  C   UNK A   1     -10.920  16.712  68.354  1.00  0.00    -0.345 C  
BRANCH  20  21
HETATM   21  C   UNK A   1     -10.247  18.017  67.998  1.00  0.00    -0.390 A  
HETATM   22  C   UNK A   1      -8.905  20.381  67.284  1.00  0.00    -0.444 A  
HETATM   23  C   UNK A   1      -9.087  18.412  68.675  1.00  0.00    -0.317 A  
HETATM   24  C   UNK A   1      -8.418  19.587  68.320  1.00  0.00    -0.376 A  
HETATM   25  C   UNK A   1     -10.062  20.002  66.607  1.00  0.00    -0.607 A  
HETATM   26  C   UNK A   1     -10.732  18.826  66.956  1.00  0.00    -0.435 A  
ENDBRANCH  20  21
ENDBRANCH  19  20
ENDBRANCH  15  19
ENDBRANCH  13  15
ENDBRANCH   1  13
TORSDOF 6
ENDMDL
MODEL       25
REMARK 921   NORMALIZED FREE ENERGY PREDICTED BY IDOCK:   -5.79 KCAL/MOL
REMARK 922        TOTAL FREE ENERGY PREDICTED BY IDOCK:   -9.54 KCAL/MOL
REMARK 923 INTER-LIGAND FREE ENERGY PREDICTED BY IDOCK:   -8.35 KCAL/MOL
REMARK 924 INTRA-LIGAND FREE ENERGY PREDICTED BY IDOCK:   -1.19 KCAL/MOL
REMARK 927      BINDING AFFINITY PREDICTED BY RF-SCORE:    0.00 PKD
ROOT
HETATM    1  C   UNK A   1     -10.824  13.415  67.546  1.00  0.00    -0.263 C  
HETATM    2  C   UNK A   1     -12.021  14.276  67.942  1.00  0.00    -0.364 C  
ENDROOT
BRANCH   1   3
HETATM    3  C   UNK A   1     -11.119  11.932  67.906  1.00  0.00    -0.242 C  
ATOM      4  CA  PRO A   2      -8.647  11.515  68.435  1.00  0.00    -0.159 C  
ATOM      5  N   PRO A   2     -10.042  11.103  68.182  1.00  0.00    -0.173 N  
ATOM      6  C   PRO A   2      -7.825  11.617  67.141  1.00  0.00    -0.163 C  
HETATM    7  O   UNK A   1     -12.276  11.502  67.910  1.00  0.00    -0.586 OA 
ATOM      8  CB  PRO A   2      -8.065  10.413  69.331  1.00  0.00    -0.161 C  
ATOM      9  O   PRO A   2      -8.514  11.283  66.026  1.00  0.00    -0.167 OA 
ATOM     10  CD  PRO A   2     -10.238   9.722  68.597  1.00  0.00    -0.190 C  
ATOM     11  OXT PRO A   2      -6.655  11.965  67.112  1.00  0.00    -0.130 OA 
ATOM     12  CG  PRO A   2      -9.256   9.552  69.740  1.00  0.00    -0.224 C  
ENDBRANCH   1   3
BRANCH   1  13
HETATM   13  N   UNK A   1     -10.532  13.476  66.093  1.00  0.00    -0.291 NA 
HETATM   14  H   UNK A   1     -10.434  12.533  65.717  1.00  0.00     0.000 HD 
BRANCH  13  15
HETATM   15  C   UNK A   1     -11.514  14.258  65.271  1.00  0.00    -0.344 C  
HETATM   16  O   UNK A   1     -12.679  13.646  63.188  1.00  0.00    -0.737 OA 
HETATM   17  O   UNK A   1     -10.864  12.446  63.803  1.00  0.00    -0.384 OA 
HETATM   18  C   UNK A   1     -11.770  13.444  63.977  1.00  0.00    -0.416 C  
BRANCH  15  19
HETATM   19  C   UNK A   1     -11.031  15.683  64.915  1.00  0.00    -0.447 C  
BRANCH  19  20
HETATM   20  C   UNK A   1      -9.802  16.126  65.726  1.00  0.00    -0.354 C  
BRANCH  20  21
HETATM   21  C   UNK A   1     -10.043  17.333  66.602  1.00  0.00    -0.302 A  
HETATM   22  C   UNK A   1     -10.373  19.593  68.240  1.00  0.00    -0.539 A  
HETATM   23  C   UNK A   1      -9.768  17.268  67.973  1.00  0.00    -0.277 A  
HETATM   24  C   UNK A   1      -9.930  18.391  68.788  1.00  0.00    -0.404 A  
HETATM   25  C   UNK A   1     -10.656  19.669  66.878  1.00  0.00    -0.603 A  
HETATM   26  C   UNK A   1     -10.492  18.549  66.059  1.00  0.00    -0.433 A  
ENDBRANCH  20  21
ENDBRANCH  19  20
ENDBRANCH  15  19
ENDBRANCH  13  15
ENDBRANCH   1  13
TORSDOF 6
ENDMDL
MODEL       26
REMARK 921   NORMALIZED FREE ENERGY PREDICTED BY IDOCK:   -5.79 KCAL/MOL
REMARK 922        TOTAL FREE ENERGY PREDICTED BY IDOCK:   -9.53 KCAL/MOL
REMARK 923 INTER-LIGAND FREE ENERGY PREDICTED BY IDOCK:   -8.43 KCAL/MOL
REMARK 924 INTRA-LIGAND FREE ENERGY PREDICTED BY IDOCK:   -1.10 KCAL/MOL
REMARK 927      BINDING AFFINITY PREDICTED BY RF-SCORE:    0.00 PKD
ROOT
HETATM    1  C   UNK A   1     -11.972  13.345  68.433  1.00  0.00    -0.324 C  
HETATM    2  C   UNK A   1     -11.959  13.737  69.908  1.00  0.00    -0.412 C  
ENDROOT
BRANCH   1   3
HETATM    3  C   UNK A   1     -10.899  14.173  67.674  1.00  0.00    -0.260 C  
ATOM      4  CA  PRO A   2     -12.322  14.163  65.544  1.00  0.00    -0.458 C  
ATOM      5  N   PRO A   2     -11.087  14.395  66.318  1.00  0.00    -0.325 N  
ATOM      6  C   PRO A   2     -12.406  12.731  64.995  1.00  0.00    -0.499 C  
HETATM    7  O   UNK A   1      -9.893  14.589  68.258  1.00  0.00    -0.216 OA 
ATOM      8  CB  PRO A   2     -12.254  15.159  64.379  1.00  0.00    -0.289 C  
ATOM      9  O   PRO A   2     -11.330  11.966  65.290  1.00  0.00    -0.322 OA 
ATOM     10  CD  PRO A   2     -10.166  15.222  65.552  1.00  0.00    -0.388 C  
ATOM     11  OXT PRO A   2     -13.352  12.312  64.347  1.00  0.00    -0.786 OA 
ATOM     12  CG  PRO A   2     -11.082  16.081  64.703  1.00  0.00    -0.346 C  
ENDBRANCH   1   3
BRANCH   1  13
HETATM   13  N   UNK A   1     -11.665  11.909  68.222  1.00  0.00    -0.378 NA 
HETATM   14  H   UNK A   1     -11.084  11.795  67.391  1.00  0.00     0.000 HD 
BRANCH  13  15
HETATM   15  C   UNK A   1     -11.037  11.206  69.388  1.00  0.00    -0.255 C  
HETATM   16  O   UNK A   1      -8.796  10.205  69.616  1.00  0.00    -0.195 OA 
HETATM   17  O   UNK A   1      -9.572  10.654  67.540  1.00  0.00    -0.159 OA 
HETATM   18  C   UNK A   1      -9.684  10.631  68.894  1.00  0.00    -0.202 C  
BRANCH  15  19
HETATM   19  C   UNK A   1     -11.911  10.075  69.977  1.00  0.00    -0.196 C  
BRANCH  19  20
HETATM   20  C   UNK A   1     -11.805   9.963  71.507  1.00  0.00    -0.445 C  
BRANCH  20  21
HETATM   21  C   UNK A   1     -11.413   8.589  71.999  1.00  0.00    -0.431 A  
HETATM   22  C   UNK A   1     -10.707   6.071  73.027  1.00  0.00    -0.279 A  
HETATM   23  C   UNK A   1     -10.214   8.415  72.702  1.00  0.00    -0.320 A  
HETATM   24  C   UNK A   1      -9.863   7.163  73.214  1.00  0.00    -0.275 A  
HETATM   25  C   UNK A   1     -11.899   6.230  72.325  1.00  0.00    -0.326 A  
HETATM   26  C   UNK A   1     -12.256   7.481  71.813  1.00  0.00    -0.345 A  
ENDBRANCH  20  21
ENDBRANCH  19  20
ENDBRANCH  15  19
ENDBRANCH  13  15
ENDBRANCH   1  13
TORSDOF 6
ENDMDL
MODEL       27
REMARK 921   NORMALIZED FREE ENERGY PREDICTED BY IDOCK:   -5.77 KCAL/MOL
REMARK 922        TOTAL FREE ENERGY PREDICTED BY IDOCK:   -9.51 KCAL/MOL
REMARK 923 INTER-LIGAND FREE ENERGY PREDICTED BY IDOCK:   -8.20 KCAL/MOL
REMARK 924 INTRA-LIGAND FREE ENERGY PREDICTED BY IDOCK:   -1.30 KCAL/MOL
REMARK 927      BINDING AFFINITY PREDICTED BY RF-SCORE:    0.00 PKD
ROOT
HETATM    1  C   UNK A   1     -10.040  12.931  67.334  1.00  0.00    -0.223 C  
HETATM    2  C   UNK A   1     -10.841  13.876  68.224  1.00  0.00    -0.263 C  
ENDROOT
BRANCH   1   3
HETATM    3  C   UNK A   1     -10.758  11.553  67.274  1.00  0.00    -0.244 C  
ATOM      4  CA  PRO A   2      -8.519  10.320  67.455  1.00  0.00    -0.118 C  
ATOM      5  N   PRO A   2      -9.972  10.412  67.210  1.00  0.00    -0.180 N  
ATOM      6  C   PRO A   2      -7.696  10.570  66.183  1.00  0.00    -0.142 C  
HETATM    7  O   UNK A   1     -11.990  11.485  67.249  1.00  0.00    -0.605 OA 
ATOM      8  CB  PRO A   2      -8.290   8.884  67.945  1.00  0.00    -0.118 C  
ATOM      9  O   PRO A   2      -8.446  10.793  65.079  1.00  0.00    -0.163 OA 
ATOM     10  CD  PRO A   2     -10.566   9.084  67.225  1.00  0.00    -0.231 C  
ATOM     11  OXT PRO A   2      -6.475  10.568  66.159  1.00  0.00    -0.104 OA 
ATOM     12  CG  PRO A   2      -9.683   8.311  68.185  1.00  0.00    -0.178 C  
ENDBRANCH   1   3
BRANCH   1  13
HETATM   13  N   UNK A   1      -9.908  13.430  65.943  1.00  0.00    -0.403 NA 
HETATM   14  H   UNK A   1      -9.746  12.650  65.306  1.00  0.00     0.000 HD 
BRANCH  13  15
HETATM   15  C   UNK A   1     -11.049  14.268  65.449  1.00  0.00    -0.327 C  
HETATM   16  O   UNK A   1     -12.707  13.808  63.684  1.00  0.00    -0.718 OA 
HETATM   17  O   UNK A   1     -10.817  12.567  63.741  1.00  0.00    -0.394 OA 
HETATM   18  C   UNK A   1     -11.633  13.549  64.206  1.00  0.00    -0.397 C  
BRANCH  15  19
HETATM   19  C   UNK A   1     -10.645  15.715  65.084  1.00  0.00    -0.449 C  
BRANCH  19  20
HETATM   20  C   UNK A   1      -9.468  16.245  65.921  1.00  0.00    -0.318 C  
BRANCH  20  21
HETATM   21  C   UNK A   1      -9.773  17.517  66.677  1.00  0.00    -0.303 A  
HETATM   22  C   UNK A   1     -10.220  19.906  68.088  1.00  0.00    -0.564 A  
HETATM   23  C   UNK A   1      -9.474  17.607  68.041  1.00  0.00    -0.282 A  
HETATM   24  C   UNK A   1      -9.695  18.795  68.744  1.00  0.00    -0.432 A  
HETATM   25  C   UNK A   1     -10.527  19.828  66.731  1.00  0.00    -0.610 A  
HETATM   26  C   UNK A   1     -10.304  18.643  66.024  1.00  0.00    -0.436 A  
ENDBRANCH  20  21
ENDBRANCH  19  20
ENDBRANCH  15  19
ENDBRANCH  13  15
ENDBRANCH   1  13
TORSDOF 6
ENDMDL
MODEL       28
REMARK 921   NORMALIZED FREE ENERGY PREDICTED BY IDOCK:   -5.76 KCAL/MOL
REMARK 922        TOTAL FREE ENERGY PREDICTED BY IDOCK:   -9.50 KCAL/MOL
REMARK 923 INTER-LIGAND FREE ENERGY PREDICTED BY IDOCK:   -8.32 KCAL/MOL
REMARK 924 INTRA-LIGAND FREE ENERGY PREDICTED BY IDOCK:   -1.17 KCAL/MOL
REMARK 927      BINDING AFFINITY PREDICTED BY RF-SCORE:    0.00 PKD
ROOT
HETATM    1  C   UNK A   1     -11.917  14.503  67.415  1.00  0.00    -0.335 C  
HETATM    2  C   UNK A   1     -12.390  14.164  66.004  1.00  0.00    -0.470 C  
ENDROOT
BRANCH   1   3
HETATM    3  C   UNK A   1     -11.625  13.185  68.187  1.00  0.00    -0.339 C  
ATOM      4  CA  PRO A   2     -12.612  14.166  70.338  1.00  0.00    -0.332 C  
ATOM      5  N   PRO A   2     -11.863  13.165  69.553  1.00  0.00    -0.316 N  
ATOM      6  C   PRO A   2     -11.714  15.308  70.836  1.00  0.00    -0.344 C  
HETATM    7  O   UNK A   1     -11.163  12.200  67.602  1.00  0.00    -0.250 OA 
ATOM      8  CB  PRO A   2     -13.173  13.390  71.537  1.00  0.00    -0.395 C  
ATOM      9  O   PRO A   2     -10.412  15.171  70.495  1.00  0.00    -0.179 OA 
ATOM     10  CD  PRO A   2     -11.685  11.950  70.333  1.00  0.00    -0.120 C  
ATOM     11  OXT PRO A   2     -12.128  16.257  71.483  1.00  0.00    -0.425 OA 
ATOM     12  CG  PRO A   2     -12.908  11.919  71.228  1.00  0.00    -0.391 C  
ENDBRANCH   1   3
BRANCH   1  13
HETATM   13  N   UNK A   1     -10.673  15.312  67.422  1.00  0.00    -0.287 NA 
HETATM   14  H   UNK A   1     -10.041  14.986  66.691  1.00  0.00     0.000 HD 
BRANCH  13  15
HETATM   15  C   UNK A   1     -10.869  16.794  67.309  1.00  0.00    -0.137 C  
HETATM   16  O   UNK A   1     -10.632  18.281  65.357  1.00  0.00    -0.612 OA 
HETATM   17  O   UNK A   1      -9.702  16.221  65.266  1.00  0.00    -0.429 OA 
HETATM   18  C   UNK A   1     -10.403  17.205  65.888  1.00  0.00    -0.284 C  
BRANCH  15  19
HETATM   19  C   UNK A   1     -10.098  17.607  68.375  1.00  0.00    -0.368 C  
BRANCH  19  20
HETATM   20  C   UNK A   1      -8.574  17.414  68.298  1.00  0.00    -0.260 C  
BRANCH  20  21
HETATM   21  C   UNK A   1      -7.792  18.705  68.232  1.00  0.00    -0.331 A  
HETATM   22  C   UNK A   1      -6.239  21.042  68.082  1.00  0.00    -0.356 A  
HETATM   23  C   UNK A   1      -6.864  19.011  69.235  1.00  0.00    -0.318 A  
HETATM   24  C   UNK A   1      -6.090  20.173  69.161  1.00  0.00    -0.356 A  
HETATM   25  C   UNK A   1      -7.162  20.752  67.082  1.00  0.00    -0.394 A  
HETATM   26  C   UNK A   1      -7.936  19.589  67.150  1.00  0.00    -0.298 A  
ENDBRANCH  20  21
ENDBRANCH  19  20
ENDBRANCH  15  19
ENDBRANCH  13  15
ENDBRANCH   1  13
TORSDOF 6
ENDMDL
MODEL       29
REMARK 921   NORMALIZED FREE ENERGY PREDICTED BY IDOCK:   -5.76 KCAL/MOL
REMARK 922        TOTAL FREE ENERGY PREDICTED BY IDOCK:   -9.49 KCAL/MOL
REMARK 923 INTER-LIGAND FREE ENERGY PREDICTED BY IDOCK:   -8.48 KCAL/MOL
REMARK 924 INTRA-LIGAND FREE ENERGY PREDICTED BY IDOCK:   -1.01 KCAL/MOL
REMARK 927      BINDING AFFINITY PREDICTED BY RF-SCORE:    0.00 PKD
ROOT
HETATM    1  C   UNK A   1      -9.873   9.157  70.666  1.00  0.00    -0.249 C  
HETATM    2  C   UNK A   1      -8.545   9.647  70.096  1.00  0.00    -0.243 C  
ENDROOT
BRANCH   1   3
HETATM    3  C   UNK A   1      -9.634   8.563  72.082  1.00  0.00    -0.312 C  
ATOM      4  CA  PRO A   2     -11.570   6.914  71.774  1.00  0.00    -0.286 C  
ATOM      5  N   PRO A   2     -10.539   7.624  72.555  1.00  0.00    -0.255 N  
ATOM      6  C   PRO A   2     -12.895   7.690  71.716  1.00  0.00    -0.330 C  
HETATM    7  O   UNK A   1      -8.686   8.945  72.775  1.00  0.00    -0.347 OA 
ATOM      8  CB  PRO A   2     -11.782   5.586  72.512  1.00  0.00    -0.222 C  
ATOM      9  O   PRO A   2     -12.882   8.851  72.410  1.00  0.00    -0.392 OA 
ATOM     10  CD  PRO A   2     -10.345   6.969  73.840  1.00  0.00    -0.348 C  
ATOM     11  OXT PRO A   2     -13.877   7.301  71.103  1.00  0.00    -0.319 OA 
ATOM     12  CG  PRO A   2     -10.663   5.516  73.548  1.00  0.00    -0.322 C  
ENDBRANCH   1   3
BRANCH   1  13
HETATM   13  N   UNK A   1     -10.874  10.244  70.797  1.00  0.00    -0.383 NA 
HETATM   14  H   UNK A   1     -10.717  10.761  71.662  1.00  0.00     0.000 HD 
BRANCH  13  15
HETATM   15  C   UNK A   1     -10.950  11.193  69.638  1.00  0.00    -0.192 C  
HETATM   16  O   UNK A   1     -12.038  13.397  69.462  1.00  0.00    -0.311 OA 
HETATM   17  O   UNK A   1     -12.628  12.034  71.168  1.00  0.00    -0.367 OA 
HETATM   18  C   UNK A   1     -11.916  12.334  70.050  1.00  0.00    -0.304 C  
BRANCH  15  19
HETATM   19  C   UNK A   1     -11.436  10.535  68.326  1.00  0.00    -0.272 C  
BRANCH  19  20
HETATM   20  C   UNK A   1     -10.417  10.646  67.180  1.00  0.00    -0.295 C  
BRANCH  20  21
HETATM   21  C   UNK A   1     -10.925  11.404  65.975  1.00  0.00    -0.286 A  
HETATM   22  C   UNK A   1     -11.929  12.713  63.700  1.00  0.00    -0.615 A  
HETATM   23  C   UNK A   1     -10.434  11.098  64.700  1.00  0.00    -0.400 A  
HETATM   24  C   UNK A   1     -10.934  11.747  63.567  1.00  0.00    -0.499 A  
HETATM   25  C   UNK A   1     -12.421  13.031  64.963  1.00  0.00    -0.534 A  
HETATM   26  C   UNK A   1     -11.927  12.381  66.098  1.00  0.00    -0.397 A  
ENDBRANCH  20  21
ENDBRANCH  19  20
ENDBRANCH  15  19
ENDBRANCH  13  15
ENDBRANCH   1  13
TORSDOF 6
ENDMDL
MODEL       30
REMARK 921   NORMALIZED FREE ENERGY PREDICTED BY IDOCK:   -5.74 KCAL/MOL
REMARK 922        TOTAL FREE ENERGY PREDICTED BY IDOCK:   -9.47 KCAL/MOL
REMARK 923 INTER-LIGAND FREE ENERGY PREDICTED BY IDOCK:   -8.07 KCAL/MOL
REMARK 924 INTRA-LIGAND FREE ENERGY PREDICTED BY IDOCK:   -1.40 KCAL/MOL
REMARK 927      BINDING AFFINITY PREDICTED BY RF-SCORE:    0.00 PKD
ROOT
HETATM    1  C   UNK A   1     -11.565  12.112  67.537  1.00  0.00    -0.343 C  
HETATM    2  C   UNK A   1     -11.733  12.268  69.046  1.00  0.00    -0.376 C  
ENDROOT
BRANCH   1   3
HETATM    3  C   UNK A   1     -10.671  13.264  67.000  1.00  0.00    -0.260 C  
ATOM      4  CA  PRO A   2     -12.205  13.580  64.972  1.00  0.00    -0.419 C  
ATOM      5  N   PRO A   2     -10.972  13.795  65.754  1.00  0.00    -0.279 N  
ATOM      6  C   PRO A   2     -12.114  12.342  64.068  1.00  0.00    -0.471 C  
HETATM    7  O   UNK A   1      -9.703  13.668  67.652  1.00  0.00    -0.218 OA 
ATOM      8  CB  PRO A   2     -12.353  14.840  64.110  1.00  0.00    -0.259 C  
ATOM      9  O   PRO A   2     -10.922  11.704  64.129  1.00  0.00    -0.335 OA 
ATOM     10  CD  PRO A   2     -10.229  14.923  65.214  1.00  0.00    -0.373 C  
ATOM     11  OXT PRO A   2     -13.027  11.961  63.353  1.00  0.00    -0.730 OA 
ATOM     12  CG  PRO A   2     -11.309  15.818  64.641  1.00  0.00    -0.343 C  
ENDBRANCH   1   3
BRANCH   1  13
HETATM   13  N   UNK A   1     -10.918  10.830  67.164  1.00  0.00    -0.280 NA 
HETATM   14  H   UNK A   1     -10.387  10.945  66.300  1.00  0.00     0.000 HD 
BRANCH  13  15
HETATM   15  C   UNK A   1     -10.053  10.213  68.221  1.00  0.00    -0.156 C  
HETATM   16  O   UNK A   1      -7.605   9.948  68.311  1.00  0.00    -0.080 OA 
HETATM   17  O   UNK A   1      -8.570  10.401  66.317  1.00  0.00    -0.135 OA 
HETATM   18  C   UNK A   1      -8.611  10.164  67.654  1.00  0.00    -0.118 C  
BRANCH  15  19
HETATM   19  C   UNK A   1     -10.504   8.796  68.646  1.00  0.00    -0.213 C  
BRANCH  19  20
HETATM   20  C   UNK A   1     -10.397   8.556  70.162  1.00  0.00    -0.214 C  
BRANCH  20  21
HETATM   21  C   UNK A   1     -11.730   8.432  70.862  1.00  0.00    -0.269 A  
HETATM   22  C   UNK A   1     -14.262   8.251  72.068  1.00  0.00    -0.507 A  
HETATM   23  C   UNK A   1     -12.375   9.578  71.343  1.00  0.00    -0.451 A  
HETATM   24  C   UNK A   1     -13.635   9.489  71.942  1.00  0.00    -0.468 A  
HETATM   25  C   UNK A   1     -13.628   7.104  71.599  1.00  0.00    -0.399 A  
HETATM   26  C   UNK A   1     -12.370   7.188  70.996  1.00  0.00    -0.376 A  
ENDBRANCH  20  21
ENDBRANCH  19  20
ENDBRANCH  15  19
ENDBRANCH  13  15
ENDBRANCH   1  13
TORSDOF 6
ENDMDL
MODEL       31
REMARK 921   NORMALIZED FREE ENERGY PREDICTED BY IDOCK:   -5.69 KCAL/MOL
REMARK 922        TOTAL FREE ENERGY PREDICTED BY IDOCK:   -9.41 KCAL/MOL
REMARK 923 INTER-LIGAND FREE ENERGY PREDICTED BY IDOCK:   -8.33 KCAL/MOL
REMARK 924 INTRA-LIGAND FREE ENERGY PREDICTED BY IDOCK:   -1.07 KCAL/MOL
REMARK 927      BINDING AFFINITY PREDICTED BY RF-SCORE:    0.00 PKD
ROOT
HETATM    1  C   UNK A   1     -11.653  14.339  66.537  1.00  0.00    -0.378 C  
HETATM    2  C   UNK A   1     -12.830  13.915  65.662  1.00  0.00    -0.467 C  
ENDROOT
BRANCH   1   3
HETATM    3  C   UNK A   1     -11.037  13.080  67.210  1.00  0.00    -0.273 C  
ATOM      4  CA  PRO A   2     -12.067  13.719  69.467  1.00  0.00    -0.334 C  
ATOM      5  N   PRO A   2     -11.176  12.943  68.584  1.00  0.00    -0.263 N  
ATOM      6  C   PRO A   2     -11.403  15.004  69.984  1.00  0.00    -0.273 C  
HETATM    7  O   UNK A   1     -10.415  12.248  66.542  1.00  0.00    -0.223 OA 
ATOM      8  CB  PRO A   2     -12.370  12.784  70.645  1.00  0.00    -0.381 C  
ATOM      9  O   PRO A   2     -10.127  15.169  69.566  1.00  0.00    -0.231 OA 
ATOM     10  CD  PRO A   2     -10.691  11.759  69.277  1.00  0.00    -0.069 C  
ATOM     11  OXT PRO A   2     -11.966  15.809  70.710  1.00  0.00    -0.357 OA 
ATOM     12  CG  PRO A   2     -11.819  11.422  70.233  1.00  0.00    -0.438 C  
ENDBRANCH   1   3
BRANCH   1  13
HETATM   13  N   UNK A   1     -10.578  15.007  65.764  1.00  0.00    -0.319 NA 
HETATM   14  H   UNK A   1     -10.804  14.995  64.769  1.00  0.00     0.000 HD 
BRANCH  13  15
HETATM   15  C   UNK A   1     -10.244  16.402  66.199  1.00  0.00    -0.348 C  
HETATM   16  O   UNK A   1     -11.027  18.567  65.320  1.00  0.00    -0.551 OA 
HETATM   17  O   UNK A   1     -11.303  16.721  64.045  1.00  0.00    -1.153 OA 
HETATM   18  C   UNK A   1     -10.887  17.364  65.167  1.00  0.00     0.142 C  
BRANCH  15  19
HETATM   19  C   UNK A   1      -8.725  16.675  66.302  1.00  0.00    -0.359 C  
BRANCH  19  20
HETATM   20  C   UNK A   1      -8.353  17.580  67.489  1.00  0.00    -0.220 C  
BRANCH  20  21
HETATM   21  C   UNK A   1      -7.668  18.867  67.091  1.00  0.00    -0.246 A  
HETATM   22  C   UNK A   1      -6.291  21.215  66.395  1.00  0.00    -0.312 A  
HETATM   23  C   UNK A   1      -7.259  19.774  68.076  1.00  0.00    -0.321 A  
HETATM   24  C   UNK A   1      -6.573  20.941  67.732  1.00  0.00    -0.392 A  
HETATM   25  C   UNK A   1      -6.698  20.325  65.405  1.00  0.00    -0.318 A  
HETATM   26  C   UNK A   1      -7.381  19.154  65.746  1.00  0.00    -0.247 A  
ENDBRANCH  20  21
ENDBRANCH  19  20
ENDBRANCH  15  19
ENDBRANCH  13  15
ENDBRANCH   1  13
TORSDOF 6
ENDMDL
MODEL       32
REMARK 921   NORMALIZED FREE ENERGY PREDICTED BY IDOCK:   -5.66 KCAL/MOL
REMARK 922        TOTAL FREE ENERGY PREDICTED BY IDOCK:   -9.36 KCAL/MOL
REMARK 923 INTER-LIGAND FREE ENERGY PREDICTED BY IDOCK:   -8.19 KCAL/MOL
REMARK 924 INTRA-LIGAND FREE ENERGY PREDICTED BY IDOCK:   -1.17 KCAL/MOL
REMARK 927      BINDING AFFINITY PREDICTED BY RF-SCORE:    0.00 PKD
ROOT
HETATM    1  C   UNK A   1     -10.174   9.320  70.644  1.00  0.00    -0.272 C  
HETATM    2  C   UNK A   1      -9.598   8.597  71.858  1.00  0.00    -0.377 C  
ENDROOT
BRANCH   1   3
HETATM    3  C   UNK A   1      -9.532   8.741  69.352  1.00  0.00    -0.161 C  
ATOM      4  CA  PRO A   2      -9.381  11.080  68.317  1.00  0.00    -0.172 C  
ATOM      5  N   PRO A   2      -9.316   9.605  68.289  1.00  0.00    -0.133 N  
ATOM      6  C   PRO A   2     -10.797  11.607  68.042  1.00  0.00    -0.215 C  
HETATM    7  O   UNK A   1      -9.256   7.540  69.268  1.00  0.00    -0.145 OA 
ATOM      8  CB  PRO A   2      -8.433  11.539  67.201  1.00  0.00    -0.158 C  
ATOM      9  O   PRO A   2     -11.706  10.635  67.795  1.00  0.00    -0.503 OA 
ATOM     10  CD  PRO A   2      -8.653   9.157  67.074  1.00  0.00    -0.123 C  
ATOM     11  OXT PRO A   2     -11.086  12.793  68.041  1.00  0.00    -0.228 OA 
ATOM     12  CG  PRO A   2      -7.688  10.283  66.760  1.00  0.00    -0.111 C  
ENDBRANCH   1   3
BRANCH   1  13
HETATM   13  N   UNK A   1     -11.644   9.158  70.526  1.00  0.00    -0.390 NA 
HETATM   14  H   UNK A   1     -11.889   8.167  70.542  1.00  0.00     0.000 HD 
BRANCH  13  15
HETATM   15  C   UNK A   1     -12.458   9.903  71.541  1.00  0.00    -0.411 C  
HETATM   16  O   UNK A   1     -14.330   9.136  72.948  1.00  0.00    -0.519 OA 
HETATM   17  O   UNK A   1     -13.749   7.893  71.150  1.00  0.00    -0.198 OA 
HETATM   18  C   UNK A   1     -13.612   8.964  71.975  1.00  0.00    -0.441 C  
BRANCH  15  19
HETATM   19  C   UNK A   1     -13.030  11.241  71.018  1.00  0.00    -0.304 C  
BRANCH  19  20
HETATM   20  C   UNK A   1     -13.516  12.172  72.142  1.00  0.00    -0.383 C  
BRANCH  20  21
HETATM   21  C   UNK A   1     -13.012  13.592  72.028  1.00  0.00    -0.420 A  
HETATM   22  C   UNK A   1     -11.972  16.198  71.871  1.00  0.00    -0.583 A  
HETATM   23  C   UNK A   1     -12.926  14.397  73.170  1.00  0.00    -0.517 A  
HETATM   24  C   UNK A   1     -12.408  15.693  73.094  1.00  0.00    -0.584 A  
HETATM   25  C   UNK A   1     -12.058  15.410  70.726  1.00  0.00    -0.413 A  
HETATM   26  C   UNK A   1     -12.572  14.112  70.799  1.00  0.00    -0.432 A  
ENDBRANCH  20  21
ENDBRANCH  19  20
ENDBRANCH  15  19
ENDBRANCH  13  15
ENDBRANCH   1  13
TORSDOF 6
ENDMDL
MODEL       33
REMARK 921   NORMALIZED FREE ENERGY PREDICTED BY IDOCK:   -5.66 KCAL/MOL
REMARK 922        TOTAL FREE ENERGY PREDICTED BY IDOCK:   -9.36 KCAL/MOL
REMARK 923 INTER-LIGAND FREE ENERGY PREDICTED BY IDOCK:   -8.30 KCAL/MOL
REMARK 924 INTRA-LIGAND FREE ENERGY PREDICTED BY IDOCK:   -1.05 KCAL/MOL
REMARK 927      BINDING AFFINITY PREDICTED BY RF-SCORE:    0.00 PKD
ROOT
HETATM    1  C   UNK A   1     -10.539  14.668  68.363  1.00  0.00    -0.241 C  
HETATM    2  C   UNK A   1     -11.638  14.186  67.420  1.00  0.00    -0.399 C  
ENDROOT
BRANCH   1   3
HETATM    3  C   UNK A   1     -10.328  16.195  68.163  1.00  0.00    -0.269 C  
ATOM      4  CA  PRO A   2      -7.904  15.816  67.424  1.00  0.00    -0.175 C  
ATOM      5  N   PRO A   2      -9.051  16.640  67.851  1.00  0.00    -0.216 N  
ATOM      6  C   PRO A   2      -7.085  15.295  68.614  1.00  0.00    -0.116 C  
HETATM    7  O   UNK A   1     -11.264  16.986  68.313  1.00  0.00    -0.267 OA 
ATOM      8  CB  PRO A   2      -7.038  16.753  66.571  1.00  0.00    -0.254 C  
ATOM      9  O   PRO A   2      -7.541  15.710  69.818  1.00  0.00    -0.172 OA 
ATOM     10  CD  PRO A   2      -8.787  18.045  67.577  1.00  0.00    -0.252 C  
ATOM     11  OXT PRO A   2      -6.107  14.574  68.495  1.00  0.00    -0.081 OA 
ATOM     12  CG  PRO A   2      -7.884  18.005  66.360  1.00  0.00    -0.304 C  
ENDBRANCH   1   3
BRANCH   1  13
HETATM   13  N   UNK A   1     -10.871  14.443  69.791  1.00  0.00    -0.444 NA 
HETATM   14  H   UNK A   1     -10.538  15.226  70.354  1.00  0.00     0.000 HD 
BRANCH  13  15
HETATM   15  C   UNK A   1     -12.319  14.180  70.082  1.00  0.00    -0.351 C  
HETATM   16  O   UNK A   1     -13.992  15.594  71.209  1.00  0.00    -0.570 OA 
HETATM   17  O   UNK A   1     -11.802  16.093  71.473  1.00  0.00    -0.456 OA 
HETATM   18  C   UNK A   1     -12.820  15.345  70.972  1.00  0.00    -0.463 C  
BRANCH  15  19
HETATM   19  C   UNK A   1     -12.576  12.827  70.784  1.00  0.00    -0.308 C  
BRANCH  19  20
HETATM   20  C   UNK A   1     -11.969  11.630  70.032  1.00  0.00    -0.429 C  
BRANCH  20  21
HETATM   21  C   UNK A   1     -11.937  10.350  70.834  1.00  0.00    -0.478 A  
HETATM   22  C   UNK A   1     -11.791   8.016  72.393  1.00  0.00    -0.429 A  
HETATM   23  C   UNK A   1     -10.859   9.467  70.700  1.00  0.00    -0.371 A  
HETATM   24  C   UNK A   1     -10.784   8.307  71.475  1.00  0.00    -0.295 A  
HETATM   25  C   UNK A   1     -12.873   8.882  72.532  1.00  0.00    -0.401 A  
HETATM   26  C   UNK A   1     -12.949  10.046  71.761  1.00  0.00    -0.560 A  
ENDBRANCH  20  21
ENDBRANCH  19  20
ENDBRANCH  15  19
ENDBRANCH  13  15
ENDBRANCH   1  13
TORSDOF 6
ENDMDL
MODEL       34
REMARK 921   NORMALIZED FREE ENERGY PREDICTED BY IDOCK:   -5.61 KCAL/MOL
REMARK 922        TOTAL FREE ENERGY PREDICTED BY IDOCK:   -9.30 KCAL/MOL
REMARK 923 INTER-LIGAND FREE ENERGY PREDICTED BY IDOCK:   -8.34 KCAL/MOL
REMARK 924 INTRA-LIGAND FREE ENERGY PREDICTED BY IDOCK:   -0.96 KCAL/MOL
REMARK 927      BINDING AFFINITY PREDICTED BY RF-SCORE:    0.00 PKD
ROOT
HETATM    1  C   UNK A   1      -9.339  14.139  67.648  1.00  0.00    -0.209 C  
HETATM    2  C   UNK A   1      -8.417  13.183  66.896  1.00  0.00    -0.081 C  
ENDROOT
BRANCH   1   3
HETATM    3  C   UNK A   1      -9.669  15.354  66.735  1.00  0.00    -0.240 C  
ATOM      4  CA  PRO A   2      -9.923  16.883  68.775  1.00  0.00    -0.276 C  
ATOM      5  N   PRO A   2     -10.046  16.542  67.345  1.00  0.00    -0.272 N  
ATOM      6  C   PRO A   2     -11.154  16.450  69.586  1.00  0.00    -0.306 C  
HETATM    7  O   UNK A   1      -9.629  15.249  65.506  1.00  0.00    -0.317 OA 
ATOM      8  CB  PRO A   2      -9.795  18.412  68.809  1.00  0.00    -0.388 C  
ATOM      9  O   PRO A   2     -12.126  15.872  68.843  1.00  0.00    -0.315 OA 
ATOM     10  CD  PRO A   2     -10.300  17.743  66.564  1.00  0.00    -0.345 C  
ATOM     11  OXT PRO A   2     -11.257  16.610  70.792  1.00  0.00    -0.228 OA 
ATOM     12  CG  PRO A   2      -9.604  18.834  67.354  1.00  0.00    -0.337 C  
ENDBRANCH   1   3
BRANCH   1  13
HETATM   13  N   UNK A   1     -10.624  13.507  68.037  1.00  0.00    -0.234 NA 
HETATM   14  H   UNK A   1     -11.375  14.196  68.008  1.00  0.00     0.000 HD 
BRANCH  13  15
HETATM   15  C   UNK A   1     -11.009  12.293  67.247  1.00  0.00    -0.256 C  
HETATM   16  O   UNK A   1     -12.482  12.081  65.282  1.00  0.00    -0.427 OA 
HETATM   17  O   UNK A   1     -12.606  13.965  66.527  1.00  0.00    -0.384 OA 
HETATM   18  C   UNK A   1     -12.102  12.736  66.240  1.00  0.00    -0.332 C  
BRANCH  15  19
HETATM   19  C   UNK A   1     -11.531  11.125  68.116  1.00  0.00    -0.373 C  
BRANCH  19  20
HETATM   20  C   UNK A   1     -11.781  11.525  69.580  1.00  0.00    -0.419 C  
BRANCH  20  21
HETATM   21  C   UNK A   1     -11.678  10.378  70.559  1.00  0.00    -0.434 A  
HETATM   22  C   UNK A   1     -11.428   8.318  72.454  1.00  0.00    -0.463 A  
HETATM   23  C   UNK A   1     -10.443   9.758  70.780  1.00  0.00    -0.339 A  
HETATM   24  C   UNK A   1     -10.317   8.734  71.724  1.00  0.00    -0.413 A  
HETATM   25  C   UNK A   1     -12.664   8.923  72.238  1.00  0.00    -0.464 A  
HETATM   26  C   UNK A   1     -12.793   9.950  71.299  1.00  0.00    -0.486 A  
ENDBRANCH  20  21
ENDBRANCH  19  20
ENDBRANCH  15  19
ENDBRANCH  13  15
ENDBRANCH   1  13
TORSDOF 6
ENDMDL
MODEL       35
REMARK 921   NORMALIZED FREE ENERGY PREDICTED BY IDOCK:   -5.58 KCAL/MOL
REMARK 922        TOTAL FREE ENERGY PREDICTED BY IDOCK:   -9.25 KCAL/MOL
REMARK 923 INTER-LIGAND FREE ENERGY PREDICTED BY IDOCK:   -8.13 KCAL/MOL
REMARK 924 INTRA-LIGAND FREE ENERGY PREDICTED BY IDOCK:   -1.12 KCAL/MOL
REMARK 927      BINDING AFFINITY PREDICTED BY RF-SCORE:    0.00 PKD
ROOT
HETATM    1  C   UNK A   1     -10.584   7.924  68.545  1.00  0.00    -0.106 C  
HETATM    2  C   UNK A   1     -10.652   7.432  67.101  1.00  0.00    -0.413 C  
ENDROOT
BRANCH   1   3
HETATM    3  C   UNK A   1      -9.629   7.002  69.354  1.00  0.00    -0.155 C  
ATOM      4  CA  PRO A   2     -11.339   6.809  71.252  1.00  0.00    -0.289 C  
ATOM      5  N   PRO A   2     -10.007   6.640  70.639  1.00  0.00    -0.183 N  
ATOM      6  C   PRO A   2     -11.499   8.176  71.934  1.00  0.00    -0.299 C  
HETATM    7  O   UNK A   1      -8.551   6.635  68.876  1.00  0.00    -0.125 OA 
ATOM      8  CB  PRO A   2     -11.436   5.693  72.301  1.00  0.00    -0.278 C  
ATOM      9  O   PRO A   2     -10.391   8.951  71.877  1.00  0.00    -0.322 OA 
ATOM     10  CD  PRO A   2      -9.204   5.723  71.432  1.00  0.00    -0.143 C  
ATOM     11  OXT PRO A   2     -12.527   8.538  72.484  1.00  0.00    -0.383 OA 
ATOM     12  CG  PRO A   2     -10.230   4.793  72.047  1.00  0.00    -0.261 C  
ENDBRANCH   1   3
BRANCH   1  13
HETATM   13  N   UNK A   1     -10.069   9.311  68.652  1.00  0.00    -0.182 NA 
HETATM   14  H   UNK A   1      -9.351   9.472  67.945  1.00  0.00     0.000 HD 
BRANCH  13  15
HETATM   15  C   UNK A   1     -11.107  10.390  68.586  1.00  0.00    -0.262 C  
HETATM   16  O   UNK A   1     -11.807  11.804  66.692  1.00  0.00    -0.569 OA 
HETATM   17  O   UNK A   1      -9.836  10.704  66.549  1.00  0.00    -0.191 OA 
HETATM   18  C   UNK A   1     -10.982  11.054  67.190  1.00  0.00    -0.283 C  
BRANCH  15  19
HETATM   19  C   UNK A   1     -10.966  11.458  69.695  1.00  0.00    -0.174 C  
BRANCH  19  20
HETATM   20  C   UNK A   1     -12.197  11.543  70.613  1.00  0.00    -0.473 C  
BRANCH  20  21
HETATM   21  C   UNK A   1     -12.608  12.954  70.964  1.00  0.00    -0.376 A  
HETATM   22  C   UNK A   1     -13.300  15.572  71.715  1.00  0.00    -0.577 A  
HETATM   23  C   UNK A   1     -13.455  13.184  72.055  1.00  0.00    -0.598 A  
HETATM   24  C   UNK A   1     -13.799  14.486  72.430  1.00  0.00    -0.587 A  
HETATM   25  C   UNK A   1     -12.461  15.357  70.625  1.00  0.00    -0.478 A  
HETATM   26  C   UNK A   1     -12.112  14.057  70.248  1.00  0.00    -0.425 A  
ENDBRANCH  20  21
ENDBRANCH  19  20
ENDBRANCH  15  19
ENDBRANCH  13  15
ENDBRANCH   1  13
TORSDOF 6
ENDMDL
MODEL       36
REMARK 921   NORMALIZED FREE ENERGY PREDICTED BY IDOCK:   -5.56 KCAL/MOL
REMARK 922        TOTAL FREE ENERGY PREDICTED BY IDOCK:   -9.22 KCAL/MOL
REMARK 923 INTER-LIGAND FREE ENERGY PREDICTED BY IDOCK:   -8.41 KCAL/MOL
REMARK 924 INTRA-LIGAND FREE ENERGY PREDICTED BY IDOCK:   -0.81 KCAL/MOL
REMARK 927      BINDING AFFINITY PREDICTED BY RF-SCORE:    0.00 PKD
ROOT
HETATM    1  C   UNK A   1      -9.964  11.391  65.794  1.00  0.00    -0.230 C  
HETATM    2  C   UNK A   1      -9.723  10.300  64.755  1.00  0.00    -0.397 C  
ENDROOT
BRANCH   1   3
HETATM    3  C   UNK A   1      -8.837  11.339  66.863  1.00  0.00    -0.165 C  
ATOM      4  CA  PRO A   2     -10.433  10.292  68.571  1.00  0.00    -0.192 C  
ATOM      5  N   PRO A   2      -9.175  10.934  68.146  1.00  0.00    -0.153 N  
ATOM      6  C   PRO A   2     -11.511  11.317  68.955  1.00  0.00    -0.297 C  
HETATM    7  O   UNK A   1      -7.684  11.680  66.581  1.00  0.00    -0.139 OA 
ATOM      8  CB  PRO A   2     -10.056   9.455  69.801  1.00  0.00    -0.229 C  
ATOM      9  O   PRO A   2     -11.102  12.603  68.865  1.00  0.00    -0.247 OA 
ATOM     10  CD  PRO A   2      -8.164  10.789  69.183  1.00  0.00    -0.120 C  
ATOM     11  OXT PRO A   2     -12.637  11.009  69.313  1.00  0.00    -0.361 OA 
ATOM     12  CG  PRO A   2      -8.531   9.481  69.855  1.00  0.00    -0.198 C  
ENDBRANCH   1   3
BRANCH   1  13
HETATM   13  N   UNK A   1      -9.962  12.752  65.204  1.00  0.00    -0.456 NA 
HETATM   14  H   UNK A   1     -10.094  12.695  64.194  1.00  0.00     0.000 HD 
BRANCH  13  15
HETATM   15  C   UNK A   1     -10.947  13.714  65.798  1.00  0.00    -0.278 C  
HETATM   16  O   UNK A   1     -13.310  14.117  65.227  1.00  0.00    -0.715 OA 
HETATM   17  O   UNK A   1     -12.013  13.011  63.741  1.00  0.00    -0.448 OA 
HETATM   18  C   UNK A   1     -12.223  13.655  64.919  1.00  0.00    -0.414 C  
BRANCH  15  19
HETATM   19  C   UNK A   1     -10.426  15.167  65.879  1.00  0.00    -0.350 C  
BRANCH  19  20
HETATM   20  C   UNK A   1     -10.634  15.808  67.262  1.00  0.00    -0.313 C  
BRANCH  20  21
HETATM   21  C   UNK A   1     -10.445  17.307  67.282  1.00  0.00    -0.319 A  
HETATM   22  C   UNK A   1     -10.211  20.107  67.295  1.00  0.00    -0.540 A  
HETATM   23  C   UNK A   1     -10.502  18.034  66.087  1.00  0.00    -0.336 A  
HETATM   24  C   UNK A   1     -10.387  19.427  66.092  1.00  0.00    -0.595 A  
HETATM   25  C   UNK A   1     -10.147  19.395  68.490  1.00  0.00    -0.527 A  
HETATM   26  C   UNK A   1     -10.265  18.003  68.490  1.00  0.00    -0.392 A  
ENDBRANCH  20  21
ENDBRANCH  19  20
ENDBRANCH  15  19
ENDBRANCH  13  15
ENDBRANCH   1  13
TORSDOF 6
ENDMDL
MODEL       37
REMARK 921   NORMALIZED FREE ENERGY PREDICTED BY IDOCK:   -5.55 KCAL/MOL
REMARK 922        TOTAL FREE ENERGY PREDICTED BY IDOCK:   -9.21 KCAL/MOL
REMARK 923 INTER-LIGAND FREE ENERGY PREDICTED BY IDOCK:   -7.69 KCAL/MOL
REMARK 924 INTRA-LIGAND FREE ENERGY PREDICTED BY IDOCK:   -1.52 KCAL/MOL
REMARK 927      BINDING AFFINITY PREDICTED BY RF-SCORE:    0.00 PKD
ROOT
HETATM    1  C   UNK A   1      -9.297  10.634  66.540  1.00  0.00    -0.167 C  
HETATM    2  C   UNK A   1      -8.128  10.035  65.763  1.00  0.00    -0.128 C  
ENDROOT
BRANCH   1   3
HETATM    3  C   UNK A   1     -10.367  11.148  65.536  1.00  0.00    -0.268 C  
ATOM      4  CA  PRO A   2     -10.945  13.111  67.078  1.00  0.00    -0.269 C  
ATOM      5  N   PRO A   2     -11.161  12.218  65.923  1.00  0.00    -0.308 N  
ATOM      6  C   PRO A   2     -11.601  12.575  68.360  1.00  0.00    -0.322 C  
HETATM    7  O   UNK A   1     -10.525  10.595  64.444  1.00  0.00    -0.350 OA 
ATOM      8  CB  PRO A   2     -11.600  14.440  66.680  1.00  0.00    -0.396 C  
ATOM      9  O   PRO A   2     -12.275  11.415  68.188  1.00  0.00    -0.602 OA 
ATOM     10  CD  PRO A   2     -12.134  12.804  65.014  1.00  0.00    -0.441 C  
ATOM     11  OXT PRO A   2     -11.529  13.140  69.440  1.00  0.00    -0.269 OA 
ATOM     12  CG  PRO A   2     -11.941  14.296  65.199  1.00  0.00    -0.395 C  
ENDBRANCH   1   3
BRANCH   1  13
HETATM   13  N   UNK A   1      -9.955   9.649  67.433  1.00  0.00    -0.175 NA 
HETATM   14  H   UNK A   1     -10.763   9.238  66.965  1.00  0.00     0.000 HD 
BRANCH  13  15
HETATM   15  C   UNK A   1      -9.064   8.567  67.966  1.00  0.00    -0.140 C  
HETATM   16  O   UNK A   1      -9.021   6.156  67.460  1.00  0.00    -0.114 OA 
HETATM   17  O   UNK A   1     -10.862   7.345  66.901  1.00  0.00    -0.357 OA 
HETATM   18  C   UNK A   1      -9.617   7.222  67.431  1.00  0.00    -0.142 C  
BRANCH  15  19
HETATM   19  C   UNK A   1      -8.983   8.531  69.509  1.00  0.00    -0.149 C  
BRANCH  19  20
HETATM   20  C   UNK A   1      -9.776   9.664  70.183  1.00  0.00    -0.301 C  
BRANCH  20  21
HETATM   21  C   UNK A   1     -11.072   9.217  70.818  1.00  0.00    -0.336 A  
HETATM   22  C   UNK A   1     -13.542   8.432  71.905  1.00  0.00    -0.409 A  
HETATM   23  C   UNK A   1     -11.937  10.162  71.382  1.00  0.00    -0.447 A  
HETATM   24  C   UNK A   1     -13.166   9.773  71.922  1.00  0.00    -0.545 A  
HETATM   25  C   UNK A   1     -12.689   7.481  71.352  1.00  0.00    -0.382 A  
HETATM   26  C   UNK A   1     -11.460   7.866  70.808  1.00  0.00    -0.273 A  
ENDBRANCH  20  21
ENDBRANCH  19  20
ENDBRANCH  15  19
ENDBRANCH  13  15
ENDBRANCH   1  13
TORSDOF 6
ENDMDL
MODEL       38
REMARK 921   NORMALIZED FREE ENERGY PREDICTED BY IDOCK:   -5.53 KCAL/MOL
REMARK 922        TOTAL FREE ENERGY PREDICTED BY IDOCK:   -9.19 KCAL/MOL
REMARK 923 INTER-LIGAND FREE ENERGY PREDICTED BY IDOCK:   -8.31 KCAL/MOL
REMARK 924 INTRA-LIGAND FREE ENERGY PREDICTED BY IDOCK:   -0.88 KCAL/MOL
REMARK 927      BINDING AFFINITY PREDICTED BY RF-SCORE:    0.00 PKD
ROOT
HETATM    1  C   UNK A   1     -12.006  13.777  69.154  1.00  0.00    -0.361 C  
HETATM    2  C   UNK A   1     -12.652  15.053  69.688  1.00  0.00    -0.099 C  
ENDROOT
BRANCH   1   3
HETATM    3  C   UNK A   1     -10.656  14.135  68.471  1.00  0.00    -0.252 C  
ATOM      4  CA  PRO A   2     -11.805  14.342  66.190  1.00  0.00    -0.402 C  
ATOM      5  N   PRO A   2     -10.637  14.255  67.089  1.00  0.00    -0.277 N  
ATOM      6  C   PRO A   2     -12.301  12.959  65.743  1.00  0.00    -0.375 C  
HETATM    7  O   UNK A   1      -9.628  14.272  69.141  1.00  0.00    -0.076 OA 
ATOM      8  CB  PRO A   2     -11.308  15.131  64.972  1.00  0.00    -0.381 C  
ATOM      9  O   PRO A   2     -11.566  11.930  66.224  1.00  0.00    -0.445 OA 
ATOM     10  CD  PRO A   2      -9.431  14.657  66.383  1.00  0.00    -0.299 C  
ATOM     11  OXT PRO A   2     -13.269  12.793  65.018  1.00  0.00    -0.768 OA 
ATOM     12  CG  PRO A   2      -9.934  15.664  65.367  1.00  0.00    -0.311 C  
ENDBRANCH   1   3
BRANCH   1  13
HETATM   13  N   UNK A   1     -11.722  12.790  70.224  1.00  0.00    -0.548 NA 
HETATM   14  H   UNK A   1     -12.211  13.052  71.080  1.00  0.00     0.000 HD 
BRANCH  13  15
HETATM   15  C   UNK A   1     -12.020  11.362  69.878  1.00  0.00    -0.359 C  
HETATM   16  O   UNK A   1     -13.618   9.784  70.894  1.00  0.00    -0.277 OA 
HETATM   17  O   UNK A   1     -13.051  11.644  72.050  1.00  0.00    -0.478 OA 
HETATM   18  C   UNK A   1     -12.979  10.822  70.970  1.00  0.00    -0.332 C  
BRANCH  15  19
HETATM   19  C   UNK A   1     -10.762  10.468  69.788  1.00  0.00    -0.314 C  
BRANCH  19  20
HETATM   20  C   UNK A   1     -10.456   9.996  68.356  1.00  0.00    -0.235 C  
BRANCH  20  21
HETATM   21  C   UNK A   1     -10.553   8.500  68.165  1.00  0.00    -0.181 A  
HETATM   22  C   UNK A   1     -10.851   5.726  67.835  1.00  0.00    -0.257 A  
HETATM   23  C   UNK A   1     -10.756   7.667  69.272  1.00  0.00    -0.169 A  
HETATM   24  C   UNK A   1     -10.906   6.287  69.108  1.00  0.00    -0.403 A  
HETATM   25  C   UNK A   1     -10.642   6.543  66.726  1.00  0.00    -0.323 A  
HETATM   26  C   UNK A   1     -10.496   7.924  66.885  1.00  0.00    -0.388 A  
ENDBRANCH  20  21
ENDBRANCH  19  20
ENDBRANCH  15  19
ENDBRANCH  13  15
ENDBRANCH   1  13
TORSDOF 6
ENDMDL
MODEL       39
REMARK 921   NORMALIZED FREE ENERGY PREDICTED BY IDOCK:   -5.52 KCAL/MOL
REMARK 922        TOTAL FREE ENERGY PREDICTED BY IDOCK:   -9.17 KCAL/MOL
REMARK 923 INTER-LIGAND FREE ENERGY PREDICTED BY IDOCK:   -7.84 KCAL/MOL
REMARK 924 INTRA-LIGAND FREE ENERGY PREDICTED BY IDOCK:   -1.33 KCAL/MOL
REMARK 927      BINDING AFFINITY PREDICTED BY RF-SCORE:    0.00 PKD
ROOT
HETATM    1  C   UNK A   1      -9.694  16.280  67.748  1.00  0.00    -0.233 C  
HETATM    2  C   UNK A   1     -10.710  16.355  66.612  1.00  0.00    -0.173 C  
ENDROOT
BRANCH   1   3
HETATM    3  C   UNK A   1      -9.450  17.708  68.312  1.00  0.00    -0.295 C  
ATOM      4  CA  PRO A   2      -7.295  17.936  66.945  1.00  0.00    -0.201 C  
ATOM      5  N   PRO A   2      -8.261  18.343  67.984  1.00  0.00    -0.265 N  
ATOM      6  C   PRO A   2      -6.248  16.946  67.476  1.00  0.00    -0.156 C  
HETATM    7  O   UNK A   1     -10.278  18.242  69.056  1.00  0.00    -0.376 OA 
ATOM      8  CB  PRO A   2      -6.605  19.237  66.515  1.00  0.00    -0.198 C  
ATOM      9  O   PRO A   2      -6.383  16.658  68.791  1.00  0.00    -0.140 OA 
ATOM     10  CD  PRO A   2      -7.991  19.707  68.411  1.00  0.00    -0.322 C  
ATOM     11  OXT PRO A   2      -5.368  16.459  66.784  1.00  0.00    -0.348 OA 
ATOM     12  CG  PRO A   2      -7.405  20.357  67.174  1.00  0.00    -0.355 C  
ENDBRANCH   1   3
BRANCH   1  13
HETATM   13  N   UNK A   1     -10.154  15.426  68.871  1.00  0.00    -0.210 NA 
HETATM   14  H   UNK A   1      -9.866  15.834  69.761  1.00  0.00     0.000 HD 
BRANCH  13  15
HETATM   15  C   UNK A   1     -11.623  15.128  68.894  1.00  0.00    -0.341 C  
HETATM   16  O   UNK A   1     -13.322  15.657  70.598  1.00  0.00    -0.494 OA 
HETATM   17  O   UNK A   1     -11.139  15.758  71.181  1.00  0.00    -0.339 OA 
HETATM   18  C   UNK A   1     -12.146  15.534  70.295  1.00  0.00    -0.386 C  
BRANCH  15  19
HETATM   19  C   UNK A   1     -11.962  13.646  68.610  1.00  0.00    -0.395 C  
BRANCH  19  20
HETATM   20  C   UNK A   1     -10.830  12.893  67.892  1.00  0.00    -0.246 C  
BRANCH  20  21
HETATM   21  C   UNK A   1     -11.050  12.718  66.407  1.00  0.00    -0.320 A  
HETATM   22  C   UNK A   1     -11.477  12.512  63.637  1.00  0.00    -0.568 A  
HETATM   23  C   UNK A   1     -12.332  12.879  65.868  1.00  0.00    -0.378 A  
HETATM   24  C   UNK A   1     -12.545  12.779  64.490  1.00  0.00    -0.463 A  
HETATM   25  C   UNK A   1     -10.198  12.344  64.161  1.00  0.00    -0.377 A  
HETATM   26  C   UNK A   1      -9.979  12.448  65.538  1.00  0.00    -0.260 A  
ENDBRANCH  20  21
ENDBRANCH  19  20
ENDBRANCH  15  19
ENDBRANCH  13  15
ENDBRANCH   1  13
TORSDOF 6
ENDMDL
MODEL       40
REMARK 921   NORMALIZED FREE ENERGY PREDICTED BY IDOCK:   -5.52 KCAL/MOL
REMARK 922        TOTAL FREE ENERGY PREDICTED BY IDOCK:   -9.17 KCAL/MOL
REMARK 923 INTER-LIGAND FREE ENERGY PREDICTED BY IDOCK:   -8.45 KCAL/MOL
REMARK 924 INTRA-LIGAND FREE ENERGY PREDICTED BY IDOCK:   -0.72 KCAL/MOL
REMARK 927      BINDING AFFINITY PREDICTED BY RF-SCORE:    0.00 PKD
ROOT
HETATM    1  C   UNK A   1     -10.590  15.464  65.496  1.00  0.00    -0.383 C  
HETATM    2  C   UNK A   1     -11.328  16.463  64.609  1.00  0.00    -0.166 C  
ENDROOT
BRANCH   1   3
HETATM    3  C   UNK A   1     -10.684  15.928  66.977  1.00  0.00    -0.292 C  
ATOM      4  CA  PRO A   2      -9.169  17.938  66.497  1.00  0.00    -0.273 C  
ATOM      5  N   PRO A   2      -9.899  17.002  67.373  1.00  0.00    -0.256 N  
ATOM      6  C   PRO A   2      -7.754  17.440  66.162  1.00  0.00    -0.276 C  
HETATM    7  O   UNK A   1     -11.410  15.334  67.779  1.00  0.00    -0.326 OA 
ATOM      8  CB  PRO A   2      -9.080  19.243  67.298  1.00  0.00    -0.346 C  
ATOM      9  O   PRO A   2      -7.432  16.266  66.751  1.00  0.00    -0.218 OA 
ATOM     10  CD  PRO A   2      -9.984  17.542  68.721  1.00  0.00    -0.342 C  
ATOM     11  OXT PRO A   2      -6.983  18.044  65.433  1.00  0.00    -0.481 OA 
ATOM     12  CG  PRO A   2      -9.995  19.042  68.503  1.00  0.00    -0.486 C  
ENDBRANCH   1   3
BRANCH   1  13
HETATM   13  N   UNK A   1     -11.163  14.098  65.416  1.00  0.00    -0.315 NA 
HETATM   14  H   UNK A   1     -11.932  14.080  64.746  1.00  0.00     0.000 HD 
BRANCH  13  15
HETATM   15  C   UNK A   1     -10.184  13.006  65.104  1.00  0.00    -0.272 C  
HETATM   16  O   UNK A   1      -9.907  11.663  63.056  1.00  0.00    -0.393 OA 
HETATM   17  O   UNK A   1     -11.841  12.796  63.351  1.00  0.00    -0.513 OA 
HETATM   18  C   UNK A   1     -10.599  12.403  63.737  1.00  0.00    -0.452 C  
BRANCH  15  19
HETATM   19  C   UNK A   1     -10.126  11.896  66.178  1.00  0.00    -0.257 C  
BRANCH  19  20
HETATM   20  C   UNK A   1     -11.471  11.671  66.889  1.00  0.00    -0.320 C  
BRANCH  20  21
HETATM   21  C   UNK A   1     -11.348  11.039  68.256  1.00  0.00    -0.366 A  
HETATM   22  C   UNK A   1     -11.231   9.819  70.785  1.00  0.00    -0.419 A  
HETATM   23  C   UNK A   1     -12.066  11.564  69.336  1.00  0.00    -0.345 A  
HETATM   24  C   UNK A   1     -12.010  10.958  70.594  1.00  0.00    -0.467 A  
HETATM   25  C   UNK A   1     -10.506   9.289  69.720  1.00  0.00    -0.235 A  
HETATM   26  C   UNK A   1     -10.563   9.891  68.459  1.00  0.00    -0.248 A  
ENDBRANCH  20  21
ENDBRANCH  19  20
ENDBRANCH  15  19
ENDBRANCH  13  15
ENDBRANCH   1  13
TORSDOF 6
ENDMDL
MODEL       41
REMARK 921   NORMALIZED FREE ENERGY PREDICTED BY IDOCK:   -5.48 KCAL/MOL
REMARK 922        TOTAL FREE ENERGY PREDICTED BY IDOCK:   -9.12 KCAL/MOL
REMARK 923 INTER-LIGAND FREE ENERGY PREDICTED BY IDOCK:   -7.99 KCAL/MOL
REMARK 924 INTRA-LIGAND FREE ENERGY PREDICTED BY IDOCK:   -1.12 KCAL/MOL
REMARK 927      BINDING AFFINITY PREDICTED BY RF-SCORE:    0.00 PKD
ROOT
HETATM    1  C   UNK A   1     -10.510   8.000  70.494  1.00  0.00    -0.214 C  
HETATM    2  C   UNK A   1      -9.978   8.780  71.694  1.00  0.00    -0.381 C  
ENDROOT
BRANCH   1   3
HETATM    3  C   UNK A   1     -10.396   6.477  70.782  1.00  0.00    -0.204 C  
ATOM      4  CA  PRO A   2      -9.014   6.125  68.654  1.00  0.00    -0.126 C  
ATOM      5  N   PRO A   2      -9.798   5.676  69.820  1.00  0.00    -0.172 N  
ATOM      6  C   PRO A   2      -9.896   6.391  67.425  1.00  0.00    -0.131 C  
HETATM    7  O   UNK A   1     -10.855   5.996  71.822  1.00  0.00    -0.241 OA 
ATOM      8  CB  PRO A   2      -8.049   4.970  68.356  1.00  0.00    -0.086 C  
ATOM      9  O   PRO A   2     -11.210   6.136  67.626  1.00  0.00    -0.294 OA 
ATOM     10  CD  PRO A   2      -9.588   4.254  70.046  1.00  0.00    -0.204 C  
ATOM     11  OXT PRO A   2      -9.461   6.794  66.357  1.00  0.00    -0.168 OA 
ATOM     12  CG  PRO A   2      -8.178   4.019  69.543  1.00  0.00    -0.068 C  
ENDBRANCH   1   3
BRANCH   1  13
HETATM   13  N   UNK A   1     -11.934   8.298  70.205  1.00  0.00    -0.405 NA 
HETATM   14  H   UNK A   1     -12.479   7.436  70.211  1.00  0.00     0.000 HD 
BRANCH  13  15
HETATM   15  C   UNK A   1     -12.574   9.316  71.100  1.00  0.00    -0.257 C  
HETATM   16  O   UNK A   1     -14.315   9.043  72.823  1.00  0.00    -0.596 OA 
HETATM   17  O   UNK A   1     -14.029   7.392  71.305  1.00  0.00    -0.376 OA 
HETATM   18  C   UNK A   1     -13.728   8.600  71.848  1.00  0.00    -0.421 C  
BRANCH  15  19
HETATM   19  C   UNK A   1     -13.117  10.553  70.348  1.00  0.00    -0.112 C  
BRANCH  19  20
HETATM   20  C   UNK A   1     -12.085  11.687  70.224  1.00  0.00    -0.443 C  
BRANCH  20  21
HETATM   21  C   UNK A   1     -12.525  12.992  70.845  1.00  0.00    -0.396 A  
HETATM   22  C   UNK A   1     -13.426  15.431  71.911  1.00  0.00    -0.571 A  
HETATM   23  C   UNK A   1     -12.218  14.204  70.215  1.00  0.00    -0.416 A  
HETATM   24  C   UNK A   1     -12.667  15.418  70.743  1.00  0.00    -0.516 A  
HETATM   25  C   UNK A   1     -13.733  14.233  72.551  1.00  0.00    -0.608 A  
HETATM   26  C   UNK A   1     -13.290  13.017  72.024  1.00  0.00    -0.588 A  
ENDBRANCH  20  21
ENDBRANCH  19  20
ENDBRANCH  15  19
ENDBRANCH  13  15
ENDBRANCH   1  13
TORSDOF 6
ENDMDL
MODEL       42
REMARK 921   NORMALIZED FREE ENERGY PREDICTED BY IDOCK:   -5.45 KCAL/MOL
REMARK 922        TOTAL FREE ENERGY PREDICTED BY IDOCK:   -9.07 KCAL/MOL
REMARK 923 INTER-LIGAND FREE ENERGY PREDICTED BY IDOCK:   -7.46 KCAL/MOL
REMARK 924 INTRA-LIGAND FREE ENERGY PREDICTED BY IDOCK:   -1.61 KCAL/MOL
REMARK 927      BINDING AFFINITY PREDICTED BY RF-SCORE:    0.00 PKD
ROOT
HETATM    1  C   UNK A   1     -11.124  11.520  69.198  1.00  0.00    -0.259 C  
HETATM    2  C   UNK A   1     -12.119  11.313  70.336  1.00  0.00    -0.474 C  
ENDROOT
BRANCH   1   3
HETATM    3  C   UNK A   1     -10.297  10.219  68.999  1.00  0.00    -0.211 C  
ATOM      4  CA  PRO A   2      -8.131  11.568  68.775  1.00  0.00    -0.093 C  
ATOM      5  N   PRO A   2      -8.951  10.344  68.687  1.00  0.00    -0.139 N  
ATOM      6  C   PRO A   2      -8.178  12.396  67.482  1.00  0.00    -0.173 C  
HETATM    7  O   UNK A   1     -10.835   9.110  69.082  1.00  0.00    -0.203 OA 
ATOM      8  CB  PRO A   2      -6.700  11.069  69.016  1.00  0.00    -0.074 C  
ATOM      9  O   PRO A   2      -8.927  11.841  66.502  1.00  0.00    -0.191 OA 
ATOM     10  CD  PRO A   2      -8.094   9.176  68.557  1.00  0.00    -0.103 C  
ATOM     11  OXT PRO A   2      -7.593  13.459  67.341  1.00  0.00    -0.162 OA 
ATOM     12  CG  PRO A   2      -6.834   9.576  69.300  1.00  0.00    -0.049 C  
ENDBRANCH   1   3
BRANCH   1  13
HETATM   13  N   UNK A   1     -11.787  11.833  67.908  1.00  0.00    -0.574 NA 
HETATM   14  H   UNK A   1     -12.552  11.178  67.741  1.00  0.00     0.000 HD 
BRANCH  13  15
HETATM   15  C   UNK A   1     -12.277  13.242  67.761  1.00  0.00    -0.113 C  
HETATM   16  O   UNK A   1     -13.049  14.451  65.757  1.00  0.00    -0.363 OA 
HETATM   17  O   UNK A   1     -11.860  12.548  65.479  1.00  0.00    -0.398 OA 
HETATM   18  C   UNK A   1     -12.449  13.505  66.243  1.00  0.00    -0.326 C  
BRANCH  15  19
HETATM   19  C   UNK A   1     -11.330  14.297  68.377  1.00  0.00    -0.309 C  
BRANCH  19  20
HETATM   20  C   UNK A   1     -12.076  15.486  69.008  1.00  0.00    -0.246 C  
BRANCH  20  21
HETATM   21  C   UNK A   1     -12.425  15.291  70.465  1.00  0.00    -0.454 A  
HETATM   22  C   UNK A   1     -13.067  15.049  73.190  1.00  0.00    -0.619 A  
HETATM   23  C   UNK A   1     -11.445  15.472  71.448  1.00  0.00    -0.478 A  
HETATM   24  C   UNK A   1     -11.763  15.353  72.804  1.00  0.00    -0.535 A  
HETATM   25  C   UNK A   1     -14.050  14.861  72.222  1.00  0.00    -0.600 A  
HETATM   26  C   UNK A   1     -13.737  14.983  70.865  1.00  0.00    -0.319 A  
ENDBRANCH  20  21
ENDBRANCH  19  20
ENDBRANCH  15  19
ENDBRANCH  13  15
ENDBRANCH   1  13
TORSDOF 6
ENDMDL
MODEL       43
REMARK 921   NORMALIZED FREE ENERGY PREDICTED BY IDOCK:   -5.45 KCAL/MOL
REMARK 922        TOTAL FREE ENERGY PREDICTED BY IDOCK:   -9.07 KCAL/MOL
REMARK 923 INTER-LIGAND FREE ENERGY PREDICTED BY IDOCK:   -7.92 KCAL/MOL
REMARK 924 INTRA-LIGAND FREE ENERGY PREDICTED BY IDOCK:   -1.15 KCAL/MOL
REMARK 927      BINDING AFFINITY PREDICTED BY RF-SCORE:    0.00 PKD
ROOT
HETATM    1  C   UNK A   1     -10.044  11.358  67.161  1.00  0.00    -0.198 C  
HETATM    2  C   UNK A   1     -11.297  10.842  67.863  1.00  0.00    -0.372 C  
ENDROOT
BRANCH   1   3
HETATM    3  C   UNK A   1      -9.732  10.451  65.938  1.00  0.00    -0.217 C  
ATOM      4  CA  PRO A   2      -7.954   9.177  67.272  1.00  0.00    -0.102 C  
ATOM      5  N   PRO A   2      -8.673   9.561  66.042  1.00  0.00    -0.142 N  
ATOM      6  C   PRO A   2      -6.778  10.116  67.578  1.00  0.00    -0.072 C  
HETATM    7  O   UNK A   1     -10.389  10.547  64.897  1.00  0.00    -0.328 OA 
ATOM      8  CB  PRO A   2      -7.428   7.762  66.999  1.00  0.00    -0.095 C  
ATOM      9  O   PRO A   2      -6.599  11.090  66.657  1.00  0.00    -0.108 OA 
ATOM     10  CD  PRO A   2      -8.363   8.627  64.970  1.00  0.00    -0.171 C  
ATOM     11  OXT PRO A   2      -6.061  10.000  68.560  1.00  0.00    -0.045 OA 
ATOM     12  CG  PRO A   2      -8.098   7.325  65.699  1.00  0.00    -0.133 C  
ENDBRANCH   1   3
BRANCH   1  13
HETATM   13  N   UNK A   1     -10.201  12.747  66.661  1.00  0.00    -0.235 NA 
HETATM   14  H   UNK A   1      -9.906  12.802  65.686  1.00  0.00     0.000 HD 
BRANCH  13  15
HETATM   15  C   UNK A   1     -11.570  13.337  66.818  1.00  0.00    -0.365 C  
HETATM   16  O   UNK A   1     -13.213  14.008  65.109  1.00  0.00    -0.768 OA 
HETATM   17  O   UNK A   1     -11.063  13.702  64.479  1.00  0.00    -0.364 OA 
HETATM   18  C   UNK A   1     -12.062  13.722  65.400  1.00  0.00    -0.407 C  
BRANCH  15  19
HETATM   19  C   UNK A   1     -11.612  14.572  67.748  1.00  0.00    -0.390 C  
BRANCH  19  20
HETATM   20  C   UNK A   1     -11.071  14.286  69.159  1.00  0.00    -0.291 C  
BRANCH  20  21
HETATM   21  C   UNK A   1     -12.136  14.240  70.230  1.00  0.00    -0.403 A  
HETATM   22  C   UNK A   1     -14.029  14.146  72.304  1.00  0.00    -0.646 A  
HETATM   23  C   UNK A   1     -12.378  13.048  70.923  1.00  0.00    -0.376 A  
HETATM   24  C   UNK A   1     -13.318  13.000  71.956  1.00  0.00    -0.588 A  
HETATM   25  C   UNK A   1     -13.803  15.337  71.618  1.00  0.00    -0.615 A  
HETATM   26  C   UNK A   1     -12.861  15.390  70.587  1.00  0.00    -0.484 A  
ENDBRANCH  20  21
ENDBRANCH  19  20
ENDBRANCH  15  19
ENDBRANCH  13  15
ENDBRANCH   1  13
TORSDOF 6
ENDMDL
MODEL       44
REMARK 921   NORMALIZED FREE ENERGY PREDICTED BY IDOCK:   -5.43 KCAL/MOL
REMARK 922        TOTAL FREE ENERGY PREDICTED BY IDOCK:   -9.05 KCAL/MOL
REMARK 923 INTER-LIGAND FREE ENERGY PREDICTED BY IDOCK:   -8.00 KCAL/MOL
REMARK 924 INTRA-LIGAND FREE ENERGY PREDICTED BY IDOCK:   -1.05 KCAL/MOL
REMARK 927      BINDING AFFINITY PREDICTED BY RF-SCORE:    0.00 PKD
ROOT
HETATM    1  C   UNK A   1      -7.163  16.510  67.440  1.00  0.00    -0.149 C  
HETATM    2  C   UNK A   1      -5.640  16.608  67.438  1.00  0.00    -0.180 C  
ENDROOT
BRANCH   1   3
HETATM    3  C   UNK A   1      -7.748  17.630  66.534  1.00  0.00    -0.270 C  
ATOM      4  CA  PRO A   2      -9.441  18.281  68.343  1.00  0.00    -0.323 C  
ATOM      5  N   PRO A   2      -8.872  18.308  66.982  1.00  0.00    -0.260 N  
ATOM      6  C   PRO A   2     -10.450  17.138  68.531  1.00  0.00    -0.377 C  
HETATM    7  O   UNK A   1      -7.244  17.879  65.435  1.00  0.00    -0.459 OA 
ATOM      8  CB  PRO A   2     -10.154  19.630  68.502  1.00  0.00    -0.557 C  
ATOM      9  O   PRO A   2     -10.653  16.396  67.418  1.00  0.00    -0.314 OA 
ATOM     10  CD  PRO A   2      -9.435  19.417  66.227  1.00  0.00    -0.368 C  
ATOM     11  OXT PRO A   2     -11.024  16.913  69.585  1.00  0.00    -0.236 OA 
ATOM     12  CG  PRO A   2      -9.732  20.456  67.290  1.00  0.00    -0.602 C  
ENDBRANCH   1   3
BRANCH   1  13
HETATM   13  N   UNK A   1      -7.653  15.210  66.921  1.00  0.00    -0.265 NA 
HETATM   14  H   UNK A   1      -6.976  14.817  66.267  1.00  0.00     0.000 HD 
BRANCH  13  15
HETATM   15  C   UNK A   1      -8.008  14.193  67.964  1.00  0.00    -0.149 C  
HETATM   16  O   UNK A   1      -6.654  12.377  68.935  1.00  0.00    -0.083 OA 
HETATM   17  O   UNK A   1      -5.966  13.321  66.999  1.00  0.00    -0.199 OA 
HETATM   18  C   UNK A   1      -6.826  13.193  68.043  1.00  0.00    -0.118 C  
BRANCH  15  19
HETATM   19  C   UNK A   1      -9.324  13.435  67.672  1.00  0.00    -0.217 C  
BRANCH  19  20
HETATM   20  C   UNK A   1      -9.174  12.361  66.581  1.00  0.00    -0.218 C  
BRANCH  20  21
HETATM   21  C   UNK A   1     -10.342  12.284  65.626  1.00  0.00    -0.287 A  
HETATM   22  C   UNK A   1     -12.499  12.258  63.825  1.00  0.00    -0.619 A  
HETATM   23  C   UNK A   1     -11.554  12.904  65.953  1.00  0.00    -0.423 A  
HETATM   24  C   UNK A   1     -12.627  12.894  65.058  1.00  0.00    -0.538 A  
HETATM   25  C   UNK A   1     -11.301  11.632  63.489  1.00  0.00    -0.447 A  
HETATM   26  C   UNK A   1     -10.224  11.644  64.381  1.00  0.00    -0.346 A  
ENDBRANCH  20  21
ENDBRANCH  19  20
ENDBRANCH  15  19
ENDBRANCH  13  15
ENDBRANCH   1  13
TORSDOF 6
ENDMDL
MODEL       45
REMARK 921   NORMALIZED FREE ENERGY PREDICTED BY IDOCK:   -5.42 KCAL/MOL
REMARK 922        TOTAL FREE ENERGY PREDICTED BY IDOCK:   -9.04 KCAL/MOL
REMARK 923 INTER-LIGAND FREE ENERGY PREDICTED BY IDOCK:   -7.85 KCAL/MOL
REMARK 924 INTRA-LIGAND FREE ENERGY PREDICTED BY IDOCK:   -1.19 KCAL/MOL
REMARK 927      BINDING AFFINITY PREDICTED BY RF-SCORE:    0.00 PKD
ROOT
HETATM    1  C   UNK A   1      -9.959  11.499  67.813  1.00  0.00    -0.183 C  
HETATM    2  C   UNK A   1      -9.929  10.069  67.282  1.00  0.00    -0.245 C  
ENDROOT
BRANCH   1   3
HETATM    3  C   UNK A   1     -11.060  12.300  67.063  1.00  0.00    -0.287 C  
ATOM      4  CA  PRO A   2      -9.530  14.349  66.897  1.00  0.00    -0.258 C  
ATOM      5  N   PRO A   2     -10.820  13.640  66.792  1.00  0.00    -0.289 N  
ATOM      6  C   PRO A   2      -9.291  14.920  68.303  1.00  0.00    -0.195 C  
HETATM    7  O   UNK A   1     -12.128  11.764  66.751  1.00  0.00    -0.547 OA 
ATOM      8  CB  PRO A   2      -9.625  15.496  65.883  1.00  0.00    -0.383 C  
ATOM      9  O   PRO A   2     -10.309  14.700  69.166  1.00  0.00    -0.238 OA 
ATOM     10  CD  PRO A   2     -11.769  14.438  66.031  1.00  0.00    -0.375 C  
ATOM     11  OXT PRO A   2      -8.278  15.523  68.621  1.00  0.00    -0.144 OA 
ATOM     12  CG  PRO A   2     -10.889  15.218  65.075  1.00  0.00    -0.457 C  
ENDBRANCH   1   3
BRANCH   1  13
HETATM   13  N   UNK A   1     -10.264  11.564  69.263  1.00  0.00    -0.425 NA 
HETATM   14  H   UNK A   1     -10.758  12.431  69.478  1.00  0.00     0.000 HD 
BRANCH  13  15
HETATM   15  C   UNK A   1     -11.020  10.393  69.815  1.00  0.00    -0.293 C  
HETATM   16  O   UNK A   1     -13.263  10.289  70.831  1.00  0.00    -0.395 OA 
HETATM   17  O   UNK A   1     -12.251  12.303  70.651  1.00  0.00    -0.371 OA 
HETATM   18  C   UNK A   1     -12.299  10.955  70.486  1.00  0.00    -0.374 C  
BRANCH  15  19
HETATM   19  C   UNK A   1     -10.212   9.555  70.832  1.00  0.00    -0.356 C  
BRANCH  19  20
HETATM   20  C   UNK A   1     -10.209   8.050  70.510  1.00  0.00    -0.201 C  
BRANCH  20  21
HETATM   21  C   UNK A   1     -10.302   7.159  71.726  1.00  0.00    -0.216 A  
HETATM   22  C   UNK A   1     -10.564   5.571  74.030  1.00  0.00    -0.283 A  
HETATM   23  C   UNK A   1      -9.853   7.623  72.968  1.00  0.00    -0.319 A  
HETATM   24  C   UNK A   1      -9.984   6.834  74.115  1.00  0.00    -0.373 A  
HETATM   25  C   UNK A   1     -11.010   5.095  72.799  1.00  0.00    -0.327 A  
HETATM   26  C   UNK A   1     -10.884   5.882  71.651  1.00  0.00    -0.321 A  
ENDBRANCH  20  21
ENDBRANCH  19  20
ENDBRANCH  15  19
ENDBRANCH  13  15
ENDBRANCH   1  13
TORSDOF 6
ENDMDL
MODEL       46
REMARK 921   NORMALIZED FREE ENERGY PREDICTED BY IDOCK:   -5.40 KCAL/MOL
REMARK 922        TOTAL FREE ENERGY PREDICTED BY IDOCK:   -9.01 KCAL/MOL
REMARK 923 INTER-LIGAND FREE ENERGY PREDICTED BY IDOCK:   -7.97 KCAL/MOL
REMARK 924 INTRA-LIGAND FREE ENERGY PREDICTED BY IDOCK:   -1.04 KCAL/MOL
REMARK 927      BINDING AFFINITY PREDICTED BY RF-SCORE:    0.00 PKD
ROOT
HETATM    1  C   UNK A   1      -9.794   8.634  70.882  1.00  0.00    -0.205 C  
HETATM    2  C   UNK A   1      -8.374   8.763  71.427  1.00  0.00    -0.222 C  
ENDROOT
BRANCH   1   3
HETATM    3  C   UNK A   1     -10.654   7.817  71.886  1.00  0.00    -0.223 C  
ATOM      4  CA  PRO A   2      -9.900   5.613  70.817  1.00  0.00    -0.183 C  
ATOM      5  N   PRO A   2     -10.740   6.444  71.702  1.00  0.00    -0.226 N  
ATOM      6  C   PRO A   2     -10.470   5.517  69.394  1.00  0.00    -0.290 C  
HETATM    7  O   UNK A   1     -11.268   8.381  72.797  1.00  0.00    -0.339 OA 
ATOM      8  CB  PRO A   2      -9.895   4.223  71.467  1.00  0.00    -0.260 C  
ATOM      9  O   PRO A   2     -11.640   6.176  69.225  1.00  0.00    -0.329 OA 
ATOM     10  CD  PRO A   2     -11.465   5.601  72.640  1.00  0.00    -0.285 C  
ATOM     11  OXT PRO A   2      -9.926   4.901  68.491  1.00  0.00    -0.155 OA 
ATOM     12  CG  PRO A   2     -10.543   4.413  72.835  1.00  0.00    -0.264 C  
ENDBRANCH   1   3
BRANCH   1  13
HETATM   13  N   UNK A   1     -10.454   9.949  70.691  1.00  0.00    -0.349 NA 
HETATM   14  H   UNK A   1      -9.754  10.667  70.502  1.00  0.00     0.000 HD 
BRANCH  13  15
HETATM   15  C   UNK A   1     -11.525   9.987  69.643  1.00  0.00    -0.155 C  
HETATM   16  O   UNK A   1     -11.448  10.827  67.327  1.00  0.00    -0.436 OA 
HETATM   17  O   UNK A   1      -9.821  11.465  68.762  1.00  0.00    -0.205 OA 
HETATM   18  C   UNK A   1     -10.957  10.791  68.445  1.00  0.00    -0.248 C  
BRANCH  15  19
HETATM   19  C   UNK A   1     -12.849  10.621  70.128  1.00  0.00    -0.146 C  
BRANCH  19  20
HETATM   20  C   UNK A   1     -12.739  11.258  71.523  1.00  0.00    -0.481 C  
BRANCH  20  21
HETATM   21  C   UNK A   1     -12.803  12.768  71.519  1.00  0.00    -0.369 A  
HETATM   22  C   UNK A   1     -13.004  15.569  71.421  1.00  0.00    -0.553 A  
HETATM   23  C   UNK A   1     -12.248  13.487  70.454  1.00  0.00    -0.426 A  
HETATM   24  C   UNK A   1     -12.348  14.880  70.403  1.00  0.00    -0.401 A  
HETATM   25  C   UNK A   1     -13.555  14.866  72.489  1.00  0.00    -0.562 A  
HETATM   26  C   UNK A   1     -13.460  13.473  72.542  1.00  0.00    -0.660 A  
ENDBRANCH  20  21
ENDBRANCH  19  20
ENDBRANCH  15  19
ENDBRANCH  13  15
ENDBRANCH   1  13
TORSDOF 6
ENDMDL
MODEL       47
REMARK 921   NORMALIZED FREE ENERGY PREDICTED BY IDOCK:   -5.38 KCAL/MOL
REMARK 922        TOTAL FREE ENERGY PREDICTED BY IDOCK:   -8.99 KCAL/MOL
REMARK 923 INTER-LIGAND FREE ENERGY PREDICTED BY IDOCK:   -7.88 KCAL/MOL
REMARK 924 INTRA-LIGAND FREE ENERGY PREDICTED BY IDOCK:   -1.10 KCAL/MOL
REMARK 927      BINDING AFFINITY PREDICTED BY RF-SCORE:    0.00 PKD
ROOT
HETATM    1  C   UNK A   1     -10.469  15.235  68.731  1.00  0.00    -0.237 C  
HETATM    2  C   UNK A   1      -9.189  15.354  69.555  1.00  0.00    -0.240 C  
ENDROOT
BRANCH   1   3
HETATM    3  C   UNK A   1     -11.645  14.842  69.669  1.00  0.00    -0.303 C  
ATOM      4  CA  PRO A   2     -11.180  12.351  69.293  1.00  0.00    -0.201 C  
ATOM      5  N   PRO A   2     -11.976  13.499  69.769  1.00  0.00    -0.329 N  
ATOM      6  C   PRO A   2     -11.492  11.989  67.833  1.00  0.00    -0.330 C  
HETATM    7  O   UNK A   1     -12.284  15.707  70.276  1.00  0.00    -0.385 OA 
ATOM      8  CB  PRO A   2     -11.577  11.186  70.210  1.00  0.00    -0.388 C  
ATOM      9  O   PRO A   2     -12.451  12.759  67.270  1.00  0.00    -0.217 OA 
ATOM     10  CD  PRO A   2     -13.016  13.043  70.679  1.00  0.00     0.115 C  
ATOM     11  OXT PRO A   2     -10.933  11.088  67.228  1.00  0.00    -0.267 OA 
ATOM     12  CG  PRO A   2     -12.408  11.814  71.325  1.00  0.00    -0.250 C  
ENDBRANCH   1   3
BRANCH   1  13
HETATM   13  N   UNK A   1     -10.835  16.506  68.059  1.00  0.00    -0.344 NA 
HETATM   14  H   UNK A   1     -10.787  17.279  68.723  1.00  0.00     0.000 HD 
BRANCH  13  15
HETATM   15  C   UNK A   1     -10.044  16.835  66.828  1.00  0.00    -0.294 C  
HETATM   16  O   UNK A   1      -9.366  19.021  65.916  1.00  0.00    -0.445 OA 
HETATM   17  O   UNK A   1     -11.023  18.959  67.455  1.00  0.00    -0.437 OA 
HETATM   18  C   UNK A   1     -10.086  18.375  66.662  1.00  0.00    -0.380 C  
BRANCH  15  19
HETATM   19  C   UNK A   1     -10.571  16.148  65.548  1.00  0.00    -0.394 C  
BRANCH  19  20
HETATM   20  C   UNK A   1      -9.825  14.846  65.208  1.00  0.00    -0.242 C  
BRANCH  20  21
HETATM   21  C   UNK A   1     -10.699  13.776  64.597  1.00  0.00    -0.427 A  
HETATM   22  C   UNK A   1     -12.326  11.848  63.358  1.00  0.00    -0.577 A  
HETATM   23  C   UNK A   1     -12.051  14.036  64.348  1.00  0.00    -0.486 A  
HETATM   24  C   UNK A   1     -12.861  13.079  63.731  1.00  0.00     0.017 A  
HETATM   25  C   UNK A   1     -10.983  11.574  63.606  1.00  0.00    -0.482 A  
HETATM   26  C   UNK A   1     -10.168  12.530  64.219  1.00  0.00    -0.359 A  
ENDBRANCH  20  21
ENDBRANCH  19  20
ENDBRANCH  15  19
ENDBRANCH  13  15
ENDBRANCH   1  13
TORSDOF 6
ENDMDL
MODEL       48
REMARK 921   NORMALIZED FREE ENERGY PREDICTED BY IDOCK:   -5.38 KCAL/MOL
REMARK 922        TOTAL FREE ENERGY PREDICTED BY IDOCK:   -8.98 KCAL/MOL
REMARK 923 INTER-LIGAND FREE ENERGY PREDICTED BY IDOCK:   -8.11 KCAL/MOL
REMARK 924 INTRA-LIGAND FREE ENERGY PREDICTED BY IDOCK:   -0.87 KCAL/MOL
REMARK 927      BINDING AFFINITY PREDICTED BY RF-SCORE:    0.00 PKD
ROOT
HETATM    1  C   UNK A   1     -11.827  13.494  68.963  1.00  0.00    -0.343 C  
HETATM    2  C   UNK A   1     -12.498  14.494  69.900  1.00  0.00    -0.300 C  
ENDROOT
BRANCH   1   3
HETATM    3  C   UNK A   1     -10.669  14.201  68.204  1.00  0.00    -0.245 C  
ATOM      4  CA  PRO A   2     -12.007  14.157  66.019  1.00  0.00    -0.413 C  
ATOM      5  N   PRO A   2     -10.790  14.353  66.830  1.00  0.00    -0.297 N  
ATOM      6  C   PRO A   2     -12.167  12.703  65.550  1.00  0.00    -0.440 C  
HETATM    7  O   UNK A   1      -9.661  14.585  68.805  1.00  0.00    -0.220 OA 
ATOM      8  CB  PRO A   2     -11.825  15.074  64.802  1.00  0.00    -0.341 C  
ATOM      9  O   PRO A   2     -11.159  11.887  65.935  1.00  0.00    -0.302 OA 
ATOM     10  CD  PRO A   2      -9.785  15.069  66.058  1.00  0.00    -0.328 C  
ATOM     11  OXT PRO A   2     -13.114  12.309  64.888  1.00  0.00    -0.654 OA 
ATOM     12  CG  PRO A   2     -10.605  15.934  65.123  1.00  0.00    -0.421 C  
ENDBRANCH   1   3
BRANCH   1  13
HETATM   13  N   UNK A   1     -11.247  12.334  69.685  1.00  0.00    -0.479 NA 
HETATM   14  H   UNK A   1     -11.170  12.545  70.680  1.00  0.00     0.000 HD 
BRANCH  13  15
HETATM   15  C   UNK A   1     -11.963  11.031  69.490  1.00  0.00    -0.342 C  
HETATM   16  O   UNK A   1     -13.646   9.920  70.907  1.00  0.00    -0.301 OA 
HETATM   17  O   UNK A   1     -12.392  11.570  71.811  1.00  0.00    -0.070 OA 
HETATM   18  C   UNK A   1     -12.766  10.758  70.788  1.00  0.00    -0.360 C  
BRANCH  15  19
HETATM   19  C   UNK A   1     -11.021   9.843  69.189  1.00  0.00    -0.233 C  
BRANCH  19  20
HETATM   20  C   UNK A   1      -9.985   9.595  70.298  1.00  0.00    -0.326 C  
BRANCH  20  21
HETATM   21  C   UNK A   1     -10.262   8.370  71.138  1.00  0.00    -0.254 A  
HETATM   22  C   UNK A   1     -10.895   6.115  72.692  1.00  0.00    -0.279 A  
HETATM   23  C   UNK A   1     -10.699   8.513  72.460  1.00  0.00    -0.303 A  
HETATM   24  C   UNK A   1     -11.016   7.393  73.234  1.00  0.00    -0.367 A  
HETATM   25  C   UNK A   1     -10.455   5.958  71.380  1.00  0.00    -0.291 A  
HETATM   26  C   UNK A   1     -10.141   7.076  70.602  1.00  0.00    -0.201 A  
ENDBRANCH  20  21
ENDBRANCH  19  20
ENDBRANCH  15  19
ENDBRANCH  13  15
ENDBRANCH   1  13
TORSDOF 6
ENDMDL
MODEL       49
REMARK 921   NORMALIZED FREE ENERGY PREDICTED BY IDOCK:   -5.38 KCAL/MOL
REMARK 922        TOTAL FREE ENERGY PREDICTED BY IDOCK:   -8.98 KCAL/MOL
REMARK 923 INTER-LIGAND FREE ENERGY PREDICTED BY IDOCK:   -7.85 KCAL/MOL
REMARK 924 INTRA-LIGAND FREE ENERGY PREDICTED BY IDOCK:   -1.13 KCAL/MOL
REMARK 927      BINDING AFFINITY PREDICTED BY RF-SCORE:    0.00 PKD
ROOT
HETATM    1  C   UNK A   1      -8.802  15.558  69.232  1.00  0.00    -0.256 C  
HETATM    2  C   UNK A   1      -7.450  15.175  69.827  1.00  0.00    -0.118 C  
ENDROOT
BRANCH   1   3
HETATM    3  C   UNK A   1      -8.633  15.832  67.711  1.00  0.00    -0.159 C  
ATOM      4  CA  PRO A   2      -8.495  18.356  68.130  1.00  0.00    -0.285 C  
ATOM      5  N   PRO A   2      -8.625  17.152  67.286  1.00  0.00    -0.198 N  
ATOM      6  C   PRO A   2      -9.854  18.863  68.635  1.00  0.00    -0.407 C  
HETATM    7  O   UNK A   1      -8.544  14.899  66.908  1.00  0.00    -0.227 OA 
ATOM      8  CB  PRO A   2      -7.857  19.413  67.219  1.00  0.00    -0.285 C  
ATOM      9  O   PRO A   2     -10.909  18.141  68.192  1.00  0.00    -0.287 OA 
ATOM     10  CD  PRO A   2      -8.398  17.494  65.890  1.00  0.00     0.037 C  
ATOM     11  OXT PRO A   2      -9.982  19.831  69.369  1.00  0.00    -0.384 OA 
ATOM     12  CG  PRO A   2      -7.430  18.659  65.962  1.00  0.00    -0.265 C  
ENDBRANCH   1   3
BRANCH   1  13
HETATM   13  N   UNK A   1      -9.817  14.486  69.385  1.00  0.00    -0.425 NA 
HETATM   14  H   UNK A   1      -9.728  14.049  70.303  1.00  0.00     0.000 HD 
BRANCH  13  15
HETATM   15  C   UNK A   1     -11.238  14.907  69.153  1.00  0.00    -0.279 C  
HETATM   16  O   UNK A   1     -12.867  15.913  70.705  1.00  0.00    -0.442 OA 
HETATM   17  O   UNK A   1     -11.038  14.900  71.566  1.00  0.00    -0.205 OA 
HETATM   18  C   UNK A   1     -11.824  15.302  70.533  1.00  0.00    -0.324 C  
BRANCH  15  19
HETATM   19  C   UNK A   1     -12.112  13.812  68.499  1.00  0.00    -0.327 C  
BRANCH  19  20
HETATM   20  C   UNK A   1     -11.290  12.746  67.755  1.00  0.00    -0.342 C  
BRANCH  20  21
HETATM   21  C   UNK A   1     -11.461  12.772  66.254  1.00  0.00    -0.405 A  
HETATM   22  C   UNK A   1     -11.858  12.731  63.473  1.00  0.00    -0.618 A  
HETATM   23  C   UNK A   1     -10.938  11.735  65.473  1.00  0.00    -0.344 A  
HETATM   24  C   UNK A   1     -11.136  11.712  64.090  1.00  0.00    -0.435 A  
HETATM   25  C   UNK A   1     -12.378  13.773  64.237  1.00  0.00    -0.384 A  
HETATM   26  C   UNK A   1     -12.186  13.797  65.621  1.00  0.00    -0.484 A  
ENDBRANCH  20  21
ENDBRANCH  19  20
ENDBRANCH  15  19
ENDBRANCH  13  15
ENDBRANCH   1  13
TORSDOF 6
ENDMDL
MODEL       50
REMARK 921   NORMALIZED FREE ENERGY PREDICTED BY IDOCK:   -5.37 KCAL/MOL
REMARK 922        TOTAL FREE ENERGY PREDICTED BY IDOCK:   -8.97 KCAL/MOL
REMARK 923 INTER-LIGAND FREE ENERGY PREDICTED BY IDOCK:   -7.58 KCAL/MOL
REMARK 924 INTRA-LIGAND FREE ENERGY PREDICTED BY IDOCK:   -1.39 KCAL/MOL
REMARK 927      BINDING AFFINITY PREDICTED BY RF-SCORE:    0.00 PKD
ROOT
HETATM    1  C   UNK A   1     -11.814  10.743  69.798  1.00  0.00    -0.335 C  
HETATM    2  C   UNK A   1     -12.845  10.462  70.888  1.00  0.00    -0.482 C  
ENDROOT
BRANCH   1   3
HETATM    3  C   UNK A   1     -11.852  12.254  69.436  1.00  0.00    -0.310 C  
ATOM      4  CA  PRO A   2     -11.520  11.720  66.952  1.00  0.00    -0.293 C  
ATOM      5  N   PRO A   2     -11.584  12.616  68.124  1.00  0.00    -0.317 N  
ATOM      6  C   PRO A   2     -10.115  11.136  66.740  1.00  0.00    -0.218 C  
HETATM    7  O   UNK A   1     -12.080  13.105  70.301  1.00  0.00    -0.349 OA 
ATOM      8  CB  PRO A   2     -11.898  12.604  65.756  1.00  0.00    -0.497 C  
ATOM      9  O   PRO A   2      -9.199  11.571  67.636  1.00  0.00    -0.165 OA 
ATOM     10  CD  PRO A   2     -11.672  14.001  67.689  1.00  0.00    -0.377 C  
ATOM     11  OXT PRO A   2      -9.840  10.352  65.846  1.00  0.00    -0.208 OA 
ATOM     12  CG  PRO A   2     -12.399  13.912  66.362  1.00  0.00    -0.468 C  
ENDBRANCH   1   3
BRANCH   1  13
HETATM   13  N   UNK A   1     -10.430  10.418  70.224  1.00  0.00    -0.442 NA 
HETATM   14  H   UNK A   1     -10.140  11.042  70.976  1.00  0.00     0.000 HD 
BRANCH  13  15
HETATM   15  C   UNK A   1     -10.197   8.991  70.622  1.00  0.00    -0.229 C  
HETATM   16  O   UNK A   1      -8.212   7.928  71.623  1.00  0.00    -0.103 OA 
HETATM   17  O   UNK A   1      -7.976   9.953  70.646  1.00  0.00    -0.257 OA 
HETATM   18  C   UNK A   1      -8.705   8.871  71.025  1.00  0.00    -0.224 C  
BRANCH  15  19
HETATM   19  C   UNK A   1     -10.529   7.972  69.507  1.00  0.00    -0.226 C  
BRANCH  19  20
HETATM   20  C   UNK A   1     -11.584   6.936  69.929  1.00  0.00    -0.255 C  
BRANCH  20  21
HETATM   21  C   UNK A   1     -11.093   5.935  70.948  1.00  0.00    -0.312 A  
HETATM   22  C   UNK A   1     -10.075   4.134  72.850  1.00  0.00    -0.217 A  
HETATM   23  C   UNK A   1     -10.101   5.011  70.598  1.00  0.00    -0.313 A  
HETATM   24  C   UNK A   1      -9.593   4.116  71.544  1.00  0.00    -0.238 A  
HETATM   25  C   UNK A   1     -11.066   5.044  73.210  1.00  0.00    -0.406 A  
HETATM   26  C   UNK A   1     -11.574   5.943  72.268  1.00  0.00    -0.338 A  
ENDBRANCH  20  21
ENDBRANCH  19  20
ENDBRANCH  15  19
ENDBRANCH  13  15
ENDBRANCH   1  13
TORSDOF 6
ENDMDL
MODEL       51
REMARK 921   NORMALIZED FREE ENERGY PREDICTED BY IDOCK:   -5.35 KCAL/MOL
REMARK 922        TOTAL FREE ENERGY PREDICTED BY IDOCK:   -8.94 KCAL/MOL
REMARK 923 INTER-LIGAND FREE ENERGY PREDICTED BY IDOCK:   -8.09 KCAL/MOL
REMARK 924 INTRA-LIGAND FREE ENERGY PREDICTED BY IDOCK:   -0.86 KCAL/MOL
REMARK 927      BINDING AFFINITY PREDICTED BY RF-SCORE:    0.00 PKD
ROOT
HETATM    1  C   UNK A   1     -10.403  10.492  67.803  1.00  0.00    -0.212 C  
HETATM    2  C   UNK A   1     -10.275   9.417  66.728  1.00  0.00    -0.320 C  
ENDROOT
BRANCH   1   3
HETATM    3  C   UNK A   1      -9.160  10.436  68.734  1.00  0.00    -0.165 C  
ATOM      4  CA  PRO A   2     -10.039   8.313  69.867  1.00  0.00    -0.195 C  
ATOM      5  N   PRO A   2      -9.138   9.474  69.733  1.00  0.00    -0.188 N  
ATOM      6  C   PRO A   2     -11.310   8.650  70.662  1.00  0.00    -0.247 C  
HETATM    7  O   UNK A   1      -8.238  11.247  68.605  1.00  0.00    -0.143 OA 
ATOM      8  CB  PRO A   2      -9.220   7.260  70.625  1.00  0.00    -0.157 C  
ATOM      9  O   PRO A   2     -11.352   9.924  71.115  1.00  0.00    -0.357 OA 
ATOM     10  CD  PRO A   2      -7.979   9.309  70.598  1.00  0.00    -0.162 C  
ATOM     11  OXT PRO A   2     -12.205   7.847  70.873  1.00  0.00    -0.243 OA 
ATOM     12  CG  PRO A   2      -7.795   7.806  70.662  1.00  0.00    -0.096 C  
ENDBRANCH   1   3
BRANCH   1  13
HETATM   13  N   UNK A   1     -10.479  11.861  67.236  1.00  0.00    -0.218 NA 
HETATM   14  H   UNK A   1     -10.035  11.884  66.318  1.00  0.00     0.000 HD 
BRANCH  13  15
HETATM   15  C   UNK A   1     -11.855  12.451  67.156  1.00  0.00    -0.291 C  
HETATM   16  O   UNK A   1     -13.231  13.006  65.189  1.00  0.00    -0.703 OA 
HETATM   17  O   UNK A   1     -11.013  12.678  64.898  1.00  0.00    -0.277 OA 
HETATM   18  C   UNK A   1     -12.135  12.746  65.661  1.00  0.00    -0.459 C  
BRANCH  15  19
HETATM   19  C   UNK A   1     -12.030  13.739  67.994  1.00  0.00    -0.390 C  
BRANCH  19  20
HETATM   20  C   UNK A   1     -11.181  13.746  69.277  1.00  0.00    -0.291 C  
BRANCH  20  21
HETATM   21  C   UNK A   1     -11.931  14.195  70.509  1.00  0.00    -0.393 A  
HETATM   22  C   UNK A   1     -13.396  15.097  72.731  1.00  0.00    -0.596 A  
HETATM   23  C   UNK A   1     -11.775  15.502  70.985  1.00  0.00    -0.423 A  
HETATM   24  C   UNK A   1     -12.504  15.952  72.089  1.00  0.00    -0.540 A  
HETATM   25  C   UNK A   1     -13.557  13.792  72.271  1.00  0.00    -0.656 A  
HETATM   26  C   UNK A   1     -12.833  13.339  71.165  1.00  0.00    -0.363 A  
ENDBRANCH  20  21
ENDBRANCH  19  20
ENDBRANCH  15  19
ENDBRANCH  13  15
ENDBRANCH   1  13
TORSDOF 6
ENDMDL
MODEL       52
REMARK 921   NORMALIZED FREE ENERGY PREDICTED BY IDOCK:   -5.35 KCAL/MOL
REMARK 922        TOTAL FREE ENERGY PREDICTED BY IDOCK:   -8.94 KCAL/MOL
REMARK 923 INTER-LIGAND FREE ENERGY PREDICTED BY IDOCK:   -8.29 KCAL/MOL
REMARK 924 INTRA-LIGAND FREE ENERGY PREDICTED BY IDOCK:   -0.64 KCAL/MOL
REMARK 927      BINDING AFFINITY PREDICTED BY RF-SCORE:    0.00 PKD
ROOT
HETATM    1  C   UNK A   1     -10.151  11.808  66.878  1.00  0.00    -0.207 C  
HETATM    2  C   UNK A   1     -11.533  11.978  67.503  1.00  0.00    -0.403 C  
ENDROOT
BRANCH   1   3
HETATM    3  C   UNK A   1     -10.058  10.404  66.217  1.00  0.00    -0.231 C  
ATOM      4  CA  PRO A   2     -10.013   9.269  68.514  1.00  0.00    -0.175 C  
ATOM      5  N   PRO A   2      -9.874   9.306  67.045  1.00  0.00    -0.183 N  
ATOM      6  C   PRO A   2      -8.705   9.629  69.234  1.00  0.00    -0.159 C  
HETATM    7  O   UNK A   1     -10.113  10.279  64.990  1.00  0.00    -0.323 OA 
ATOM      8  CB  PRO A   2     -10.400   7.820  68.838  1.00  0.00    -0.224 C  
ATOM      9  O   PRO A   2      -7.670   9.878  68.399  1.00  0.00    -0.083 OA 
ATOM     10  CD  PRO A   2      -9.850   7.953  66.511  1.00  0.00    -0.202 C  
ATOM     11  OXT PRO A   2      -8.598   9.685  70.449  1.00  0.00    -0.207 OA 
ATOM     12  CG  PRO A   2     -10.700   7.169  67.491  1.00  0.00    -0.344 C  
ENDBRANCH   1   3
BRANCH   1  13
HETATM   13  N   UNK A   1      -9.870  12.818  65.829  1.00  0.00    -0.361 NA 
HETATM   14  H   UNK A   1      -9.776  12.362  64.921  1.00  0.00     0.000 HD 
BRANCH  13  15
HETATM   15  C   UNK A   1     -10.856  13.945  65.738  1.00  0.00    -0.289 C  
HETATM   16  O   UNK A   1     -12.586  14.406  64.045  1.00  0.00    -0.764 OA 
HETATM   17  O   UNK A   1     -10.936  12.946  63.534  1.00  0.00    -0.370 OA 
HETATM   18  C   UNK A   1     -11.567  13.815  64.367  1.00  0.00    -0.395 C  
BRANCH  15  19
HETATM   19  C   UNK A   1     -10.214  15.345  65.872  1.00  0.00    -0.365 C  
BRANCH  19  20
HETATM   20  C   UNK A   1     -10.487  16.008  67.233  1.00  0.00    -0.308 C  
BRANCH  20  21
HETATM   21  C   UNK A   1     -10.282  17.505  67.242  1.00  0.00    -0.335 A  
HETATM   22  C   UNK A   1      -9.786  20.270  67.291  1.00  0.00    -0.593 A  
HETATM   23  C   UNK A   1     -10.132  18.182  68.458  1.00  0.00    -0.413 A  
HETATM   24  C   UNK A   1      -9.884  19.557  68.484  1.00  0.00    -0.518 A  
HETATM   25  C   UNK A   1      -9.940  19.610  66.075  1.00  0.00    -0.508 A  
HETATM   26  C   UNK A   1     -10.184  18.234  66.045  1.00  0.00    -0.334 A  
ENDBRANCH  20  21
ENDBRANCH  19  20
ENDBRANCH  15  19
ENDBRANCH  13  15
ENDBRANCH   1  13
TORSDOF 6
ENDMDL
MODEL       53
REMARK 921   NORMALIZED FREE ENERGY PREDICTED BY IDOCK:   -5.33 KCAL/MOL
REMARK 922        TOTAL FREE ENERGY PREDICTED BY IDOCK:   -8.92 KCAL/MOL
REMARK 923 INTER-LIGAND FREE ENERGY PREDICTED BY IDOCK:   -7.72 KCAL/MOL
REMARK 924 INTRA-LIGAND FREE ENERGY PREDICTED BY IDOCK:   -1.20 KCAL/MOL
REMARK 927      BINDING AFFINITY PREDICTED BY RF-SCORE:    0.00 PKD
ROOT
HETATM    1  C   UNK A   1     -11.617   9.305  71.645  1.00  0.00    -0.393 C  
HETATM    2  C   UNK A   1     -13.020   9.830  71.355  1.00  0.00    -0.490 C  
ENDROOT
BRANCH   1   3
HETATM    3  C   UNK A   1     -11.614   7.756  71.514  1.00  0.00    -0.270 C  
ATOM      4  CA  PRO A   2     -10.111   7.533  73.577  1.00  0.00    -0.323 C  
ATOM      5  N   PRO A   2     -10.795   7.032  72.369  1.00  0.00    -0.229 N  
ATOM      6  C   PRO A   2      -8.725   8.117  73.263  1.00  0.00    -0.246 C  
HETATM    7  O   UNK A   1     -12.295   7.194  70.651  1.00  0.00    -0.272 OA 
ATOM      8  CB  PRO A   2      -9.960   6.305  74.485  1.00  0.00    -0.356 C  
ATOM      9  O   PRO A   2      -8.378   8.036  71.958  1.00  0.00    -0.116 OA 
ATOM     10  CD  PRO A   2     -10.791   5.577  72.359  1.00  0.00    -0.248 C  
ATOM     11  OXT PRO A   2      -7.995   8.610  74.108  1.00  0.00    -0.391 OA 
ATOM     12  CG  PRO A   2     -10.800   5.212  73.830  1.00  0.00    -0.345 C  
ENDBRANCH   1   3
BRANCH   1  13
HETATM   13  N   UNK A   1     -10.601   9.838  70.704  1.00  0.00    -0.310 NA 
HETATM   14  H   UNK A   1      -9.816   9.190  70.634  1.00  0.00     0.000 HD 
BRANCH  13  15
HETATM   15  C   UNK A   1     -11.108  10.179  69.335  1.00  0.00    -0.243 C  
HETATM   16  O   UNK A   1     -10.777   9.019  67.186  1.00  0.00    -0.259 OA 
HETATM   17  O   UNK A   1      -9.394   8.524  68.905  1.00  0.00    -0.146 OA 
HETATM   18  C   UNK A   1     -10.432   9.197  68.344  1.00  0.00    -0.199 C  
BRANCH  15  19
HETATM   19  C   UNK A   1     -10.823  11.639  68.912  1.00  0.00    -0.264 C  
BRANCH  19  20
HETATM   20  C   UNK A   1     -12.027  12.321  68.241  1.00  0.00    -0.259 C  
BRANCH  20  21
HETATM   21  C   UNK A   1     -11.667  13.178  67.050  1.00  0.00    -0.431 A  
HETATM   22  C   UNK A   1     -11.112  14.800  64.824  1.00  0.00    -0.393 A  
HETATM   23  C   UNK A   1     -12.018  12.764  65.760  1.00  0.00    -0.502 A  
HETATM   24  C   UNK A   1     -11.744  13.571  64.652  1.00  0.00    -0.412 A  
HETATM   25  C   UNK A   1     -10.751  15.220  66.101  1.00  0.00    -0.322 A  
HETATM   26  C   UNK A   1     -11.026  14.419  67.213  1.00  0.00    -0.301 A  
ENDBRANCH  20  21
ENDBRANCH  19  20
ENDBRANCH  15  19
ENDBRANCH  13  15
ENDBRANCH   1  13
TORSDOF 6
ENDMDL
MODEL       54
REMARK 921   NORMALIZED FREE ENERGY PREDICTED BY IDOCK:   -5.33 KCAL/MOL
REMARK 922        TOTAL FREE ENERGY PREDICTED BY IDOCK:   -8.91 KCAL/MOL
REMARK 923 INTER-LIGAND FREE ENERGY PREDICTED BY IDOCK:   -7.61 KCAL/MOL
REMARK 924 INTRA-LIGAND FREE ENERGY PREDICTED BY IDOCK:   -1.30 KCAL/MOL
REMARK 927      BINDING AFFINITY PREDICTED BY RF-SCORE:    0.00 PKD
ROOT
HETATM    1  C   UNK A   1     -12.682   9.479  70.888  1.00  0.00    -0.159 C  
HETATM    2  C   UNK A   1     -13.969   9.075  71.602  1.00  0.00    -0.386 C  
ENDROOT
BRANCH   1   3
HETATM    3  C   UNK A   1     -12.517  11.023  70.965  1.00  0.00    -0.409 C  
ATOM      4  CA  PRO A   2     -11.533  11.088  68.601  1.00  0.00    -0.308 C  
ATOM      5  N   PRO A   2     -11.867  11.661  69.919  1.00  0.00    -0.337 N  
ATOM      6  C   PRO A   2     -10.167  10.386  68.599  1.00  0.00    -0.181 C  
HETATM    7  O   UNK A   1     -12.925  11.653  71.946  1.00  0.00    -0.427 OA 
ATOM      8  CB  PRO A   2     -11.499  12.288  67.644  1.00  0.00    -0.401 C  
ATOM      9  O   PRO A   2      -9.515  10.450  69.782  1.00  0.00    -0.154 OA 
ATOM     10  CD  PRO A   2     -11.738  13.110  69.882  1.00  0.00    -0.257 C  
ATOM     11  OXT PRO A   2      -9.701   9.821  67.622  1.00  0.00    -0.150 OA 
ATOM     12  CG  PRO A   2     -12.065  13.458  68.443  1.00  0.00    -0.270 C  
ENDBRANCH   1   3
BRANCH   1  13
HETATM   13  N   UNK A   1     -11.475   8.868  71.497  1.00  0.00    -0.295 NA 
HETATM   14  H   UNK A   1     -10.973   9.562  72.051  1.00  0.00     0.000 HD 
BRANCH  13  15
HETATM   15  C   UNK A   1     -11.720   7.636  72.315  1.00  0.00    -0.324 C  
HETATM   16  O   UNK A   1     -10.520   6.780  74.291  1.00  0.00    -0.338 OA 
HETATM   17  O   UNK A   1      -9.509   8.341  73.005  1.00  0.00    -0.264 OA 
HETATM   18  C   UNK A   1     -10.543   7.516  73.317  1.00  0.00    -0.384 C  
BRANCH  15  19
HETATM   19  C   UNK A   1     -11.835   6.343  71.475  1.00  0.00    -0.355 C  
BRANCH  19  20
HETATM   20  C   UNK A   1     -10.478   5.832  70.961  1.00  0.00    -0.307 C  
BRANCH  20  21
HETATM   21  C   UNK A   1     -10.399   5.696  69.459  1.00  0.00    -0.345 A  
HETATM   22  C   UNK A   1     -10.330   5.351  66.671  1.00  0.00    -0.325 A  
HETATM   23  C   UNK A   1      -9.729   4.606  68.890  1.00  0.00    -0.236 A  
HETATM   24  C   UNK A   1      -9.696   4.433  67.504  1.00  0.00    -0.211 A  
HETATM   25  C   UNK A   1     -10.995   6.443  67.223  1.00  0.00    -0.474 A  
HETATM   26  C   UNK A   1     -11.034   6.619  68.609  1.00  0.00    -0.317 A  
ENDBRANCH  20  21
ENDBRANCH  19  20
ENDBRANCH  15  19
ENDBRANCH  13  15
ENDBRANCH   1  13
TORSDOF 6
ENDMDL
MODEL       55
REMARK 921   NORMALIZED FREE ENERGY PREDICTED BY IDOCK:   -5.33 KCAL/MOL
REMARK 922        TOTAL FREE ENERGY PREDICTED BY IDOCK:   -8.91 KCAL/MOL
REMARK 923 INTER-LIGAND FREE ENERGY PREDICTED BY IDOCK:   -7.65 KCAL/MOL
REMARK 924 INTRA-LIGAND FREE ENERGY PREDICTED BY IDOCK:   -1.25 KCAL/MOL
REMARK 927      BINDING AFFINITY PREDICTED BY RF-SCORE:    0.00 PKD
ROOT
HETATM    1  C   UNK A   1     -10.335   8.455  70.399  1.00  0.00    -0.205 C  
HETATM    2  C   UNK A   1     -10.056   8.701  71.879  1.00  0.00    -0.398 C  
ENDROOT
BRANCH   1   3
HETATM    3  C   UNK A   1     -10.457   6.926  70.149  1.00  0.00    -0.209 C  
ATOM      4  CA  PRO A   2      -8.945   7.091  68.087  1.00  0.00    -0.127 C  
ATOM      5  N   PRO A   2      -9.888   6.408  68.994  1.00  0.00    -0.137 N  
ATOM      6  C   PRO A   2      -9.666   7.890  66.990  1.00  0.00    -0.206 C  
HETATM    7  O   UNK A   1     -11.072   6.204  70.940  1.00  0.00    -0.286 OA 
ATOM      8  CB  PRO A   2      -8.123   5.964  67.448  1.00  0.00    -0.102 C  
ATOM      9  O   PRO A   2     -11.015   7.794  67.038  1.00  0.00    -0.247 OA 
ATOM     10  CD  PRO A   2      -9.895   4.979  68.724  1.00  0.00    -0.168 C  
ATOM     11  OXT PRO A   2      -9.083   8.551  66.146  1.00  0.00    -0.171 OA 
ATOM     12  CG  PRO A   2      -8.489   4.704  68.228  1.00  0.00    -0.101 C  
ENDBRANCH   1   3
BRANCH   1  13
HETATM   13  N   UNK A   1     -11.598   9.087  69.943  1.00  0.00    -0.441 NA 
HETATM   14  H   UNK A   1     -12.399   8.568  70.305  1.00  0.00     0.000 HD 
BRANCH  13  15
HETATM   15  C   UNK A   1     -11.742  10.544  70.265  1.00  0.00    -0.332 C  
HETATM   16  O   UNK A   1     -13.167  11.666  71.934  1.00  0.00    -0.485 OA 
HETATM   17  O   UNK A   1     -13.651   9.532  71.360  1.00  0.00    -0.366 OA 
HETATM   18  C   UNK A   1     -12.914  10.671  71.272  1.00  0.00    -0.414 C  
BRANCH  15  19
HETATM   19  C   UNK A   1     -12.008  11.431  69.028  1.00  0.00    -0.387 C  
BRANCH  19  20
HETATM   20  C   UNK A   1     -10.948  11.265  67.925  1.00  0.00    -0.302 C  
BRANCH  20  21
HETATM   21  C   UNK A   1     -11.322  11.906  66.609  1.00  0.00    -0.400 A  
HETATM   22  C   UNK A   1     -12.092  13.006  64.140  1.00  0.00    -0.497 A  
HETATM   23  C   UNK A   1     -10.879  11.343  65.407  1.00  0.00    -0.292 A  
HETATM   24  C   UNK A   1     -11.262  11.888  64.178  1.00  0.00    -0.446 A  
HETATM   25  C   UNK A   1     -12.536  13.580  65.329  1.00  0.00    -0.525 A  
HETATM   26  C   UNK A   1     -12.158  13.036  66.560  1.00  0.00    -0.410 A  
ENDBRANCH  20  21
ENDBRANCH  19  20
ENDBRANCH  15  19
ENDBRANCH  13  15
ENDBRANCH   1  13
TORSDOF 6
ENDMDL
MODEL       56
REMARK 921   NORMALIZED FREE ENERGY PREDICTED BY IDOCK:   -5.31 KCAL/MOL
REMARK 922        TOTAL FREE ENERGY PREDICTED BY IDOCK:   -8.88 KCAL/MOL
REMARK 923 INTER-LIGAND FREE ENERGY PREDICTED BY IDOCK:   -7.60 KCAL/MOL
REMARK 924 INTRA-LIGAND FREE ENERGY PREDICTED BY IDOCK:   -1.28 KCAL/MOL
REMARK 927      BINDING AFFINITY PREDICTED BY RF-SCORE:    0.00 PKD
ROOT
HETATM    1  C   UNK A   1     -11.843  14.304  68.231  1.00  0.00    -0.335 C  
HETATM    2  C   UNK A   1     -12.308  13.883  66.840  1.00  0.00    -0.331 C  
ENDROOT
BRANCH   1   3
HETATM    3  C   UNK A   1     -11.989  13.101  69.205  1.00  0.00    -0.281 C  
ATOM      4  CA  PRO A   2     -12.845  14.642  71.064  1.00  0.00    -0.348 C  
ATOM      5  N   PRO A   2     -12.337  13.367  70.521  1.00  0.00    -0.345 N  
ATOM      6  C   PRO A   2     -11.713  15.580  71.509  1.00  0.00    -0.412 C  
HETATM    7  O   UNK A   1     -11.767  11.948  68.821  1.00  0.00    -0.279 OA 
ATOM      8  CB  PRO A   2     -13.695  14.245  72.278  1.00  0.00    -0.592 C  
ATOM      9  O   PRO A   2     -10.475  15.057  71.355  1.00  0.00     0.263 OA 
ATOM     10  CD  PRO A   2     -12.564  12.292  71.474  1.00  0.00    -0.152 C  
ATOM     11  OXT PRO A   2     -11.903  16.696  71.965  1.00  0.00    -0.399 OA 
ATOM     12  CG  PRO A   2     -13.819  12.726  72.206  1.00  0.00    -0.395 C  
ENDBRANCH   1   3
BRANCH   1  13
HETATM   13  N   UNK A   1     -10.422  14.731  68.254  1.00  0.00    -0.237 NA 
HETATM   14  H   UNK A   1     -10.006  14.510  69.159  1.00  0.00     0.000 HD 
BRANCH  13  15
HETATM   15  C   UNK A   1      -9.568  14.187  67.149  1.00  0.00    -0.244 C  
HETATM   16  O   UNK A   1      -7.429  12.967  67.251  1.00  0.00    -0.146 OA 
HETATM   17  O   UNK A   1      -8.108  14.114  69.078  1.00  0.00    -0.078 OA 
HETATM   18  C   UNK A   1      -8.255  13.682  67.798  1.00  0.00    -0.179 C  
BRANCH  15  19
HETATM   19  C   UNK A   1      -9.250  15.219  66.042  1.00  0.00    -0.308 C  
BRANCH  19  20
HETATM   20  C   UNK A   1      -8.220  16.275  66.478  1.00  0.00    -0.344 C  
BRANCH  20  21
HETATM   21  C   UNK A   1      -8.831  17.542  67.029  1.00  0.00    -0.252 A  
HETATM   22  C   UNK A   1     -10.055  19.832  68.104  1.00  0.00    -0.574 A  
HETATM   23  C   UNK A   1     -10.030  18.029  66.495  1.00  0.00    -0.371 A  
HETATM   24  C   UNK A   1     -10.640  19.167  67.029  1.00  0.00    -0.551 A  
HETATM   25  C   UNK A   1      -8.859  19.362  68.641  1.00  0.00    -0.417 A  
HETATM   26  C   UNK A   1      -8.247  18.222  68.112  1.00  0.00    -0.295 A  
ENDBRANCH  20  21
ENDBRANCH  19  20
ENDBRANCH  15  19
ENDBRANCH  13  15
ENDBRANCH   1  13
TORSDOF 6
ENDMDL
MODEL       57
REMARK 921   NORMALIZED FREE ENERGY PREDICTED BY IDOCK:   -5.29 KCAL/MOL
REMARK 922        TOTAL FREE ENERGY PREDICTED BY IDOCK:   -8.86 KCAL/MOL
REMARK 923 INTER-LIGAND FREE ENERGY PREDICTED BY IDOCK:   -7.66 KCAL/MOL
REMARK 924 INTRA-LIGAND FREE ENERGY PREDICTED BY IDOCK:   -1.20 KCAL/MOL
REMARK 927      BINDING AFFINITY PREDICTED BY RF-SCORE:    0.00 PKD
ROOT
HETATM    1  C   UNK A   1     -11.361  12.094  65.788  1.00  0.00    -0.354 C  
HETATM    2  C   UNK A   1     -12.583  12.795  65.203  1.00  0.00    -0.513 C  
ENDROOT
BRANCH   1   3
HETATM    3  C   UNK A   1     -10.299  11.899  64.670  1.00  0.00    -0.284 C  
ATOM      4  CA  PRO A   2      -9.510   9.704  65.730  1.00  0.00    -0.246 C  
ATOM      5  N   PRO A   2      -9.411  10.840  64.793  1.00  0.00    -0.228 N  
ATOM      6  C   PRO A   2      -8.842  10.002  67.081  1.00  0.00    -0.135 C  
HETATM    7  O   UNK A   1     -10.229  12.686  63.721  1.00  0.00    -0.404 OA 
ATOM      8  CB  PRO A   2      -8.775   8.551  65.034  1.00  0.00    -0.124 C  
ATOM      9  O   PRO A   2      -8.265  11.224  67.150  1.00  0.00    -0.137 OA 
ATOM     10  CD  PRO A   2      -8.436  10.547  63.753  1.00  0.00    -0.127 C  
ATOM     11  OXT PRO A   2      -8.826   9.213  68.013  1.00  0.00    -0.129 OA 
ATOM     12  CG  PRO A   2      -8.509   9.040  63.613  1.00  0.00    -0.173 C  
ENDBRANCH   1   3
BRANCH   1  13
HETATM   13  N   UNK A   1     -10.726  12.870  66.881  1.00  0.00    -0.256 NA 
HETATM   14  H   UNK A   1     -10.038  13.518  66.496  1.00  0.00     0.000 HD 
BRANCH  13  15
HETATM   15  C   UNK A   1     -11.671  13.603  67.785  1.00  0.00    -0.362 C  
HETATM   16  O   UNK A   1     -11.694  15.969  68.474  1.00  0.00    -0.375 OA 
HETATM   17  O   UNK A   1      -9.799  15.123  67.576  1.00  0.00    -0.219 OA 
HETATM   18  C   UNK A   1     -11.087  15.023  67.996  1.00  0.00    -0.300 C  
BRANCH  15  19
HETATM   19  C   UNK A   1     -11.890  12.911  69.150  1.00  0.00    -0.353 C  
BRANCH  19  20
HETATM   20  C   UNK A   1     -11.038  11.643  69.328  1.00  0.00    -0.291 C  
BRANCH  20  21
HETATM   21  C   UNK A   1     -11.580  10.676  70.356  1.00  0.00    -0.441 A  
HETATM   22  C   UNK A   1     -12.516   8.931  72.349  1.00  0.00    -0.405 A  
HETATM   23  C   UNK A   1     -10.766   9.647  70.844  1.00  0.00    -0.402 A  
HETATM   24  C   UNK A   1     -11.230   8.779  71.836  1.00  0.00    -0.438 A  
HETATM   25  C   UNK A   1     -13.338   9.946  71.867  1.00  0.00    -0.524 A  
HETATM   26  C   UNK A   1     -12.877  10.819  70.878  1.00  0.00    -0.443 A  
ENDBRANCH  20  21
ENDBRANCH  19  20
ENDBRANCH  15  19
ENDBRANCH  13  15
ENDBRANCH   1  13
TORSDOF 6
ENDMDL
MODEL       58
REMARK 921   NORMALIZED FREE ENERGY PREDICTED BY IDOCK:   -5.28 KCAL/MOL
REMARK 922        TOTAL FREE ENERGY PREDICTED BY IDOCK:   -8.85 KCAL/MOL
REMARK 923 INTER-LIGAND FREE ENERGY PREDICTED BY IDOCK:   -8.34 KCAL/MOL
REMARK 924 INTRA-LIGAND FREE ENERGY PREDICTED BY IDOCK:   -0.51 KCAL/MOL
REMARK 927      BINDING AFFINITY PREDICTED BY RF-SCORE:    0.00 PKD
ROOT
HETATM    1  C   UNK A   1     -11.246  12.135  64.345  1.00  0.00    -0.341 C  
HETATM    2  C   UNK A   1     -12.357  11.874  63.331  1.00  0.00    -0.577 C  
ENDROOT
BRANCH   1   3
HETATM    3  C   UNK A   1      -9.942  11.439  63.865  1.00  0.00    -0.315 C  
ATOM      4  CA  PRO A   2      -9.991   9.849  65.873  1.00  0.00    -0.277 C  
ATOM      5  N   PRO A   2      -9.371  10.484  64.694  1.00  0.00    -0.225 N  
ATOM      6  C   PRO A   2      -9.748  10.649  67.162  1.00  0.00    -0.171 C  
HETATM    7  O   UNK A   1      -9.416  11.755  62.793  1.00  0.00    -0.347 OA 
ATOM      8  CB  PRO A   2      -9.316   8.475  65.983  1.00  0.00    -0.266 C  
ATOM      9  O   PRO A   2      -8.993  11.758  66.986  1.00  0.00    -0.174 OA 
ATOM     10  CD  PRO A   2      -8.192   9.737  64.284  1.00  0.00    -0.160 C  
ATOM     11  OXT PRO A   2     -10.190  10.321  68.251  1.00  0.00    -0.149 OA 
ATOM     12  CG  PRO A   2      -8.515   8.313  64.694  1.00  0.00    -0.069 C  
ENDBRANCH   1   3
BRANCH   1  13
HETATM   13  N   UNK A   1     -10.951  13.580  64.509  1.00  0.00    -0.380 NA 
HETATM   14  H   UNK A   1     -11.770  14.134  64.259  1.00  0.00     0.000 HD 
BRANCH  13  15
HETATM   15  C   UNK A   1     -10.449  13.985  65.862  1.00  0.00    -0.309 C  
HETATM   16  O   UNK A   1     -11.661  14.233  67.994  1.00  0.00    -0.295 OA 
HETATM   17  O   UNK A   1     -12.854  14.167  66.074  1.00  0.00    -0.425 OA 
HETATM   18  C   UNK A   1     -11.691  14.144  66.776  1.00  0.00    -0.410 C  
BRANCH  15  19
HETATM   19  C   UNK A   1      -9.626  15.294  65.854  1.00  0.00    -0.377 C  
BRANCH  19  20
HETATM   20  C   UNK A   1     -10.458  16.530  65.473  1.00  0.00    -0.320 C  
BRANCH  20  21
HETATM   21  C   UNK A   1     -10.340  17.678  66.449  1.00  0.00    -0.345 A  
HETATM   22  C   UNK A   1     -10.239  19.832  68.250  1.00  0.00    -0.569 A  
HETATM   23  C   UNK A   1     -10.428  18.997  65.990  1.00  0.00    -0.530 A  
HETATM   24  C   UNK A   1     -10.380  20.070  66.885  1.00  0.00    -0.567 A  
HETATM   25  C   UNK A   1     -10.144  18.525  68.719  1.00  0.00    -0.394 A  
HETATM   26  C   UNK A   1     -10.196  17.449  67.828  1.00  0.00    -0.345 A  
ENDBRANCH  20  21
ENDBRANCH  19  20
ENDBRANCH  15  19
ENDBRANCH  13  15
ENDBRANCH   1  13
TORSDOF 6
ENDMDL
MODEL       59
REMARK 921   NORMALIZED FREE ENERGY PREDICTED BY IDOCK:   -5.17 KCAL/MOL
REMARK 922        TOTAL FREE ENERGY PREDICTED BY IDOCK:   -8.70 KCAL/MOL
REMARK 923 INTER-LIGAND FREE ENERGY PREDICTED BY IDOCK:   -7.57 KCAL/MOL
REMARK 924 INTRA-LIGAND FREE ENERGY PREDICTED BY IDOCK:   -1.13 KCAL/MOL
REMARK 927      BINDING AFFINITY PREDICTED BY RF-SCORE:    0.00 PKD
ROOT
HETATM    1  C   UNK A   1      -9.283  15.609  67.899  1.00  0.00    -0.190 C  
HETATM    2  C   UNK A   1      -8.823  14.344  68.617  1.00  0.00    -0.167 C  
ENDROOT
BRANCH   1   3
HETATM    3  C   UNK A   1      -8.106  16.175  67.054  1.00  0.00    -0.210 C  
ATOM      4  CA  PRO A   2      -8.757  18.577  67.661  1.00  0.00    -0.267 C  
ATOM      5  N   PRO A   2      -8.017  17.551  66.902  1.00  0.00    -0.214 N  
ATOM      6  C   PRO A   2     -10.111  18.915  67.019  1.00  0.00    -0.354 C  
HETATM    7  O   UNK A   1      -7.299  15.416  66.510  1.00  0.00     0.050 OA 
ATOM      8  CB  PRO A   2      -7.852  19.816  67.640  1.00  0.00    -0.326 C  
ATOM      9  O   PRO A   2     -10.358  18.242  65.872  1.00  0.00    -0.540 OA 
ATOM     10  CD  PRO A   2      -6.906  18.161  66.189  1.00  0.00    -0.263 C  
ATOM     11  OXT PRO A   2     -10.899  19.719  67.492  1.00  0.00    -0.411 OA 
ATOM     12  CG  PRO A   2      -6.521  19.334  67.068  1.00  0.00    -0.195 C  
ENDBRANCH   1   3
BRANCH   1  13
HETATM   13  N   UNK A   1     -10.419  15.362  66.977  1.00  0.00    -0.288 NA 
HETATM   14  H   UNK A   1     -10.451  16.086  66.260  1.00  0.00     0.000 HD 
BRANCH  13  15
HETATM   15  C   UNK A   1     -10.447  14.005  66.339  1.00  0.00    -0.284 C  
HETATM   16  O   UNK A   1     -10.396  13.371  63.958  1.00  0.00    -0.336 OA 
HETATM   17  O   UNK A   1     -10.917  15.505  64.497  1.00  0.00    -0.363 OA 
HETATM   18  C   UNK A   1     -10.578  14.227  64.810  1.00  0.00    -0.412 C  
BRANCH  15  19
HETATM   19  C   UNK A   1     -11.596  13.103  66.845  1.00  0.00    -0.417 C  
BRANCH  19  20
HETATM   20  C   UNK A   1     -11.282  11.601  66.730  1.00  0.00    -0.371 C  
BRANCH  20  21
HETATM   21  C   UNK A   1     -11.284  10.868  68.051  1.00  0.00    -0.378 A  
HETATM   22  C   UNK A   1     -11.403   9.475  70.489  1.00  0.00    -0.343 A  
HETATM   23  C   UNK A   1     -11.996  11.390  69.138  1.00  0.00    -0.395 A  
HETATM   24  C   UNK A   1     -12.057  10.697  70.351  1.00  0.00    -0.430 A  
HETATM   25  C   UNK A   1     -10.686   8.948  69.417  1.00  0.00    -0.192 A  
HETATM   26  C   UNK A   1     -10.625   9.636  68.202  1.00  0.00    -0.273 A  
ENDBRANCH  20  21
ENDBRANCH  19  20
ENDBRANCH  15  19
ENDBRANCH  13  15
ENDBRANCH   1  13
TORSDOF 6
ENDMDL
MODEL       60
REMARK 921   NORMALIZED FREE ENERGY PREDICTED BY IDOCK:   -5.16 KCAL/MOL
REMARK 922        TOTAL FREE ENERGY PREDICTED BY IDOCK:   -8.69 KCAL/MOL
REMARK 923 INTER-LIGAND FREE ENERGY PREDICTED BY IDOCK:   -7.21 KCAL/MOL
REMARK 924 INTRA-LIGAND FREE ENERGY PREDICTED BY IDOCK:   -1.48 KCAL/MOL
REMARK 927      BINDING AFFINITY PREDICTED BY RF-SCORE:    0.00 PKD
ROOT
HETATM    1  C   UNK A   1     -11.031  10.446  67.954  1.00  0.00    -0.297 C  
HETATM    2  C   UNK A   1     -10.966   9.887  69.372  1.00  0.00    -0.263 C  
ENDROOT
BRANCH   1   3
HETATM    3  C   UNK A   1     -10.130  11.710  67.860  1.00  0.00    -0.187 C  
ATOM      4  CA  PRO A   2     -11.906  12.937  66.480  1.00  0.00    -0.407 C  
ATOM      5  N   PRO A   2     -10.561  12.758  67.060  1.00  0.00    -0.240 N  
ATOM      6  C   PRO A   2     -12.047  12.255  65.110  1.00  0.00    -0.316 C  
HETATM    7  O   UNK A   1      -9.050  11.759  68.455  1.00  0.00    -0.185 OA 
ATOM      8  CB  PRO A   2     -12.070  14.454  66.321  1.00  0.00    -0.384 C  
ATOM      9  O   PRO A   2     -10.916  11.652  64.678  1.00  0.00    -0.305 OA 
ATOM     10  CD  PRO A   2      -9.811  14.002  66.977  1.00  0.00    -0.260 C  
ATOM     11  OXT PRO A   2     -13.081  12.255  64.461  1.00  0.00    -0.791 OA 
ATOM     12  CG  PRO A   2     -10.884  15.069  67.059  1.00  0.00    -0.311 C  
ENDBRANCH   1   3
BRANCH   1  13
HETATM   13  N   UNK A   1     -10.556   9.478  66.935  1.00  0.00    -0.208 NA 
HETATM   14  H   UNK A   1     -10.124   9.975  66.156  1.00  0.00     0.000 HD 
BRANCH  13  15
HETATM   15  C   UNK A   1      -9.630   8.413  67.441  1.00  0.00    -0.157 C  
HETATM   16  O   UNK A   1      -7.181   8.215  67.245  1.00  0.00    -0.081 OA 
HETATM   17  O   UNK A   1      -8.264   9.647  65.869  1.00  0.00    -0.116 OA 
HETATM   18  C   UNK A   1      -8.225   8.722  66.864  1.00  0.00    -0.108 C  
BRANCH  15  19
HETATM   19  C   UNK A   1     -10.059   6.980  67.053  1.00  0.00    -0.298 C  
BRANCH  19  20
HETATM   20  C   UNK A   1     -11.270   6.472  67.855  1.00  0.00    -0.257 C  
BRANCH  20  21
HETATM   21  C   UNK A   1     -10.928   5.981  69.242  1.00  0.00    -0.436 A  
HETATM   22  C   UNK A   1     -10.191   5.130  71.817  1.00  0.00    -0.271 A  
HETATM   23  C   UNK A   1      -9.910   5.037  69.418  1.00  0.00    -0.273 A  
HETATM   24  C   UNK A   1      -9.541   4.614  70.698  1.00  0.00    -0.261 A  
HETATM   25  C   UNK A   1     -11.210   6.065  71.655  1.00  0.00    -0.328 A  
HETATM   26  C   UNK A   1     -11.580   6.493  70.377  1.00  0.00    -0.470 A  
ENDBRANCH  20  21
ENDBRANCH  19  20
ENDBRANCH  15  19
ENDBRANCH  13  15
ENDBRANCH   1  13
TORSDOF 6
ENDMDL
MODEL       61
REMARK 921   NORMALIZED FREE ENERGY PREDICTED BY IDOCK:   -5.16 KCAL/MOL
REMARK 922        TOTAL FREE ENERGY PREDICTED BY IDOCK:   -8.69 KCAL/MOL
REMARK 923 INTER-LIGAND FREE ENERGY PREDICTED BY IDOCK:   -7.02 KCAL/MOL
REMARK 924 INTRA-LIGAND FREE ENERGY PREDICTED BY IDOCK:   -1.67 KCAL/MOL
REMARK 927      BINDING AFFINITY PREDICTED BY RF-SCORE:    0.00 PKD
ROOT
HETATM    1  C   UNK A   1      -9.875  11.273  67.906  1.00  0.00    -0.176 C  
HETATM    2  C   UNK A   1      -9.812   9.846  67.367  1.00  0.00    -0.223 C  
ENDROOT
BRANCH   1   3
HETATM    3  C   UNK A   1     -11.004  12.048  67.171  1.00  0.00    -0.270 C  
ATOM      4  CA  PRO A   2      -9.510  14.117  66.946  1.00  0.00    -0.267 C  
ATOM      5  N   PRO A   2     -10.791  13.387  66.878  1.00  0.00    -0.276 N  
ATOM      6  C   PRO A   2      -9.248  14.710  68.338  1.00  0.00    -0.197 C  
HETATM    7  O   UNK A   1     -12.070  11.492  66.889  1.00  0.00    -0.393 OA 
ATOM      8  CB  PRO A   2      -9.644  15.249  65.919  1.00  0.00    -0.377 C  
ATOM      9  O   PRO A   2     -10.244  14.485  69.227  1.00  0.00    -0.203 OA 
ATOM     10  CD  PRO A   2     -11.768  14.161  66.129  1.00  0.00    -0.393 C  
ATOM     11  OXT PRO A   2      -8.238  15.332  68.627  1.00  0.00    -0.141 OA 
ATOM     12  CG  PRO A   2     -10.922  14.942  65.143  1.00  0.00    -0.410 C  
ENDBRANCH   1   3
BRANCH   1  13
HETATM   13  N   UNK A   1     -10.167  11.323  69.359  1.00  0.00    -0.435 NA 
HETATM   14  H   UNK A   1     -10.626  12.203  69.593  1.00  0.00     0.000 HD 
BRANCH  13  15
HETATM   15  C   UNK A   1     -10.963  10.171  69.896  1.00  0.00    -0.293 C  
HETATM   16  O   UNK A   1     -13.270  10.102  70.760  1.00  0.00    -0.379 OA 
HETATM   17  O   UNK A   1     -12.241  12.108  70.584  1.00  0.00    -0.372 OA 
HETATM   18  C   UNK A   1     -12.283  10.756  70.460  1.00  0.00    -0.366 C  
BRANCH  15  19
HETATM   19  C   UNK A   1     -10.229   9.365  70.992  1.00  0.00    -0.369 C  
BRANCH  19  20
HETATM   20  C   UNK A   1     -10.608   7.874  71.004  1.00  0.00    -0.232 C  
BRANCH  20  21
HETATM   21  C   UNK A   1     -10.166   7.116  69.774  1.00  0.00    -0.215 A  
HETATM   22  C   UNK A   1      -9.311   5.616  67.557  1.00  0.00    -0.109 A  
HETATM   23  C   UNK A   1      -8.802   6.944  69.511  1.00  0.00    -0.133 A  
HETATM   24  C   UNK A   1      -8.375   6.197  68.410  1.00  0.00    -0.114 A  
HETATM   25  C   UNK A   1     -10.671   5.785  67.803  1.00  0.00    -0.306 A  
HETATM   26  C   UNK A   1     -11.102   6.528  68.906  1.00  0.00    -0.371 A  
ENDBRANCH  20  21
ENDBRANCH  19  20
ENDBRANCH  15  19
ENDBRANCH  13  15
ENDBRANCH   1  13
TORSDOF 6
ENDMDL
MODEL       62
REMARK 921   NORMALIZED FREE ENERGY PREDICTED BY IDOCK:   -5.16 KCAL/MOL
REMARK 922        TOTAL FREE ENERGY PREDICTED BY IDOCK:   -8.69 KCAL/MOL
REMARK 923 INTER-LIGAND FREE ENERGY PREDICTED BY IDOCK:   -7.36 KCAL/MOL
REMARK 924 INTRA-LIGAND FREE ENERGY PREDICTED BY IDOCK:   -1.32 KCAL/MOL
REMARK 927      BINDING AFFINITY PREDICTED BY RF-SCORE:    0.00 PKD
ROOT
HETATM    1  C   UNK A   1     -10.638  14.499  68.372  1.00  0.00    -0.244 C  
HETATM    2  C   UNK A   1     -10.793  15.752  69.230  1.00  0.00    -0.255 C  
ENDROOT
BRANCH   1   3
HETATM    3  C   UNK A   1     -11.285  13.292  69.107  1.00  0.00    -0.251 C  
ATOM      4  CA  PRO A   2      -9.528  11.697  68.142  1.00  0.00    -0.191 C  
ATOM      5  N   PRO A   2     -10.784  12.026  68.844  1.00  0.00    -0.211 N  
ATOM      6  C   PRO A   2      -9.721  11.586  66.622  1.00  0.00    -0.199 C  
HETATM    7  O   UNK A   1     -12.239  13.458  69.874  1.00  0.00    -0.314 OA 
ATOM      8  CB  PRO A   2      -9.102  10.336  68.709  1.00  0.00    -0.159 C  
ATOM      9  O   PRO A   2     -10.997  11.776  66.215  1.00  0.00    -0.278 OA 
ATOM     10  CD  PRO A   2     -11.286  10.854  69.546  1.00  0.00    -0.283 C  
ATOM     11  OXT PRO A   2      -8.812  11.346  65.843  1.00  0.00    -0.200 OA 
ATOM     12  CG  PRO A   2     -10.029  10.084  69.895  1.00  0.00    -0.280 C  
ENDBRANCH   1   3
BRANCH   1  13
HETATM   13  N   UNK A   1     -11.300  14.628  67.050  1.00  0.00    -0.345 NA 
HETATM   14  H   UNK A   1     -12.314  14.623  67.165  1.00  0.00     0.000 HD 
BRANCH  13  15
HETATM   15  C   UNK A   1     -10.882  15.813  66.232  1.00  0.00    -0.232 C  
HETATM   16  O   UNK A   1     -11.539  16.479  63.952  1.00  0.00    -1.175 OA 
HETATM   17  O   UNK A   1     -11.928  14.351  64.611  1.00  0.00    -0.417 OA 
HETATM   18  C   UNK A   1     -11.471  15.614  64.812  1.00  0.00    -0.283 C  
BRANCH  15  19
HETATM   19  C   UNK A   1      -9.350  16.002  66.149  1.00  0.00    -0.377 C  
BRANCH  19  20
HETATM   20  C   UNK A   1      -8.899  17.440  66.460  1.00  0.00    -0.290 C  
BRANCH  20  21
HETATM   21  C   UNK A   1      -7.906  17.543  67.593  1.00  0.00    -0.207 A  
HETATM   22  C   UNK A   1      -6.150  17.762  69.776  1.00  0.00    -0.213 A  
HETATM   23  C   UNK A   1      -7.595  18.795  68.137  1.00  0.00    -0.296 A  
HETATM   24  C   UNK A   1      -6.723  18.905  69.224  1.00  0.00    -0.310 A  
HETATM   25  C   UNK A   1      -6.446  16.511  69.241  1.00  0.00    -0.201 A  
HETATM   26  C   UNK A   1      -7.321  16.396  68.157  1.00  0.00    -0.151 A  
ENDBRANCH  20  21
ENDBRANCH  19  20
ENDBRANCH  15  19
ENDBRANCH  13  15
ENDBRANCH   1  13
TORSDOF 6
ENDMDL
MODEL       63
REMARK 921   NORMALIZED FREE ENERGY PREDICTED BY IDOCK:   -5.15 KCAL/MOL
REMARK 922        TOTAL FREE ENERGY PREDICTED BY IDOCK:   -8.68 KCAL/MOL
REMARK 923 INTER-LIGAND FREE ENERGY PREDICTED BY IDOCK:   -7.77 KCAL/MOL
REMARK 924 INTRA-LIGAND FREE ENERGY PREDICTED BY IDOCK:   -0.91 KCAL/MOL
REMARK 927      BINDING AFFINITY PREDICTED BY RF-SCORE:    0.00 PKD
ROOT
HETATM    1  C   UNK A   1      -9.135   9.953  69.312  1.00  0.00    -0.189 C  
HETATM    2  C   UNK A   1      -7.836   9.893  70.111  1.00  0.00    -0.186 C  
ENDROOT
BRANCH   1   3
HETATM    3  C   UNK A   1     -10.250   9.201  70.091  1.00  0.00    -0.205 C  
ATOM      4  CA  PRO A   2      -9.661   7.003  68.913  1.00  0.00    -0.144 C  
ATOM      5  N   PRO A   2     -10.501   7.879  69.752  1.00  0.00    -0.230 N  
ATOM      6  C   PRO A   2     -10.009   7.116  67.421  1.00  0.00    -0.172 C  
HETATM    7  O   UNK A   1     -10.911   9.777  70.959  1.00  0.00    -0.320 OA 
ATOM      8  CB  PRO A   2      -9.957   5.580  69.406  1.00  0.00    -0.276 C  
ATOM      9  O   PRO A   2     -11.031   7.963  67.158  1.00  0.00    -0.219 OA 
ATOM     10  CD  PRO A   2     -11.477   7.085  70.483  1.00  0.00    -0.319 C  
ATOM     11  OXT PRO A   2      -9.424   6.500  66.544  1.00  0.00    -0.161 OA 
ATOM     12  CG  PRO A   2     -10.777   5.755  70.680  1.00  0.00    -0.351 C  
ENDBRANCH   1   3
BRANCH   1  13
HETATM   13  N   UNK A   1      -9.603  11.343  69.087  1.00  0.00    -0.410 NA 
HETATM   14  H   UNK A   1      -8.833  11.920  68.746  1.00  0.00     0.000 HD 
BRANCH  13  15
HETATM   15  C   UNK A   1     -10.790  11.484  68.182  1.00  0.00    -0.215 C  
HETATM   16  O   UNK A   1     -10.900  12.049  65.786  1.00  0.00    -0.268 OA 
HETATM   17  O   UNK A   1      -8.992  12.494  66.915  1.00  0.00    -0.204 OA 
HETATM   18  C   UNK A   1     -10.266  12.031  66.830  1.00  0.00    -0.202 C  
BRANCH  15  19
HETATM   19  C   UNK A   1     -11.890  12.416  68.741  1.00  0.00    -0.358 C  
BRANCH  19  20
HETATM   20  C   UNK A   1     -11.343  13.760  69.251  1.00  0.00    -0.325 C  
BRANCH  20  21
HETATM   21  C   UNK A   1     -11.887  14.176  70.598  1.00  0.00    -0.333 A  
HETATM   22  C   UNK A   1     -12.962  15.035  73.048  1.00  0.00    -0.590 A  
HETATM   23  C   UNK A   1     -11.457  15.371  71.187  1.00  0.00    -0.425 A  
HETATM   24  C   UNK A   1     -11.992  15.800  72.405  1.00  0.00    -0.600 A  
HETATM   25  C   UNK A   1     -13.394  13.841  72.476  1.00  0.00    -0.656 A  
HETATM   26  C   UNK A   1     -12.865  13.410  71.257  1.00  0.00    -0.407 A  
ENDBRANCH  20  21
ENDBRANCH  19  20
ENDBRANCH  15  19
ENDBRANCH  13  15
ENDBRANCH   1  13
TORSDOF 6
ENDMDL
MODEL       64
REMARK 921   NORMALIZED FREE ENERGY PREDICTED BY IDOCK:   -5.14 KCAL/MOL
REMARK 922        TOTAL FREE ENERGY PREDICTED BY IDOCK:   -8.66 KCAL/MOL
REMARK 923 INTER-LIGAND FREE ENERGY PREDICTED BY IDOCK:   -7.48 KCAL/MOL
REMARK 924 INTRA-LIGAND FREE ENERGY PREDICTED BY IDOCK:   -1.18 KCAL/MOL
REMARK 927      BINDING AFFINITY PREDICTED BY RF-SCORE:    0.00 PKD
ROOT
HETATM    1  C   UNK A   1     -10.995   9.992  69.758  1.00  0.00    -0.276 C  
HETATM    2  C   UNK A   1     -11.841   9.950  71.027  1.00  0.00    -0.463 C  
ENDROOT
BRANCH   1   3
HETATM    3  C   UNK A   1     -10.390   8.583  69.500  1.00  0.00    -0.218 C  
ATOM      4  CA  PRO A   2      -8.210   9.249  70.671  1.00  0.00    -0.190 C  
ATOM      5  N   PRO A   2      -9.063   8.372  69.844  1.00  0.00    -0.145 N  
ATOM      6  C   PRO A   2      -7.492  10.320  69.837  1.00  0.00    -0.158 C  
HETATM    7  O   UNK A   1     -11.066   7.692  68.975  1.00  0.00    -0.014 OA 
ATOM      8  CB  PRO A   2      -7.177   8.310  71.307  1.00  0.00    -0.073 C  
ATOM      9  O   PRO A   2      -7.744  10.243  68.509  1.00  0.00    -0.086 OA 
ATOM     10  CD  PRO A   2      -8.445   7.063  69.702  1.00  0.00    -0.134 C  
ATOM     11  OXT PRO A   2      -6.756  11.167  70.318  1.00  0.00    -0.218 OA 
ATOM     12  CG  PRO A   2      -7.663   6.898  70.990  1.00  0.00    -0.096 C  
ENDBRANCH   1   3
BRANCH   1  13
HETATM   13  N   UNK A   1     -11.783  10.368  68.558  1.00  0.00    -0.685 NA 
HETATM   14  H   UNK A   1     -12.770  10.161  68.710  1.00  0.00     0.000 HD 
BRANCH  13  15
HETATM   15  C   UNK A   1     -11.621  11.787  68.100  1.00  0.00    -0.323 C  
HETATM   16  O   UNK A   1     -10.832  12.676  65.942  1.00  0.00    -0.263 OA 
HETATM   17  O   UNK A   1     -10.393  10.515  66.446  1.00  0.00    -0.232 OA 
HETATM   18  C   UNK A   1     -10.916  11.739  66.720  1.00  0.00    -0.288 C  
BRANCH  15  19
HETATM   19  C   UNK A   1     -10.811  12.668  69.079  1.00  0.00    -0.192 C  
BRANCH  19  20
HETATM   20  C   UNK A   1     -11.373  14.093  69.217  1.00  0.00    -0.324 C  
BRANCH  20  21
HETATM   21  C   UNK A   1     -11.976  14.389  70.571  1.00  0.00    -0.395 A  
HETATM   22  C   UNK A   1     -13.028  14.855  73.135  1.00  0.00    -0.627 A  
HETATM   23  C   UNK A   1     -12.857  13.473  71.159  1.00  0.00    -0.387 A  
HETATM   24  C   UNK A   1     -13.379  13.703  72.434  1.00  0.00    -0.641 A  
HETATM   25  C   UNK A   1     -12.158  15.777  72.559  1.00  0.00    -0.591 A  
HETATM   26  C   UNK A   1     -11.630  15.549  71.284  1.00  0.00    -0.462 A  
ENDBRANCH  20  21
ENDBRANCH  19  20
ENDBRANCH  15  19
ENDBRANCH  13  15
ENDBRANCH   1  13
TORSDOF 6
ENDMDL
MODEL       65
REMARK 921   NORMALIZED FREE ENERGY PREDICTED BY IDOCK:   -5.13 KCAL/MOL
REMARK 922        TOTAL FREE ENERGY PREDICTED BY IDOCK:   -8.64 KCAL/MOL
REMARK 923 INTER-LIGAND FREE ENERGY PREDICTED BY IDOCK:   -7.60 KCAL/MOL
REMARK 924 INTRA-LIGAND FREE ENERGY PREDICTED BY IDOCK:   -1.04 KCAL/MOL
REMARK 927      BINDING AFFINITY PREDICTED BY RF-SCORE:    0.00 PKD
ROOT
HETATM    1  C   UNK A   1      -9.333  10.491  65.350  1.00  0.00    -0.211 C  
HETATM    2  C   UNK A   1      -8.725  10.400  63.953  1.00  0.00    -0.202 C  
ENDROOT
BRANCH   1   3
HETATM    3  C   UNK A   1      -8.245  10.149  66.405  1.00  0.00    -0.122 C  
ATOM      4  CA  PRO A   2      -9.090   7.736  66.569  1.00  0.00    -0.170 C  
ATOM      5  N   PRO A   2      -8.287   8.896  67.000  1.00  0.00    -0.106 N  
ATOM      6  C   PRO A   2     -10.492   7.729  67.198  1.00  0.00    -0.343 C  
HETATM    7  O   UNK A   1      -7.391  10.981  66.724  1.00  0.00    -0.124 OA 
ATOM      8  CB  PRO A   2      -8.303   6.509  67.049  1.00  0.00    -0.113 C  
ATOM      9  O   PRO A   2     -10.717   8.758  68.047  1.00  0.00    -0.190 OA 
ATOM     10  CD  PRO A   2      -7.263   8.473  67.943  1.00  0.00    -0.088 C  
ATOM     11  OXT PRO A   2     -11.332   6.876  66.962  1.00  0.00    -0.304 OA 
ATOM     12  CG  PRO A   2      -6.956   7.051  67.518  1.00  0.00    -0.079 C  
ENDBRANCH   1   3
BRANCH   1  13
HETATM   13  N   UNK A   1      -9.849  11.847  65.660  1.00  0.00    -0.239 NA 
HETATM   14  H   UNK A   1      -9.573  12.502  64.928  1.00  0.00     0.000 HD 
BRANCH  13  15
HETATM   15  C   UNK A   1     -11.327  11.935  65.898  1.00  0.00    -0.308 C  
HETATM   16  O   UNK A   1     -13.140  12.622  64.376  1.00  0.00    -0.752 OA 
HETATM   17  O   UNK A   1     -11.012  13.168  63.838  1.00  0.00    -0.381 OA 
HETATM   18  C   UNK A   1     -11.948  12.601  64.643  1.00  0.00    -0.402 C  
BRANCH  15  19
HETATM   19  C   UNK A   1     -11.707  12.735  67.165  1.00  0.00    -0.443 C  
BRANCH  19  20
HETATM   20  C   UNK A   1     -10.976  12.249  68.429  1.00  0.00    -0.270 C  
BRANCH  20  21
HETATM   21  C   UNK A   1     -11.760  12.440  69.706  1.00  0.00    -0.361 A  
HETATM   22  C   UNK A   1     -13.315  12.819  72.016  1.00  0.00    -0.565 A  
HETATM   23  C   UNK A   1     -12.149  13.725  70.102  1.00  0.00    -0.429 A  
HETATM   24  C   UNK A   1     -12.924  13.915  71.250  1.00  0.00    -0.414 A  
HETATM   25  C   UNK A   1     -12.929  11.536  71.637  1.00  0.00    -0.499 A  
HETATM   26  C   UNK A   1     -12.158  11.341  70.487  1.00  0.00    -0.481 A  
ENDBRANCH  20  21
ENDBRANCH  19  20
ENDBRANCH  15  19
ENDBRANCH  13  15
ENDBRANCH   1  13
TORSDOF 6
ENDMDL
MODEL       66
REMARK 921   NORMALIZED FREE ENERGY PREDICTED BY IDOCK:   -5.12 KCAL/MOL
REMARK 922        TOTAL FREE ENERGY PREDICTED BY IDOCK:   -8.64 KCAL/MOL
REMARK 923 INTER-LIGAND FREE ENERGY PREDICTED BY IDOCK:   -7.64 KCAL/MOL
REMARK 924 INTRA-LIGAND FREE ENERGY PREDICTED BY IDOCK:   -1.00 KCAL/MOL
REMARK 927      BINDING AFFINITY PREDICTED BY RF-SCORE:    0.00 PKD
ROOT
HETATM    1  C   UNK A   1     -10.785  13.239  65.468  1.00  0.00    -0.289 C  
HETATM    2  C   UNK A   1     -11.375  13.711  64.142  1.00  0.00    -0.330 C  
ENDROOT
BRANCH   1   3
HETATM    3  C   UNK A   1     -11.423  14.053  66.629  1.00  0.00    -0.364 C  
ATOM      4  CA  PRO A   2      -9.347  15.545  66.793  1.00  0.00    -0.245 C  
ATOM      5  N   PRO A   2     -10.642  15.011  67.258  1.00  0.00    -0.274 N  
ATOM      6  C   PRO A   2      -8.158  14.710  67.291  1.00  0.00    -0.206 C  
HETATM    7  O   UNK A   1     -12.579  13.825  66.998  1.00  0.00    -0.210 OA 
ATOM      8  CB  PRO A   2      -9.267  16.960  67.382  1.00  0.00    -0.224 C  
ATOM      9  O   PRO A   2      -8.510  13.671  68.082  1.00  0.00    -0.159 OA 
ATOM     10  CD  PRO A   2     -11.188  15.863  68.304  1.00  0.00    -0.354 C  
ATOM     11  OXT PRO A   2      -6.996  14.956  67.007  1.00  0.00    -0.180 OA 
ATOM     12  CG  PRO A   2     -10.654  17.238  67.955  1.00  0.00    -0.384 C  
ENDBRANCH   1   3
BRANCH   1  13
HETATM   13  N   UNK A   1     -11.045  11.802  65.730  1.00  0.00    -0.313 NA 
HETATM   14  H   UNK A   1     -10.937  11.265  64.869  1.00  0.00     0.000 HD 
BRANCH  13  15
HETATM   15  C   UNK A   1     -10.224  11.188  66.824  1.00  0.00    -0.232 C  
HETATM   16  O   UNK A   1      -8.312   9.640  66.694  1.00  0.00    -0.122 OA 
HETATM   17  O   UNK A   1      -9.632   9.882  64.874  1.00  0.00    -0.281 OA 
HETATM   18  C   UNK A   1      -9.278  10.157  66.156  1.00  0.00    -0.159 C  
BRANCH  15  19
HETATM   19  C   UNK A   1     -11.067  10.501  67.923  1.00  0.00    -0.367 C  
BRANCH  19  20
HETATM   20  C   UNK A   1     -10.951  11.189  69.294  1.00  0.00    -0.300 C  
BRANCH  20  21
HETATM   21  C   UNK A   1     -11.473  10.361  70.445  1.00  0.00    -0.420 A  
HETATM   22  C   UNK A   1     -12.525   8.773  72.511  1.00  0.00    -0.368 A  
HETATM   23  C   UNK A   1     -12.719  10.658  71.011  1.00  0.00    -0.512 A  
HETATM   24  C   UNK A   1     -13.244   9.868  72.038  1.00  0.00    -0.555 A  
HETATM   25  C   UNK A   1     -11.282   8.470  71.961  1.00  0.00    -0.418 A  
HETATM   26  C   UNK A   1     -10.755   9.255  70.932  1.00  0.00    -0.371 A  
ENDBRANCH  20  21
ENDBRANCH  19  20
ENDBRANCH  15  19
ENDBRANCH  13  15
ENDBRANCH   1  13
TORSDOF 6
ENDMDL
MODEL       67
REMARK 921   NORMALIZED FREE ENERGY PREDICTED BY IDOCK:   -5.12 KCAL/MOL
REMARK 922        TOTAL FREE ENERGY PREDICTED BY IDOCK:   -8.63 KCAL/MOL
REMARK 923 INTER-LIGAND FREE ENERGY PREDICTED BY IDOCK:   -7.38 KCAL/MOL
REMARK 924 INTRA-LIGAND FREE ENERGY PREDICTED BY IDOCK:   -1.25 KCAL/MOL
REMARK 927      BINDING AFFINITY PREDICTED BY RF-SCORE:    0.00 PKD
ROOT
HETATM    1  C   UNK A   1      -8.149  16.828  67.925  1.00  0.00    -0.185 C  
HETATM    2  C   UNK A   1      -7.596  15.606  68.654  1.00  0.00    -0.143 C  
ENDROOT
BRANCH   1   3
HETATM    3  C   UNK A   1      -7.164  17.241  66.796  1.00  0.00    -0.214 C  
ATOM      4  CA  PRO A   2      -7.734  19.716  67.133  1.00  0.00    -0.257 C  
ATOM      5  N   PRO A   2      -7.131  18.575  66.417  1.00  0.00    -0.221 N  
ATOM      6  C   PRO A   2      -9.190  19.964  66.714  1.00  0.00    -0.378 C  
HETATM    7  O   UNK A   1      -6.459  16.397  66.234  1.00  0.00    -0.049 OA 
ATOM      8  CB  PRO A   2      -6.872  20.925  66.748  1.00  0.00    -0.342 C  
ATOM      9  O   PRO A   2      -9.636  19.122  65.753  1.00  0.00    -0.404 OA 
ATOM     10  CD  PRO A   2      -6.185  19.053  65.420  1.00  0.00    -0.265 C  
ATOM     11  OXT PRO A   2      -9.890  20.841  67.195  1.00  0.00    -0.463 OA 
ATOM     12  CG  PRO A   2      -5.664  20.345  66.017  1.00  0.00    -0.211 C  
ENDBRANCH   1   3
BRANCH   1  13
HETATM   13  N   UNK A   1      -9.469  16.569  67.298  1.00  0.00    -0.232 NA 
HETATM   14  H   UNK A   1      -9.470  16.907  66.335  1.00  0.00     0.000 HD 
BRANCH  13  15
HETATM   15  C   UNK A   1      -9.936  15.145  67.344  1.00  0.00    -0.226 C  
HETATM   16  O   UNK A   1     -10.003  13.441  65.565  1.00  0.00    -0.275 OA 
HETATM   17  O   UNK A   1      -9.777  15.612  64.973  1.00  0.00    -0.272 OA 
HETATM   18  C   UNK A   1      -9.916  14.616  65.887  1.00  0.00    -0.328 C  
BRANCH  15  19
HETATM   19  C   UNK A   1     -11.347  14.973  67.951  1.00  0.00    -0.344 C  
BRANCH  19  20
HETATM   20  C   UNK A   1     -11.324  14.665  69.458  1.00  0.00    -0.314 C  
BRANCH  20  21
HETATM   21  C   UNK A   1     -11.670  13.234  69.800  1.00  0.00    -0.354 A  
HETATM   22  C   UNK A   1     -12.202  10.561  70.482  1.00  0.00    -0.435 A  
HETATM   23  C   UNK A   1     -11.096  12.184  69.074  1.00  0.00    -0.290 A  
HETATM   24  C   UNK A   1     -11.359  10.854  69.413  1.00  0.00    -0.347 A  
HETATM   25  C   UNK A   1     -12.784  11.596  71.209  1.00  0.00    -0.444 A  
HETATM   26  C   UNK A   1     -12.521  12.928  70.876  1.00  0.00    -0.383 A  
ENDBRANCH  20  21
ENDBRANCH  19  20
ENDBRANCH  15  19
ENDBRANCH  13  15
ENDBRANCH   1  13
TORSDOF 6
ENDMDL
MODEL       68
REMARK 921   NORMALIZED FREE ENERGY PREDICTED BY IDOCK:   -5.11 KCAL/MOL
REMARK 922        TOTAL FREE ENERGY PREDICTED BY IDOCK:   -8.61 KCAL/MOL
REMARK 923 INTER-LIGAND FREE ENERGY PREDICTED BY IDOCK:   -7.28 KCAL/MOL
REMARK 924 INTRA-LIGAND FREE ENERGY PREDICTED BY IDOCK:   -1.33 KCAL/MOL
REMARK 927      BINDING AFFINITY PREDICTED BY RF-SCORE:    0.00 PKD
ROOT
HETATM    1  C   UNK A   1     -10.838  12.430  68.252  1.00  0.00    -0.237 C  
HETATM    2  C   UNK A   1     -11.949  13.352  67.758  1.00  0.00    -0.363 C  
ENDROOT
BRANCH   1   3
HETATM    3  C   UNK A   1     -10.436  11.455  67.110  1.00  0.00    -0.224 C  
ATOM      4  CA  PRO A   2     -10.357   9.486  68.747  1.00  0.00    -0.208 C  
ATOM      5  N   PRO A   2     -10.114  10.150  67.451  1.00  0.00    -0.194 N  
ATOM      6  C   PRO A   2      -9.197   9.691  69.734  1.00  0.00    -0.219 C  
HETATM    7  O   UNK A   1     -10.373  11.846  65.940  1.00  0.00    -0.227 OA 
ATOM      8  CB  PRO A   2     -10.491   7.995  68.410  1.00  0.00    -0.205 C  
ATOM      9  O   PRO A   2      -8.165  10.405  69.227  1.00  0.00    -0.144 OA 
ATOM     10  CD  PRO A   2      -9.799   9.159  66.434  1.00  0.00    -0.280 C  
ATOM     11  OXT PRO A   2      -9.195   9.251  70.872  1.00  0.00    -0.246 OA 
ATOM     12  CG  PRO A   2     -10.561   7.929  66.887  1.00  0.00    -0.333 C  
ENDBRANCH   1   3
BRANCH   1  13
HETATM   13  N   UNK A   1      -9.619  13.171  68.661  1.00  0.00    -0.401 NA 
HETATM   14  H   UNK A   1      -8.786  12.648  68.391  1.00  0.00     0.000 HD 
BRANCH  13  15
HETATM   15  C   UNK A   1      -9.526  14.582  68.161  1.00  0.00    -0.208 C  
HETATM   16  O   UNK A   1      -7.932  15.602  66.582  1.00  0.00    -0.234 OA 
HETATM   17  O   UNK A   1      -7.402  13.613  67.518  1.00  0.00    -0.168 OA 
HETATM   18  C   UNK A   1      -8.219  14.682  67.333  1.00  0.00    -0.201 C  
BRANCH  15  19
HETATM   19  C   UNK A   1      -9.523  15.641  69.287  1.00  0.00    -0.264 C  
BRANCH  19  20
HETATM   20  C   UNK A   1     -10.687  16.641  69.180  1.00  0.00    -0.342 C  
BRANCH  20  21
HETATM   21  C   UNK A   1     -10.387  17.847  68.320  1.00  0.00    -0.389 A  
HETATM   22  C   UNK A   1      -9.713  20.070  66.739  1.00  0.00    -0.563 A  
HETATM   23  C   UNK A   1      -9.919  19.027  68.910  1.00  0.00    -0.460 A  
HETATM   24  C   UNK A   1      -9.582  20.133  68.125  1.00  0.00    -0.377 A  
HETATM   25  C   UNK A   1     -10.183  18.904  66.140  1.00  0.00    -0.485 A  
HETATM   26  C   UNK A   1     -10.518  17.795  66.921  1.00  0.00    -0.308 A  
ENDBRANCH  20  21
ENDBRANCH  19  20
ENDBRANCH  15  19
ENDBRANCH  13  15
ENDBRANCH   1  13
TORSDOF 6
ENDMDL
MODEL       69
REMARK 921   NORMALIZED FREE ENERGY PREDICTED BY IDOCK:   -5.06 KCAL/MOL
REMARK 922        TOTAL FREE ENERGY PREDICTED BY IDOCK:   -8.55 KCAL/MOL
REMARK 923 INTER-LIGAND FREE ENERGY PREDICTED BY IDOCK:   -7.75 KCAL/MOL
REMARK 924 INTRA-LIGAND FREE ENERGY PREDICTED BY IDOCK:   -0.80 KCAL/MOL
REMARK 927      BINDING AFFINITY PREDICTED BY RF-SCORE:    0.00 PKD
ROOT
HETATM    1  C   UNK A   1     -10.887  12.132  64.427  1.00  0.00    -0.328 C  
HETATM    2  C   UNK A   1     -11.973  12.415  63.392  1.00  0.00    -0.595 C  
ENDROOT
BRANCH   1   3
HETATM    3  C   UNK A   1      -9.727  11.350  63.749  1.00  0.00    -0.287 C  
ATOM      4  CA  PRO A   2      -9.462   9.853  65.811  1.00  0.00    -0.222 C  
ATOM      5  N   PRO A   2      -9.050  10.405  64.506  1.00  0.00    -0.210 N  
ATOM      6  C   PRO A   2      -8.948  10.695  66.989  1.00  0.00    -0.137 C  
HETATM    7  O   UNK A   1      -9.400  11.592  62.583  1.00  0.00    -0.341 OA 
ATOM      8  CB  PRO A   2      -8.836   8.453  65.866  1.00  0.00    -0.212 C  
ATOM      9  O   PRO A   2      -8.194  11.756  66.617  1.00  0.00    -0.171 OA 
ATOM     10  CD  PRO A   2      -8.002   9.581  63.923  1.00  0.00    -0.141 C  
ATOM     11  OXT PRO A   2      -9.190  10.438  68.157  1.00  0.00    -0.141 OA 
ATOM     12  CG  PRO A   2      -8.300   8.195  64.460  1.00  0.00    -0.067 C  
ENDBRANCH   1   3
BRANCH   1  13
HETATM   13  N   UNK A   1     -10.315  13.370  65.009  1.00  0.00    -0.397 NA 
HETATM   14  H   UNK A   1     -10.074  14.026  64.266  1.00  0.00     0.000 HD 
BRANCH  13  15
HETATM   15  C   UNK A   1     -11.166  14.051  66.039  1.00  0.00    -0.310 C  
HETATM   16  O   UNK A   1     -10.799  16.162  67.256  1.00  0.00    -0.309 OA 
HETATM   17  O   UNK A   1      -9.038  15.190  66.224  1.00  0.00    -0.288 OA 
HETATM   18  C   UNK A   1     -10.347  15.249  66.584  1.00  0.00    -0.280 C  
BRANCH  15  19
HETATM   19  C   UNK A   1     -11.593  13.127  67.203  1.00  0.00    -0.410 C  
BRANCH  19  20
HETATM   20  C   UNK A   1     -11.540  13.819  68.575  1.00  0.00    -0.373 C  
BRANCH  20  21
HETATM   21  C   UNK A   1     -12.111  12.993  69.704  1.00  0.00    -0.304 A  
HETATM   22  C   UNK A   1     -13.061  11.429  71.837  1.00  0.00    -0.505 A  
HETATM   23  C   UNK A   1     -12.053  11.595  69.647  1.00  0.00    -0.345 A  
HETATM   24  C   UNK A   1     -12.523  10.816  70.707  1.00  0.00    -0.481 A  
HETATM   25  C   UNK A   1     -13.131  12.818  71.904  1.00  0.00    -0.474 A  
HETATM   26  C   UNK A   1     -12.658  13.601  70.848  1.00  0.00    -0.421 A  
ENDBRANCH  20  21
ENDBRANCH  19  20
ENDBRANCH  15  19
ENDBRANCH  13  15
ENDBRANCH   1  13
TORSDOF 6
ENDMDL
MODEL       70
REMARK 921   NORMALIZED FREE ENERGY PREDICTED BY IDOCK:   -5.05 KCAL/MOL
REMARK 922        TOTAL FREE ENERGY PREDICTED BY IDOCK:   -8.54 KCAL/MOL
REMARK 923 INTER-LIGAND FREE ENERGY PREDICTED BY IDOCK:   -7.36 KCAL/MOL
REMARK 924 INTRA-LIGAND FREE ENERGY PREDICTED BY IDOCK:   -1.18 KCAL/MOL
REMARK 927      BINDING AFFINITY PREDICTED BY RF-SCORE:    0.00 PKD
ROOT
HETATM    1  C   UNK A   1      -8.718  12.171  66.537  1.00  0.00    -0.114 C  
HETATM    2  C   UNK A   1      -8.157  12.910  67.750  1.00  0.00    -0.166 C  
ENDROOT
BRANCH   1   3
HETATM    3  C   UNK A   1      -9.405  10.859  67.010  1.00  0.00    -0.163 C  
ATOM      4  CA  PRO A   2      -8.656   9.641  64.885  1.00  0.00    -0.170 C  
ATOM      5  N   PRO A   2      -9.431   9.786  66.132  1.00  0.00    -0.188 N  
ATOM      6  C   PRO A   2      -9.384  10.239  63.672  1.00  0.00    -0.296 C  
HETATM    7  O   UNK A   1      -9.938  10.791  68.122  1.00  0.00    -0.154 OA 
ATOM      8  CB  PRO A   2      -8.492   8.127  64.693  1.00  0.00    -0.042 C  
ATOM      9  O   PRO A   2     -10.601  10.754  63.961  1.00  0.00    -0.332 OA 
ATOM     10  CD  PRO A   2      -9.990   8.501  66.526  1.00  0.00    -0.280 C  
ATOM     11  OXT PRO A   2      -8.915  10.252  62.544  1.00  0.00    -0.208 OA 
ATOM     12  CG  PRO A   2      -8.984   7.499  65.995  1.00  0.00    -0.164 C  
ENDBRANCH   1   3
BRANCH   1  13
HETATM   13  N   UNK A   1      -9.730  12.968  65.801  1.00  0.00    -0.444 NA 
HETATM   14  H   UNK A   1     -10.489  12.363  65.486  1.00  0.00     0.000 HD 
BRANCH  13  15
HETATM   15  C   UNK A   1     -10.287  14.146  66.543  1.00  0.00    -0.284 C  
HETATM   16  O   UNK A   1     -12.397  14.380  67.795  1.00  0.00    -0.236 OA 
HETATM   17  O   UNK A   1     -12.184  12.655  66.348  1.00  0.00    -0.550 OA 
HETATM   18  C   UNK A   1     -11.727  13.769  66.977  1.00  0.00    -0.390 C  
BRANCH  15  19
HETATM   19  C   UNK A   1     -10.307  15.451  65.714  1.00  0.00    -0.381 C  
BRANCH  19  20
HETATM   20  C   UNK A   1      -9.127  16.387  66.030  1.00  0.00    -0.317 C  
BRANCH  20  21
HETATM   21  C   UNK A   1      -9.528  17.674  66.712  1.00  0.00    -0.285 A  
HETATM   22  C   UNK A   1     -10.162  20.111  67.959  1.00  0.00    -0.493 A  
HETATM   23  C   UNK A   1      -8.983  18.001  67.960  1.00  0.00    -0.274 A  
HETATM   24  C   UNK A   1      -9.297  19.214  68.580  1.00  0.00    -0.439 A  
HETATM   25  C   UNK A   1     -10.715  19.795  66.720  1.00  0.00    -0.526 A  
HETATM   26  C   UNK A   1     -10.401  18.585  66.095  1.00  0.00    -0.457 A  
ENDBRANCH  20  21
ENDBRANCH  19  20
ENDBRANCH  15  19
ENDBRANCH  13  15
ENDBRANCH   1  13
TORSDOF 6
ENDMDL
MODEL       71
REMARK 921   NORMALIZED FREE ENERGY PREDICTED BY IDOCK:   -5.02 KCAL/MOL
REMARK 922        TOTAL FREE ENERGY PREDICTED BY IDOCK:   -8.50 KCAL/MOL
REMARK 923 INTER-LIGAND FREE ENERGY PREDICTED BY IDOCK:   -7.31 KCAL/MOL
REMARK 924 INTRA-LIGAND FREE ENERGY PREDICTED BY IDOCK:   -1.19 KCAL/MOL
REMARK 927      BINDING AFFINITY PREDICTED BY RF-SCORE:    0.00 PKD
ROOT
HETATM    1  C   UNK A   1     -10.297   9.070  69.283  1.00  0.00    -0.219 C  
HETATM    2  C   UNK A   1      -9.206   9.838  70.024  1.00  0.00    -0.266 C  
ENDROOT
BRANCH   1   3
HETATM    3  C   UNK A   1     -10.723   7.839  70.132  1.00  0.00    -0.240 C  
ATOM      4  CA  PRO A   2      -9.475   6.254  68.552  1.00  0.00    -0.123 C  
ATOM      5  N   PRO A   2     -10.405   6.577  69.653  1.00  0.00    -0.185 N  
ATOM      6  C   PRO A   2     -10.172   6.248  67.183  1.00  0.00    -0.196 C  
HETATM    7  O   UNK A   1     -11.354   7.985  71.183  1.00  0.00    -0.257 OA 
ATOM      8  CB  PRO A   2      -8.955   4.846  68.873  1.00  0.00    -0.136 C  
ATOM      9  O   PRO A   2     -11.499   6.505  67.241  1.00  0.00    -0.197 OA 
ATOM     10  CD  PRO A   2     -10.703   5.379  70.423  1.00  0.00    -0.206 C  
ATOM     11  OXT PRO A   2      -9.589   6.030  66.132  1.00  0.00    -0.142 OA 
ATOM     12  CG  PRO A   2      -9.443   4.547  70.288  1.00  0.00    -0.241 C  
ENDBRANCH   1   3
BRANCH   1  13
HETATM   13  N   UNK A   1     -11.510   9.890  69.042  1.00  0.00    -0.475 NA 
HETATM   14  H   UNK A   1     -12.340   9.387  69.356  1.00  0.00     0.000 HD 
BRANCH  13  15
HETATM   15  C   UNK A   1     -11.487  11.266  69.638  1.00  0.00    -0.309 C  
HETATM   16  O   UNK A   1     -12.752  12.192  71.539  1.00  0.00    -0.330 OA 
HETATM   17  O   UNK A   1     -13.478  10.271  70.591  1.00  0.00    -0.234 OA 
HETATM   18  C   UNK A   1     -12.621  11.321  70.693  1.00  0.00    -0.288 C  
BRANCH  15  19
HETATM   19  C   UNK A   1     -11.672  12.396  68.600  1.00  0.00    -0.372 C  
BRANCH  19  20
HETATM   20  C   UNK A   1     -10.520  12.480  67.584  1.00  0.00    -0.228 C  
BRANCH  20  21
HETATM   21  C   UNK A   1     -10.944  12.256  66.151  1.00  0.00    -0.328 A  
HETATM   22  C   UNK A   1     -11.703  11.954  63.462  1.00  0.00    -0.550 A  
HETATM   23  C   UNK A   1     -12.117  12.850  65.669  1.00  0.00    -0.511 A  
HETATM   24  C   UNK A   1     -12.494  12.702  64.331  1.00  0.00    -0.509 A  
HETATM   25  C   UNK A   1     -10.537  11.353  63.931  1.00  0.00    -0.452 A  
HETATM   26  C   UNK A   1     -10.154  11.502  65.267  1.00  0.00    -0.314 A  
ENDBRANCH  20  21
ENDBRANCH  19  20
ENDBRANCH  15  19
ENDBRANCH  13  15
ENDBRANCH   1  13
TORSDOF 6
ENDMDL
MODEL       72
REMARK 921   NORMALIZED FREE ENERGY PREDICTED BY IDOCK:   -5.01 KCAL/MOL
REMARK 922        TOTAL FREE ENERGY PREDICTED BY IDOCK:   -8.49 KCAL/MOL
REMARK 923 INTER-LIGAND FREE ENERGY PREDICTED BY IDOCK:   -7.44 KCAL/MOL
REMARK 924 INTRA-LIGAND FREE ENERGY PREDICTED BY IDOCK:   -1.05 KCAL/MOL
REMARK 927      BINDING AFFINITY PREDICTED BY RF-SCORE:    0.00 PKD
ROOT
HETATM    1  C   UNK A   1     -11.130   9.750  68.690  1.00  0.00    -0.093 C  
HETATM    2  C   UNK A   1     -10.295   9.727  67.412  1.00  0.00    -0.297 C  
ENDROOT
BRANCH   1   3
HETATM    3  C   UNK A   1     -10.183   9.680  69.921  1.00  0.00    -0.245 C  
ATOM      4  CA  PRO A   2     -11.810   8.127  71.148  1.00  0.00    -0.279 C  
ATOM      5  N   PRO A   2     -10.633   9.013  71.051  1.00  0.00    -0.246 N  
ATOM      6  C   PRO A   2     -13.095   8.898  71.483  1.00  0.00    -0.329 C  
HETATM    7  O   UNK A   1      -9.079  10.233  69.900  1.00  0.00    -0.143 OA 
ATOM      8  CB  PRO A   2     -11.480   7.155  72.288  1.00  0.00    -0.309 C  
ATOM      9  O   PRO A   2     -12.909  10.227  71.656  1.00  0.00    -0.391 OA 
ATOM     10  CD  PRO A   2      -9.780   8.841  72.217  1.00  0.00    -0.212 C  
ATOM     11  OXT PRO A   2     -14.190   8.369  71.587  1.00  0.00    -0.416 OA 
ATOM     12  CG  PRO A   2     -10.008   7.397  72.613  1.00  0.00    -0.241 C  
ENDBRANCH   1   3
BRANCH   1  13
HETATM   13  N   UNK A   1     -11.943  10.984  68.818  1.00  0.00    -0.632 NA 
HETATM   14  H   UNK A   1     -12.269  11.090  69.779  1.00  0.00     0.000 HD 
BRANCH  13  15
HETATM   15  C   UNK A   1     -11.275  12.246  68.360  1.00  0.00    -0.266 C  
HETATM   16  O   UNK A   1     -10.955  14.387  69.538  1.00  0.00    -0.246 OA 
HETATM   17  O   UNK A   1     -12.497  12.937  70.333  1.00  0.00    -0.267 OA 
HETATM   18  C   UNK A   1     -11.536  13.317  69.450  1.00  0.00    -0.305 C  
BRANCH  15  19
HETATM   19  C   UNK A   1     -11.777  12.753  66.988  1.00  0.00    -0.440 C  
BRANCH  19  20
HETATM   20  C   UNK A   1     -10.640  12.996  65.981  1.00  0.00    -0.292 C  
BRANCH  20  21
HETATM   21  C   UNK A   1     -10.053  14.387  66.036  1.00  0.00    -0.338 A  
HETATM   22  C   UNK A   1      -9.041  17.002  66.226  1.00  0.00    -0.279 A  
HETATM   23  C   UNK A   1     -10.787  15.474  65.546  1.00  0.00    -0.372 A  
HETATM   24  C   UNK A   1     -10.285  16.775  65.641  1.00  0.00    -0.258 A  
HETATM   25  C   UNK A   1      -8.299  15.928  66.712  1.00  0.00    -0.306 A  
HETATM   26  C   UNK A   1      -8.798  14.626  66.622  1.00  0.00    -0.240 A  
ENDBRANCH  20  21
ENDBRANCH  19  20
ENDBRANCH  15  19
ENDBRANCH  13  15
ENDBRANCH   1  13
TORSDOF 6
ENDMDL
MODEL       73
REMARK 921   NORMALIZED FREE ENERGY PREDICTED BY IDOCK:   -4.99 KCAL/MOL
REMARK 922        TOTAL FREE ENERGY PREDICTED BY IDOCK:   -8.46 KCAL/MOL
REMARK 923 INTER-LIGAND FREE ENERGY PREDICTED BY IDOCK:   -6.96 KCAL/MOL
REMARK 924 INTRA-LIGAND FREE ENERGY PREDICTED BY IDOCK:   -1.50 KCAL/MOL
REMARK 927      BINDING AFFINITY PREDICTED BY RF-SCORE:    0.00 PKD
ROOT
HETATM    1  C   UNK A   1     -10.485   8.601  68.072  1.00  0.00    -0.197 C  
HETATM    2  C   UNK A   1     -10.052   7.541  67.063  1.00  0.00    -0.332 C  
ENDROOT
BRANCH   1   3
HETATM    3  C   UNK A   1      -9.548   8.540  69.311  1.00  0.00    -0.170 C  
ATOM      4  CA  PRO A   2     -11.551   8.717  70.898  1.00  0.00    -0.269 C  
ATOM      5  N   PRO A   2     -10.114   8.726  70.564  1.00  0.00    -0.187 N  
ATOM      6  C   PRO A   2     -12.192  10.106  70.757  1.00  0.00    -0.338 C  
HETATM    7  O   UNK A   1      -8.333   8.366  69.175  1.00  0.00    -0.119 OA 
ATOM      8  CB  PRO A   2     -11.614   8.266  72.364  1.00  0.00    -0.464 C  
ATOM      9  O   PRO A   2     -11.324  11.076  70.388  1.00  0.00    -0.277 OA 
ATOM     10  CD  PRO A   2      -9.318   8.611  71.776  1.00  0.00    -0.273 C  
ATOM     11  OXT PRO A   2     -13.376  10.325  70.959  1.00  0.00    -0.368 OA 
ATOM     12  CG  PRO A   2     -10.201   7.803  72.706  1.00  0.00    -0.360 C  
ENDBRANCH   1   3
BRANCH   1  13
HETATM   13  N   UNK A   1     -10.414   9.977  67.521  1.00  0.00    -0.236 NA 
HETATM   14  H   UNK A   1     -10.281  10.649  68.277  1.00  0.00     0.000 HD 
BRANCH  13  15
HETATM   15  C   UNK A   1      -9.380  10.192  66.456  1.00  0.00    -0.164 C  
HETATM   16  O   UNK A   1      -7.219  11.371  66.559  1.00  0.00    -0.128 OA 
HETATM   17  O   UNK A   1      -8.737  11.754  68.190  1.00  0.00    -0.155 OA 
HETATM   18  C   UNK A   1      -8.319  11.157  67.044  1.00  0.00    -0.144 C  
BRANCH  15  19
HETATM   19  C   UNK A   1      -9.953  10.769  65.141  1.00  0.00    -0.351 C  
BRANCH  19  20
HETATM   20  C   UNK A   1     -11.282  11.518  65.338  1.00  0.00    -0.207 C  
BRANCH  20  21
HETATM   21  C   UNK A   1     -11.121  12.948  65.801  1.00  0.00    -0.312 A  
HETATM   22  C   UNK A   1     -10.900  15.640  66.576  1.00  0.00    -0.260 A  
HETATM   23  C   UNK A   1     -10.415  13.863  65.011  1.00  0.00    -0.428 A  
HETATM   24  C   UNK A   1     -10.306  15.202  65.395  1.00  0.00    -0.415 A  
HETATM   25  C   UNK A   1     -11.600  14.738  67.374  1.00  0.00    -0.377 A  
HETATM   26  C   UNK A   1     -11.715  13.399  66.992  1.00  0.00    -0.426 A  
ENDBRANCH  20  21
ENDBRANCH  19  20
ENDBRANCH  15  19
ENDBRANCH  13  15
ENDBRANCH   1  13
TORSDOF 6
ENDMDL
MODEL       74
REMARK 921   NORMALIZED FREE ENERGY PREDICTED BY IDOCK:   -4.99 KCAL/MOL
REMARK 922        TOTAL FREE ENERGY PREDICTED BY IDOCK:   -8.45 KCAL/MOL
REMARK 923 INTER-LIGAND FREE ENERGY PREDICTED BY IDOCK:   -7.00 KCAL/MOL
REMARK 924 INTRA-LIGAND FREE ENERGY PREDICTED BY IDOCK:   -1.45 KCAL/MOL
REMARK 927      BINDING AFFINITY PREDICTED BY RF-SCORE:    0.00 PKD
ROOT
HETATM    1  C   UNK A   1     -11.292  15.681  68.205  1.00  0.00    -0.356 C  
HETATM    2  C   UNK A   1     -11.839  15.485  69.617  1.00  0.00    -0.384 C  
ENDROOT
BRANCH   1   3
HETATM    3  C   UNK A   1     -10.126  16.707  68.247  1.00  0.00    -0.268 C  
ATOM      4  CA  PRO A   2     -11.003  17.867  66.137  1.00  0.00     0.270 C  
ATOM      5  N   PRO A   2     -10.003  17.596  67.188  1.00  0.00    -0.304 N  
ATOM      6  C   PRO A   2     -10.862  16.917  64.938  1.00  0.00     0.003 C  
HETATM    7  O   UNK A   1      -9.316  16.705  69.179  1.00  0.00    -0.250 OA 
ATOM      8  CB  PRO A   2     -10.727  19.309  65.690  1.00  0.00    -0.335 C  
ATOM      9  O   PRO A   2      -9.838  16.040  65.051  1.00  0.00    -0.338 OA 
ATOM     10  CD  PRO A   2      -8.983  18.634  67.187  1.00  0.00    -0.281 C  
ATOM     11  OXT PRO A   2     -11.599  16.946  63.966  1.00  0.00    -1.123 OA 
ATOM     12  CG  PRO A   2      -9.727  19.862  66.701  1.00  0.00    -0.542 C  
ENDBRANCH   1   3
BRANCH   1  13
HETATM   13  N   UNK A   1     -10.765  14.425  67.618  1.00  0.00    -0.260 NA 
HETATM   14  H   UNK A   1     -10.094  14.639  66.880  1.00  0.00     0.000 HD 
BRANCH  13  15
HETATM   15  C   UNK A   1     -10.163  13.460  68.595  1.00  0.00    -0.182 C  
HETATM   16  O   UNK A   1      -7.809  12.817  68.944  1.00  0.00    -0.012 OA 
HETATM   17  O   UNK A   1      -8.372  13.854  67.014  1.00  0.00    -0.178 OA 
HETATM   18  C   UNK A   1      -8.661  13.326  68.233  1.00  0.00    -0.168 C  
BRANCH  15  19
HETATM   19  C   UNK A   1     -10.836  12.068  68.590  1.00  0.00    -0.273 C  
BRANCH  19  20
HETATM   20  C   UNK A   1     -11.433  11.690  67.223  1.00  0.00    -0.350 C  
BRANCH  20  21
HETATM   21  C   UNK A   1     -10.547  10.795  66.389  1.00  0.00    -0.266 A  
HETATM   22  C   UNK A   1      -8.806   9.206  64.859  1.00  0.00    -0.215 A  
HETATM   23  C   UNK A   1     -10.112  11.221  65.128  1.00  0.00    -0.326 A  
HETATM   24  C   UNK A   1      -9.246  10.433  64.367  1.00  0.00    -0.291 A  
HETATM   25  C   UNK A   1      -9.236   8.767  66.109  1.00  0.00    -0.273 A  
HETATM   26  C   UNK A   1     -10.100   9.554  66.875  1.00  0.00    -0.295 A  
ENDBRANCH  20  21
ENDBRANCH  19  20
ENDBRANCH  15  19
ENDBRANCH  13  15
ENDBRANCH   1  13
TORSDOF 6
ENDMDL
MODEL       75
REMARK 921   NORMALIZED FREE ENERGY PREDICTED BY IDOCK:   -4.95 KCAL/MOL
REMARK 922        TOTAL FREE ENERGY PREDICTED BY IDOCK:   -8.40 KCAL/MOL
REMARK 923 INTER-LIGAND FREE ENERGY PREDICTED BY IDOCK:   -7.11 KCAL/MOL
REMARK 924 INTRA-LIGAND FREE ENERGY PREDICTED BY IDOCK:   -1.29 KCAL/MOL
REMARK 927      BINDING AFFINITY PREDICTED BY RF-SCORE:    0.00 PKD
ROOT
HETATM    1  C   UNK A   1     -10.556   7.749  67.811  1.00  0.00    -0.185 C  
HETATM    2  C   UNK A   1     -10.946   6.482  67.055  1.00  0.00    -0.466 C  
ENDROOT
BRANCH   1   3
HETATM    3  C   UNK A   1     -10.332   7.401  69.310  1.00  0.00    -0.204 C  
ATOM      4  CA  PRO A   2     -11.529   9.545  70.040  1.00  0.00    -0.109 C  
ATOM      5  N   PRO A   2     -10.702   8.343  70.259  1.00  0.00    -0.231 N  
ATOM      6  C   PRO A   2     -10.691  10.763  69.624  1.00  0.00    -0.211 C  
HETATM    7  O   UNK A   1      -9.809   6.331  69.638  1.00  0.00    -0.158 OA 
ATOM      8  CB  PRO A   2     -12.199   9.817  71.394  1.00  0.00    -0.486 C  
ATOM      9  O   PRO A   2      -9.361  10.521  69.568  1.00  0.00    -0.169 OA 
ATOM     10  CD  PRO A   2     -10.592   8.064  71.683  1.00  0.00    -0.227 C  
ATOM     11  OXT PRO A   2     -11.172  11.856  69.368  1.00  0.00    -0.245 OA 
ATOM     12  CG  PRO A   2     -11.896   8.589  72.249  1.00  0.00    -0.453 C  
ENDBRANCH   1   3
BRANCH   1  13
HETATM   13  N   UNK A   1      -9.303   8.357  67.299  1.00  0.00    -0.142 NA 
HETATM   14  H   UNK A   1      -8.506   7.767  67.537  1.00  0.00     0.000 HD 
BRANCH  13  15
HETATM   15  C   UNK A   1      -9.291   8.669  65.833  1.00  0.00    -0.195 C  
HETATM   16  O   UNK A   1      -7.896   7.742  64.025  1.00  0.00    -0.124 OA 
HETATM   17  O   UNK A   1      -7.229   7.445  66.166  1.00  0.00    -0.074 OA 
HETATM   18  C   UNK A   1      -8.083   7.916  65.220  1.00  0.00    -0.135 C  
BRANCH  15  19
HETATM   19  C   UNK A   1      -9.190  10.180  65.519  1.00  0.00    -0.237 C  
BRANCH  19  20
HETATM   20  C   UNK A   1     -10.019  10.600  64.293  1.00  0.00    -0.413 C  
BRANCH  20  21
HETATM   21  C   UNK A   1     -10.955  11.758  64.550  1.00  0.00    -0.382 A  
HETATM   22  C   UNK A   1     -12.604  13.973  65.071  1.00  0.00    -0.416 A  
HETATM   23  C   UNK A   1     -11.314  12.088  65.862  1.00  0.00    -0.391 A  
HETATM   24  C   UNK A   1     -12.133  13.190  66.123  1.00  0.00    -0.479 A  
HETATM   25  C   UNK A   1     -12.259  13.652  63.761  1.00  0.00    -0.413 A  
HETATM   26  C   UNK A   1     -11.437  12.552  63.496  1.00  0.00    -0.570 A  
ENDBRANCH  20  21
ENDBRANCH  19  20
ENDBRANCH  15  19
ENDBRANCH  13  15
ENDBRANCH   1  13
TORSDOF 6
ENDMDL
MODEL       76
REMARK 921   NORMALIZED FREE ENERGY PREDICTED BY IDOCK:   -4.91 KCAL/MOL
REMARK 922        TOTAL FREE ENERGY PREDICTED BY IDOCK:   -8.35 KCAL/MOL
REMARK 923 INTER-LIGAND FREE ENERGY PREDICTED BY IDOCK:   -7.44 KCAL/MOL
REMARK 924 INTRA-LIGAND FREE ENERGY PREDICTED BY IDOCK:   -0.91 KCAL/MOL
REMARK 927      BINDING AFFINITY PREDICTED BY RF-SCORE:    0.00 PKD
ROOT
HETATM    1  C   UNK A   1      -8.843  16.041  68.150  1.00  0.00    -0.178 C  
HETATM    2  C   UNK A   1      -8.144  15.587  69.429  1.00  0.00    -0.241 C  
ENDROOT
BRANCH   1   3
HETATM    3  C   UNK A   1      -7.775  16.513  67.124  1.00  0.00    -0.180 C  
ATOM      4  CA  PRO A   2      -8.673  18.911  67.216  1.00  0.00    -0.278 C  
ATOM      5  N   PRO A   2      -7.851  17.818  66.660  1.00  0.00    -0.228 N  
ATOM      6  C   PRO A   2     -10.082  18.951  66.605  1.00  0.00    -0.388 C  
HETATM    7  O   UNK A   1      -6.908  15.736  66.713  1.00  0.00    -0.229 OA 
ATOM      8  CB  PRO A   2      -7.918  20.197  66.856  1.00  0.00    -0.356 C  
ATOM      9  O   PRO A   2     -10.296  18.009  65.658  1.00  0.00    -0.611 OA 
ATOM     10  CD  PRO A   2      -6.847  18.358  65.755  1.00  0.00    -0.275 C  
ATOM     11  OXT PRO A   2     -10.937  19.757  66.936  1.00  0.00    -0.433 OA 
ATOM     12  CG  PRO A   2      -6.565  19.736  66.320  1.00  0.00    -0.215 C  
ENDBRANCH   1   3
BRANCH   1  13
HETATM   13  N   UNK A   1      -9.629  14.956  67.513  1.00  0.00    -0.203 NA 
HETATM   14  H   UNK A   1      -9.373  14.055  67.917  1.00  0.00     0.000 HD 
BRANCH  13  15
HETATM   15  C   UNK A   1     -11.118  15.131  67.552  1.00  0.00    -0.319 C  
HETATM   16  O   UNK A   1     -12.755  14.415  69.248  1.00  0.00    -0.013 OA 
HETATM   17  O   UNK A   1     -10.700  13.471  69.264  1.00  0.00    -0.142 OA 
HETATM   18  C   UNK A   1     -11.638  14.319  68.766  1.00  0.00    -0.322 C  
BRANCH  15  19
HETATM   19  C   UNK A   1     -11.832  14.671  66.260  1.00  0.00    -0.299 C  
BRANCH  19  20
HETATM   20  C   UNK A   1     -10.871  14.466  65.077  1.00  0.00    -0.420 C  
BRANCH  20  21
HETATM   21  C   UNK A   1     -10.557  13.018  64.782  1.00  0.00    -0.380 A  
HETATM   22  C   UNK A   1      -9.864  10.358  64.195  1.00  0.00    -0.379 A  
HETATM   23  C   UNK A   1     -10.468  12.579  63.455  1.00  0.00    -0.360 A  
HETATM   24  C   UNK A   1     -10.122  11.257  63.162  1.00  0.00    -0.385 A  
HETATM   25  C   UNK A   1      -9.955  10.780  65.519  1.00  0.00    -0.321 A  
HETATM   26  C   UNK A   1     -10.298  12.103  65.816  1.00  0.00    -0.289 A  
ENDBRANCH  20  21
ENDBRANCH  19  20
ENDBRANCH  15  19
ENDBRANCH  13  15
ENDBRANCH   1  13
TORSDOF 6
ENDMDL
MODEL       77
REMARK 921   NORMALIZED FREE ENERGY PREDICTED BY IDOCK:   -4.91 KCAL/MOL
REMARK 922        TOTAL FREE ENERGY PREDICTED BY IDOCK:   -8.34 KCAL/MOL
REMARK 923 INTER-LIGAND FREE ENERGY PREDICTED BY IDOCK:   -7.59 KCAL/MOL
REMARK 924 INTRA-LIGAND FREE ENERGY PREDICTED BY IDOCK:   -0.75 KCAL/MOL
REMARK 927      BINDING AFFINITY PREDICTED BY RF-SCORE:    0.00 PKD
ROOT
HETATM    1  C   UNK A   1     -10.458  14.876  68.336  1.00  0.00    -0.243 C  
HETATM    2  C   UNK A   1     -11.472  14.822  69.475  1.00  0.00    -0.331 C  
ENDROOT
BRANCH   1   3
HETATM    3  C   UNK A   1      -9.448  16.027  68.605  1.00  0.00    -0.224 C  
ATOM      4  CA  PRO A   2     -10.693  17.570  66.982  1.00  0.00    -0.157 C  
ATOM      5  N   PRO A   2      -9.561  17.183  67.846  1.00  0.00    -0.260 N  
ATOM      6  C   PRO A   2     -10.546  17.028  65.552  1.00  0.00    -0.173 C  
HETATM    7  O   UNK A   1      -8.553  15.897  69.446  1.00  0.00    -0.256 OA 
ATOM      8  CB  PRO A   2     -10.668  19.104  66.958  1.00  0.00    -0.542 C  
ATOM      9  O   PRO A   2      -9.404  16.334  65.342  1.00  0.00    -0.361 OA 
ATOM     10  CD  PRO A   2      -8.702  18.332  68.088  1.00  0.00    -0.281 C  
ATOM     11  OXT PRO A   2     -11.378  17.206  64.675  1.00  0.00    -0.909 OA 
ATOM     12  CG  PRO A   2      -9.655  19.508  68.026  1.00  0.00    -0.450 C  
ENDBRANCH   1   3
BRANCH   1  13
HETATM   13  N   UNK A   1      -9.682  13.619  68.201  1.00  0.00    -0.224 NA 
HETATM   14  H   UNK A   1      -8.716  13.773  68.490  1.00  0.00     0.000 HD 
BRANCH  13  15
HETATM   15  C   UNK A   1     -10.250  12.431  68.918  1.00  0.00    -0.004 C  
HETATM   16  O   UNK A   1      -9.213  10.264  69.464  1.00  0.00    -0.208 OA 
HETATM   17  O   UNK A   1      -8.239  11.560  67.888  1.00  0.00    -0.123 OA 
HETATM   18  C   UNK A   1      -9.204  11.293  68.807  1.00  0.00    -0.126 C  
BRANCH  15  19
HETATM   19  C   UNK A   1     -11.611  11.958  68.356  1.00  0.00    -0.376 C  
BRANCH  19  20
HETATM   20  C   UNK A   1     -11.483  11.182  67.034  1.00  0.00    -0.109 C  
BRANCH  20  21
HETATM   21  C   UNK A   1     -11.766  12.011  65.803  1.00  0.00    -0.313 A  
HETATM   22  C   UNK A   1     -12.204  13.627  63.546  1.00  0.00    -0.329 A  
HETATM   23  C   UNK A   1     -12.366  13.269  65.931  1.00  0.00    -0.479 A  
HETATM   24  C   UNK A   1     -12.584  14.075  64.810  1.00  0.00    -0.326 A  
HETATM   25  C   UNK A   1     -11.612  12.375  63.404  1.00  0.00    -0.541 A  
HETATM   26  C   UNK A   1     -11.390  11.568  64.524  1.00  0.00    -0.250 A  
ENDBRANCH  20  21
ENDBRANCH  19  20
ENDBRANCH  15  19
ENDBRANCH  13  15
ENDBRANCH   1  13
TORSDOF 6
ENDMDL
MODEL       78
REMARK 921   NORMALIZED FREE ENERGY PREDICTED BY IDOCK:   -4.90 KCAL/MOL
REMARK 922        TOTAL FREE ENERGY PREDICTED BY IDOCK:   -8.34 KCAL/MOL
REMARK 923 INTER-LIGAND FREE ENERGY PREDICTED BY IDOCK:   -7.73 KCAL/MOL
REMARK 924 INTRA-LIGAND FREE ENERGY PREDICTED BY IDOCK:   -0.60 KCAL/MOL
REMARK 927      BINDING AFFINITY PREDICTED BY RF-SCORE:    0.00 PKD
ROOT
HETATM    1  C   UNK A   1     -11.783  13.213  67.661  1.00  0.00    -0.369 C  
HETATM    2  C   UNK A   1     -11.615  14.102  66.432  1.00  0.00    -0.380 C  
ENDROOT
BRANCH   1   3
HETATM    3  C   UNK A   1     -10.386  12.715  68.127  1.00  0.00    -0.234 C  
ATOM      4  CA  PRO A   2     -11.380  10.481  68.891  1.00  0.00    -0.251 C  
ATOM      5  N   PRO A   2     -10.317  11.500  68.793  1.00  0.00    -0.207 N  
ATOM      6  C   PRO A   2     -12.310  10.721  70.090  1.00  0.00    -0.325 C  
HETATM    7  O   UNK A   1      -9.376  13.401  67.938  1.00  0.00    -0.200 OA 
ATOM      8  CB  PRO A   2     -10.637   9.150  69.071  1.00  0.00    -0.219 C  
ATOM      9  O   PRO A   2     -11.967  11.790  70.845  1.00  0.00    -0.269 OA 
ATOM     10  CD  PRO A   2      -9.040  10.931  69.196  1.00  0.00    -0.042 C  
ATOM     11  OXT PRO A   2     -13.271  10.014  70.348  1.00  0.00    -0.149 OA 
ATOM     12  CG  PRO A   2      -9.167   9.469  68.816  1.00  0.00    -0.140 C  
ENDBRANCH   1   3
BRANCH   1  13
HETATM   13  N   UNK A   1     -12.409  13.927  68.801  1.00  0.00    -0.453 NA 
HETATM   14  H   UNK A   1     -12.768  13.254  69.479  1.00  0.00     0.000 HD 
BRANCH  13  15
HETATM   15  C   UNK A   1     -11.537  14.934  69.488  1.00  0.00    -0.303 C  
HETATM   16  O   UNK A   1     -11.621  15.793  71.796  1.00  0.00    -0.396 OA 
HETATM   17  O   UNK A   1     -13.438  14.729  70.972  1.00  0.00    -0.381 OA 
HETATM   18  C   UNK A   1     -12.173  15.213  70.874  1.00  0.00    -0.342 C  
BRANCH  15  19
HETATM   19  C   UNK A   1     -11.375  16.256  68.702  1.00  0.00    -0.333 C  
BRANCH  19  20
HETATM   20  C   UNK A   1     -10.075  17.006  69.040  1.00  0.00    -0.290 C  
BRANCH  20  21
HETATM   21  C   UNK A   1      -9.778  18.168  68.121  1.00  0.00    -0.331 A  
HETATM   22  C   UNK A   1      -9.304  20.395  66.474  1.00  0.00    -0.360 A  
HETATM   23  C   UNK A   1     -10.726  18.570  67.174  1.00  0.00    -0.396 A  
HETATM   24  C   UNK A   1     -10.493  19.678  66.355  1.00  0.00    -0.618 A  
HETATM   25  C   UNK A   1      -8.349  20.001  67.408  1.00  0.00    -0.382 A  
HETATM   26  C   UNK A   1      -8.580  18.896  68.231  1.00  0.00    -0.364 A  
ENDBRANCH  20  21
ENDBRANCH  19  20
ENDBRANCH  15  19
ENDBRANCH  13  15
ENDBRANCH   1  13
TORSDOF 6
ENDMDL
MODEL       79
REMARK 921   NORMALIZED FREE ENERGY PREDICTED BY IDOCK:   -4.89 KCAL/MOL
REMARK 922        TOTAL FREE ENERGY PREDICTED BY IDOCK:   -8.32 KCAL/MOL
REMARK 923 INTER-LIGAND FREE ENERGY PREDICTED BY IDOCK:   -7.59 KCAL/MOL
REMARK 924 INTRA-LIGAND FREE ENERGY PREDICTED BY IDOCK:   -0.73 KCAL/MOL
REMARK 927      BINDING AFFINITY PREDICTED BY RF-SCORE:    0.00 PKD
ROOT
HETATM    1  C   UNK A   1     -10.824   7.269  70.098  1.00  0.00    -0.256 C  
HETATM    2  C   UNK A   1     -11.045   5.969  70.867  1.00  0.00    -0.352 C  
ENDROOT
BRANCH   1   3
HETATM    3  C   UNK A   1     -10.589   6.941  68.597  1.00  0.00    -0.223 C  
ATOM      4  CA  PRO A   2      -8.695   8.662  68.466  1.00  0.00    -0.139 C  
ATOM      5  N   PRO A   2      -9.676   7.717  67.898  1.00  0.00    -0.149 N  
ATOM      6  C   PRO A   2      -9.277  10.073  68.639  1.00  0.00    -0.152 C  
HETATM    7  O   UNK A   1     -11.222   6.039  68.041  1.00  0.00    -0.253 OA 
ATOM      8  CB  PRO A   2      -7.546   8.699  67.450  1.00  0.00    -0.093 C  
ATOM      9  O   PRO A   2     -10.556  10.196  68.214  1.00  0.00    -0.198 OA 
ATOM     10  CD  PRO A   2      -9.346   7.428  66.510  1.00  0.00    -0.173 C  
ATOM     11  OXT PRO A   2      -8.650  11.007  69.115  1.00  0.00    -0.111 OA 
ATOM     12  CG  PRO A   2      -7.837   7.568  66.468  1.00  0.00    -0.102 C  
ENDBRANCH   1   3
BRANCH   1  13
HETATM   13  N   UNK A   1     -11.988   8.185  70.181  1.00  0.00    -0.297 NA 
HETATM   14  H   UNK A   1     -12.851   7.671  70.002  1.00  0.00     0.000 HD 
BRANCH  13  15
HETATM   15  C   UNK A   1     -12.107   8.961  71.459  1.00  0.00    -0.330 C  
HETATM   16  O   UNK A   1     -13.837   8.872  73.212  1.00  0.00    -0.207 OA 
HETATM   17  O   UNK A   1     -14.303   7.978  71.188  1.00  0.00    -0.302 OA 
HETATM   18  C   UNK A   1     -13.490   8.618  72.069  1.00  0.00    -0.403 C  
BRANCH  15  19
HETATM   19  C   UNK A   1     -11.975  10.490  71.273  1.00  0.00    -0.386 C  
BRANCH  19  20
HETATM   20  C   UNK A   1     -13.209  11.268  71.760  1.00  0.00    -0.480 C  
BRANCH  20  21
HETATM   21  C   UNK A   1     -13.116  12.762  71.555  1.00  0.00    -0.380 A  
HETATM   22  C   UNK A   1     -13.008  15.529  71.073  1.00  0.00    -0.550 A  
HETATM   23  C   UNK A   1     -12.310  13.279  70.534  1.00  0.00    -0.389 A  
HETATM   24  C   UNK A   1     -12.256  14.654  70.292  1.00  0.00    -0.389 A  
HETATM   25  C   UNK A   1     -13.810  15.029  72.096  1.00  0.00    -0.584 A  
HETATM   26  C   UNK A   1     -13.869  13.654  72.339  1.00  0.00    -0.691 A  
ENDBRANCH  20  21
ENDBRANCH  19  20
ENDBRANCH  15  19
ENDBRANCH  13  15
ENDBRANCH   1  13
TORSDOF 6
ENDMDL
MODEL       80
REMARK 921   NORMALIZED FREE ENERGY PREDICTED BY IDOCK:   -4.88 KCAL/MOL
REMARK 922        TOTAL FREE ENERGY PREDICTED BY IDOCK:   -8.30 KCAL/MOL
REMARK 923 INTER-LIGAND FREE ENERGY PREDICTED BY IDOCK:   -7.88 KCAL/MOL
REMARK 924 INTRA-LIGAND FREE ENERGY PREDICTED BY IDOCK:   -0.42 KCAL/MOL
REMARK 927      BINDING AFFINITY PREDICTED BY RF-SCORE:    0.00 PKD
ROOT
HETATM    1  C   UNK A   1      -8.964  12.868  67.369  1.00  0.00    -0.199 C  
HETATM    2  C   UNK A   1      -7.713  13.271  68.145  1.00  0.00    -0.143 C  
ENDROOT
BRANCH   1   3
HETATM    3  C   UNK A   1     -10.212  13.061  68.274  1.00  0.00    -0.246 C  
ATOM      4  CA  PRO A   2     -10.410  10.532  68.629  1.00  0.00    -0.185 C  
ATOM      5  N   PRO A   2     -10.884  11.927  68.707  1.00  0.00    -0.224 N  
ATOM      6  C   PRO A   2     -10.790   9.860  67.301  1.00  0.00    -0.199 C  
HETATM    7  O   UNK A   1     -10.609  14.193  68.569  1.00  0.00    -0.239 OA 
ATOM      8  CB  PRO A   2     -11.108   9.811  69.790  1.00  0.00    -0.272 C  
ATOM      9  O   PRO A   2     -11.508  10.651  66.471  1.00  0.00    -0.040 OA 
ATOM     10  CD  PRO A   2     -12.016  12.021  69.616  1.00  0.00    -0.293 C  
ATOM     11  OXT PRO A   2     -10.479   8.715  67.012  1.00  0.00    -0.295 OA 
ATOM     12  CG  PRO A   2     -11.758  10.915  70.619  1.00  0.00    -0.418 C  
ENDBRANCH   1   3
BRANCH   1  13
HETATM   13  N   UNK A   1      -9.165  13.685  66.146  1.00  0.00    -0.490 NA 
HETATM   14  H   UNK A   1      -8.717  13.234  65.348  1.00  0.00     0.000 HD 
BRANCH  13  15
HETATM   15  C   UNK A   1     -10.590  14.014  65.818  1.00  0.00    -0.299 C  
HETATM   16  O   UNK A   1     -12.056  13.125  64.047  1.00  0.00    -0.408 OA 
HETATM   17  O   UNK A   1      -9.824  12.812  63.861  1.00  0.00    -0.267 OA 
HETATM   18  C   UNK A   1     -10.930  13.283  64.494  1.00  0.00    -0.382 C  
BRANCH  15  19
HETATM   19  C   UNK A   1     -10.862  15.529  65.673  1.00  0.00    -0.354 C  
BRANCH  19  20
HETATM   20  C   UNK A   1      -9.616  16.394  65.928  1.00  0.00    -0.309 C  
BRANCH  20  21
HETATM   21  C   UNK A   1      -9.889  17.650  66.722  1.00  0.00    -0.304 A  
HETATM   22  C   UNK A   1     -10.278  20.007  68.201  1.00  0.00    -0.535 A  
HETATM   23  C   UNK A   1      -9.555  17.704  68.080  1.00  0.00    -0.297 A  
HETATM   24  C   UNK A   1      -9.747  18.876  68.817  1.00  0.00    -0.454 A  
HETATM   25  C   UNK A   1     -10.620  19.965  66.852  1.00  0.00    -0.534 A  
HETATM   26  C   UNK A   1     -10.426  18.796  66.111  1.00  0.00    -0.499 A  
ENDBRANCH  20  21
ENDBRANCH  19  20
ENDBRANCH  15  19
ENDBRANCH  13  15
ENDBRANCH   1  13
TORSDOF 6
ENDMDL
MODEL       81
REMARK 921   NORMALIZED FREE ENERGY PREDICTED BY IDOCK:   -4.87 KCAL/MOL
REMARK 922        TOTAL FREE ENERGY PREDICTED BY IDOCK:   -8.30 KCAL/MOL
REMARK 923 INTER-LIGAND FREE ENERGY PREDICTED BY IDOCK:   -6.99 KCAL/MOL
REMARK 924 INTRA-LIGAND FREE ENERGY PREDICTED BY IDOCK:   -1.31 KCAL/MOL
REMARK 927      BINDING AFFINITY PREDICTED BY RF-SCORE:    0.00 PKD
ROOT
HETATM    1  C   UNK A   1     -12.131  14.141  66.989  1.00  0.00    -0.414 C  
HETATM    2  C   UNK A   1     -12.878  13.812  65.699  1.00  0.00    -0.456 C  
ENDROOT
BRANCH   1   3
HETATM    3  C   UNK A   1     -11.868  12.827  67.776  1.00  0.00    -0.332 C  
ATOM      4  CA  PRO A   2     -12.434  13.980  69.993  1.00  0.00    -0.281 C  
ATOM      5  N   PRO A   2     -11.910  12.879  69.162  1.00  0.00    -0.308 N  
ATOM      6  C   PRO A   2     -11.363  15.037  70.305  1.00  0.00    -0.263 C  
HETATM    7  O   UNK A   1     -11.596  11.779  67.182  1.00  0.00    -0.478 OA 
ATOM      8  CB  PRO A   2     -12.894  13.311  71.294  1.00  0.00    -0.398 C  
ATOM      9  O   PRO A   2     -10.143  14.749  69.795  1.00  0.00    -0.072 OA 
ATOM     10  CD  PRO A   2     -11.746  11.679  69.968  1.00  0.00    -0.321 C  
ATOM     11  OXT PRO A   2     -11.582  16.046  70.956  1.00  0.00    -0.390 OA 
ATOM     12  CG  PRO A   2     -12.826  11.811  71.024  1.00  0.00    -0.309 C  
ENDBRANCH   1   3
BRANCH   1  13
HETATM   13  N   UNK A   1     -10.819  14.787  66.740  1.00  0.00    -0.310 NA 
HETATM   14  H   UNK A   1     -10.406  14.420  65.883  1.00  0.00     0.000 HD 
BRANCH  13  15
HETATM   15  C   UNK A   1     -10.836  16.286  66.702  1.00  0.00    -0.115 C  
HETATM   16  O   UNK A   1     -11.028  17.821  64.783  1.00  0.00    -0.855 OA 
HETATM   17  O   UNK A   1     -10.465  15.666  64.391  1.00  0.00    -0.164 OA 
HETATM   18  C   UNK A   1     -10.792  16.701  65.209  1.00  0.00    -0.183 C  
BRANCH  15  19
HETATM   19  C   UNK A   1      -9.665  16.941  67.469  1.00  0.00    -0.249 C  
BRANCH  19  20
HETATM   20  C   UNK A   1      -8.287  16.605  66.872  1.00  0.00    -0.243 C  
BRANCH  20  21
HETATM   21  C   UNK A   1      -7.425  15.740  67.761  1.00  0.00    -0.162 A  
HETATM   22  C   UNK A   1      -5.915  14.116  69.487  1.00  0.00    -0.107 A  
HETATM   23  C   UNK A   1      -6.995  16.223  69.002  1.00  0.00    -0.188 A  
HETATM   24  C   UNK A   1      -6.246  15.416  69.863  1.00  0.00    -0.160 A  
HETATM   25  C   UNK A   1      -6.331  13.625  68.252  1.00  0.00    -0.107 A  
HETATM   26  C   UNK A   1      -7.084  14.427  67.390  1.00  0.00    -0.121 A  
ENDBRANCH  20  21
ENDBRANCH  19  20
ENDBRANCH  15  19
ENDBRANCH  13  15
ENDBRANCH   1  13
TORSDOF 6
ENDMDL
MODEL       82
REMARK 921   NORMALIZED FREE ENERGY PREDICTED BY IDOCK:   -4.87 KCAL/MOL
REMARK 922        TOTAL FREE ENERGY PREDICTED BY IDOCK:   -8.29 KCAL/MOL
REMARK 923 INTER-LIGAND FREE ENERGY PREDICTED BY IDOCK:   -7.32 KCAL/MOL
REMARK 924 INTRA-LIGAND FREE ENERGY PREDICTED BY IDOCK:   -0.97 KCAL/MOL
REMARK 927      BINDING AFFINITY PREDICTED BY RF-SCORE:    0.00 PKD
ROOT
HETATM    1  C   UNK A   1     -10.331   8.185  68.763  1.00  0.00    -0.202 C  
HETATM    2  C   UNK A   1     -10.586   7.035  67.792  1.00  0.00    -0.298 C  
ENDROOT
BRANCH   1   3
HETATM    3  C   UNK A   1      -9.942   9.457  67.958  1.00  0.00    -0.176 C  
ATOM      4  CA  PRO A   2      -7.449   8.956  68.272  1.00  0.00    -0.087 C  
ATOM      5  N   PRO A   2      -8.600   9.798  67.890  1.00  0.00    -0.125 N  
ATOM      6  C   PRO A   2      -7.083   9.107  69.756  1.00  0.00    -0.061 C  
HETATM    7  O   UNK A   1     -10.810  10.157  67.427  1.00  0.00    -0.278 OA 
ATOM      8  CB  PRO A   2      -6.288   9.451  67.400  1.00  0.00    -0.062 C  
ATOM      9  O   PRO A   2      -7.851   9.998  70.423  1.00  0.00    -0.216 OA 
ATOM     10  CD  PRO A   2      -8.148  10.931  67.096  1.00  0.00    -0.127 C  
ATOM     11  OXT PRO A   2      -6.180   8.486  70.293  1.00  0.00    -0.034 OA 
ATOM     12  CG  PRO A   2      -6.921  10.398  66.383  1.00  0.00    -0.114 C  
ENDBRANCH   1   3
BRANCH   1  13
HETATM   13  N   UNK A   1     -11.524   8.518  69.580  1.00  0.00    -0.370 NA 
HETATM   14  H   UNK A   1     -12.168   7.727  69.596  1.00  0.00     0.000 HD 
BRANCH  13  15
HETATM   15  C   UNK A   1     -11.239   8.976  70.979  1.00  0.00    -0.295 C  
HETATM   16  O   UNK A   1     -11.209   7.703  73.089  1.00  0.00    -0.391 OA 
HETATM   17  O   UNK A   1     -12.235   6.791  71.292  1.00  0.00    -0.356 OA 
HETATM   18  C   UNK A   1     -11.545   7.781  71.918  1.00  0.00    -0.287 C  
BRANCH  15  19
HETATM   19  C   UNK A   1     -12.063  10.212  71.409  1.00  0.00    -0.475 C  
BRANCH  19  20
HETATM   20  C   UNK A   1     -12.065  11.334  70.356  1.00  0.00    -0.474 C  
BRANCH  20  21
HETATM   21  C   UNK A   1     -12.540  12.669  70.880  1.00  0.00    -0.338 A  
HETATM   22  C   UNK A   1     -13.504  15.156  71.764  1.00  0.00    -0.529 A  
HETATM   23  C   UNK A   1     -12.257  13.840  70.165  1.00  0.00    -0.425 A  
HETATM   24  C   UNK A   1     -12.738  15.077  70.603  1.00  0.00    -0.428 A  
HETATM   25  C   UNK A   1     -13.787  14.000  72.487  1.00  0.00    -0.610 A  
HETATM   26  C   UNK A   1     -13.312  12.760  72.050  1.00  0.00    -0.565 A  
ENDBRANCH  20  21
ENDBRANCH  19  20
ENDBRANCH  15  19
ENDBRANCH  13  15
ENDBRANCH   1  13
TORSDOF 6
ENDMDL
MODEL       83
REMARK 921   NORMALIZED FREE ENERGY PREDICTED BY IDOCK:   -4.85 KCAL/MOL
REMARK 922        TOTAL FREE ENERGY PREDICTED BY IDOCK:   -8.26 KCAL/MOL
REMARK 923 INTER-LIGAND FREE ENERGY PREDICTED BY IDOCK:   -7.09 KCAL/MOL
REMARK 924 INTRA-LIGAND FREE ENERGY PREDICTED BY IDOCK:   -1.17 KCAL/MOL
REMARK 927      BINDING AFFINITY PREDICTED BY RF-SCORE:    0.00 PKD
ROOT
HETATM    1  C   UNK A   1     -11.834  13.909  68.964  1.00  0.00    -0.358 C  
HETATM    2  C   UNK A   1     -12.557  14.950  69.814  1.00  0.00    -0.147 C  
ENDROOT
BRANCH   1   3
HETATM    3  C   UNK A   1     -10.731  14.611  68.124  1.00  0.00    -0.242 C  
ATOM      4  CA  PRO A   2     -12.146  14.407  65.999  1.00  0.00    -0.357 C  
ATOM      5  N   PRO A   2     -10.907  14.685  66.750  1.00  0.00    -0.306 N  
ATOM      6  C   PRO A   2     -12.276  12.926  65.614  1.00  0.00    -0.463 C  
HETATM    7  O   UNK A   1      -9.714  15.057  68.665  1.00  0.00    -0.204 OA 
ATOM      8  CB  PRO A   2     -12.041  15.263  64.730  1.00  0.00    -0.122 C  
ATOM      9  O   PRO A   2     -11.227  12.164  66.001  1.00  0.00    -0.307 OA 
ATOM     10  CD  PRO A   2      -9.956  15.389  65.904  1.00  0.00    -0.346 C  
ATOM     11  OXT PRO A   2     -13.233  12.468  65.010  1.00  0.00    -0.700 OA 
ATOM     12  CG  PRO A   2     -10.840  16.177  64.957  1.00  0.00    -0.380 C  
ENDBRANCH   1   3
BRANCH   1  13
HETATM   13  N   UNK A   1     -11.177  12.860  69.783  1.00  0.00    -0.489 NA 
HETATM   14  H   UNK A   1     -11.266  13.084  70.774  1.00  0.00     0.000 HD 
BRANCH  13  15
HETATM   15  C   UNK A   1     -11.644  11.458  69.529  1.00  0.00    -0.331 C  
HETATM   16  O   UNK A   1     -13.314  10.101  70.730  1.00  0.00    -0.361 OA 
HETATM   17  O   UNK A   1     -12.476  11.937  71.751  1.00  0.00    -0.101 OA 
HETATM   18  C   UNK A   1     -12.569  11.068  70.710  1.00  0.00    -0.369 C  
BRANCH  15  19
HETATM   19  C   UNK A   1     -10.494  10.434  69.395  1.00  0.00    -0.261 C  
BRANCH  19  20
HETATM   20  C   UNK A   1     -10.670   9.478  68.202  1.00  0.00    -0.247 C  
BRANCH  20  21
HETATM   21  C   UNK A   1      -9.524   9.503  67.218  1.00  0.00    -0.170 A  
HETATM   22  C   UNK A   1      -7.463   9.608  65.311  1.00  0.00    -0.113 A  
HETATM   23  C   UNK A   1      -9.577   8.711  66.065  1.00  0.00    -0.265 A  
HETATM   24  C   UNK A   1      -8.553   8.764  65.115  1.00  0.00    -0.209 A  
HETATM   25  C   UNK A   1      -7.395  10.396  66.457  1.00  0.00    -0.119 A  
HETATM   26  C   UNK A   1      -8.419  10.349  67.408  1.00  0.00    -0.121 A  
ENDBRANCH  20  21
ENDBRANCH  19  20
ENDBRANCH  15  19
ENDBRANCH  13  15
ENDBRANCH   1  13
TORSDOF 6
ENDMDL
MODEL       84
REMARK 921   NORMALIZED FREE ENERGY PREDICTED BY IDOCK:   -4.83 KCAL/MOL
REMARK 922        TOTAL FREE ENERGY PREDICTED BY IDOCK:   -8.25 KCAL/MOL
REMARK 923 INTER-LIGAND FREE ENERGY PREDICTED BY IDOCK:   -7.12 KCAL/MOL
REMARK 924 INTRA-LIGAND FREE ENERGY PREDICTED BY IDOCK:   -1.12 KCAL/MOL
REMARK 927      BINDING AFFINITY PREDICTED BY RF-SCORE:    0.00 PKD
ROOT
HETATM    1  C   UNK A   1      -9.451  14.425  66.746  1.00  0.00    -0.267 C  
HETATM    2  C   UNK A   1      -7.999  14.745  67.092  1.00  0.00    -0.205 C  
ENDROOT
BRANCH   1   3
HETATM    3  C   UNK A   1     -10.381  15.462  67.435  1.00  0.00    -0.262 C  
ATOM      4  CA  PRO A   2     -11.091  13.736  69.190  1.00  0.00    -0.240 C  
ATOM      5  N   PRO A   2     -11.189  15.022  68.473  1.00  0.00    -0.273 N  
ATOM      6  C   PRO A   2     -11.907  12.626  68.511  1.00  0.00    -0.300 C  
HETATM    7  O   UNK A   1     -10.421  16.632  67.043  1.00  0.00    -0.305 OA 
ATOM      8  CB  PRO A   2     -11.661  14.016  70.587  1.00  0.00    -0.230 C  
ATOM      9  O   PRO A   2     -12.584  13.035  67.413  1.00  0.00    -0.020 OA 
ATOM     10  CD  PRO A   2     -12.033  15.945  69.216  1.00  0.00    -0.242 C  
ATOM     11  OXT PRO A   2     -11.950  11.476  68.919  1.00  0.00    -0.333 OA 
ATOM     12  CG  PRO A   2     -11.827  15.531  70.660  1.00  0.00    -0.400 C  
ENDBRANCH   1   3
BRANCH   1  13
HETATM   13  N   UNK A   1      -9.716  14.482  65.287  1.00  0.00    -0.520 NA 
HETATM   14  H   UNK A   1      -8.915  14.886  64.802  1.00  0.00     0.000 HD 
BRANCH  13  15
HETATM   15  C   UNK A   1     -10.099  13.180  64.651  1.00  0.00    -0.226 C  
HETATM   16  O   UNK A   1     -12.069  12.599  63.289  1.00  0.00    -0.521 OA 
HETATM   17  O   UNK A   1     -12.135  14.484  64.535  1.00  0.00    -0.455 OA 
HETATM   18  C   UNK A   1     -11.527  13.360  64.075  1.00  0.00    -0.352 C  
BRANCH  15  19
HETATM   19  C   UNK A   1     -10.066  11.979  65.623  1.00  0.00    -0.272 C  
BRANCH  19  20
HETATM   20  C   UNK A   1      -8.957  10.964  65.296  1.00  0.00    -0.202 C  
BRANCH  20  21
HETATM   21  C   UNK A   1      -9.228   9.568  65.807  1.00  0.00    -0.267 A  
HETATM   22  C   UNK A   1      -9.625   6.976  66.815  1.00  0.00    -0.221 A  
HETATM   23  C   UNK A   1      -8.501   8.485  65.298  1.00  0.00    -0.192 A  
HETATM   24  C   UNK A   1      -8.697   7.195  65.800  1.00  0.00    -0.125 A  
HETATM   25  C   UNK A   1     -10.358   8.043  67.326  1.00  0.00    -0.371 A  
HETATM   26  C   UNK A   1     -10.163   9.336  66.830  1.00  0.00    -0.325 A  
ENDBRANCH  20  21
ENDBRANCH  19  20
ENDBRANCH  15  19
ENDBRANCH  13  15
ENDBRANCH   1  13
TORSDOF 6
ENDMDL
MODEL       85
REMARK 921   NORMALIZED FREE ENERGY PREDICTED BY IDOCK:   -4.83 KCAL/MOL
REMARK 922        TOTAL FREE ENERGY PREDICTED BY IDOCK:   -8.25 KCAL/MOL
REMARK 923 INTER-LIGAND FREE ENERGY PREDICTED BY IDOCK:   -7.44 KCAL/MOL
REMARK 924 INTRA-LIGAND FREE ENERGY PREDICTED BY IDOCK:   -0.80 KCAL/MOL
REMARK 927      BINDING AFFINITY PREDICTED BY RF-SCORE:    0.00 PKD
ROOT
HETATM    1  C   UNK A   1     -10.379   8.797  70.842  1.00  0.00    -0.223 C  
HETATM    2  C   UNK A   1      -8.970   9.168  71.295  1.00  0.00    -0.207 C  
ENDROOT
BRANCH   1   3
HETATM    3  C   UNK A   1     -10.960   7.723  71.804  1.00  0.00    -0.239 C  
ATOM      4  CA  PRO A   2      -9.650   5.873  70.610  1.00  0.00    -0.173 C  
ATOM      5  N   PRO A   2     -10.667   6.392  71.544  1.00  0.00    -0.231 N  
ATOM      6  C   PRO A   2     -10.200   5.696  69.187  1.00  0.00    -0.236 C  
HETATM    7  O   UNK A   1     -11.686   8.047  72.748  1.00  0.00    -0.396 OA 
ATOM      8  CB  PRO A   2      -9.247   4.506  71.181  1.00  0.00    -0.198 C  
ATOM      9  O   PRO A   2     -11.509   6.014  69.061  1.00  0.00    -0.275 OA 
ATOM     10  CD  PRO A   2     -11.111   5.333  72.438  1.00  0.00    -0.197 C  
ATOM     11  OXT PRO A   2      -9.526   5.303  68.247  1.00  0.00    -0.114 OA 
ATOM     12  CG  PRO A   2      -9.894   4.438  72.561  1.00  0.00    -0.213 C  
ENDBRANCH   1   3
BRANCH   1  13
HETATM   13  N   UNK A   1     -11.306   9.956  70.851  1.00  0.00    -0.344 NA 
HETATM   14  H   UNK A   1     -11.314  10.389  71.775  1.00  0.00     0.000 HD 
BRANCH  13  15
HETATM   15  C   UNK A   1     -11.050  10.994  69.799  1.00  0.00    -0.235 C  
HETATM   16  O   UNK A   1     -11.818  13.331  69.658  1.00  0.00    -0.300 OA 
HETATM   17  O   UNK A   1     -12.875  11.931  71.085  1.00  0.00    -0.343 OA 
HETATM   18  C   UNK A   1     -11.934  12.219  70.147  1.00  0.00    -0.298 C  
BRANCH  15  19
HETATM   19  C   UNK A   1     -11.354  10.511  68.363  1.00  0.00    -0.328 C  
BRANCH  19  20
HETATM   20  C   UNK A   1     -10.365  11.056  67.319  1.00  0.00    -0.249 C  
BRANCH  20  21
HETATM   21  C   UNK A   1     -11.020  11.571  66.058  1.00  0.00    -0.316 A  
HETATM   22  C   UNK A   1     -12.173  12.628  63.723  1.00  0.00    -0.600 A  
HETATM   23  C   UNK A   1     -11.955  12.610  66.130  1.00  0.00    -0.458 A  
HETATM   24  C   UNK A   1     -12.528  13.138  64.970  1.00  0.00    -0.516 A  
HETATM   25  C   UNK A   1     -11.249  11.589  63.638  1.00  0.00    -0.451 A  
HETATM   26  C   UNK A   1     -10.671  11.061  64.795  1.00  0.00    -0.304 A  
ENDBRANCH  20  21
ENDBRANCH  19  20
ENDBRANCH  15  19
ENDBRANCH  13  15
ENDBRANCH   1  13
TORSDOF 6
ENDMDL
MODEL       86
REMARK 921   NORMALIZED FREE ENERGY PREDICTED BY IDOCK:   -4.83 KCAL/MOL
REMARK 922        TOTAL FREE ENERGY PREDICTED BY IDOCK:   -8.24 KCAL/MOL
REMARK 923 INTER-LIGAND FREE ENERGY PREDICTED BY IDOCK:   -6.97 KCAL/MOL
REMARK 924 INTRA-LIGAND FREE ENERGY PREDICTED BY IDOCK:   -1.27 KCAL/MOL
REMARK 927      BINDING AFFINITY PREDICTED BY RF-SCORE:    0.00 PKD
ROOT
HETATM    1  C   UNK A   1      -9.968   9.206  67.015  1.00  0.00    -0.230 C  
HETATM    2  C   UNK A   1      -9.866   9.509  65.522  1.00  0.00    -0.304 C  
ENDROOT
BRANCH   1   3
HETATM    3  C   UNK A   1      -8.641   8.556  67.496  1.00  0.00    -0.128 C  
ATOM      4  CA  PRO A   2      -9.910   7.067  69.150  1.00  0.00    -0.158 C  
ATOM      5  N   PRO A   2      -8.698   7.674  68.566  1.00  0.00    -0.128 N  
ATOM      6  C   PRO A   2     -10.528   7.941  70.251  1.00  0.00    -0.225 C  
HETATM    7  O   UNK A   1      -7.566   8.845  66.961  1.00  0.00    -0.093 OA 
ATOM      8  CB  PRO A   2      -9.435   5.737  69.752  1.00  0.00    -0.183 C  
ATOM      9  O   PRO A   2      -9.838   9.078  70.502  1.00  0.00    -0.185 OA 
ATOM     10  CD  PRO A   2      -7.513   6.970  69.028  1.00  0.00    -0.095 C  
ATOM     11  OXT PRO A   2     -11.548   7.645  70.854  1.00  0.00    -0.281 OA 
ATOM     12  CG  PRO A   2      -8.005   5.554  69.251  1.00  0.00    -0.095 C  
ENDBRANCH   1   3
BRANCH   1  13
HETATM   13  N   UNK A   1     -10.194  10.424  67.831  1.00  0.00    -0.170 NA 
HETATM   14  H   UNK A   1      -9.512  11.141  67.584  1.00  0.00     0.000 HD 
BRANCH  13  15
HETATM   15  C   UNK A   1     -11.581  10.991  67.771  1.00  0.00    -0.194 C  
HETATM   16  O   UNK A   1     -12.398  13.077  66.745  1.00  0.00    -0.367 OA 
HETATM   17  O   UNK A   1     -10.179  12.857  67.124  1.00  0.00    -0.235 OA 
HETATM   18  C   UNK A   1     -11.463  12.412  67.162  1.00  0.00    -0.357 C  
BRANCH  15  19
HETATM   19  C   UNK A   1     -12.283  11.061  69.147  1.00  0.00    -0.229 C  
BRANCH  19  20
HETATM   20  C   UNK A   1     -11.540  11.946  70.162  1.00  0.00    -0.252 C  
BRANCH  20  21
HETATM   21  C   UNK A   1     -12.385  13.052  70.751  1.00  0.00    -0.394 A  
HETATM   22  C   UNK A   1     -13.889  15.103  71.945  1.00  0.00    -0.607 A  
HETATM   23  C   UNK A   1     -13.281  12.769  71.788  1.00  0.00    -0.471 A  
HETATM   24  C   UNK A   1     -14.029  13.789  72.384  1.00  0.00    -0.651 A  
HETATM   25  C   UNK A   1     -13.006  15.397  70.909  1.00  0.00    -0.539 A  
HETATM   26  C   UNK A   1     -12.254  14.381  70.313  1.00  0.00    -0.397 A  
ENDBRANCH  20  21
ENDBRANCH  19  20
ENDBRANCH  15  19
ENDBRANCH  13  15
ENDBRANCH   1  13
TORSDOF 6
ENDMDL
MODEL       87
REMARK 921   NORMALIZED FREE ENERGY PREDICTED BY IDOCK:   -4.83 KCAL/MOL
REMARK 922        TOTAL FREE ENERGY PREDICTED BY IDOCK:   -8.24 KCAL/MOL
REMARK 923 INTER-LIGAND FREE ENERGY PREDICTED BY IDOCK:   -7.62 KCAL/MOL
REMARK 924 INTRA-LIGAND FREE ENERGY PREDICTED BY IDOCK:   -0.62 KCAL/MOL
REMARK 927      BINDING AFFINITY PREDICTED BY RF-SCORE:    0.00 PKD
ROOT
HETATM    1  C   UNK A   1      -9.973  16.935  67.162  1.00  0.00    -0.276 C  
HETATM    2  C   UNK A   1     -10.751  16.638  65.883  1.00  0.00    -0.179 C  
ENDROOT
BRANCH   1   3
HETATM    3  C   UNK A   1      -9.488  18.412  67.134  1.00  0.00    -0.282 C  
ATOM      4  CA  PRO A   2      -7.201  17.698  66.226  1.00  0.00    -0.307 C  
ATOM      5  N   PRO A   2      -8.161  18.655  66.809  1.00  0.00    -0.258 N  
ATOM      6  C   PRO A   2      -6.456  16.891  67.300  1.00  0.00    -0.168 C  
HETATM    7  O   UNK A   1     -10.255  19.334  67.427  1.00  0.00    -0.361 OA 
ATOM      8  CB  PRO A   2      -6.203  18.563  65.445  1.00  0.00    -0.307 C  
ATOM      9  O   PRO A   2      -6.790  17.226  68.568  1.00  0.00    -0.180 OA 
ATOM     10  CD  PRO A   2      -7.649  20.011  66.690  1.00  0.00    -0.285 C  
ATOM     11  OXT PRO A   2      -5.634  16.026  67.044  1.00  0.00    -0.343 OA 
ATOM     12  CG  PRO A   2      -6.808  19.964  65.430  1.00  0.00    -0.330 C  
ENDBRANCH   1   3
BRANCH   1  13
HETATM   13  N   UNK A   1     -10.793  16.755  68.385  1.00  0.00    -0.357 NA 
HETATM   14  H   UNK A   1     -11.399  17.564  68.522  1.00  0.00     0.000 HD 
BRANCH  13  15
HETATM   15  C   UNK A   1     -11.601  15.493  68.438  1.00  0.00    -0.357 C  
HETATM   16  O   UNK A   1     -13.070  14.624  70.216  1.00  0.00    -0.230 OA 
HETATM   17  O   UNK A   1     -11.591  16.253  70.737  1.00  0.00    -0.377 OA 
HETATM   18  C   UNK A   1     -12.180  15.386  69.873  1.00  0.00    -0.334 C  
BRANCH  15  19
HETATM   19  C   UNK A   1     -10.792  14.221  68.096  1.00  0.00    -0.253 C  
BRANCH  19  20
HETATM   20  C   UNK A   1     -11.668  13.065  67.585  1.00  0.00    -0.415 C  
BRANCH  20  21
HETATM   21  C   UNK A   1     -11.419  11.747  68.281  1.00  0.00    -0.370 A  
HETATM   22  C   UNK A   1     -10.837   9.320  69.572  1.00  0.00    -0.211 A  
HETATM   23  C   UNK A   1     -10.865  10.675  67.571  1.00  0.00    -0.351 A  
HETATM   24  C   UNK A   1     -10.574   9.468  68.212  1.00  0.00    -0.260 A  
HETATM   25  C   UNK A   1     -11.393  10.376  70.289  1.00  0.00    -0.406 A  
HETATM   26  C   UNK A   1     -11.682  11.587  69.653  1.00  0.00    -0.419 A  
ENDBRANCH  20  21
ENDBRANCH  19  20
ENDBRANCH  15  19
ENDBRANCH  13  15
ENDBRANCH   1  13
TORSDOF 6
ENDMDL
MODEL       88
REMARK 921   NORMALIZED FREE ENERGY PREDICTED BY IDOCK:   -4.77 KCAL/MOL
REMARK 922        TOTAL FREE ENERGY PREDICTED BY IDOCK:   -8.16 KCAL/MOL
REMARK 923 INTER-LIGAND FREE ENERGY PREDICTED BY IDOCK:   -6.86 KCAL/MOL
REMARK 924 INTRA-LIGAND FREE ENERGY PREDICTED BY IDOCK:   -1.30 KCAL/MOL
REMARK 927      BINDING AFFINITY PREDICTED BY RF-SCORE:    0.00 PKD
ROOT
HETATM    1  C   UNK A   1     -10.723   6.922  68.116  1.00  0.00    -0.205 C  
HETATM    2  C   UNK A   1     -10.953   6.132  66.830  1.00  0.00    -0.384 C  
ENDROOT
BRANCH   1   3
HETATM    3  C   UNK A   1      -9.856   6.074  69.088  1.00  0.00    -0.148 C  
ATOM      4  CA  PRO A   2     -11.331   6.745  71.072  1.00  0.00    -0.309 C  
ATOM      5  N   PRO A   2     -10.134   6.152  70.445  1.00  0.00    -0.183 N  
ATOM      6  C   PRO A   2     -11.162   8.247  71.347  1.00  0.00    -0.255 C  
HETATM    7  O   UNK A   1      -8.926   5.381  68.664  1.00  0.00    -0.106 OA 
ATOM      8  CB  PRO A   2     -11.497   5.993  72.399  1.00  0.00    -0.357 C  
ATOM      9  O   PRO A   2      -9.950   8.736  70.998  1.00  0.00    -0.197 OA 
ATOM     10  CD  PRO A   2      -9.417   5.335  71.412  1.00  0.00    -0.151 C  
ATOM     11  OXT PRO A   2     -12.036   8.944  71.838  1.00  0.00    -0.325 OA 
ATOM     12  CG  PRO A   2     -10.510   4.831  72.332  1.00  0.00    -0.258 C  
ENDBRANCH   1   3
BRANCH   1  13
HETATM   13  N   UNK A   1     -10.012   8.203  67.880  1.00  0.00    -0.173 NA 
HETATM   14  H   UNK A   1      -9.311   8.352  68.606  1.00  0.00     0.000 HD 
BRANCH  13  15
HETATM   15  C   UNK A   1      -9.389   8.354  66.525  1.00  0.00    -0.201 C  
HETATM   16  O   UNK A   1      -7.022   8.252  65.848  1.00  0.00    -0.063 OA 
HETATM   17  O   UNK A   1      -7.508   8.549  68.036  1.00  0.00    -0.094 OA 
HETATM   18  C   UNK A   1      -7.853   8.378  66.733  1.00  0.00    -0.094 C  
BRANCH  15  19
HETATM   19  C   UNK A   1      -9.843   9.625  65.770  1.00  0.00    -0.373 C  
BRANCH  19  20
HETATM   20  C   UNK A   1     -10.627  10.608  66.656  1.00  0.00    -0.276 C  
BRANCH  20  21
HETATM   21  C   UNK A   1     -11.236  11.766  65.902  1.00  0.00    -0.345 A  
HETATM   22  C   UNK A   1     -12.275  13.989  64.533  1.00  0.00    -0.463 A  
HETATM   23  C   UNK A   1     -11.791  12.843  66.605  1.00  0.00    -0.461 A  
HETATM   24  C   UNK A   1     -12.307  13.949  65.925  1.00  0.00    -0.517 A  
HETATM   25  C   UNK A   1     -11.731  12.923  63.822  1.00  0.00    -0.557 A  
HETATM   26  C   UNK A   1     -11.211  11.816  64.498  1.00  0.00    -0.368 A  
ENDBRANCH  20  21
ENDBRANCH  19  20
ENDBRANCH  15  19
ENDBRANCH  13  15
ENDBRANCH   1  13
TORSDOF 6
ENDMDL
MODEL       89
REMARK 921   NORMALIZED FREE ENERGY PREDICTED BY IDOCK:   -4.76 KCAL/MOL
REMARK 922        TOTAL FREE ENERGY PREDICTED BY IDOCK:   -8.15 KCAL/MOL
REMARK 923 INTER-LIGAND FREE ENERGY PREDICTED BY IDOCK:   -7.08 KCAL/MOL
REMARK 924 INTRA-LIGAND FREE ENERGY PREDICTED BY IDOCK:   -1.07 KCAL/MOL
REMARK 927      BINDING AFFINITY PREDICTED BY RF-SCORE:    0.00 PKD
ROOT
HETATM    1  C   UNK A   1     -10.928  12.755  65.121  1.00  0.00    -0.293 C  
HETATM    2  C   UNK A   1     -11.984  13.360  64.200  1.00  0.00    -0.505 C  
ENDROOT
BRANCH   1   3
HETATM    3  C   UNK A   1     -11.414  12.857  66.594  1.00  0.00    -0.343 C  
ATOM      4  CA  PRO A   2     -10.348  15.173  66.842  1.00  0.00    -0.272 C  
ATOM      5  N   PRO A   2     -10.996  13.946  67.344  1.00  0.00    -0.284 N  
ATOM      6  C   PRO A   2      -8.820  15.040  66.772  1.00  0.00    -0.268 C  
HETATM    7  O   UNK A   1     -12.124  11.974  67.086  1.00  0.00    -0.587 OA 
ATOM      8  CB  PRO A   2     -10.727  16.263  67.853  1.00  0.00    -0.329 C  
ATOM      9  O   PRO A   2      -8.352  13.848  67.211  1.00  0.00    -0.187 OA 
ATOM     10  CD  PRO A   2     -11.466  14.151  68.706  1.00  0.00    -0.299 C  
ATOM     11  OXT PRO A   2      -8.084  15.924  66.363  1.00  0.00    -0.265 OA 
ATOM     12  CG  PRO A   2     -11.785  15.632  68.752  1.00  0.00    -0.382 C  
ENDBRANCH   1   3
BRANCH   1  13
HETATM   13  N   UNK A   1     -10.668  11.324  64.831  1.00  0.00    -0.294 NA 
HETATM   14  H   UNK A   1     -11.034  11.083  63.910  1.00  0.00     0.000 HD 
BRANCH  13  15
HETATM   15  C   UNK A   1      -9.237  10.893  64.943  1.00  0.00    -0.204 C  
HETATM   16  O   UNK A   1      -7.590  10.385  63.182  1.00  0.00    -0.147 OA 
HETATM   17  O   UNK A   1      -9.782  10.439  62.629  1.00  0.00    -0.298 OA 
HETATM   18  C   UNK A   1      -8.755  10.545  63.512  1.00  0.00    -0.185 C  
BRANCH  15  19
HETATM   19  C   UNK A   1      -9.023   9.684  65.884  1.00  0.00    -0.203 C  
BRANCH  19  20
HETATM   20  C   UNK A   1     -10.332   9.151  66.491  1.00  0.00    -0.269 C  
BRANCH  20  21
HETATM   21  C   UNK A   1     -10.255   8.873  67.974  1.00  0.00    -0.262 A  
HETATM   22  C   UNK A   1     -10.229   8.387  70.742  1.00  0.00    -0.227 A  
HETATM   23  C   UNK A   1     -10.289   9.935  68.886  1.00  0.00    -0.221 A  
HETATM   24  C   UNK A   1     -10.277   9.695  70.263  1.00  0.00    -0.333 A  
HETATM   25  C   UNK A   1     -10.189   7.323  69.845  1.00  0.00    -0.210 A  
HETATM   26  C   UNK A   1     -10.205   7.558  68.467  1.00  0.00    -0.216 A  
ENDBRANCH  20  21
ENDBRANCH  19  20
ENDBRANCH  15  19
ENDBRANCH  13  15
ENDBRANCH   1  13
TORSDOF 6
ENDMDL
MODEL       90
REMARK 921   NORMALIZED FREE ENERGY PREDICTED BY IDOCK:   -4.76 KCAL/MOL
REMARK 922        TOTAL FREE ENERGY PREDICTED BY IDOCK:   -8.14 KCAL/MOL
REMARK 923 INTER-LIGAND FREE ENERGY PREDICTED BY IDOCK:   -7.35 KCAL/MOL
REMARK 924 INTRA-LIGAND FREE ENERGY PREDICTED BY IDOCK:   -0.80 KCAL/MOL
REMARK 927      BINDING AFFINITY PREDICTED BY RF-SCORE:    0.00 PKD
ROOT
HETATM    1  C   UNK A   1     -11.497  12.722  66.094  1.00  0.00    -0.351 C  
HETATM    2  C   UNK A   1     -12.488  12.671  64.935  1.00  0.00    -0.564 C  
ENDROOT
BRANCH   1   3
HETATM    3  C   UNK A   1     -10.266  11.835  65.754  1.00  0.00    -0.239 C  
ATOM      4  CA  PRO A   2     -11.007  10.067  67.455  1.00  0.00    -0.191 C  
ATOM      5  N   PRO A   2     -10.056  10.695  66.516  1.00  0.00    -0.216 N  
ATOM      6  C   PRO A   2     -10.895  10.647  68.873  1.00  0.00    -0.231 C  
HETATM    7  O   UNK A   1      -9.484  12.158  64.855  1.00  0.00    -0.051 OA 
ATOM      8  CB  PRO A   2     -10.623   8.581  67.473  1.00  0.00    -0.284 C  
ATOM      9  O   PRO A   2      -9.936  11.591  69.006  1.00  0.00    -0.142 OA 
ATOM     10  CD  PRO A   2      -8.970   9.775  66.215  1.00  0.00    -0.153 C  
ATOM     11  OXT PRO A   2     -11.602  10.292  69.803  1.00  0.00    -0.249 OA 
ATOM     12  CG  PRO A   2      -9.617   8.409  66.338  1.00  0.00    -0.307 C  
ENDBRANCH   1   3
BRANCH   1  13
HETATM   13  N   UNK A   1     -11.001  14.095  66.362  1.00  0.00    -0.307 NA 
HETATM   14  H   UNK A   1     -11.787  14.739  66.448  1.00  0.00     0.000 HD 
BRANCH  13  15
HETATM   15  C   UNK A   1     -10.092  14.232  67.547  1.00  0.00    -0.236 C  
HETATM   16  O   UNK A   1     -10.582  14.976  69.844  1.00  0.00    -0.239 OA 
HETATM   17  O   UNK A   1     -12.075  15.451  68.213  1.00  0.00    -0.191 OA 
HETATM   18  C   UNK A   1     -10.912  14.916  68.670  1.00  0.00    -0.257 C  
BRANCH  15  19
HETATM   19  C   UNK A   1      -8.809  15.045  67.256  1.00  0.00    -0.216 C  
BRANCH  19  20
HETATM   20  C   UNK A   1      -9.032  16.187  66.249  1.00  0.00    -0.379 C  
BRANCH  20  21
HETATM   21  C   UNK A   1      -9.412  17.503  66.885  1.00  0.00    -0.278 A  
HETATM   22  C   UNK A   1     -10.234  19.915  68.072  1.00  0.00    -0.572 A  
HETATM   23  C   UNK A   1     -10.140  18.449  66.153  1.00  0.00    -0.376 A  
HETATM   24  C   UNK A   1     -10.550  19.648  66.742  1.00  0.00    -0.602 A  
HETATM   25  C   UNK A   1      -9.505  18.986  68.810  1.00  0.00    -0.433 A  
HETATM   26  C   UNK A   1      -9.096  17.784  68.226  1.00  0.00    -0.281 A  
ENDBRANCH  20  21
ENDBRANCH  19  20
ENDBRANCH  15  19
ENDBRANCH  13  15
ENDBRANCH   1  13
TORSDOF 6
ENDMDL
MODEL       91
REMARK 921   NORMALIZED FREE ENERGY PREDICTED BY IDOCK:   -4.75 KCAL/MOL
REMARK 922        TOTAL FREE ENERGY PREDICTED BY IDOCK:   -8.13 KCAL/MOL
REMARK 923 INTER-LIGAND FREE ENERGY PREDICTED BY IDOCK:   -7.13 KCAL/MOL
REMARK 924 INTRA-LIGAND FREE ENERGY PREDICTED BY IDOCK:   -1.00 KCAL/MOL
REMARK 927      BINDING AFFINITY PREDICTED BY RF-SCORE:    0.00 PKD
ROOT
HETATM    1  C   UNK A   1      -8.131  13.030  67.933  1.00  0.00    -0.158 C  
HETATM    2  C   UNK A   1      -7.084  12.259  68.732  1.00  0.00    -0.107 C  
ENDROOT
BRANCH   1   3
HETATM    3  C   UNK A   1      -7.489  14.329  67.369  1.00  0.00    -0.149 C  
ATOM      4  CA  PRO A   2      -9.762  15.511  67.363  1.00  0.00    -0.218 C  
ATOM      5  N   PRO A   2      -8.333  15.374  67.021  1.00  0.00    -0.217 N  
ATOM      6  C   PRO A   2     -10.677  14.850  66.322  1.00  0.00    -0.320 C  
HETATM    7  O   UNK A   1      -6.268  14.410  67.206  1.00  0.00    -0.301 OA 
ATOM      8  CB  PRO A   2     -10.020  17.024  67.390  1.00  0.00    -0.278 C  
ATOM      9  O   PRO A   2     -10.014  14.298  65.279  1.00  0.00    -0.351 OA 
ATOM     10  CD  PRO A   2      -7.806  16.647  66.556  1.00  0.00    -0.307 C  
ATOM     11  OXT PRO A   2     -11.894  14.821  66.416  1.00  0.00    -0.330 OA 
ATOM     12  CG  PRO A   2      -8.640  17.671  67.300  1.00  0.00    -0.238 C  
ENDBRANCH   1   3
BRANCH   1  13
HETATM   13  N   UNK A   1      -8.659  12.254  66.784  1.00  0.00    -0.301 NA 
HETATM   14  H   UNK A   1      -7.900  12.015  66.146  1.00  0.00     0.000 HD 
BRANCH  13  15
HETATM   15  C   UNK A   1      -9.436  11.023  67.141  1.00  0.00    -0.164 C  
HETATM   16  O   UNK A   1      -9.525   8.826  66.028  1.00  0.00    -0.227 OA 
HETATM   17  O   UNK A   1      -8.697  10.587  64.877  1.00  0.00    -0.176 OA 
HETATM   18  C   UNK A   1      -9.241  10.012  65.982  1.00  0.00    -0.162 C  
BRANCH  15  19
HETATM   19  C   UNK A   1     -10.943  11.282  67.370  1.00  0.00    -0.337 C  
BRANCH  19  20
HETATM   20  C   UNK A   1     -11.244  11.941  68.727  1.00  0.00    -0.314 C  
BRANCH  20  21
HETATM   21  C   UNK A   1     -11.544  10.960  69.836  1.00  0.00    -0.410 A  
HETATM   22  C   UNK A   1     -12.026   9.194  71.968  1.00  0.00    -0.421 A  
HETATM   23  C   UNK A   1     -10.587  10.007  70.205  1.00  0.00    -0.350 A  
HETATM   24  C   UNK A   1     -10.825   9.129  71.266  1.00  0.00    -0.402 A  
HETATM   25  C   UNK A   1     -12.989  10.133  71.608  1.00  0.00    -0.561 A  
HETATM   26  C   UNK A   1     -12.754  11.015  70.550  1.00  0.00    -0.331 A  
ENDBRANCH  20  21
ENDBRANCH  19  20
ENDBRANCH  15  19
ENDBRANCH  13  15
ENDBRANCH   1  13
TORSDOF 6
ENDMDL
MODEL       92
REMARK 921   NORMALIZED FREE ENERGY PREDICTED BY IDOCK:   -4.75 KCAL/MOL
REMARK 922        TOTAL FREE ENERGY PREDICTED BY IDOCK:   -8.13 KCAL/MOL
REMARK 923 INTER-LIGAND FREE ENERGY PREDICTED BY IDOCK:   -7.07 KCAL/MOL
REMARK 924 INTRA-LIGAND FREE ENERGY PREDICTED BY IDOCK:   -1.06 KCAL/MOL
REMARK 927      BINDING AFFINITY PREDICTED BY RF-SCORE:    0.00 PKD
ROOT
HETATM    1  C   UNK A   1      -9.883   9.199  69.645  1.00  0.00    -0.180 C  
HETATM    2  C   UNK A   1      -8.898  10.340  69.409  1.00  0.00    -0.177 C  
ENDROOT
BRANCH   1   3
HETATM    3  C   UNK A   1      -9.186   8.085  70.476  1.00  0.00    -0.154 C  
ATOM      4  CA  PRO A   2      -9.196   6.504  68.460  1.00  0.00    -0.125 C  
ATOM      5  N   PRO A   2      -9.023   6.840  69.887  1.00  0.00    -0.144 N  
ATOM      6  C   PRO A   2     -10.644   6.118  68.123  1.00  0.00    -0.264 C  
HETATM    7  O   UNK A   1      -8.822   8.298  71.636  1.00  0.00    -0.140 OA 
ATOM      8  CB  PRO A   2      -8.272   5.302  68.221  1.00  0.00    -0.094 C  
ATOM      9  O   PRO A   2     -11.476   6.125  69.189  1.00  0.00    -0.379 OA 
ATOM     10  CD  PRO A   2      -8.316   5.768  70.571  1.00  0.00    -0.119 C  
ATOM     11  OXT PRO A   2     -11.019   5.826  66.998  1.00  0.00    -0.274 OA 
ATOM     12  CG  PRO A   2      -7.432   5.179  69.489  1.00  0.00    -0.057 C  
ENDBRANCH   1   3
BRANCH   1  13
HETATM   13  N   UNK A   1     -11.089   9.631  70.395  1.00  0.00    -0.268 NA 
HETATM   14  H   UNK A   1     -10.937   9.516  71.397  1.00  0.00     0.000 HD 
BRANCH  13  15
HETATM   15  C   UNK A   1     -11.564  11.023  70.104  1.00  0.00    -0.334 C  
HETATM   16  O   UNK A   1     -13.008  12.516  71.430  1.00  0.00    -0.358 OA 
HETATM   17  O   UNK A   1     -12.990  10.309  71.925  1.00  0.00    -0.427 OA 
HETATM   18  C   UNK A   1     -12.591  11.390  71.205  1.00  0.00    -0.386 C  
BRANCH  15  19
HETATM   19  C   UNK A   1     -12.205  11.182  68.706  1.00  0.00    -0.080 C  
BRANCH  19  20
HETATM   20  C   UNK A   1     -11.695  12.417  67.943  1.00  0.00    -0.421 C  
BRANCH  20  21
HETATM   21  C   UNK A   1     -11.497  12.190  66.463  1.00  0.00    -0.430 A  
HETATM   22  C   UNK A   1     -11.173  11.654  63.723  1.00  0.00    -0.498 A  
HETATM   23  C   UNK A   1     -10.471  11.349  66.016  1.00  0.00    -0.305 A  
HETATM   24  C   UNK A   1     -10.309  11.080  64.654  1.00  0.00    -0.410 A  
HETATM   25  C   UNK A   1     -12.194  12.498  64.154  1.00  0.00    -0.552 A  
HETATM   26  C   UNK A   1     -12.361  12.766  65.515  1.00  0.00    -0.495 A  
ENDBRANCH  20  21
ENDBRANCH  19  20
ENDBRANCH  15  19
ENDBRANCH  13  15
ENDBRANCH   1  13
TORSDOF 6
ENDMDL
MODEL       93
REMARK 921   NORMALIZED FREE ENERGY PREDICTED BY IDOCK:   -4.72 KCAL/MOL
REMARK 922        TOTAL FREE ENERGY PREDICTED BY IDOCK:   -8.08 KCAL/MOL
REMARK 923 INTER-LIGAND FREE ENERGY PREDICTED BY IDOCK:   -6.87 KCAL/MOL
REMARK 924 INTRA-LIGAND FREE ENERGY PREDICTED BY IDOCK:   -1.22 KCAL/MOL
REMARK 927      BINDING AFFINITY PREDICTED BY RF-SCORE:    0.00 PKD
ROOT
HETATM    1  C   UNK A   1     -11.346  11.308  68.814  1.00  0.00    -0.270 C  
HETATM    2  C   UNK A   1     -12.212  11.022  70.037  1.00  0.00    -0.418 C  
ENDROOT
BRANCH   1   3
HETATM    3  C   UNK A   1     -11.740  12.689  68.219  1.00  0.00    -0.342 C  
ATOM      4  CA  PRO A   2     -11.439  11.805  65.833  1.00  0.00    -0.207 C  
ATOM      5  N   PRO A   2     -11.635  12.860  66.846  1.00  0.00    -0.348 N  
ATOM      6  C   PRO A   2      -9.954  11.501  65.587  1.00  0.00    -0.236 C  
HETATM    7  O   UNK A   1     -12.103  13.612  68.954  1.00  0.00    -0.347 OA 
ATOM      8  CB  PRO A   2     -12.071  12.364  64.552  1.00  0.00    -0.492 C  
ATOM      9  O   PRO A   2      -9.109  12.270  66.311  1.00  0.00    -0.206 OA 
ATOM     10  CD  PRO A   2     -12.054  14.097  66.205  1.00  0.00    -0.442 C  
ATOM     11  OXT PRO A   2      -9.561  10.647  64.808  1.00  0.00    -0.230 OA 
ATOM     12  CG  PRO A   2     -12.817  13.624  64.984  1.00  0.00    -0.325 C  
ENDBRANCH   1   3
BRANCH   1  13
HETATM   13  N   UNK A   1      -9.898  11.355  69.137  1.00  0.00    -0.415 NA 
HETATM   14  H   UNK A   1      -9.730  12.027  69.887  1.00  0.00     0.000 HD 
BRANCH  13  15
HETATM   15  C   UNK A   1      -9.271  10.037  69.479  1.00  0.00    -0.221 C  
HETATM   16  O   UNK A   1      -6.940   9.494  70.067  1.00  0.00    -0.059 OA 
HETATM   17  O   UNK A   1      -7.369  11.477  69.067  1.00  0.00    -0.115 OA 
HETATM   18  C   UNK A   1      -7.743  10.275  69.579  1.00  0.00    -0.165 C  
BRANCH  15  19
HETATM   19  C   UNK A   1      -9.568   8.922  68.449  1.00  0.00    -0.157 C  
BRANCH  19  20
HETATM   20  C   UNK A   1     -10.506   7.831  68.992  1.00  0.00    -0.215 C  
BRANCH  20  21
HETATM   21  C   UNK A   1     -10.462   7.671  70.493  1.00  0.00    -0.221 A  
HETATM   22  C   UNK A   1     -10.453   7.277  73.276  1.00  0.00    -0.416 A  
HETATM   23  C   UNK A   1     -11.591   7.979  71.262  1.00  0.00    -0.306 A  
HETATM   24  C   UNK A   1     -11.588   7.782  72.646  1.00  0.00    -0.398 A  
HETATM   25  C   UNK A   1      -9.321   6.972  72.523  1.00  0.00    -0.157 A  
HETATM   26  C   UNK A   1      -9.321   7.164  71.139  1.00  0.00    -0.157 A  
ENDBRANCH  20  21
ENDBRANCH  19  20
ENDBRANCH  15  19
ENDBRANCH  13  15
ENDBRANCH   1  13
TORSDOF 6
ENDMDL
MODEL       94
REMARK 921   NORMALIZED FREE ENERGY PREDICTED BY IDOCK:   -4.71 KCAL/MOL
REMARK 922        TOTAL FREE ENERGY PREDICTED BY IDOCK:   -8.08 KCAL/MOL
REMARK 923 INTER-LIGAND FREE ENERGY PREDICTED BY IDOCK:   -6.92 KCAL/MOL
REMARK 924 INTRA-LIGAND FREE ENERGY PREDICTED BY IDOCK:   -1.17 KCAL/MOL
REMARK 927      BINDING AFFINITY PREDICTED BY RF-SCORE:    0.00 PKD
ROOT
HETATM    1  C   UNK A   1      -8.530  12.702  67.247  1.00  0.00    -0.193 C  
HETATM    2  C   UNK A   1      -7.037  13.013  67.300  1.00  0.00    -0.055 C  
ENDROOT
BRANCH   1   3
HETATM    3  C   UNK A   1      -9.326  14.032  67.127  1.00  0.00    -0.242 C  
ATOM      4  CA  PRO A   2     -11.131  13.154  68.719  1.00  0.00    -0.269 C  
ATOM      5  N   PRO A   2     -10.569  14.103  67.738  1.00  0.00    -0.241 N  
ATOM      6  C   PRO A   2     -11.885  11.997  68.046  1.00  0.00    -0.269 C  
HETATM    7  O   UNK A   1      -8.875  14.981  66.478  1.00  0.00    -0.273 OA 
ATOM      8  CB  PRO A   2     -12.108  13.986  69.560  1.00  0.00    -0.397 C  
ATOM      9  O   PRO A   2     -11.922  12.078  66.696  1.00  0.00    -0.614 OA 
ATOM     10  CD  PRO A   2     -11.343  15.335  67.735  1.00  0.00    -0.326 C  
ATOM     11  OXT PRO A   2     -12.408  11.084  68.665  1.00  0.00    -0.539 OA 
ATOM     12  CG  PRO A   2     -11.856  15.436  69.157  1.00  0.00    -0.357 C  
ENDBRANCH   1   3
BRANCH   1  13
HETATM   13  N   UNK A   1      -8.895  11.854  66.085  1.00  0.00    -0.373 NA 
HETATM   14  H   UNK A   1      -8.540  12.270  65.224  1.00  0.00     0.000 HD 
BRANCH  13  15
HETATM   15  C   UNK A   1      -8.470  10.419  66.176  1.00  0.00    -0.147 C  
HETATM   16  O   UNK A   1      -8.661   8.601  64.524  1.00  0.00    -0.159 OA 
HETATM   17  O   UNK A   1      -9.923  10.455  64.240  1.00  0.00    -0.335 OA 
HETATM   18  C   UNK A   1      -9.008   9.706  64.909  1.00  0.00    -0.217 C  
BRANCH  15  19
HETATM   19  C   UNK A   1      -8.978   9.699  67.446  1.00  0.00    -0.141 C  
BRANCH  19  20
HETATM   20  C   UNK A   1     -10.188   8.787  67.181  1.00  0.00    -0.346 C  
BRANCH  20  21
HETATM   21  C   UNK A   1     -10.316   7.635  68.151  1.00  0.00    -0.250 A  
HETATM   22  C   UNK A   1     -10.670   5.526  69.974  1.00  0.00    -0.356 A  
HETATM   23  C   UNK A   1     -10.408   7.887  69.525  1.00  0.00    -0.217 A  
HETATM   24  C   UNK A   1     -10.585   6.839  70.433  1.00  0.00    -0.262 A  
HETATM   25  C   UNK A   1     -10.574   5.262  68.610  1.00  0.00    -0.096 A  
HETATM   26  C   UNK A   1     -10.401   6.307  67.699  1.00  0.00    -0.243 A  
ENDBRANCH  20  21
ENDBRANCH  19  20
ENDBRANCH  15  19
ENDBRANCH  13  15
ENDBRANCH   1  13
TORSDOF 6
ENDMDL
MODEL       95
REMARK 921   NORMALIZED FREE ENERGY PREDICTED BY IDOCK:   -4.71 KCAL/MOL
REMARK 922        TOTAL FREE ENERGY PREDICTED BY IDOCK:   -8.08 KCAL/MOL
REMARK 923 INTER-LIGAND FREE ENERGY PREDICTED BY IDOCK:   -7.30 KCAL/MOL
REMARK 924 INTRA-LIGAND FREE ENERGY PREDICTED BY IDOCK:   -0.78 KCAL/MOL
REMARK 927      BINDING AFFINITY PREDICTED BY RF-SCORE:    0.00 PKD
ROOT
HETATM    1  C   UNK A   1      -8.478  12.436  67.024  1.00  0.00    -0.170 C  
HETATM    2  C   UNK A   1      -7.021  12.832  67.249  1.00  0.00    -0.087 C  
ENDROOT
BRANCH   1   3
HETATM    3  C   UNK A   1      -8.734  11.043  67.662  1.00  0.00    -0.128 C  
ATOM      4  CA  PRO A   2      -8.523   9.900  65.379  1.00  0.00    -0.147 C  
ATOM      5  N   PRO A   2      -8.861   9.952  66.815  1.00  0.00    -0.134 N  
ATOM      6  C   PRO A   2      -9.700  10.324  64.487  1.00  0.00    -0.329 C  
HETATM    7  O   UNK A   1      -8.854  10.921  68.885  1.00  0.00    -0.163 OA 
ATOM      8  CB  PRO A   2      -8.172   8.431  65.107  1.00  0.00    -0.158 C  
ATOM      9  O   PRO A   2     -10.825  10.631  65.172  1.00  0.00    -0.110 OA 
ATOM     10  CD  PRO A   2      -9.029   8.604  67.338  1.00  0.00    -0.133 C  
ATOM     11  OXT PRO A   2      -9.636  10.379  63.269  1.00  0.00    -0.302 OA 
ATOM     12  CG  PRO A   2      -8.095   7.772  66.482  1.00  0.00    -0.111 C  
ENDBRANCH   1   3
BRANCH   1  13
HETATM   13  N   UNK A   1      -9.431  13.394  67.637  1.00  0.00    -0.209 NA 
HETATM   14  H   UNK A   1      -9.086  14.348  67.529  1.00  0.00     0.000 HD 
BRANCH  13  15
HETATM   15  C   UNK A   1     -10.844  13.301  67.145  1.00  0.00    -0.258 C  
HETATM   16  O   UNK A   1     -11.838  14.062  65.022  1.00  0.00    -0.344 OA 
HETATM   17  O   UNK A   1      -9.823  14.890  65.630  1.00  0.00    -0.328 OA 
HETATM   18  C   UNK A   1     -10.918  14.108  65.824  1.00  0.00    -0.301 C  
BRANCH  15  19
HETATM   19  C   UNK A   1     -11.890  13.833  68.151  1.00  0.00    -0.411 C  
BRANCH  19  20
HETATM   20  C   UNK A   1     -11.825  13.133  69.519  1.00  0.00    -0.383 C  
BRANCH  20  21
HETATM   21  C   UNK A   1     -12.272  13.997  70.676  1.00  0.00    -0.442 A  
HETATM   22  C   UNK A   1     -13.041  15.531  72.901  1.00  0.00    -0.610 A  
HETATM   23  C   UNK A   1     -13.214  13.508  71.589  1.00  0.00    -0.449 A  
HETATM   24  C   UNK A   1     -13.597  14.270  72.696  1.00  0.00    -0.601 A  
HETATM   25  C   UNK A   1     -12.107  16.031  71.997  1.00  0.00    -0.606 A  
HETATM   26  C   UNK A   1     -11.719  15.271  70.889  1.00  0.00    -0.386 A  
ENDBRANCH  20  21
ENDBRANCH  19  20
ENDBRANCH  15  19
ENDBRANCH  13  15
ENDBRANCH   1  13
TORSDOF 6
ENDMDL
MODEL       96
REMARK 921   NORMALIZED FREE ENERGY PREDICTED BY IDOCK:   -4.66 KCAL/MOL
REMARK 922        TOTAL FREE ENERGY PREDICTED BY IDOCK:   -8.01 KCAL/MOL
REMARK 923 INTER-LIGAND FREE ENERGY PREDICTED BY IDOCK:   -7.08 KCAL/MOL
REMARK 924 INTRA-LIGAND FREE ENERGY PREDICTED BY IDOCK:   -0.93 KCAL/MOL
REMARK 927      BINDING AFFINITY PREDICTED BY RF-SCORE:    0.00 PKD
ROOT
HETATM    1  C   UNK A   1     -11.182  11.815  67.523  1.00  0.00    -0.291 C  
HETATM    2  C   UNK A   1     -12.119  11.600  68.708  1.00  0.00    -0.221 C  
ENDROOT
BRANCH   1   3
HETATM    3  C   UNK A   1     -10.414  10.495  67.232  1.00  0.00    -0.250 C  
ATOM      4  CA  PRO A   2      -8.526  11.181  68.821  1.00  0.00    -0.134 C  
ATOM      5  N   PRO A   2      -9.147  10.346  67.775  1.00  0.00    -0.131 N  
ATOM      6  C   PRO A   2      -7.784  12.393  68.237  1.00  0.00    -0.140 C  
HETATM    7  O   UNK A   1     -10.909   9.623  66.510  1.00  0.00    -0.038 OA 
ATOM      8  CB  PRO A   2      -7.527  10.255  69.528  1.00  0.00    -0.142 C  
ATOM      9  O   PRO A   2      -7.808  12.451  66.886  1.00  0.00    -0.121 OA 
ATOM     10  CD  PRO A   2      -8.394   9.111  67.610  1.00  0.00    -0.116 C  
ATOM     11  OXT PRO A   2      -7.218  13.230  68.922  1.00  0.00    -0.102 OA 
ATOM     12  CG  PRO A   2      -7.821   8.857  68.989  1.00  0.00    -0.091 C  
ENDBRANCH   1   3
BRANCH   1  13
HETATM   13  N   UNK A   1     -11.905  12.197  66.285  1.00  0.00    -0.594 NA 
HETATM   14  H   UNK A   1     -12.756  11.643  66.193  1.00  0.00     0.000 HD 
BRANCH  13  15
HETATM   15  C   UNK A   1     -12.224  13.656  66.150  1.00  0.00    -0.444 C  
HETATM   16  O   UNK A   1     -12.742  14.986  64.141  1.00  0.00    -0.729 OA 
HETATM   17  O   UNK A   1     -11.759  12.967  63.876  1.00  0.00    -0.392 OA 
HETATM   18  C   UNK A   1     -12.280  13.968  64.633  1.00  0.00    -0.435 C  
BRANCH  15  19
HETATM   19  C   UNK A   1     -11.202  14.583  66.846  1.00  0.00    -0.340 C  
BRANCH  19  20
HETATM   20  C   UNK A   1      -9.970  14.886  65.976  1.00  0.00    -0.337 C  
BRANCH  20  21
HETATM   21  C   UNK A   1      -9.431  16.288  66.137  1.00  0.00    -0.373 A  
HETATM   22  C   UNK A   1      -8.467  18.895  66.551  1.00  0.00    -0.310 A  
HETATM   23  C   UNK A   1     -10.314  17.370  66.229  1.00  0.00    -0.330 A  
HETATM   24  C   UNK A   1      -9.837  18.667  66.436  1.00  0.00    -0.390 A  
HETATM   25  C   UNK A   1      -7.577  17.829  66.455  1.00  0.00    -0.291 A  
HETATM   26  C   UNK A   1      -8.051  16.530  66.252  1.00  0.00    -0.341 A  
ENDBRANCH  20  21
ENDBRANCH  19  20
ENDBRANCH  15  19
ENDBRANCH  13  15
ENDBRANCH   1  13
TORSDOF 6
ENDMDL
MODEL       97
REMARK 921   NORMALIZED FREE ENERGY PREDICTED BY IDOCK:   -4.66 KCAL/MOL
REMARK 922        TOTAL FREE ENERGY PREDICTED BY IDOCK:   -8.01 KCAL/MOL
REMARK 923 INTER-LIGAND FREE ENERGY PREDICTED BY IDOCK:   -6.90 KCAL/MOL
REMARK 924 INTRA-LIGAND FREE ENERGY PREDICTED BY IDOCK:   -1.11 KCAL/MOL
REMARK 927      BINDING AFFINITY PREDICTED BY RF-SCORE:    0.00 PKD
ROOT
HETATM    1  C   UNK A   1     -10.301   7.152  72.796  1.00  0.00    -0.227 C  
HETATM    2  C   UNK A   1      -9.212   7.629  73.753  1.00  0.00    -0.333 C  
ENDROOT
BRANCH   1   3
HETATM    3  C   UNK A   1     -10.305   5.598  72.760  1.00  0.00    -0.193 C  
ATOM      4  CA  PRO A   2      -9.149   5.597  70.473  1.00  0.00    -0.145 C  
ATOM      5  N   PRO A   2      -9.869   4.973  71.600  1.00  0.00    -0.173 N  
ATOM      6  C   PRO A   2     -10.104   6.177  69.419  1.00  0.00    -0.184 C  
HETATM    7  O   UNK A   1     -10.717   4.946  73.724  1.00  0.00    -0.253 OA 
ATOM      8  CB  PRO A   2      -8.324   4.461  69.853  1.00  0.00    -0.075 C  
ATOM      9  O   PRO A   2     -11.413   5.982  69.699  1.00  0.00    -0.394 OA 
ATOM     10  CD  PRO A   2      -9.774   3.524  71.514  1.00  0.00    -0.167 C  
ATOM     11  OXT PRO A   2      -9.726   6.760  68.416  1.00  0.00    -0.128 OA 
ATOM     12  CG  PRO A   2      -8.440   3.296  70.832  1.00  0.00    -0.100 C  
ENDBRANCH   1   3
BRANCH   1  13
HETATM   13  N   UNK A   1     -11.656   7.596  73.205  1.00  0.00    -0.629 NA 
HETATM   14  H   UNK A   1     -11.663   7.822  74.200  1.00  0.00     0.000 HD 
BRANCH  13  15
HETATM   15  C   UNK A   1     -12.227   8.736  72.415  1.00  0.00    -0.326 C  
HETATM   16  O   UNK A   1     -14.401   8.941  71.273  1.00  0.00    -0.276 OA 
HETATM   17  O   UNK A   1     -13.679   6.880  71.860  1.00  0.00    -0.269 OA 
HETATM   18  C   UNK A   1     -13.549   8.230  71.783  1.00  0.00    -0.361 C  
BRANCH  15  19
HETATM   19  C   UNK A   1     -11.280   9.265  71.313  1.00  0.00    -0.425 C  
BRANCH  19  20
HETATM   20  C   UNK A   1     -11.667  10.664  70.804  1.00  0.00    -0.435 C  
BRANCH  20  21
HETATM   21  C   UNK A   1     -11.238  10.942  69.382  1.00  0.00    -0.335 A  
HETATM   22  C   UNK A   1     -10.491  11.355  66.705  1.00  0.00    -0.285 A  
HETATM   23  C   UNK A   1     -10.192  10.208  68.811  1.00  0.00    -0.200 A  
HETATM   24  C   UNK A   1      -9.820  10.411  67.479  1.00  0.00    -0.202 A  
HETATM   25  C   UNK A   1     -11.530  12.096  67.262  1.00  0.00    -0.413 A  
HETATM   26  C   UNK A   1     -11.907  11.893  68.593  1.00  0.00    -0.365 A  
ENDBRANCH  20  21
ENDBRANCH  19  20
ENDBRANCH  15  19
ENDBRANCH  13  15
ENDBRANCH   1  13
TORSDOF 6
ENDMDL
MODEL       98
REMARK 921   NORMALIZED FREE ENERGY PREDICTED BY IDOCK:   -4.65 KCAL/MOL
REMARK 922        TOTAL FREE ENERGY PREDICTED BY IDOCK:   -8.00 KCAL/MOL
REMARK 923 INTER-LIGAND FREE ENERGY PREDICTED BY IDOCK:   -7.21 KCAL/MOL
REMARK 924 INTRA-LIGAND FREE ENERGY PREDICTED BY IDOCK:   -0.79 KCAL/MOL
REMARK 927      BINDING AFFINITY PREDICTED BY RF-SCORE:    0.00 PKD
ROOT
HETATM    1  C   UNK A   1     -10.357   7.669  67.942  1.00  0.00    -0.212 C  
HETATM    2  C   UNK A   1     -10.982   6.616  67.032  1.00  0.00    -0.463 C  
ENDROOT
BRANCH   1   3
HETATM    3  C   UNK A   1     -10.294   9.026  67.186  1.00  0.00    -0.272 C  
ATOM      4  CA  PRO A   2      -8.508   8.114  65.592  1.00  0.00    -0.156 C  
ATOM      5  N   PRO A   2      -9.329   9.178  66.202  1.00  0.00    -0.208 N  
ATOM      6  C   PRO A   2      -7.211   7.856  66.373  1.00  0.00    -0.082 C  
HETATM    7  O   UNK A   1     -11.060   9.948  67.481  1.00  0.00    -0.257 OA 
ATOM      8  CB  PRO A   2      -8.170   8.630  64.187  1.00  0.00    -0.156 C  
ATOM      9  O   PRO A   2      -7.047   8.665  67.446  1.00  0.00    -0.077 OA 
ATOM     10  CD  PRO A   2      -9.252  10.390  65.400  1.00  0.00    -0.193 C  
ATOM     11  OXT PRO A   2      -6.395   7.003  66.062  1.00  0.00    -0.044 OA 
ATOM     12  CG  PRO A   2      -9.037   9.871  63.992  1.00  0.00    -0.300 C  
ENDBRANCH   1   3
BRANCH   1  13
HETATM   13  N   UNK A   1     -11.135   7.883  69.187  1.00  0.00    -0.424 NA 
HETATM   14  H   UNK A   1     -11.811   7.128  69.311  1.00  0.00     0.000 HD 
BRANCH  13  15
HETATM   15  C   UNK A   1     -10.321   8.054  70.434  1.00  0.00    -0.206 C  
HETATM   16  O   UNK A   1      -9.675   6.401  72.144  1.00  0.00    -0.154 OA 
HETATM   17  O   UNK A   1     -11.368   5.891  70.735  1.00  0.00    -0.267 OA 
HETATM   18  C   UNK A   1     -10.397   6.714  71.211  1.00  0.00    -0.205 C  
BRANCH  15  19
HETATM   19  C   UNK A   1     -10.798   9.217  71.334  1.00  0.00    -0.419 C  
BRANCH  19  20
HETATM   20  C   UNK A   1     -12.252   9.637  71.059  1.00  0.00    -0.409 C  
BRANCH  20  21
HETATM   21  C   UNK A   1     -12.490  11.127  71.148  1.00  0.00    -0.498 A  
HETATM   22  C   UNK A   1     -12.996  13.890  71.211  1.00  0.00    -0.414 A  
HETATM   23  C   UNK A   1     -11.841  11.992  70.260  1.00  0.00    -0.356 A  
HETATM   24  C   UNK A   1     -12.093  13.367  70.289  1.00  0.00    -0.419 A  
HETATM   25  C   UNK A   1     -13.644  13.041  72.105  1.00  0.00    -0.618 A  
HETATM   26  C   UNK A   1     -13.398  11.666  72.076  1.00  0.00    -0.405 A  
ENDBRANCH  20  21
ENDBRANCH  19  20
ENDBRANCH  15  19
ENDBRANCH  13  15
ENDBRANCH   1  13
TORSDOF 6
ENDMDL
MODEL       99
REMARK 921   NORMALIZED FREE ENERGY PREDICTED BY IDOCK:   -4.64 KCAL/MOL
REMARK 922        TOTAL FREE ENERGY PREDICTED BY IDOCK:   -7.98 KCAL/MOL
REMARK 923 INTER-LIGAND FREE ENERGY PREDICTED BY IDOCK:   -7.19 KCAL/MOL
REMARK 924 INTRA-LIGAND FREE ENERGY PREDICTED BY IDOCK:   -0.79 KCAL/MOL
REMARK 927      BINDING AFFINITY PREDICTED BY RF-SCORE:    0.00 PKD
ROOT
HETATM    1  C   UNK A   1     -10.647  15.183  68.391  1.00  0.00    -0.238 C  
HETATM    2  C   UNK A   1     -11.745  15.680  69.328  1.00  0.00    -0.388 C  
ENDROOT
BRANCH   1   3
HETATM    3  C   UNK A   1      -9.480  16.210  68.382  1.00  0.00    -0.210 C  
ATOM      4  CA  PRO A   2     -10.596  17.540  66.499  1.00  0.00    -0.191 C  
ATOM      5  N   PRO A   2      -9.480  17.186  67.397  1.00  0.00    -0.244 N  
ATOM      6  C   PRO A   2     -10.601  16.698  65.214  1.00  0.00    -0.205 C  
HETATM    7  O   UNK A   1      -8.565  16.132  69.208  1.00  0.00    -0.250 OA 
ATOM      8  CB  PRO A   2     -10.368  19.017  66.147  1.00  0.00    -0.537 C  
ATOM      9  O   PRO A   2      -9.575  15.820  65.129  1.00  0.00    -0.275 OA 
ATOM     10  CD  PRO A   2      -8.463  18.226  67.365  1.00  0.00    -0.249 C  
ATOM     11  OXT PRO A   2     -11.448  16.805  64.342  1.00  0.00    -1.024 OA 
ATOM     12  CG  PRO A   2      -9.253  19.487  67.077  1.00  0.00    -0.404 C  
ENDBRANCH   1   3
BRANCH   1  13
HETATM   13  N   UNK A   1     -10.090  13.873  68.808  1.00  0.00    -0.348 NA 
HETATM   14  H   UNK A   1     -10.308  13.696  69.789  1.00  0.00     0.000 HD 
BRANCH  13  15
HETATM   15  C   UNK A   1     -10.506  12.700  67.971  1.00  0.00    -0.224 C  
HETATM   16  O   UNK A   1     -12.345  11.093  68.296  1.00  0.00    -0.532 OA 
HETATM   17  O   UNK A   1     -11.689  12.354  70.054  1.00  0.00    -0.301 OA 
HETATM   18  C   UNK A   1     -11.609  11.950  68.760  1.00  0.00    -0.309 C  
BRANCH  15  19
HETATM   19  C   UNK A   1      -9.347  11.735  67.631  1.00  0.00    -0.180 C  
BRANCH  19  20
HETATM   20  C   UNK A   1      -8.573  11.259  68.872  1.00  0.00    -0.056 C  
BRANCH  20  21
HETATM   21  C   UNK A   1      -8.782   9.801  69.207  1.00  0.00    -0.165 A  
HETATM   22  C   UNK A   1      -9.058   7.084  69.871  1.00  0.00    -0.141 A  
HETATM   23  C   UNK A   1      -8.149   8.811  68.446  1.00  0.00    -0.117 A  
HETATM   24  C   UNK A   1      -8.284   7.460  68.776  1.00  0.00    -0.129 A  
HETATM   25  C   UNK A   1      -9.699   8.058  70.633  1.00  0.00    -0.180 A  
HETATM   26  C   UNK A   1      -9.563   9.411  70.308  1.00  0.00    -0.294 A  
ENDBRANCH  20  21
ENDBRANCH  19  20
ENDBRANCH  15  19
ENDBRANCH  13  15
ENDBRANCH   1  13
TORSDOF 6
ENDMDL
MODEL      100
REMARK 921   NORMALIZED FREE ENERGY PREDICTED BY IDOCK:   -4.62 KCAL/MOL
REMARK 922        TOTAL FREE ENERGY PREDICTED BY IDOCK:   -7.95 KCAL/MOL
REMARK 923 INTER-LIGAND FREE ENERGY PREDICTED BY IDOCK:   -6.61 KCAL/MOL
REMARK 924 INTRA-LIGAND FREE ENERGY PREDICTED BY IDOCK:   -1.34 KCAL/MOL
REMARK 927      BINDING AFFINITY PREDICTED BY RF-SCORE:    0.00 PKD
ROOT
HETATM    1  C   UNK A   1     -10.270  10.374  65.565  1.00  0.00    -0.246 C  
HETATM    2  C   UNK A   1     -10.707  11.150  64.325  1.00  0.00    -0.403 C  
ENDROOT
BRANCH   1   3
HETATM    3  C   UNK A   1      -8.919   9.662  65.273  1.00  0.00    -0.204 C  
ATOM      4  CA  PRO A   2      -9.743   7.520  66.411  1.00  0.00    -0.110 C  
ATOM      5  N   PRO A   2      -8.722   8.397  65.807  1.00  0.00    -0.162 N  
ATOM      6  C   PRO A   2      -9.919   7.777  67.915  1.00  0.00    -0.172 C  
HETATM    7  O   UNK A   1      -8.039  10.225  64.614  1.00  0.00    -0.161 OA 
ATOM      8  CB  PRO A   2      -9.222   6.094  66.188  1.00  0.00    -0.150 C  
ATOM      9  O   PRO A   2      -9.091   8.727  68.409  1.00  0.00    -0.140 OA 
ATOM     10  CD  PRO A   2      -7.516   7.636  65.519  1.00  0.00    -0.077 C  
ATOM     11  OXT PRO A   2     -10.727   7.182  68.610  1.00  0.00    -0.210 OA 
ATOM     12  CG  PRO A   2      -8.035   6.240  65.240  1.00  0.00    -0.117 C  
ENDBRANCH   1   3
BRANCH   1  13
HETATM   13  N   UNK A   1     -10.071  11.249  66.746  1.00  0.00    -0.213 NA 
HETATM   14  H   UNK A   1      -9.211  11.789  66.640  1.00  0.00     0.000 HD 
BRANCH  13  15
HETATM   15  C   UNK A   1     -11.214  12.164  67.071  1.00  0.00    -0.314 C  
HETATM   16  O   UNK A   1     -11.323  14.626  67.077  1.00  0.00    -0.333 OA 
HETATM   17  O   UNK A   1      -9.291  13.634  67.095  1.00  0.00    -0.222 OA 
HETATM   18  C   UNK A   1     -10.649  13.607  67.084  1.00  0.00    -0.272 C  
BRANCH  15  19
HETATM   19  C   UNK A   1     -11.898  11.849  68.421  1.00  0.00    -0.352 C  
BRANCH  19  20
HETATM   20  C   UNK A   1     -10.941  11.230  69.454  1.00  0.00    -0.282 C  
BRANCH  20  21
HETATM   21  C   UNK A   1     -11.611  10.287  70.427  1.00  0.00    -0.411 A  
HETATM   22  C   UNK A   1     -12.816   8.602  72.326  1.00  0.00    -0.438 A  
HETATM   23  C   UNK A   1     -10.834   9.432  71.217  1.00  0.00    -0.431 A  
HETATM   24  C   UNK A   1     -11.432   8.594  72.163  1.00  0.00    -0.443 A  
HETATM   25  C   UNK A   1     -13.600   9.444  71.542  1.00  0.00    -0.408 A  
HETATM   26  C   UNK A   1     -13.006  10.286  70.597  1.00  0.00    -0.338 A  
ENDBRANCH  20  21
ENDBRANCH  19  20
ENDBRANCH  15  19
ENDBRANCH  13  15
ENDBRANCH   1  13
TORSDOF 6
ENDMDL
MODEL      101
REMARK 921   NORMALIZED FREE ENERGY PREDICTED BY IDOCK:   -4.61 KCAL/MOL
REMARK 922        TOTAL FREE ENERGY PREDICTED BY IDOCK:   -7.95 KCAL/MOL
REMARK 923 INTER-LIGAND FREE ENERGY PREDICTED BY IDOCK:   -6.73 KCAL/MOL
REMARK 924 INTRA-LIGAND FREE ENERGY PREDICTED BY IDOCK:   -1.22 KCAL/MOL
REMARK 927      BINDING AFFINITY PREDICTED BY RF-SCORE:    0.00 PKD
ROOT
HETATM    1  C   UNK A   1     -11.043  11.417  69.113  1.00  0.00    -0.258 C  
HETATM    2  C   UNK A   1     -11.603  10.346  68.182  1.00  0.00    -0.056 C  
ENDROOT
BRANCH   1   3
HETATM    3  C   UNK A   1     -11.494  12.817  68.612  1.00  0.00    -0.303 C  
ATOM      4  CA  PRO A   2      -9.982  12.625  66.552  1.00  0.00    -0.251 C  
ATOM      5  N   PRO A   2     -10.862  13.343  67.494  1.00  0.00    -0.260 N  
ATOM      6  C   PRO A   2      -8.512  12.644  66.997  1.00  0.00    -0.150 C  
HETATM    7  O   UNK A   1     -12.365  13.453  69.213  1.00  0.00    -0.233 OA 
ATOM      8  CB  PRO A   2     -10.129  13.374  65.222  1.00  0.00    -0.266 C  
ATOM      9  O   PRO A   2      -8.292  13.336  68.139  1.00  0.00    -0.147 OA 
ATOM     10  CD  PRO A   2     -11.276  14.614  66.920  1.00  0.00    -0.343 C  
ATOM     11  OXT PRO A   2      -7.614  12.090  66.382  1.00  0.00     0.107 OA 
ATOM     12  CG  PRO A   2     -11.290  14.343  65.429  1.00  0.00    -0.339 C  
ENDBRANCH   1   3
BRANCH   1  13
HETATM   13  N   UNK A   1     -11.519  11.265  70.510  1.00  0.00    -0.443 NA 
HETATM   14  H   UNK A   1     -12.297  11.900  70.685  1.00  0.00     0.000 HD 
BRANCH  13  15
HETATM   15  C   UNK A   1     -11.893   9.871  70.915  1.00  0.00    -0.356 C  
HETATM   16  O   UNK A   1     -13.822   9.061  72.217  1.00  0.00    -0.445 OA 
HETATM   17  O   UNK A   1     -13.304  11.260  72.307  1.00  0.00    -0.394 OA 
HETATM   18  C   UNK A   1     -13.104   9.988  71.875  1.00  0.00    -0.460 C  
BRANCH  15  19
HETATM   19  C   UNK A   1     -10.746   9.093  71.601  1.00  0.00    -0.441 C  
BRANCH  19  20
HETATM   20  C   UNK A   1     -10.724   7.599  71.234  1.00  0.00    -0.248 C  
BRANCH  20  21
HETATM   21  C   UNK A   1     -10.362   7.323  69.794  1.00  0.00    -0.227 A  
HETATM   22  C   UNK A   1      -9.602   6.737  67.152  1.00  0.00    -0.177 A  
HETATM   23  C   UNK A   1      -9.189   7.862  69.252  1.00  0.00    -0.148 A  
HETATM   24  C   UNK A   1      -8.809   7.570  67.939  1.00  0.00    -0.126 A  
HETATM   25  C   UNK A   1     -10.775   6.199  67.677  1.00  0.00    -0.388 A  
HETATM   26  C   UNK A   1     -11.156   6.486  68.991  1.00  0.00    -0.375 A  
ENDBRANCH  20  21
ENDBRANCH  19  20
ENDBRANCH  15  19
ENDBRANCH  13  15
ENDBRANCH   1  13
TORSDOF 6
ENDMDL
MODEL      102
REMARK 921   NORMALIZED FREE ENERGY PREDICTED BY IDOCK:   -4.61 KCAL/MOL
REMARK 922        TOTAL FREE ENERGY PREDICTED BY IDOCK:   -7.94 KCAL/MOL
REMARK 923 INTER-LIGAND FREE ENERGY PREDICTED BY IDOCK:   -6.62 KCAL/MOL
REMARK 924 INTRA-LIGAND FREE ENERGY PREDICTED BY IDOCK:   -1.33 KCAL/MOL
REMARK 927      BINDING AFFINITY PREDICTED BY RF-SCORE:    0.00 PKD
ROOT
HETATM    1  C   UNK A   1     -11.463  12.869  68.571  1.00  0.00    -0.310 C  
HETATM    2  C   UNK A   1     -11.733  11.790  67.526  1.00  0.00    -0.312 C  
ENDROOT
BRANCH   1   3
HETATM    3  C   UNK A   1     -12.056  12.420  69.935  1.00  0.00    -0.247 C  
ATOM      4  CA  PRO A   2     -12.766  14.823  70.475  1.00  0.00    -0.343 C  
ATOM      5  N   PRO A   2     -12.522  13.403  70.797  1.00  0.00    -0.358 N  
ATOM      6  C   PRO A   2     -11.514  15.690  70.675  1.00  0.00    -0.375 C  
HETATM    7  O   UNK A   1     -12.080  11.227  70.252  1.00  0.00    -0.320 OA 
ATOM      8  CB  PRO A   2     -13.864  15.267  71.450  1.00  0.00    -0.603 C  
ATOM      9  O   PRO A   2     -10.441  15.007  71.136  1.00  0.00     0.123 OA 
ATOM     10  CD  PRO A   2     -13.158  13.061  72.060  1.00  0.00    -0.379 C  
ATOM     11  OXT PRO A   2     -11.481  16.889  70.445  1.00  0.00     0.184 OA 
ATOM     12  CG  PRO A   2     -14.357  13.985  72.116  1.00  0.00    -0.577 C  
ENDBRANCH   1   3
BRANCH   1  13
HETATM   13  N   UNK A   1     -10.014  13.120  68.772  1.00  0.00    -0.426 NA 
HETATM   14  H   UNK A   1      -9.635  12.456  69.447  1.00  0.00     0.000 HD 
BRANCH  13  15
HETATM   15  C   UNK A   1      -9.181  13.116  67.525  1.00  0.00    -0.206 C  
HETATM   16  O   UNK A   1      -7.475  11.510  66.763  1.00  0.00    -0.144 OA 
HETATM   17  O   UNK A   1      -8.088  11.483  68.939  1.00  0.00    -0.123 OA 
HETATM   18  C   UNK A   1      -8.155  11.963  67.670  1.00  0.00    -0.148 C  
BRANCH  15  19
HETATM   19  C   UNK A   1      -8.445  14.451  67.265  1.00  0.00    -0.229 C  
BRANCH  19  20
HETATM   20  C   UNK A   1      -7.659  14.957  68.486  1.00  0.00    -0.121 C  
BRANCH  20  21
HETATM   21  C   UNK A   1      -7.668  16.460  68.645  1.00  0.00    -0.204 A  
HETATM   22  C   UNK A   1      -7.615  19.263  68.841  1.00  0.00    -0.384 A  
HETATM   23  C   UNK A   1      -6.505  17.126  69.051  1.00  0.00    -0.208 A  
HETATM   24  C   UNK A   1      -6.477  18.520  69.148  1.00  0.00    -0.277 A  
HETATM   25  C   UNK A   1      -8.780  18.612  68.442  1.00  0.00    -0.361 A  
HETATM   26  C   UNK A   1      -8.811  17.218  68.340  1.00  0.00    -0.269 A  
ENDBRANCH  20  21
ENDBRANCH  19  20
ENDBRANCH  15  19
ENDBRANCH  13  15
ENDBRANCH   1  13
TORSDOF 6
ENDMDL
MODEL      103
REMARK 921   NORMALIZED FREE ENERGY PREDICTED BY IDOCK:   -4.61 KCAL/MOL
REMARK 922        TOTAL FREE ENERGY PREDICTED BY IDOCK:   -7.94 KCAL/MOL
REMARK 923 INTER-LIGAND FREE ENERGY PREDICTED BY IDOCK:   -6.88 KCAL/MOL
REMARK 924 INTRA-LIGAND FREE ENERGY PREDICTED BY IDOCK:   -1.06 KCAL/MOL
REMARK 927      BINDING AFFINITY PREDICTED BY RF-SCORE:    0.00 PKD
ROOT
HETATM    1  C   UNK A   1     -11.506   8.733  70.975  1.00  0.00    -0.285 C  
HETATM    2  C   UNK A   1     -12.752   9.182  71.733  1.00  0.00    -0.446 C  
ENDROOT
BRANCH   1   3
HETATM    3  C   UNK A   1     -11.419   7.181  71.009  1.00  0.00    -0.297 C  
ATOM      4  CA  PRO A   2     -10.313   7.243  73.320  1.00  0.00    -0.342 C  
ATOM      5  N   PRO A   2     -10.744   6.591  72.068  1.00  0.00    -0.217 N  
ATOM      6  C   PRO A   2      -8.917   7.873  73.199  1.00  0.00    -0.243 C  
HETATM    7  O   UNK A   1     -11.907   6.501  70.102  1.00  0.00    -0.416 OA 
ATOM      8  CB  PRO A   2     -10.284   6.119  74.363  1.00  0.00    -0.332 C  
ATOM      9  O   PRO A   2      -8.333   7.687  71.993  1.00  0.00    -0.103 OA 
ATOM     10  CD  PRO A   2     -10.681   5.144  72.211  1.00  0.00    -0.203 C  
ATOM     11  OXT PRO A   2      -8.374   8.485  74.105  1.00  0.00    -0.301 OA 
ATOM     12  CG  PRO A   2     -10.946   4.921  73.686  1.00  0.00    -0.387 C  
ENDBRANCH   1   3
BRANCH   1  13
HETATM   13  N   UNK A   1     -11.522   9.151  69.551  1.00  0.00    -0.419 NA 
HETATM   14  H   UNK A   1     -12.345   9.723  69.364  1.00  0.00     0.000 HD 
BRANCH  13  15
HETATM   15  C   UNK A   1     -10.287   9.854  69.073  1.00  0.00    -0.209 C  
HETATM   16  O   UNK A   1      -9.968  12.195  68.371  1.00  0.00    -0.208 OA 
HETATM   17  O   UNK A   1     -12.073  11.375  68.472  1.00  0.00    -0.550 OA 
HETATM   18  C   UNK A   1     -10.725  11.265  68.601  1.00  0.00    -0.205 C  
BRANCH  15  19
HETATM   19  C   UNK A   1      -9.554   9.116  67.929  1.00  0.00    -0.168 C  
BRANCH  19  20
HETATM   20  C   UNK A   1     -10.456   8.126  67.172  1.00  0.00    -0.396 C  
BRANCH  20  21
HETATM   21  C   UNK A   1      -9.778   6.823  66.817  1.00  0.00    -0.222 A  
HETATM   22  C   UNK A   1      -8.569   4.406  66.048  1.00  0.00    -0.113 A  
HETATM   23  C   UNK A   1     -10.534   5.651  66.702  1.00  0.00    -0.340 A  
HETATM   24  C   UNK A   1      -9.935   4.448  66.318  1.00  0.00    -0.255 A  
HETATM   25  C   UNK A   1      -7.803   5.563  66.165  1.00  0.00    -0.100 A  
HETATM   26  C   UNK A   1      -8.400   6.769  66.545  1.00  0.00    -0.121 A  
ENDBRANCH  20  21
ENDBRANCH  19  20
ENDBRANCH  15  19
ENDBRANCH  13  15
ENDBRANCH   1  13
TORSDOF 6
ENDMDL
MODEL      104
REMARK 921   NORMALIZED FREE ENERGY PREDICTED BY IDOCK:   -4.60 KCAL/MOL
REMARK 922        TOTAL FREE ENERGY PREDICTED BY IDOCK:   -7.93 KCAL/MOL
REMARK 923 INTER-LIGAND FREE ENERGY PREDICTED BY IDOCK:   -6.66 KCAL/MOL
REMARK 924 INTRA-LIGAND FREE ENERGY PREDICTED BY IDOCK:   -1.27 KCAL/MOL
REMARK 927      BINDING AFFINITY PREDICTED BY RF-SCORE:    0.00 PKD
ROOT
HETATM    1  C   UNK A   1     -11.374  11.742  68.925  1.00  0.00    -0.267 C  
HETATM    2  C   UNK A   1     -12.127  11.696  70.252  1.00  0.00    -0.443 C  
ENDROOT
BRANCH   1   3
HETATM    3  C   UNK A   1     -11.600  13.127  68.257  1.00  0.00    -0.335 C  
ATOM      4  CA  PRO A   2     -11.729  12.045  65.938  1.00  0.00    -0.242 C  
ATOM      5  N   PRO A   2     -11.628  13.184  66.871  1.00  0.00    -0.348 N  
ATOM      6  C   PRO A   2     -10.354  11.470  65.567  1.00  0.00    -0.273 C  
HETATM    7  O   UNK A   1     -11.717  14.148  68.942  1.00  0.00    -0.292 OA 
ATOM      8  CB  PRO A   2     -12.405  12.617  64.685  1.00  0.00    -0.546 C  
ATOM      9  O   PRO A   2      -9.314  12.127  66.131  1.00  0.00    -0.231 OA 
ATOM     10  CD  PRO A   2     -11.908  14.429  66.171  1.00  0.00    -0.382 C  
ATOM     11  OXT PRO A   2     -10.202  10.509  64.829  1.00  0.00    -0.341 OA 
ATOM     12  CG  PRO A   2     -12.875  14.014  65.081  1.00  0.00    -0.368 C  
ENDBRANCH   1   3
BRANCH   1  13
HETATM   13  N   UNK A   1      -9.911  11.558  69.092  1.00  0.00    -0.416 NA 
HETATM   14  H   UNK A   1      -9.573  12.130  69.866  1.00  0.00     0.000 HD 
BRANCH  13  15
HETATM   15  C   UNK A   1      -9.457  10.139  69.265  1.00  0.00    -0.218 C  
HETATM   16  O   UNK A   1      -7.183   9.222  69.515  1.00  0.00    -0.057 OA 
HETATM   17  O   UNK A   1      -7.419  11.321  68.708  1.00  0.00    -0.108 OA 
HETATM   18  C   UNK A   1      -7.909  10.147  69.185  1.00  0.00    -0.120 C  
BRANCH  15  19
HETATM   19  C   UNK A   1     -10.037   9.168  68.211  1.00  0.00    -0.221 C  
BRANCH  19  20
HETATM   20  C   UNK A   1     -10.007   7.697  68.663  1.00  0.00    -0.181 C  
BRANCH  20  21
HETATM   21  C   UNK A   1      -9.715   6.717  67.551  1.00  0.00    -0.149 A  
HETATM   22  C   UNK A   1      -9.251   4.952  65.414  1.00  0.00    -0.157 A  
HETATM   23  C   UNK A   1     -10.673   5.761  67.193  1.00  0.00    -0.358 A  
HETATM   24  C   UNK A   1     -10.445   4.883  66.130  1.00  0.00    -0.346 A  
HETATM   25  C   UNK A   1      -8.287   5.894  65.764  1.00  0.00    -0.140 A  
HETATM   26  C   UNK A   1      -8.514   6.776  66.824  1.00  0.00    -0.117 A  
ENDBRANCH  20  21
ENDBRANCH  19  20
ENDBRANCH  15  19
ENDBRANCH  13  15
ENDBRANCH   1  13
TORSDOF 6
ENDMDL
MODEL      105
REMARK 921   NORMALIZED FREE ENERGY PREDICTED BY IDOCK:   -4.60 KCAL/MOL
REMARK 922        TOTAL FREE ENERGY PREDICTED BY IDOCK:   -7.92 KCAL/MOL
REMARK 923 INTER-LIGAND FREE ENERGY PREDICTED BY IDOCK:   -6.79 KCAL/MOL
REMARK 924 INTRA-LIGAND FREE ENERGY PREDICTED BY IDOCK:   -1.13 KCAL/MOL
REMARK 927      BINDING AFFINITY PREDICTED BY RF-SCORE:    0.00 PKD
ROOT
HETATM    1  C   UNK A   1     -11.565  11.472  70.755  1.00  0.00     0.330 C  
HETATM    2  C   UNK A   1     -12.642  12.537  70.940  1.00  0.00    -0.331 C  
ENDROOT
BRANCH   1   3
HETATM    3  C   UNK A   1     -12.235  10.072  70.690  1.00  0.00    -0.269 C  
ATOM      4  CA  PRO A   2     -10.199   8.988  71.805  1.00  0.00    -0.319 C  
ATOM      5  N   PRO A   2     -11.485   8.972  71.081  1.00  0.00    -0.287 N  
ATOM      6  C   PRO A   2      -8.995   9.069  70.855  1.00  0.00    -0.243 C  
HETATM    7  O   UNK A   1     -13.389   9.943  70.270  1.00  0.00     0.049 OA 
ATOM      8  CB  PRO A   2     -10.161   7.661  72.574  1.00  0.00    -0.298 C  
ATOM      9  O   PRO A   2      -9.330   9.078  69.544  1.00  0.00    -0.154 OA 
ATOM     10  CD  PRO A   2     -12.063   7.638  71.118  1.00  0.00    -0.298 C  
ATOM     11  OXT PRO A   2      -7.837   9.119  71.238  1.00  0.00    -0.276 OA 
ATOM     12  CG  PRO A   2     -11.561   7.070  72.431  1.00  0.00    -0.284 C  
ENDBRANCH   1   3
BRANCH   1  13
HETATM   13  N   UNK A   1     -10.788  11.657  69.504  1.00  0.00    -0.454 NA 
HETATM   14  H   UNK A   1     -10.744  10.779  68.987  1.00  0.00     0.000 HD 
BRANCH  13  15
HETATM   15  C   UNK A   1     -11.265  12.759  68.606  1.00  0.00    -0.282 C  
HETATM   16  O   UNK A   1     -12.164  12.660  66.314  1.00  0.00    -0.562 OA 
HETATM   17  O   UNK A   1     -11.029  10.872  67.108  1.00  0.00    -0.274 OA 
HETATM   18  C   UNK A   1     -11.545  12.124  67.220  1.00  0.00    -0.334 C  
BRANCH  15  19
HETATM   19  C   UNK A   1     -10.259  13.924  68.462  1.00  0.00    -0.240 C  
BRANCH  19  20
HETATM   20  C   UNK A   1     -10.736  15.223  69.135  1.00  0.00    -0.251 C  
BRANCH  20  21
HETATM   21  C   UNK A   1     -10.473  16.470  68.323  1.00  0.00    -0.313 A  
HETATM   22  C   UNK A   1     -10.103  18.801  66.798  1.00  0.00    -0.409 A  
HETATM   23  C   UNK A   1     -10.658  16.452  66.936  1.00  0.00    -0.252 A  
HETATM   24  C   UNK A   1     -10.476  17.611  66.176  1.00  0.00    -0.295 A  
HETATM   25  C   UNK A   1      -9.909  18.830  68.176  1.00  0.00    -0.396 A  
HETATM   26  C   UNK A   1     -10.094  17.674  68.940  1.00  0.00    -0.351 A  
ENDBRANCH  20  21
ENDBRANCH  19  20
ENDBRANCH  15  19
ENDBRANCH  13  15
ENDBRANCH   1  13
TORSDOF 6
ENDMDL
MODEL      106
REMARK 921   NORMALIZED FREE ENERGY PREDICTED BY IDOCK:   -4.55 KCAL/MOL
REMARK 922        TOTAL FREE ENERGY PREDICTED BY IDOCK:   -7.86 KCAL/MOL
REMARK 923 INTER-LIGAND FREE ENERGY PREDICTED BY IDOCK:   -6.90 KCAL/MOL
REMARK 924 INTRA-LIGAND FREE ENERGY PREDICTED BY IDOCK:   -0.95 KCAL/MOL
REMARK 927      BINDING AFFINITY PREDICTED BY RF-SCORE:    0.00 PKD
ROOT
HETATM    1  C   UNK A   1      -9.592   9.273  69.237  1.00  0.00    -0.161 C  
HETATM    2  C   UNK A   1      -8.423   9.548  70.180  1.00  0.00    -0.227 C  
ENDROOT
BRANCH   1   3
HETATM    3  C   UNK A   1     -10.867   8.979  70.076  1.00  0.00    -0.231 C  
ATOM      4  CA  PRO A   2     -10.261   6.494  70.224  1.00  0.00    -0.192 C  
ATOM      5  N   PRO A   2     -11.157   7.657  70.378  1.00  0.00    -0.261 N  
ATOM      6  C   PRO A   2     -10.360   5.862  68.827  1.00  0.00    -0.219 C  
HETATM    7  O   UNK A   1     -11.614   9.896  70.431  1.00  0.00    -0.262 OA 
ATOM      8  CB  PRO A   2     -10.733   5.487  71.281  1.00  0.00    -0.288 C  
ATOM      9  O   PRO A   2     -11.264   6.460  68.017  1.00  0.00    -0.311 OA 
ATOM     10  CD  PRO A   2     -12.291   7.305  71.219  1.00  0.00    -0.366 C  
ATOM     11  OXT PRO A   2      -9.691   4.905  68.471  1.00  0.00    -0.143 OA 
ATOM     12  CG  PRO A   2     -11.729   6.249  72.150  1.00  0.00    -0.368 C  
ENDBRANCH   1   3
BRANCH   1  13
HETATM   13  N   UNK A   1      -9.892  10.422  68.349  1.00  0.00    -0.157 NA 
HETATM   14  H   UNK A   1     -10.297  11.186  68.891  1.00  0.00     0.000 HD 
BRANCH  13  15
HETATM   15  C   UNK A   1      -8.739  10.926  67.534  1.00  0.00    -0.130 C  
HETATM   16  O   UNK A   1      -7.577  13.098  67.603  1.00  0.00    -0.142 OA 
HETATM   17  O   UNK A   1      -9.612  12.929  68.575  1.00  0.00    -0.198 OA 
HETATM   18  C   UNK A   1      -8.555  12.424  67.888  1.00  0.00    -0.171 C  
BRANCH  15  19
HETATM   19  C   UNK A   1      -8.935  10.761  66.009  1.00  0.00    -0.196 C  
BRANCH  19  20
HETATM   20  C   UNK A   1     -10.392  10.462  65.616  1.00  0.00    -0.260 C  
BRANCH  20  21
HETATM   21  C   UNK A   1     -11.159  11.670  65.131  1.00  0.00    -0.300 A  
HETATM   22  C   UNK A   1     -12.498  13.987  64.272  1.00  0.00    -0.303 A  
HETATM   23  C   UNK A   1     -11.762  12.532  66.056  1.00  0.00    -0.472 A  
HETATM   24  C   UNK A   1     -12.427  13.685  65.630  1.00  0.00    -0.540 A  
HETATM   25  C   UNK A   1     -11.908  13.135  63.341  1.00  0.00    -0.490 A  
HETATM   26  C   UNK A   1     -11.239  11.983  63.763  1.00  0.00    -0.516 A  
ENDBRANCH  20  21
ENDBRANCH  19  20
ENDBRANCH  15  19
ENDBRANCH  13  15
ENDBRANCH   1  13
TORSDOF 6
ENDMDL
MODEL      107
REMARK 921   NORMALIZED FREE ENERGY PREDICTED BY IDOCK:   -4.54 KCAL/MOL
REMARK 922        TOTAL FREE ENERGY PREDICTED BY IDOCK:   -7.85 KCAL/MOL
REMARK 923 INTER-LIGAND FREE ENERGY PREDICTED BY IDOCK:   -6.78 KCAL/MOL
REMARK 924 INTRA-LIGAND FREE ENERGY PREDICTED BY IDOCK:   -1.07 KCAL/MOL
REMARK 927      BINDING AFFINITY PREDICTED BY RF-SCORE:    0.00 PKD
ROOT
HETATM    1  C   UNK A   1     -11.067  15.211  68.224  1.00  0.00    -0.291 C  
HETATM    2  C   UNK A   1     -12.112  15.455  69.309  1.00  0.00    -0.283 C  
ENDROOT
BRANCH   1   3
HETATM    3  C   UNK A   1      -9.948  16.283  68.341  1.00  0.00    -0.234 C  
ATOM      4  CA  PRO A   2     -10.872  17.543  66.310  1.00  0.00     0.062 C  
ATOM      5  N   PRO A   2      -9.863  17.246  67.346  1.00  0.00    -0.265 N  
ATOM      6  C   PRO A   2     -10.685  16.684  65.050  1.00  0.00    -0.152 C  
HETATM    7  O   UNK A   1      -9.141  16.254  69.275  1.00  0.00    -0.251 OA 
ATOM      8  CB  PRO A   2     -10.659  19.023  65.962  1.00  0.00    -0.499 C  
ATOM      9  O   PRO A   2      -9.624  15.848  65.108  1.00  0.00    -0.284 OA 
ATOM     10  CD  PRO A   2      -8.891  18.326  67.421  1.00  0.00    -0.253 C  
ATOM     11  OXT PRO A   2     -11.421  16.746  64.078  1.00  0.00    -1.198 OA 
ATOM     12  CG  PRO A   2      -9.687  19.550  67.014  1.00  0.00    -0.450 C  
ENDBRANCH   1   3
BRANCH   1  13
HETATM   13  N   UNK A   1     -10.426  13.878  68.338  1.00  0.00    -0.242 NA 
HETATM   14  H   UNK A   1     -10.990  13.269  68.931  1.00  0.00     0.000 HD 
BRANCH  13  15
HETATM   15  C   UNK A   1     -10.126  13.194  67.038  1.00  0.00    -0.241 C  
HETATM   16  O   UNK A   1     -11.494  11.625  65.718  1.00  0.00    -0.255 OA 
HETATM   17  O   UNK A   1     -12.046  11.984  67.882  1.00  0.00    -0.531 OA 
HETATM   18  C   UNK A   1     -11.275  12.185  66.781  1.00  0.00    -0.322 C  
BRANCH  15  19
HETATM   19  C   UNK A   1      -8.764  12.462  67.020  1.00  0.00    -0.207 C  
BRANCH  19  20
HETATM   20  C   UNK A   1      -7.599  13.340  67.509  1.00  0.00    -0.169 C  
BRANCH  20  21
HETATM   21  C   UNK A   1      -6.889  12.799  68.728  1.00  0.00    -0.096 A  
HETATM   22  C   UNK A   1      -5.482  11.750  70.923  1.00  0.00    -0.107 A  
HETATM   23  C   UNK A   1      -6.857  11.419  68.963  1.00  0.00    -0.102 A  
HETATM   24  C   UNK A   1      -6.156  10.896  70.053  1.00  0.00    -0.121 A  
HETATM   25  C   UNK A   1      -5.511  13.125  70.704  1.00  0.00    -0.169 A  
HETATM   26  C   UNK A   1      -6.207  13.652  69.613  1.00  0.00    -0.122 A  
ENDBRANCH  20  21
ENDBRANCH  19  20
ENDBRANCH  15  19
ENDBRANCH  13  15
ENDBRANCH   1  13
TORSDOF 6
ENDMDL
MODEL      108
REMARK 921   NORMALIZED FREE ENERGY PREDICTED BY IDOCK:   -4.51 KCAL/MOL
REMARK 922        TOTAL FREE ENERGY PREDICTED BY IDOCK:   -7.80 KCAL/MOL
REMARK 923 INTER-LIGAND FREE ENERGY PREDICTED BY IDOCK:   -7.01 KCAL/MOL
REMARK 924 INTRA-LIGAND FREE ENERGY PREDICTED BY IDOCK:   -0.80 KCAL/MOL
REMARK 927      BINDING AFFINITY PREDICTED BY RF-SCORE:    0.00 PKD
ROOT
HETATM    1  C   UNK A   1      -9.831   8.485  69.707  1.00  0.00    -0.186 C  
HETATM    2  C   UNK A   1      -8.925   7.567  68.891  1.00  0.00    -0.134 C  
ENDROOT
BRANCH   1   3
HETATM    3  C   UNK A   1      -9.356   8.489  71.187  1.00  0.00    -0.196 C  
ATOM      4  CA  PRO A   2     -11.206   6.841  71.839  1.00  0.00    -0.260 C  
ATOM      5  N   PRO A   2     -10.122   7.803  72.118  1.00  0.00    -0.198 N  
ATOM      6  C   PRO A   2     -12.573   7.527  71.696  1.00  0.00    -0.348 C  
HETATM    7  O   UNK A   1      -8.346   9.114  71.524  1.00  0.00    -0.336 OA 
ATOM      8  CB  PRO A   2     -11.225   5.902  73.053  1.00  0.00    -0.258 C  
ATOM      9  O   PRO A   2     -12.537   8.866  71.881  1.00  0.00    -0.328 OA 
ATOM     10  CD  PRO A   2      -9.706   7.698  73.508  1.00  0.00    -0.299 C  
ATOM     11  OXT PRO A   2     -13.604   6.926  71.440  1.00  0.00    -0.275 OA 
ATOM     12  CG  PRO A   2      -9.968   6.245  73.849  1.00  0.00    -0.252 C  
ENDBRANCH   1   3
BRANCH   1  13
HETATM   13  N   UNK A   1      -9.808   9.887  69.223  1.00  0.00    -0.195 NA 
HETATM   14  H   UNK A   1      -8.860  10.148  68.953  1.00  0.00     0.000 HD 
BRANCH  13  15
HETATM   15  C   UNK A   1     -10.764  10.201  68.112  1.00  0.00    -0.244 C  
HETATM   16  O   UNK A   1     -10.361  10.433  65.692  1.00  0.00    -0.255 OA 
HETATM   17  O   UNK A   1      -8.591  10.525  67.096  1.00  0.00    -0.126 OA 
HETATM   18  C   UNK A   1      -9.917  10.399  66.829  1.00  0.00    -0.206 C  
BRANCH  15  19
HETATM   19  C   UNK A   1     -11.632  11.454  68.373  1.00  0.00    -0.385 C  
BRANCH  19  20
HETATM   20  C   UNK A   1     -10.827  12.765  68.340  1.00  0.00    -0.272 C  
BRANCH  20  21
HETATM   21  C   UNK A   1     -11.081  13.613  67.116  1.00  0.00    -0.311 A  
HETATM   22  C   UNK A   1     -11.469  15.128  64.781  1.00  0.00    -0.383 A  
HETATM   23  C   UNK A   1     -10.125  14.550  66.705  1.00  0.00    -0.264 A  
HETATM   24  C   UNK A   1     -10.316  15.303  65.543  1.00  0.00    -0.408 A  
HETATM   25  C   UNK A   1     -12.430  14.204  65.182  1.00  0.00    -0.453 A  
HETATM   26  C   UNK A   1     -12.242  13.446  66.341  1.00  0.00    -0.435 A  
ENDBRANCH  20  21
ENDBRANCH  19  20
ENDBRANCH  15  19
ENDBRANCH  13  15
ENDBRANCH   1  13
TORSDOF 6
ENDMDL
MODEL      109
REMARK 921   NORMALIZED FREE ENERGY PREDICTED BY IDOCK:   -4.50 KCAL/MOL
REMARK 922        TOTAL FREE ENERGY PREDICTED BY IDOCK:   -7.80 KCAL/MOL
REMARK 923 INTER-LIGAND FREE ENERGY PREDICTED BY IDOCK:   -6.96 KCAL/MOL
REMARK 924 INTRA-LIGAND FREE ENERGY PREDICTED BY IDOCK:   -0.84 KCAL/MOL
REMARK 927      BINDING AFFINITY PREDICTED BY RF-SCORE:    0.00 PKD
ROOT
HETATM    1  C   UNK A   1     -11.842  13.154  68.260  1.00  0.00    -0.349 C  
HETATM    2  C   UNK A   1     -11.977  13.660  69.693  1.00  0.00    -0.402 C  
ENDROOT
BRANCH   1   3
HETATM    3  C   UNK A   1     -10.925  14.121  67.460  1.00  0.00    -0.283 C  
ATOM      4  CA  PRO A   2     -12.479  13.999  65.428  1.00  0.00    -0.498 C  
ATOM      5  N   PRO A   2     -11.229  14.354  66.127  1.00  0.00    -0.330 N  
ATOM      6  C   PRO A   2     -12.435  12.581  64.838  1.00  0.00    -0.450 C  
HETATM    7  O   UNK A   1      -9.936  14.637  67.992  1.00  0.00    -0.215 OA 
ATOM      8  CB  PRO A   2     -12.605  15.026  64.295  1.00  0.00     0.051 C  
ATOM      9  O   PRO A   2     -11.261  11.940  65.037  1.00  0.00    -0.313 OA 
ATOM     10  CD  PRO A   2     -10.464  15.302  65.332  1.00  0.00    -0.398 C  
ATOM     11  OXT PRO A   2     -13.369  12.071  64.239  1.00  0.00    -0.709 OA 
ATOM     12  CG  PRO A   2     -11.528  16.070  64.573  1.00  0.00    -0.274 C  
ENDBRANCH   1   3
BRANCH   1  13
HETATM   13  N   UNK A   1     -11.240  11.800  68.186  1.00  0.00    -0.239 NA 
HETATM   14  H   UNK A   1     -10.838  11.646  67.261  1.00  0.00     0.000 HD 
BRANCH  13  15
HETATM   15  C   UNK A   1     -10.224  11.488  69.245  1.00  0.00     0.078 C  
HETATM   16  O   UNK A   1      -7.775  11.276  69.079  1.00  0.00    -0.135 OA 
HETATM   17  O   UNK A   1      -8.998  11.183  67.179  1.00  0.00    -0.142 OA 
HETATM   18  C   UNK A   1      -8.863  11.304  68.526  1.00  0.00    -0.159 C  
BRANCH  15  19
HETATM   19  C   UNK A   1     -10.560  10.229  70.077  1.00  0.00    -0.321 C  
BRANCH  19  20
HETATM   20  C   UNK A   1      -9.499   9.122  69.953  1.00  0.00    -0.199 C  
BRANCH  20  21
HETATM   21  C   UNK A   1      -9.938   7.936  69.126  1.00  0.00    -0.184 A  
HETATM   22  C   UNK A   1     -10.862   5.737  67.642  1.00  0.00    -0.264 A  
HETATM   23  C   UNK A   1     -10.114   6.687  69.734  1.00  0.00    -0.204 A  
HETATM   24  C   UNK A   1     -10.575   5.593  68.997  1.00  0.00    -0.316 A  
HETATM   25  C   UNK A   1     -10.686   6.972  67.024  1.00  0.00    -0.423 A  
HETATM   26  C   UNK A   1     -10.229   8.070  67.758  1.00  0.00    -0.282 A  
ENDBRANCH  20  21
ENDBRANCH  19  20
ENDBRANCH  15  19
ENDBRANCH  13  15
ENDBRANCH   1  13
TORSDOF 6
ENDMDL
MODEL      110
REMARK 921   NORMALIZED FREE ENERGY PREDICTED BY IDOCK:   -4.47 KCAL/MOL
REMARK 922        TOTAL FREE ENERGY PREDICTED BY IDOCK:   -7.76 KCAL/MOL
REMARK 923 INTER-LIGAND FREE ENERGY PREDICTED BY IDOCK:   -6.69 KCAL/MOL
REMARK 924 INTRA-LIGAND FREE ENERGY PREDICTED BY IDOCK:   -1.07 KCAL/MOL
REMARK 927      BINDING AFFINITY PREDICTED BY RF-SCORE:    0.00 PKD
ROOT
HETATM    1  C   UNK A   1      -8.743   8.990  69.265  1.00  0.00    -0.138 C  
HETATM    2  C   UNK A   1      -7.627   9.491  70.178  1.00  0.00    -0.146 C  
ENDROOT
BRANCH   1   3
HETATM    3  C   UNK A   1     -10.073   9.698  69.648  1.00  0.00    -0.224 C  
ATOM      4  CA  PRO A   2     -10.754   7.725  71.134  1.00  0.00    -0.227 C  
ATOM      5  N   PRO A   2     -10.990   8.990  70.411  1.00  0.00    -0.241 N  
ATOM      6  C   PRO A   2     -11.016   6.493  70.256  1.00  0.00    -0.310 C  
HETATM    7  O   UNK A   1     -10.315  10.843  69.254  1.00  0.00    -0.220 OA 
ATOM      8  CB  PRO A   2     -11.746   7.746  72.304  1.00  0.00    -0.390 C  
ATOM      9  O   PRO A   2     -11.442   6.790  69.006  1.00  0.00    -0.138 OA 
ATOM     10  CD  PRO A   2     -12.225   9.606  70.872  1.00  0.00    -0.285 C  
ATOM     11  OXT PRO A   2     -10.860   5.345  70.641  1.00  0.00    -0.228 OA 
ATOM     12  CG  PRO A   2     -12.328   9.157  72.316  1.00  0.00    -0.379 C  
ENDBRANCH   1   3
BRANCH   1  13
HETATM   13  N   UNK A   1      -8.479   9.274  67.832  1.00  0.00    -0.117 NA 
HETATM   14  H   UNK A   1      -7.485   9.163  67.632  1.00  0.00     0.000 HD 
BRANCH  13  15
HETATM   15  C   UNK A   1      -9.292   8.475  66.858  1.00  0.00    -0.172 C  
HETATM   16  O   UNK A   1      -8.833   6.282  65.832  1.00  0.00    -0.156 OA 
HETATM   17  O   UNK A   1      -7.121   7.406  66.792  1.00  0.00    -0.074 OA 
HETATM   18  C   UNK A   1      -8.422   7.266  66.426  1.00  0.00    -0.129 C  
BRANCH  15  19
HETATM   19  C   UNK A   1      -9.738   9.278  65.615  1.00  0.00    -0.302 C  
BRANCH  19  20
HETATM   20  C   UNK A   1      -9.393  10.774  65.705  1.00  0.00    -0.241 C  
BRANCH  20  21
HETATM   21  C   UNK A   1     -10.508  11.692  65.259  1.00  0.00    -0.323 A  
HETATM   22  C   UNK A   1     -12.649  13.302  64.412  1.00  0.00    -0.282 A  
HETATM   23  C   UNK A   1     -10.861  11.756  63.906  1.00  0.00    -0.468 A  
HETATM   24  C   UNK A   1     -11.927  12.555  63.484  1.00  0.00    -0.629 A  
HETATM   25  C   UNK A   1     -12.304  13.252  65.760  1.00  0.00    -0.505 A  
HETATM   26  C   UNK A   1     -11.241  12.451  66.187  1.00  0.00    -0.364 A  
ENDBRANCH  20  21
ENDBRANCH  19  20
ENDBRANCH  15  19
ENDBRANCH  13  15
ENDBRANCH   1  13
TORSDOF 6
ENDMDL
MODEL      111
REMARK 921   NORMALIZED FREE ENERGY PREDICTED BY IDOCK:   -4.47 KCAL/MOL
REMARK 922        TOTAL FREE ENERGY PREDICTED BY IDOCK:   -7.75 KCAL/MOL
REMARK 923 INTER-LIGAND FREE ENERGY PREDICTED BY IDOCK:   -6.57 KCAL/MOL
REMARK 924 INTRA-LIGAND FREE ENERGY PREDICTED BY IDOCK:   -1.18 KCAL/MOL
REMARK 927      BINDING AFFINITY PREDICTED BY RF-SCORE:    0.00 PKD
ROOT
HETATM    1  C   UNK A   1     -11.038   8.627  68.344  1.00  0.00     0.341 C  
HETATM    2  C   UNK A   1     -10.498   8.262  66.964  1.00  0.00    -0.384 C  
ENDROOT
BRANCH   1   3
HETATM    3  C   UNK A   1     -10.063   8.094  69.431  1.00  0.00    -0.194 C  
ATOM      4  CA  PRO A   2     -12.024   7.469  70.957  1.00  0.00    -0.290 C  
ATOM      5  N   PRO A   2     -10.599   7.697  70.647  1.00  0.00    -0.218 N  
ATOM      6  C   PRO A   2     -12.731   8.749  71.427  1.00  0.00    -0.283 C  
HETATM    7  O   UNK A   1      -8.846   8.060  69.225  1.00  0.00    -0.140 OA 
ATOM      8  CB  PRO A   2     -12.023   6.434  72.090  1.00  0.00    -0.346 C  
ATOM      9  O   PRO A   2     -11.919   9.829  71.502  1.00  0.00    -0.371 OA 
ATOM     10  CD  PRO A   2      -9.763   7.120  71.689  1.00  0.00    -0.159 C  
ATOM     11  OXT PRO A   2     -13.917   8.798  71.713  1.00  0.00    -0.397 OA 
ATOM     12  CG  PRO A   2     -10.580   5.946  72.191  1.00  0.00    -0.264 C  
ENDBRANCH   1   3
BRANCH   1  13
HETATM   13  N   UNK A   1     -11.170  10.092  68.537  1.00  0.00    -0.474 NA 
HETATM   14  H   UNK A   1     -10.660  10.381  69.372  1.00  0.00     0.000 HD 
BRANCH  13  15
HETATM   15  C   UNK A   1     -10.761  10.935  67.367  1.00  0.00    -0.257 C  
HETATM   16  O   UNK A   1      -8.603  12.015  66.868  1.00  0.00    -0.182 OA 
HETATM   17  O   UNK A   1      -8.999  11.320  68.983  1.00  0.00    -0.096 OA 
HETATM   18  C   UNK A   1      -9.347  11.489  67.680  1.00  0.00    -0.171 C  
BRANCH  15  19
HETATM   19  C   UNK A   1     -11.733  12.100  67.070  1.00  0.00    -0.373 C  
BRANCH  19  20
HETATM   20  C   UNK A   1     -11.861  13.094  68.236  1.00  0.00    -0.384 C  
BRANCH  20  21
HETATM   21  C   UNK A   1     -11.370  14.487  67.916  1.00  0.00    -0.329 A  
HETATM   22  C   UNK A   1     -10.353  17.051  67.377  1.00  0.00    -0.319 A  
HETATM   23  C   UNK A   1     -11.257  15.439  68.936  1.00  0.00    -0.296 A  
HETATM   24  C   UNK A   1     -10.750  16.714  68.670  1.00  0.00    -0.349 A  
HETATM   25  C   UNK A   1     -10.466  16.115  66.353  1.00  0.00    -0.304 A  
HETATM   26  C   UNK A   1     -10.969  14.837  66.616  1.00  0.00    -0.326 A  
ENDBRANCH  20  21
ENDBRANCH  19  20
ENDBRANCH  15  19
ENDBRANCH  13  15
ENDBRANCH   1  13
TORSDOF 6
ENDMDL
MODEL      112
REMARK 921   NORMALIZED FREE ENERGY PREDICTED BY IDOCK:   -4.47 KCAL/MOL
REMARK 922        TOTAL FREE ENERGY PREDICTED BY IDOCK:   -7.75 KCAL/MOL
REMARK 923 INTER-LIGAND FREE ENERGY PREDICTED BY IDOCK:   -8.21 KCAL/MOL
REMARK 924 INTRA-LIGAND FREE ENERGY PREDICTED BY IDOCK:    0.46 KCAL/MOL
REMARK 927      BINDING AFFINITY PREDICTED BY RF-SCORE:    0.00 PKD
ROOT
HETATM    1  C   UNK A   1     -10.846  14.676  65.286  1.00  0.00    -0.377 C  
HETATM    2  C   UNK A   1     -12.040  14.194  66.105  1.00  0.00    -0.454 C  
ENDROOT
BRANCH   1   3
HETATM    3  C   UNK A   1     -10.943  16.215  65.096  1.00  0.00    -0.316 C  
ATOM      4  CA  PRO A   2      -9.661  16.617  67.278  1.00  0.00    -0.245 C  
ATOM      5  N   PRO A   2     -10.481  17.028  66.121  1.00  0.00    -0.306 N  
ATOM      6  C   PRO A   2     -10.518  16.151  68.464  1.00  0.00    -0.269 C  
HETATM    7  O   UNK A   1     -11.448  16.695  64.076  1.00  0.00    -1.192 OA 
ATOM      8  CB  PRO A   2      -8.874  17.874  67.671  1.00  0.00    -0.250 C  
ATOM      9  O   PRO A   2     -11.851  16.233  68.245  1.00  0.00    -0.150 OA 
ATOM     10  CD  PRO A   2     -10.470  18.477  65.990  1.00  0.00    -0.400 C  
ATOM     11  OXT PRO A   2     -10.049  15.744  69.516  1.00  0.00    -0.245 OA 
ATOM     12  CG  PRO A   2      -9.116  18.873  66.544  1.00  0.00    -0.333 C  
ENDBRANCH   1   3
BRANCH   1  13
HETATM   13  N   UNK A   1      -9.548  14.385  65.943  1.00  0.00    -0.481 NA 
HETATM   14  H   UNK A   1      -9.259  15.180  66.512  1.00  0.00     0.000 HD 
BRANCH  13  15
HETATM   15  C   UNK A   1      -9.506  13.127  66.758  1.00  0.00    -0.252 C  
HETATM   16  O   UNK A   1      -8.029  12.497  68.627  1.00  0.00    -0.115 OA 
HETATM   17  O   UNK A   1      -7.413  14.218  67.295  1.00  0.00    -0.174 OA 
HETATM   18  C   UNK A   1      -8.255  13.220  67.669  1.00  0.00    -0.179 C  
BRANCH  15  19
HETATM   19  C   UNK A   1      -9.449  11.837  65.908  1.00  0.00    -0.239 C  
BRANCH  19  20
HETATM   20  C   UNK A   1     -10.618  10.877  66.186  1.00  0.00    -0.270 C  
BRANCH  20  21
HETATM   21  C   UNK A   1     -10.816  10.553  67.649  1.00  0.00    -0.355 A  
HETATM   22  C   UNK A   1     -11.078  10.004  70.392  1.00  0.00    -0.393 A  
HETATM   23  C   UNK A   1     -10.039   9.560  68.255  1.00  0.00    -0.210 A  
HETATM   24  C   UNK A   1     -10.167   9.286  69.620  1.00  0.00    -0.219 A  
HETATM   25  C   UNK A   1     -11.862  10.990  69.799  1.00  0.00    -0.421 A  
HETATM   26  C   UNK A   1     -11.734  11.269  68.436  1.00  0.00    -0.365 A  
ENDBRANCH  20  21
ENDBRANCH  19  20
ENDBRANCH  15  19
ENDBRANCH  13  15
ENDBRANCH   1  13
TORSDOF 6
ENDMDL
MODEL      113
REMARK 921   NORMALIZED FREE ENERGY PREDICTED BY IDOCK:   -4.46 KCAL/MOL
REMARK 922        TOTAL FREE ENERGY PREDICTED BY IDOCK:   -7.74 KCAL/MOL
REMARK 923 INTER-LIGAND FREE ENERGY PREDICTED BY IDOCK:   -6.70 KCAL/MOL
REMARK 924 INTRA-LIGAND FREE ENERGY PREDICTED BY IDOCK:   -1.04 KCAL/MOL
REMARK 927      BINDING AFFINITY PREDICTED BY RF-SCORE:    0.00 PKD
ROOT
HETATM    1  C   UNK A   1     -10.556   8.133  70.626  1.00  0.00    -0.215 C  
HETATM    2  C   UNK A   1     -10.699   6.893  71.504  1.00  0.00    -0.248 C  
ENDROOT
BRANCH   1   3
HETATM    3  C   UNK A   1     -10.008   7.713  69.233  1.00  0.00    -0.180 C  
ATOM      4  CA  PRO A   2      -7.607   8.223  69.967  1.00  0.00    -0.072 C  
ATOM      5  N   PRO A   2      -8.658   7.905  68.981  1.00  0.00    -0.134 N  
ATOM      6  C   PRO A   2      -7.453   9.735  70.189  1.00  0.00    -0.164 C  
HETATM    7  O   UNK A   1     -10.763   7.255  68.370  1.00  0.00    -0.189 OA 
ATOM      8  CB  PRO A   2      -6.315   7.654  69.367  1.00  0.00    -0.035 C  
ATOM      9  O   PRO A   2      -8.276  10.489  69.425  1.00  0.00    -0.158 OA 
ATOM     10  CD  PRO A   2      -8.054   7.471  67.730  1.00  0.00    -0.119 C  
ATOM     11  OXT PRO A   2      -6.661  10.222  70.980  1.00  0.00    -0.337 OA 
ATOM     12  CG  PRO A   2      -6.758   6.820  68.168  1.00  0.00    -0.068 C  
ENDBRANCH   1   3
BRANCH   1  13
HETATM   13  N   UNK A   1     -11.848   8.830  70.409  1.00  0.00    -0.472 NA 
HETATM   14  H   UNK A   1     -12.478   8.649  71.191  1.00  0.00     0.000 HD 
BRANCH  13  15
HETATM   15  C   UNK A   1     -11.749  10.306  70.160  1.00  0.00    -0.284 C  
HETATM   16  O   UNK A   1     -12.678  12.196  71.440  1.00  0.00    -0.358 OA 
HETATM   17  O   UNK A   1     -13.519  10.128  71.803  1.00  0.00    -0.365 OA 
HETATM   18  C   UNK A   1     -12.680  11.001  71.186  1.00  0.00    -0.419 C  
BRANCH  15  19
HETATM   19  C   UNK A   1     -12.140  10.721  68.723  1.00  0.00    -0.042 C  
BRANCH  19  20
HETATM   20  C   UNK A   1     -11.158  11.726  68.096  1.00  0.00    -0.297 C  
BRANCH  20  21
HETATM   21  C   UNK A   1     -11.194  11.762  66.586  1.00  0.00    -0.383 A  
HETATM   22  C   UNK A   1     -11.219  11.943  63.781  1.00  0.00    -0.519 A  
HETATM   23  C   UNK A   1     -12.154  12.541  65.928  1.00  0.00    -0.420 A  
HETATM   24  C   UNK A   1     -12.166  12.633  64.534  1.00  0.00    -0.514 A  
HETATM   25  C   UNK A   1     -10.263  11.159  64.422  1.00  0.00    -0.390 A  
HETATM   26  C   UNK A   1     -10.244  11.068  65.817  1.00  0.00    -0.316 A  
ENDBRANCH  20  21
ENDBRANCH  19  20
ENDBRANCH  15  19
ENDBRANCH  13  15
ENDBRANCH   1  13
TORSDOF 6
ENDMDL
MODEL      114
REMARK 921   NORMALIZED FREE ENERGY PREDICTED BY IDOCK:   -4.46 KCAL/MOL
REMARK 922        TOTAL FREE ENERGY PREDICTED BY IDOCK:   -7.74 KCAL/MOL
REMARK 923 INTER-LIGAND FREE ENERGY PREDICTED BY IDOCK:   -6.80 KCAL/MOL
REMARK 924 INTRA-LIGAND FREE ENERGY PREDICTED BY IDOCK:   -0.94 KCAL/MOL
REMARK 927      BINDING AFFINITY PREDICTED BY RF-SCORE:    0.00 PKD
ROOT
HETATM    1  C   UNK A   1      -9.279   8.884  70.145  1.00  0.00    -0.180 C  
HETATM    2  C   UNK A   1      -7.970   9.032  70.915  1.00  0.00    -0.194 C  
ENDROOT
BRANCH   1   3
HETATM    3  C   UNK A   1     -10.415   8.501  71.135  1.00  0.00    -0.221 C  
ATOM      4  CA  PRO A   2      -9.919   6.007  70.819  1.00  0.00    -0.191 C  
ATOM      5  N   PRO A   2     -10.718   7.156  71.288  1.00  0.00    -0.226 N  
ATOM      6  C   PRO A   2     -10.276   5.595  69.383  1.00  0.00    -0.245 C  
HETATM    7  O   UNK A   1     -11.046   9.373  71.739  1.00  0.00    -0.370 OA 
ATOM      8  CB  PRO A   2     -10.262   4.865  71.784  1.00  0.00    -0.268 C  
ATOM      9  O   PRO A   2     -11.268   6.331  68.831  1.00  0.00    -0.370 OA 
ATOM     10  CD  PRO A   2     -11.716   6.711  72.248  1.00  0.00    -0.269 C  
ATOM     11  OXT PRO A   2      -9.722   4.685  68.785  1.00  0.00    -0.160 OA 
ATOM     12  CG  PRO A   2     -11.064   5.513  72.909  1.00  0.00    -0.349 C  
ENDBRANCH   1   3
BRANCH   1  13
HETATM   13  N   UNK A   1      -9.684  10.136  69.459  1.00  0.00    -0.227 NA 
HETATM   14  H   UNK A   1      -8.858  10.672  69.194  1.00  0.00     0.000 HD 
BRANCH  13  15
HETATM   15  C   UNK A   1     -10.584   9.959  68.273  1.00  0.00    -0.229 C  
HETATM   16  O   UNK A   1     -10.034   9.773  65.879  1.00  0.00    -0.269 OA 
HETATM   17  O   UNK A   1      -8.469  10.601  67.286  1.00  0.00    -0.125 OA 
HETATM   18  C   UNK A   1      -9.698  10.091  67.009  1.00  0.00    -0.181 C  
BRANCH  15  19
HETATM   19  C   UNK A   1     -11.745  10.979  68.216  1.00  0.00    -0.301 C  
BRANCH  19  20
HETATM   20  C   UNK A   1     -11.291  12.391  67.808  1.00  0.00    -0.356 C  
BRANCH  20  21
HETATM   21  C   UNK A   1     -11.349  13.405  68.927  1.00  0.00    -0.331 A  
HETATM   22  C   UNK A   1     -11.511  15.367  70.931  1.00  0.00    -0.396 A  
HETATM   23  C   UNK A   1     -10.518  14.531  68.892  1.00  0.00    -0.246 A  
HETATM   24  C   UNK A   1     -10.599  15.509  69.888  1.00  0.00    -0.322 A  
HETATM   25  C   UNK A   1     -12.339  14.249  70.981  1.00  0.00    -0.431 A  
HETATM   26  C   UNK A   1     -12.264  13.270  69.985  1.00  0.00    -0.345 A  
ENDBRANCH  20  21
ENDBRANCH  19  20
ENDBRANCH  15  19
ENDBRANCH  13  15
ENDBRANCH   1  13
TORSDOF 6
ENDMDL
MODEL      115
REMARK 921   NORMALIZED FREE ENERGY PREDICTED BY IDOCK:   -4.45 KCAL/MOL
REMARK 922        TOTAL FREE ENERGY PREDICTED BY IDOCK:   -7.73 KCAL/MOL
REMARK 923 INTER-LIGAND FREE ENERGY PREDICTED BY IDOCK:   -6.49 KCAL/MOL
REMARK 924 INTRA-LIGAND FREE ENERGY PREDICTED BY IDOCK:   -1.23 KCAL/MOL
REMARK 927      BINDING AFFINITY PREDICTED BY RF-SCORE:    0.00 PKD
ROOT
HETATM    1  C   UNK A   1      -7.838   9.381  70.087  1.00  0.00    -0.142 C  
HETATM    2  C   UNK A   1      -6.521   9.075  70.794  1.00  0.00    -0.058 C  
ENDROOT
BRANCH   1   3
HETATM    3  C   UNK A   1      -9.014   8.804  70.925  1.00  0.00    -0.201 C  
ATOM      4  CA  PRO A   2      -9.978   7.633  68.861  1.00  0.00    -0.176 C  
ATOM      5  N   PRO A   2     -10.015   8.117  70.255  1.00  0.00    -0.188 N  
ATOM      6  C   PRO A   2     -10.477   8.688  67.863  1.00  0.00    -0.209 C  
HETATM    7  O   UNK A   1      -9.067   8.985  72.146  1.00  0.00    -0.372 OA 
ATOM      8  CB  PRO A   2     -10.916   6.418  68.839  1.00  0.00    -0.412 C  
ATOM      9  O   PRO A   2     -10.883   9.842  68.441  1.00  0.00    -0.233 OA 
ATOM     10  CD  PRO A   2     -11.110   7.485  70.975  1.00  0.00    -0.257 C  
ATOM     11  OXT PRO A   2     -10.509   8.511  66.655  1.00  0.00    -0.289 OA 
ATOM     12  CG  PRO A   2     -11.244   6.134  70.302  1.00  0.00    -0.439 C  
ENDBRANCH   1   3
BRANCH   1  13
HETATM   13  N   UNK A   1      -8.075  10.836  69.924  1.00  0.00    -0.295 NA 
HETATM   14  H   UNK A   1      -7.638  11.349  70.689  1.00  0.00     0.000 HD 
BRANCH  13  15
HETATM   15  C   UNK A   1      -7.647  11.414  68.608  1.00  0.00    -0.130 C  
HETATM   16  O   UNK A   1      -5.606  12.659  68.011  1.00  0.00    -0.069 OA 
HETATM   17  O   UNK A   1      -6.149  12.460  70.197  1.00  0.00    -0.151 OA 
HETATM   18  C   UNK A   1      -6.364  12.243  68.873  1.00  0.00    -0.084 C  
BRANCH  15  19
HETATM   19  C   UNK A   1      -8.722  12.302  67.939  1.00  0.00    -0.177 C  
BRANCH  19  20
HETATM   20  C   UNK A   1      -8.986  11.929  66.470  1.00  0.00    -0.199 C  
BRANCH  20  21
HETATM   21  C   UNK A   1     -10.162  12.650  65.853  1.00  0.00    -0.290 A  
HETATM   22  C   UNK A   1     -12.288  13.995  64.601  1.00  0.00    -0.425 A  
HETATM   23  C   UNK A   1     -10.057  14.009  65.531  1.00  0.00    -0.343 A  
HETATM   24  C   UNK A   1     -11.113  14.678  64.907  1.00  0.00    -0.409 A  
HETATM   25  C   UNK A   1     -12.408  12.645  64.922  1.00  0.00    -0.563 A  
HETATM   26  C   UNK A   1     -11.352  11.971  65.543  1.00  0.00    -0.381 A  
ENDBRANCH  20  21
ENDBRANCH  19  20
ENDBRANCH  15  19
ENDBRANCH  13  15
ENDBRANCH   1  13
TORSDOF 6
ENDMDL
MODEL      116
REMARK 921   NORMALIZED FREE ENERGY PREDICTED BY IDOCK:   -4.45 KCAL/MOL
REMARK 922        TOTAL FREE ENERGY PREDICTED BY IDOCK:   -7.72 KCAL/MOL
REMARK 923 INTER-LIGAND FREE ENERGY PREDICTED BY IDOCK:   -6.30 KCAL/MOL
REMARK 924 INTRA-LIGAND FREE ENERGY PREDICTED BY IDOCK:   -1.42 KCAL/MOL
REMARK 927      BINDING AFFINITY PREDICTED BY RF-SCORE:    0.00 PKD
ROOT
HETATM    1  C   UNK A   1      -9.953  11.488  67.966  1.00  0.00    -0.189 C  
HETATM    2  C   UNK A   1      -9.872  10.067  67.415  1.00  0.00    -0.226 C  
ENDROOT
BRANCH   1   3
HETATM    3  C   UNK A   1     -11.070  12.266  67.215  1.00  0.00    -0.275 C  
ATOM      4  CA  PRO A   2      -9.546  14.309  66.956  1.00  0.00    -0.257 C  
ATOM      5  N   PRO A   2     -10.837  13.596  66.899  1.00  0.00    -0.282 N  
ATOM      6  C   PRO A   2      -9.279  14.923  68.339  1.00  0.00    -0.189 C  
HETATM    7  O   UNK A   1     -12.143  11.720  66.940  1.00  0.00    -0.566 OA 
ATOM      8  CB  PRO A   2      -9.663  15.425  65.909  1.00  0.00    -0.392 C  
ATOM      9  O   PRO A   2     -10.280  14.728  69.229  1.00  0.00    -0.228 OA 
ATOM     10  CD  PRO A   2     -11.802  14.371  66.134  1.00  0.00    -0.382 C  
ATOM     11  OXT PRO A   2      -8.261  15.536  68.619  1.00  0.00    -0.144 OA 
ATOM     12  CG  PRO A   2     -10.943  15.122  65.136  1.00  0.00    -0.428 C  
ENDBRANCH   1   3
BRANCH   1  13
HETATM   13  N   UNK A   1     -10.277  11.522  69.413  1.00  0.00    -0.422 NA 
HETATM   14  H   UNK A   1     -10.766  12.388  69.641  1.00  0.00     0.000 HD 
BRANCH  13  15
HETATM   15  C   UNK A   1     -11.048  10.345  69.929  1.00  0.00    -0.305 C  
HETATM   16  O   UNK A   1     -13.361  10.209  70.770  1.00  0.00    -0.361 OA 
HETATM   17  O   UNK A   1     -12.380  12.242  70.628  1.00  0.00    -0.354 OA 
HETATM   18  C   UNK A   1     -12.388  10.890  70.487  1.00  0.00    -0.374 C  
BRANCH  15  19
HETATM   19  C   UNK A   1     -10.305   9.544  71.022  1.00  0.00    -0.353 C  
BRANCH  19  20
HETATM   20  C   UNK A   1      -9.792   8.180  70.530  1.00  0.00    -0.194 C  
BRANCH  20  21
HETATM   21  C   UNK A   1      -8.287   8.087  70.430  1.00  0.00    -0.120 A  
HETATM   22  C   UNK A   1      -5.480   7.999  70.328  1.00  0.00    -0.023 A  
HETATM   23  C   UNK A   1      -7.562   9.121  69.827  1.00  0.00    -0.079 A  
HETATM   24  C   UNK A   1      -6.165   9.080  69.777  1.00  0.00    -0.038 A  
HETATM   25  C   UNK A   1      -6.190   6.961  70.925  1.00  0.00    -0.036 A  
HETATM   26  C   UNK A   1      -7.586   7.000  70.980  1.00  0.00    -0.086 A  
ENDBRANCH  20  21
ENDBRANCH  19  20
ENDBRANCH  15  19
ENDBRANCH  13  15
ENDBRANCH   1  13
TORSDOF 6
ENDMDL
MODEL      117
REMARK 921   NORMALIZED FREE ENERGY PREDICTED BY IDOCK:   -4.43 KCAL/MOL
REMARK 922        TOTAL FREE ENERGY PREDICTED BY IDOCK:   -7.70 KCAL/MOL
REMARK 923 INTER-LIGAND FREE ENERGY PREDICTED BY IDOCK:   -7.01 KCAL/MOL
REMARK 924 INTRA-LIGAND FREE ENERGY PREDICTED BY IDOCK:   -0.69 KCAL/MOL
REMARK 927      BINDING AFFINITY PREDICTED BY RF-SCORE:    0.00 PKD
ROOT
HETATM    1  C   UNK A   1     -10.575  10.515  68.085  1.00  0.00    -0.204 C  
HETATM    2  C   UNK A   1     -11.686  10.733  69.108  1.00  0.00    -0.368 C  
ENDROOT
BRANCH   1   3
HETATM    3  C   UNK A   1     -10.389   8.990  67.849  1.00  0.00    -0.235 C  
ATOM      4  CA  PRO A   2      -9.235   8.727  70.121  1.00  0.00    -0.169 C  
ATOM      5  N   PRO A   2      -9.653   8.272  68.781  1.00  0.00    -0.148 N  
ATOM      6  C   PRO A   2      -7.885   9.459  70.094  1.00  0.00    -0.142 C  
HETATM    7  O   UNK A   1     -10.855   8.445  66.843  1.00  0.00    -0.211 OA 
ATOM      8  CB  PRO A   2      -9.110   7.444  70.953  1.00  0.00    -0.154 C  
ATOM      9  O   PRO A   2      -7.319   9.523  68.866  1.00  0.00    -0.071 OA 
ATOM     10  CD  PRO A   2      -9.496   6.830  68.670  1.00  0.00    -0.132 C  
ATOM     11  OXT PRO A   2      -7.360   9.941  71.085  1.00  0.00    -0.275 OA 
ATOM     12  CG  PRO A   2      -9.711   6.339  70.088  1.00  0.00    -0.187 C  
ENDBRANCH   1   3
BRANCH   1  13
HETATM   13  N   UNK A   1     -10.876  11.139  66.773  1.00  0.00    -0.274 NA 
HETATM   14  H   UNK A   1     -11.437  10.504  66.204  1.00  0.00     0.000 HD 
BRANCH  13  15
HETATM   15  C   UNK A   1     -11.530  12.487  66.836  1.00  0.00    -0.353 C  
HETATM   16  O   UNK A   1     -12.975  13.626  65.196  1.00  0.00    -0.734 OA 
HETATM   17  O   UNK A   1     -11.729  11.871  64.503  1.00  0.00    -0.314 OA 
HETATM   18  C   UNK A   1     -12.165  12.747  65.445  1.00  0.00    -0.478 C  
BRANCH  15  19
HETATM   19  C   UNK A   1     -10.559  13.633  67.198  1.00  0.00    -0.272 C  
BRANCH  19  20
HETATM   20  C   UNK A   1     -11.202  14.714  68.084  1.00  0.00    -0.304 C  
BRANCH  20  21
HETATM   21  C   UNK A   1     -10.809  16.126  67.717  1.00  0.00    -0.318 A  
HETATM   22  C   UNK A   1     -10.192  18.770  66.994  1.00  0.00    -0.426 A  
HETATM   23  C   UNK A   1     -10.658  16.482  66.372  1.00  0.00    -0.221 A  
HETATM   24  C   UNK A   1     -10.353  17.797  66.011  1.00  0.00    -0.304 A  
HETATM   25  C   UNK A   1     -10.333  18.428  68.337  1.00  0.00    -0.357 A  
HETATM   26  C   UNK A   1     -10.643  17.115  68.702  1.00  0.00    -0.352 A  
ENDBRANCH  20  21
ENDBRANCH  19  20
ENDBRANCH  15  19
ENDBRANCH  13  15
ENDBRANCH   1  13
TORSDOF 6
ENDMDL
MODEL      118
REMARK 921   NORMALIZED FREE ENERGY PREDICTED BY IDOCK:   -4.43 KCAL/MOL
REMARK 922        TOTAL FREE ENERGY PREDICTED BY IDOCK:   -7.70 KCAL/MOL
REMARK 923 INTER-LIGAND FREE ENERGY PREDICTED BY IDOCK:   -6.06 KCAL/MOL
REMARK 924 INTRA-LIGAND FREE ENERGY PREDICTED BY IDOCK:   -1.64 KCAL/MOL
REMARK 927      BINDING AFFINITY PREDICTED BY RF-SCORE:    0.00 PKD
ROOT
HETATM    1  C   UNK A   1      -8.956  11.617  66.226  1.00  0.00    -0.193 C  
HETATM    2  C   UNK A   1      -9.416  12.244  67.539  1.00  0.00    -0.182 C  
ENDROOT
BRANCH   1   3
HETATM    3  C   UNK A   1      -9.304  10.102  66.233  1.00  0.00    -0.172 C  
ATOM      4  CA  PRO A   2      -7.032   9.523  65.199  1.00  0.00    -0.100 C  
ATOM      5  N   PRO A   2      -8.413   9.227  65.629  1.00  0.00    -0.132 N  
ATOM      6  C   PRO A   2      -6.971  10.070  63.765  1.00  0.00    -0.124 C  
HETATM    7  O   UNK A   1     -10.358   9.699  66.733  1.00  0.00    -0.239 OA 
ATOM      8  CB  PRO A   2      -6.298   8.178  65.271  1.00  0.00    -0.045 C  
ATOM      9  O   PRO A   2      -8.177  10.147  63.155  1.00  0.00    -0.147 OA 
ATOM     10  CD  PRO A   2      -8.630   7.789  65.657  1.00  0.00    -0.127 C  
ATOM     11  OXT PRO A   2      -5.934  10.404  63.215  1.00  0.00    -0.143 OA 
ATOM     12  CG  PRO A   2      -7.259   7.229  65.982  1.00  0.00    -0.074 C  
ENDBRANCH   1   3
BRANCH   1  13
HETATM   13  N   UNK A   1      -9.614  12.224  65.042  1.00  0.00    -0.457 NA 
HETATM   14  H   UNK A   1      -9.975  11.492  64.430  1.00  0.00     0.000 HD 
BRANCH  13  15
HETATM   15  C   UNK A   1     -10.693  13.219  65.345  1.00  0.00    -0.297 C  
HETATM   16  O   UNK A   1     -13.131  13.061  65.022  1.00  0.00    -0.761 OA 
HETATM   17  O   UNK A   1     -11.799  11.602  63.923  1.00  0.00    -0.362 OA 
HETATM   18  C   UNK A   1     -12.012  12.647  64.764  1.00  0.00    -0.402 C  
BRANCH  15  19
HETATM   19  C   UNK A   1     -10.424  14.626  64.762  1.00  0.00    -0.343 C  
BRANCH  19  20
HETATM   20  C   UNK A   1     -10.710  15.760  65.761  1.00  0.00    -0.337 C  
BRANCH  20  21
HETATM   21  C   UNK A   1      -9.690  15.877  66.869  1.00  0.00    -0.241 A  
HETATM   22  C   UNK A   1      -7.794  16.215  68.916  1.00  0.00    -0.213 A  
HETATM   23  C   UNK A   1      -8.368  16.224  66.568  1.00  0.00    -0.343 A  
HETATM   24  C   UNK A   1      -7.424  16.394  67.585  1.00  0.00    -0.153 A  
HETATM   25  C   UNK A   1      -9.105  15.864  69.229  1.00  0.00    -0.253 A  
HETATM   26  C   UNK A   1     -10.052  15.697  68.215  1.00  0.00    -0.218 A  
ENDBRANCH  20  21
ENDBRANCH  19  20
ENDBRANCH  15  19
ENDBRANCH  13  15
ENDBRANCH   1  13
TORSDOF 6
ENDMDL
MODEL      119
REMARK 921   NORMALIZED FREE ENERGY PREDICTED BY IDOCK:   -4.42 KCAL/MOL
REMARK 922        TOTAL FREE ENERGY PREDICTED BY IDOCK:   -7.68 KCAL/MOL
REMARK 923 INTER-LIGAND FREE ENERGY PREDICTED BY IDOCK:   -6.31 KCAL/MOL
REMARK 924 INTRA-LIGAND FREE ENERGY PREDICTED BY IDOCK:   -1.38 KCAL/MOL
REMARK 927      BINDING AFFINITY PREDICTED BY RF-SCORE:    0.00 PKD
ROOT
HETATM    1  C   UNK A   1      -9.303   8.639  70.707  1.00  0.00    -0.191 C  
HETATM    2  C   UNK A   1      -8.179   9.632  70.425  1.00  0.00    -0.194 C  
ENDROOT
BRANCH   1   3
HETATM    3  C   UNK A   1      -8.695   7.226  70.929  1.00  0.00    -0.148 C  
ATOM      4  CA  PRO A   2      -9.065   6.624  68.466  1.00  0.00    -0.128 C  
ATOM      5  N   PRO A   2      -8.740   6.326  69.874  1.00  0.00    -0.139 N  
ATOM      6  C   PRO A   2     -10.572   6.539  68.184  1.00  0.00    -0.251 C  
HETATM    7  O   UNK A   1      -8.218   6.909  72.023  1.00  0.00    -0.100 OA 
ATOM      8  CB  PRO A   2      -8.326   5.553  67.653  1.00  0.00    -0.100 C  
ATOM      9  O   PRO A   2     -11.312   6.178  69.257  1.00  0.00    -0.416 OA 
ATOM     10  CD  PRO A   2      -8.127   5.010  69.978  1.00  0.00    -0.074 C  
ATOM     11  OXT PRO A   2     -11.067   6.771  67.092  1.00  0.00    -0.384 OA 
ATOM     12  CG  PRO A   2      -7.413   4.845  68.651  1.00  0.00    -0.069 C  
ENDBRANCH   1   3
BRANCH   1  13
HETATM   13  N   UNK A   1     -10.082   8.989  71.921  1.00  0.00    -0.324 NA 
HETATM   14  H   UNK A   1      -9.548   9.631  72.506  1.00  0.00     0.000 HD 
BRANCH  13  15
HETATM   15  C   UNK A   1     -11.453   9.542  71.669  1.00  0.00    -0.363 C  
HETATM   16  O   UNK A   1     -13.644   8.795  72.513  1.00  0.00    -0.404 OA 
HETATM   17  O   UNK A   1     -11.892   7.372  72.649  1.00  0.00    -0.237 OA 
HETATM   18  C   UNK A   1     -12.463   8.558  72.312  1.00  0.00    -0.387 C  
BRANCH  15  19
HETATM   19  C   UNK A   1     -11.780   9.736  70.171  1.00  0.00    -0.190 C  
BRANCH  19  20
HETATM   20  C   UNK A   1     -12.011  11.208  69.787  1.00  0.00    -0.428 C  
BRANCH  20  21
HETATM   21  C   UNK A   1     -11.262  11.647  68.551  1.00  0.00    -0.312 A  
HETATM   22  C   UNK A   1      -9.972  12.456  66.189  1.00  0.00    -0.267 A  
HETATM   23  C   UNK A   1     -11.000  10.727  67.529  1.00  0.00    -0.372 A  
HETATM   24  C   UNK A   1     -10.359  11.128  66.353  1.00  0.00    -0.300 A  
HETATM   25  C   UNK A   1     -10.221  13.380  67.200  1.00  0.00    -0.247 A  
HETATM   26  C   UNK A   1     -10.864  12.984  68.376  1.00  0.00    -0.280 A  
ENDBRANCH  20  21
ENDBRANCH  19  20
ENDBRANCH  15  19
ENDBRANCH  13  15
ENDBRANCH   1  13
TORSDOF 6
ENDMDL
MODEL      120
REMARK 921   NORMALIZED FREE ENERGY PREDICTED BY IDOCK:   -4.42 KCAL/MOL
REMARK 922        TOTAL FREE ENERGY PREDICTED BY IDOCK:   -7.68 KCAL/MOL
REMARK 923 INTER-LIGAND FREE ENERGY PREDICTED BY IDOCK:   -7.07 KCAL/MOL
REMARK 924 INTRA-LIGAND FREE ENERGY PREDICTED BY IDOCK:   -0.61 KCAL/MOL
REMARK 927      BINDING AFFINITY PREDICTED BY RF-SCORE:    0.00 PKD
ROOT
HETATM    1  C   UNK A   1     -10.856   7.808  71.027  1.00  0.00    -0.239 C  
HETATM    2  C   UNK A   1      -9.981   8.701  71.902  1.00  0.00    -0.392 C  
ENDROOT
BRANCH   1   3
HETATM    3  C   UNK A   1     -11.500   6.702  71.909  1.00  0.00    -0.291 C  
ATOM      4  CA  PRO A   2      -9.225   5.571  72.243  1.00  0.00    -0.142 C  
ATOM      5  N   PRO A   2     -10.697   5.648  72.320  1.00  0.00    -0.221 N  
ATOM      6  C   PRO A   2      -8.741   4.998  70.902  1.00  0.00    -0.122 C  
HETATM    7  O   UNK A   1     -12.699   6.747  72.203  1.00  0.00    -0.232 OA 
ATOM      8  CB  PRO A   2      -8.817   4.632  73.384  1.00  0.00    -0.102 C  
ATOM      9  O   PRO A   2      -9.741   4.642  70.064  1.00  0.00    -0.169 OA 
ATOM     10  CD  PRO A   2     -11.206   4.613  73.207  1.00  0.00    -0.325 C  
ATOM     11  OXT PRO A   2      -7.562   4.868  70.612  1.00  0.00    -0.063 OA 
ATOM     12  CG  PRO A   2     -10.084   4.420  74.208  1.00  0.00    -0.238 C  
ENDBRANCH   1   3
BRANCH   1  13
HETATM   13  N   UNK A   1     -11.956   8.555  70.369  1.00  0.00    -0.470 NA 
HETATM   14  H   UNK A   1     -12.858   8.186  70.670  1.00  0.00     0.000 HD 
BRANCH  13  15
HETATM   15  C   UNK A   1     -11.924  10.043  70.550  1.00  0.00    -0.272 C  
HETATM   16  O   UNK A   1     -13.258  11.489  72.034  1.00  0.00    -0.509 OA 
HETATM   17  O   UNK A   1     -13.990   9.388  71.629  1.00  0.00    -0.294 OA 
HETATM   18  C   UNK A   1     -13.109  10.412  71.479  1.00  0.00    -0.431 C  
BRANCH  15  19
HETATM   19  C   UNK A   1     -12.022  10.834  69.225  1.00  0.00    -0.334 C  
BRANCH  19  20
HETATM   20  C   UNK A   1     -10.783  11.703  68.946  1.00  0.00    -0.244 C  
BRANCH  20  21
HETATM   21  C   UNK A   1     -11.087  13.175  68.786  1.00  0.00    -0.309 A  
HETATM   22  C   UNK A   1     -11.564  15.935  68.569  1.00  0.00    -0.351 A  
HETATM   23  C   UNK A   1     -11.734  13.870  69.814  1.00  0.00    -0.372 A  
HETATM   24  C   UNK A   1     -11.971  15.244  69.708  1.00  0.00    -0.374 A  
HETATM   25  C   UNK A   1     -10.926  15.254  67.536  1.00  0.00    -0.315 A  
HETATM   26  C   UNK A   1     -10.683  13.881  67.640  1.00  0.00    -0.255 A  
ENDBRANCH  20  21
ENDBRANCH  19  20
ENDBRANCH  15  19
ENDBRANCH  13  15
ENDBRANCH   1  13
TORSDOF 6
ENDMDL
MODEL      121
REMARK 921   NORMALIZED FREE ENERGY PREDICTED BY IDOCK:   -4.41 KCAL/MOL
REMARK 922        TOTAL FREE ENERGY PREDICTED BY IDOCK:   -7.67 KCAL/MOL
REMARK 923 INTER-LIGAND FREE ENERGY PREDICTED BY IDOCK:   -7.06 KCAL/MOL
REMARK 924 INTRA-LIGAND FREE ENERGY PREDICTED BY IDOCK:   -0.61 KCAL/MOL
REMARK 927      BINDING AFFINITY PREDICTED BY RF-SCORE:    0.00 PKD
ROOT
HETATM    1  C   UNK A   1      -9.104  10.054  68.389  1.00  0.00    -0.121 C  
HETATM    2  C   UNK A   1      -9.665  10.026  69.808  1.00  0.00    -0.259 C  
ENDROOT
BRANCH   1   3
HETATM    3  C   UNK A   1      -9.520   8.752  67.649  1.00  0.00    -0.141 C  
ATOM      4  CA  PRO A   2      -7.295   8.700  66.380  1.00  0.00    -0.080 C  
ATOM      5  N   PRO A   2      -8.680   8.271  66.655  1.00  0.00    -0.131 N  
ATOM      6  C   PRO A   2      -7.234   9.890  65.412  1.00  0.00    -0.125 C  
HETATM    7  O   UNK A   1     -10.584   8.185  67.919  1.00  0.00    -0.212 OA 
ATOM      8  CB  PRO A   2      -6.622   7.478  65.741  1.00  0.00    -0.045 C  
ATOM      9  O   PRO A   2      -8.444  10.300  64.968  1.00  0.00    -0.160 OA 
ATOM     10  CD  PRO A   2      -8.962   7.020  65.968  1.00  0.00    -0.107 C  
ATOM     11  OXT PRO A   2      -6.192  10.423  65.065  1.00  0.00    -0.124 OA 
ATOM     12  CG  PRO A   2      -7.613   6.331  65.917  1.00  0.00    -0.084 C  
ENDBRANCH   1   3
BRANCH   1  13
HETATM   13  N   UNK A   1      -9.611  11.202  67.597  1.00  0.00    -0.168 NA 
HETATM   14  H   UNK A   1      -9.125  11.250  66.701  1.00  0.00     0.000 HD 
BRANCH  13  15
HETATM   15  C   UNK A   1     -11.094  11.230  67.380  1.00  0.00    -0.297 C  
HETATM   16  O   UNK A   1     -12.413  12.264  65.573  1.00  0.00    -0.597 OA 
HETATM   17  O   UNK A   1     -10.269  12.923  65.859  1.00  0.00    -0.280 OA 
HETATM   18  C   UNK A   1     -11.358  12.179  66.182  1.00  0.00    -0.361 C  
BRANCH  15  19
HETATM   19  C   UNK A   1     -11.895  11.700  68.616  1.00  0.00    -0.370 C  
BRANCH  19  20
HETATM   20  C   UNK A   1     -11.428  13.061  69.158  1.00  0.00    -0.353 C  
BRANCH  20  21
HETATM   21  C   UNK A   1     -12.265  13.591  70.299  1.00  0.00    -0.417 A  
HETATM   22  C   UNK A   1     -13.911  14.595  72.343  1.00  0.00    -0.580 A  
HETATM   23  C   UNK A   1     -12.540  14.960  70.386  1.00  0.00    -0.394 A  
HETATM   24  C   UNK A   1     -13.360  15.461  71.402  1.00  0.00    -0.601 A  
HETATM   25  C   UNK A   1     -13.640  13.231  72.272  1.00  0.00    -0.703 A  
HETATM   26  C   UNK A   1     -12.823  12.726  71.256  1.00  0.00    -0.355 A  
ENDBRANCH  20  21
ENDBRANCH  19  20
ENDBRANCH  15  19
ENDBRANCH  13  15
ENDBRANCH   1  13
TORSDOF 6
ENDMDL
MODEL      122
REMARK 921   NORMALIZED FREE ENERGY PREDICTED BY IDOCK:   -4.41 KCAL/MOL
REMARK 922        TOTAL FREE ENERGY PREDICTED BY IDOCK:   -7.67 KCAL/MOL
REMARK 923 INTER-LIGAND FREE ENERGY PREDICTED BY IDOCK:   -6.46 KCAL/MOL
REMARK 924 INTRA-LIGAND FREE ENERGY PREDICTED BY IDOCK:   -1.21 KCAL/MOL
REMARK 927      BINDING AFFINITY PREDICTED BY RF-SCORE:    0.00 PKD
ROOT
HETATM    1  C   UNK A   1      -8.986   9.078  69.760  1.00  0.00    -0.154 C  
HETATM    2  C   UNK A   1      -8.731  10.388  69.020  1.00  0.00    -0.170 C  
ENDROOT
BRANCH   1   3
HETATM    3  C   UNK A   1      -7.848   8.073  69.430  1.00  0.00    -0.113 C  
ATOM      4  CA  PRO A   2      -9.053   7.332  67.293  1.00  0.00    -0.123 C  
ATOM      5  N   PRO A   2      -8.022   7.226  68.345  1.00  0.00    -0.122 N  
ATOM      6  C   PRO A   2     -10.348   6.596  67.669  1.00  0.00    -0.199 C  
HETATM    7  O   UNK A   1      -6.836   8.012  70.134  1.00  0.00    -0.040 OA 
ATOM      8  CB  PRO A   2      -8.425   6.675  66.057  1.00  0.00    -0.142 C  
ATOM      9  O   PRO A   2     -10.294   5.967  68.865  1.00  0.00    -0.184 OA 
ATOM     10  CD  PRO A   2      -6.974   6.309  67.927  1.00  0.00    -0.072 C  
ATOM     11  OXT PRO A   2     -11.340   6.573  66.958  1.00  0.00    -0.342 OA 
ATOM     12  CG  PRO A   2      -6.960   6.450  66.418  1.00  0.00    -0.067 C  
ENDBRANCH   1   3
BRANCH   1  13
HETATM   13  N   UNK A   1      -9.019   9.252  71.234  1.00  0.00    -0.305 NA 
HETATM   14  H   UNK A   1      -8.646  10.168  71.485  1.00  0.00     0.000 HD 
BRANCH  13  15
HETATM   15  C   UNK A   1     -10.357   9.047  71.877  1.00  0.00    -0.287 C  
HETATM   16  O   UNK A   1     -11.028   7.518  73.690  1.00  0.00    -0.322 OA 
HETATM   17  O   UNK A   1      -9.077   7.129  72.615  1.00  0.00    -0.132 OA 
HETATM   18  C   UNK A   1     -10.220   7.831  72.829  1.00  0.00    -0.299 C  
BRANCH  15  19
HETATM   19  C   UNK A   1     -11.502   8.804  70.867  1.00  0.00    -0.330 C  
BRANCH  19  20
HETATM   20  C   UNK A   1     -12.821   9.485  71.272  1.00  0.00    -0.414 C  
BRANCH  20  21
HETATM   21  C   UNK A   1     -12.798  10.991  71.155  1.00  0.00    -0.491 A  
HETATM   22  C   UNK A   1     -12.677  13.796  71.027  1.00  0.00    -0.416 A  
HETATM   23  C   UNK A   1     -13.403  11.778  72.142  1.00  0.00    -0.334 A  
HETATM   24  C   UNK A   1     -13.342  13.173  72.081  1.00  0.00    -0.621 A  
HETATM   25  C   UNK A   1     -12.077  13.025  70.035  1.00  0.00    -0.367 A  
HETATM   26  C   UNK A   1     -12.132  11.629  70.094  1.00  0.00    -0.414 A  
ENDBRANCH  20  21
ENDBRANCH  19  20
ENDBRANCH  15  19
ENDBRANCH  13  15
ENDBRANCH   1  13
TORSDOF 6
ENDMDL
MODEL      123
REMARK 921   NORMALIZED FREE ENERGY PREDICTED BY IDOCK:   -4.41 KCAL/MOL
REMARK 922        TOTAL FREE ENERGY PREDICTED BY IDOCK:   -7.67 KCAL/MOL
REMARK 923 INTER-LIGAND FREE ENERGY PREDICTED BY IDOCK:   -6.91 KCAL/MOL
REMARK 924 INTRA-LIGAND FREE ENERGY PREDICTED BY IDOCK:   -0.76 KCAL/MOL
REMARK 927      BINDING AFFINITY PREDICTED BY RF-SCORE:    0.00 PKD
ROOT
HETATM    1  C   UNK A   1     -11.588  13.851  66.069  1.00  0.00    -0.349 C  
HETATM    2  C   UNK A   1     -12.977  13.531  65.523  1.00  0.00    -0.269 C  
ENDROOT
BRANCH   1   3
HETATM    3  C   UNK A   1     -10.525  13.062  65.254  1.00  0.00    -0.304 C  
ATOM      4  CA  PRO A   2     -10.560  11.152  66.961  1.00  0.00    -0.252 C  
ATOM      5  N   PRO A   2     -10.021  11.892  65.803  1.00  0.00    -0.231 N  
ATOM      6  C   PRO A   2      -9.979  11.649  68.293  1.00  0.00    -0.201 C  
HETATM    7  O   UNK A   1     -10.120  13.487  64.168  1.00  0.00    -0.300 OA 
ATOM      8  CB  PRO A   2     -10.143   9.694  66.728  1.00  0.00    -0.301 C  
ATOM      9  O   PRO A   2      -9.067  12.639  68.159  1.00  0.00    -0.196 OA 
ATOM     10  CD  PRO A   2      -9.078  11.059  65.072  1.00  0.00    -0.164 C  
ATOM     11  OXT PRO A   2     -10.302  11.196  69.380  1.00  0.00    -0.173 OA 
ATOM     12  CG  PRO A   2      -9.592   9.653  65.305  1.00  0.00    -0.347 C  
ENDBRANCH   1   3
BRANCH   1  13
HETATM   13  N   UNK A   1     -11.253  15.293  65.968  1.00  0.00    -0.284 NA 
HETATM   14  H   UNK A   1     -12.050  15.858  66.261  1.00  0.00     0.000 HD 
BRANCH  13  15
HETATM   15  C   UNK A   1     -10.021  15.721  66.708  1.00  0.00    -0.252 C  
HETATM   16  O   UNK A   1      -9.651  16.037  69.123  1.00  0.00    -0.231 OA 
HETATM   17  O   UNK A   1     -11.777  15.947  68.358  1.00  0.00    -0.358 OA 
HETATM   18  C   UNK A   1     -10.429  15.921  68.190  1.00  0.00    -0.270 C  
BRANCH  15  19
HETATM   19  C   UNK A   1      -9.381  17.014  66.154  1.00  0.00    -0.245 C  
BRANCH  19  20
HETATM   20  C   UNK A   1      -7.857  17.072  66.359  1.00  0.00    -0.343 C  
BRANCH  20  21
HETATM   21  C   UNK A   1      -7.352  18.406  66.854  1.00  0.00    -0.227 A  
HETATM   22  C   UNK A   1      -6.507  20.941  67.725  1.00  0.00    -0.400 A  
HETATM   23  C   UNK A   1      -6.834  19.338  65.946  1.00  0.00    -0.289 A  
HETATM   24  C   UNK A   1      -6.415  20.599  66.378  1.00  0.00    -0.304 A  
HETATM   25  C   UNK A   1      -7.015  20.022  68.640  1.00  0.00    -0.319 A  
HETATM   26  C   UNK A   1      -7.438  18.760  68.212  1.00  0.00    -0.300 A  
ENDBRANCH  20  21
ENDBRANCH  19  20
ENDBRANCH  15  19
ENDBRANCH  13  15
ENDBRANCH   1  13
TORSDOF 6
ENDMDL
MODEL      124
REMARK 921   NORMALIZED FREE ENERGY PREDICTED BY IDOCK:   -4.41 KCAL/MOL
REMARK 922        TOTAL FREE ENERGY PREDICTED BY IDOCK:   -7.67 KCAL/MOL
REMARK 923 INTER-LIGAND FREE ENERGY PREDICTED BY IDOCK:   -6.79 KCAL/MOL
REMARK 924 INTRA-LIGAND FREE ENERGY PREDICTED BY IDOCK:   -0.88 KCAL/MOL
REMARK 927      BINDING AFFINITY PREDICTED BY RF-SCORE:    0.00 PKD
ROOT
HETATM    1  C   UNK A   1     -11.346  12.446  65.998  1.00  0.00    -0.353 C  
HETATM    2  C   UNK A   1     -12.527  12.964  65.182  1.00  0.00    -0.561 C  
ENDROOT
BRANCH   1   3
HETATM    3  C   UNK A   1     -11.742  12.404  67.501  1.00  0.00    -0.357 C  
ATOM      4  CA  PRO A   2     -11.064  14.857  67.800  1.00  0.00    -0.309 C  
ATOM      5  N   PRO A   2     -11.462  13.519  68.278  1.00  0.00    -0.289 N  
ATOM      6  C   PRO A   2      -9.543  14.989  67.633  1.00  0.00    -0.203 C  
HETATM    7  O   UNK A   1     -12.259  11.395  67.989  1.00  0.00    -0.607 OA 
ATOM      8  CB  PRO A   2     -11.550  15.826  68.886  1.00  0.00    -0.400 C  
ATOM      9  O   PRO A   2      -8.854  13.878  67.982  1.00  0.00    -0.167 OA 
ATOM     10  CD  PRO A   2     -11.866  13.586  69.674  1.00  0.00    -0.336 C  
ATOM     11  OXT PRO A   2      -8.995  16.001  67.225  1.00  0.00    -0.191 OA 
ATOM     12  CG  PRO A   2     -12.424  14.988  69.815  1.00  0.00    -0.216 C  
ENDBRANCH   1   3
BRANCH   1  13
HETATM   13  N   UNK A   1     -10.936  11.076  65.603  1.00  0.00    -0.093 NA 
HETATM   14  H   UNK A   1     -11.086  10.941  64.603  1.00  0.00     0.000 HD 
BRANCH  13  15
HETATM   15  C   UNK A   1      -9.533  10.693  65.968  1.00  0.00    -0.193 C  
HETATM   16  O   UNK A   1      -7.621  10.113  64.525  1.00  0.00    -0.141 OA 
HETATM   17  O   UNK A   1      -9.700  10.069  63.635  1.00  0.00    -0.229 OA 
HETATM   18  C   UNK A   1      -8.826  10.262  64.657  1.00  0.00    -0.199 C  
BRANCH  15  19
HETATM   19  C   UNK A   1      -9.449   9.558  67.014  1.00  0.00    -0.197 C  
BRANCH  19  20
HETATM   20  C   UNK A   1     -10.643   8.590  66.952  1.00  0.00    -0.279 C  
BRANCH  20  21
HETATM   21  C   UNK A   1     -10.364   7.229  67.546  1.00  0.00    -0.310 A  
HETATM   22  C   UNK A   1      -9.730   4.730  68.664  1.00  0.00    -0.223 A  
HETATM   23  C   UNK A   1      -9.639   6.282  66.813  1.00  0.00    -0.183 A  
HETATM   24  C   UNK A   1      -9.322   5.039  67.369  1.00  0.00    -0.138 A  
HETATM   25  C   UNK A   1     -10.457   5.660  69.402  1.00  0.00    -0.367 A  
HETATM   26  C   UNK A   1     -10.773   6.906  68.852  1.00  0.00    -0.254 A  
ENDBRANCH  20  21
ENDBRANCH  19  20
ENDBRANCH  15  19
ENDBRANCH  13  15
ENDBRANCH   1  13
TORSDOF 6
ENDMDL
MODEL      125
REMARK 921   NORMALIZED FREE ENERGY PREDICTED BY IDOCK:   -4.38 KCAL/MOL
REMARK 922        TOTAL FREE ENERGY PREDICTED BY IDOCK:   -7.63 KCAL/MOL
REMARK 923 INTER-LIGAND FREE ENERGY PREDICTED BY IDOCK:   -6.19 KCAL/MOL
REMARK 924 INTRA-LIGAND FREE ENERGY PREDICTED BY IDOCK:   -1.43 KCAL/MOL
REMARK 927      BINDING AFFINITY PREDICTED BY RF-SCORE:    0.00 PKD
ROOT
HETATM    1  C   UNK A   1     -10.509   7.632  68.784  1.00  0.00    -0.189 C  
HETATM    2  C   UNK A   1      -9.936   7.147  67.455  1.00  0.00    -0.214 C  
ENDROOT
BRANCH   1   3
HETATM    3  C   UNK A   1      -9.770   6.919  69.951  1.00  0.00    -0.162 C  
ATOM      4  CA  PRO A   2     -11.914   6.876  71.352  1.00  0.00    -0.349 C  
ATOM      5  N   PRO A   2     -10.462   6.723  71.137  1.00  0.00    -0.213 N  
ATOM      6  C   PRO A   2     -12.299   8.312  71.738  1.00  0.00    -0.328 C  
HETATM    7  O   UNK A   1      -8.591   6.570  69.831  1.00  0.00    -0.136 OA 
ATOM      8  CB  PRO A   2     -12.245   5.924  72.510  1.00  0.00    -0.023 C  
ATOM      9  O   PRO A   2     -11.245   9.154  71.839  1.00  0.00    -0.364 OA 
ATOM     10  CD  PRO A   2      -9.865   6.000  72.249  1.00  0.00    -0.160 C  
ATOM     11  OXT PRO A   2     -13.449   8.670  71.939  1.00  0.00    -0.355 OA 
ATOM     12  CG  PRO A   2     -10.983   5.094  72.724  1.00  0.00    -0.327 C  
ENDBRANCH   1   3
BRANCH   1  13
HETATM   13  N   UNK A   1     -10.348   9.094  68.976  1.00  0.00    -0.211 NA 
HETATM   14  H   UNK A   1     -10.177   9.300  69.961  1.00  0.00     0.000 HD 
BRANCH  13  15
HETATM   15  C   UNK A   1      -9.298   9.743  68.125  1.00  0.00    -0.128 C  
HETATM   16  O   UNK A   1      -7.013  10.465  68.702  1.00  0.00    -0.063 OA 
HETATM   17  O   UNK A   1      -8.474  10.062  70.380  1.00  0.00    -0.101 OA 
HETATM   18  C   UNK A   1      -8.130  10.134  69.067  1.00  0.00    -0.125 C  
BRANCH  15  19
HETATM   19  C   UNK A   1      -9.801  10.989  67.359  1.00  0.00    -0.197 C  
BRANCH  19  20
HETATM   20  C   UNK A   1     -11.316  11.214  67.498  1.00  0.00    -0.351 C  
BRANCH  20  21
HETATM   21  C   UNK A   1     -11.689  12.355  68.415  1.00  0.00    -0.386 A  
HETATM   22  C   UNK A   1     -12.278  14.460  70.181  1.00  0.00    -0.401 A  
HETATM   23  C   UNK A   1     -12.072  12.094  69.736  1.00  0.00    -0.306 A  
HETATM   24  C   UNK A   1     -12.364  13.140  70.616  1.00  0.00    -0.405 A  
HETATM   25  C   UNK A   1     -11.905  14.734  68.868  1.00  0.00    -0.331 A  
HETATM   26  C   UNK A   1     -11.608  13.691  67.986  1.00  0.00    -0.368 A  
ENDBRANCH  20  21
ENDBRANCH  19  20
ENDBRANCH  15  19
ENDBRANCH  13  15
ENDBRANCH   1  13
TORSDOF 6
ENDMDL
MODEL      126
REMARK 921   NORMALIZED FREE ENERGY PREDICTED BY IDOCK:   -4.38 KCAL/MOL
REMARK 922        TOTAL FREE ENERGY PREDICTED BY IDOCK:   -7.63 KCAL/MOL
REMARK 923 INTER-LIGAND FREE ENERGY PREDICTED BY IDOCK:   -6.53 KCAL/MOL
REMARK 924 INTRA-LIGAND FREE ENERGY PREDICTED BY IDOCK:   -1.10 KCAL/MOL
REMARK 927      BINDING AFFINITY PREDICTED BY RF-SCORE:    0.00 PKD
ROOT
HETATM    1  C   UNK A   1     -10.513   7.359  68.045  1.00  0.00    -0.199 C  
HETATM    2  C   UNK A   1     -11.014   6.408  66.962  1.00  0.00    -0.463 C  
ENDROOT
BRANCH   1   3
HETATM    3  C   UNK A   1      -9.993   6.530  69.253  1.00  0.00    -0.153 C  
ATOM      4  CA  PRO A   2     -11.415   7.909  70.877  1.00  0.00    -0.281 C  
ATOM      5  N   PRO A   2     -10.365   6.933  70.527  1.00  0.00    -0.203 N  
ATOM      6  C   PRO A   2     -10.882   9.349  70.924  1.00  0.00    -0.322 C  
HETATM    7  O   UNK A   1      -9.244   5.563  69.079  1.00  0.00    -0.116 OA 
ATOM      8  CB  PRO A   2     -11.895   7.490  72.273  1.00  0.00    -0.331 C  
ATOM      9  O   PRO A   2      -9.557   9.452  70.671  1.00  0.00    -0.250 OA 
ATOM     10  CD  PRO A   2      -9.980   6.169  71.703  1.00  0.00    -0.177 C  
ATOM     11  OXT PRO A   2     -11.582  10.319  71.170  1.00  0.00    -0.355 OA 
ATOM     12  CG  PRO A   2     -11.247   6.133  72.534  1.00  0.00    -0.327 C  
ENDBRANCH   1   3
BRANCH   1  13
HETATM   13  N   UNK A   1      -9.398   8.220  67.577  1.00  0.00    -0.139 NA 
HETATM   14  H   UNK A   1      -8.542   7.670  67.498  1.00  0.00     0.000 HD 
BRANCH  13  15
HETATM   15  C   UNK A   1      -9.651   8.964  66.301  1.00  0.00    -0.260 C  
HETATM   16  O   UNK A   1      -8.401   8.942  64.177  1.00  0.00    -0.165 OA 
HETATM   17  O   UNK A   1      -7.390   8.140  66.035  1.00  0.00    -0.074 OA 
HETATM   18  C   UNK A   1      -8.438   8.698  65.373  1.00  0.00    -0.172 C  
BRANCH  15  19
HETATM   19  C   UNK A   1      -9.845  10.485  66.496  1.00  0.00    -0.255 C  
BRANCH  19  20
HETATM   20  C   UNK A   1     -11.254  10.857  66.990  1.00  0.00    -0.211 C  
BRANCH  20  21
HETATM   21  C   UNK A   1     -11.370  12.270  67.514  1.00  0.00    -0.388 A  
HETATM   22  C   UNK A   1     -11.679  14.914  68.413  1.00  0.00    -0.336 A  
HETATM   23  C   UNK A   1     -10.985  13.348  66.708  1.00  0.00    -0.298 A  
HETATM   24  C   UNK A   1     -11.140  14.664  67.153  1.00  0.00    -0.328 A  
HETATM   25  C   UNK A   1     -12.060  13.851  69.227  1.00  0.00    -0.383 A  
HETATM   26  C   UNK A   1     -11.911  12.534  68.784  1.00  0.00    -0.347 A  
ENDBRANCH  20  21
ENDBRANCH  19  20
ENDBRANCH  15  19
ENDBRANCH  13  15
ENDBRANCH   1  13
TORSDOF 6
ENDMDL
MODEL      127
REMARK 921   NORMALIZED FREE ENERGY PREDICTED BY IDOCK:   -4.35 KCAL/MOL
REMARK 922        TOTAL FREE ENERGY PREDICTED BY IDOCK:   -7.59 KCAL/MOL
REMARK 923 INTER-LIGAND FREE ENERGY PREDICTED BY IDOCK:   -6.18 KCAL/MOL
REMARK 924 INTRA-LIGAND FREE ENERGY PREDICTED BY IDOCK:   -1.41 KCAL/MOL
REMARK 927      BINDING AFFINITY PREDICTED BY RF-SCORE:    0.00 PKD
ROOT
HETATM    1  C   UNK A   1      -9.554  11.779  67.138  1.00  0.00    -0.181 C  
HETATM    2  C   UNK A   1      -8.512  12.203  68.170  1.00  0.00    -0.175 C  
ENDROOT
BRANCH   1   3
HETATM    3  C   UNK A   1      -9.548  10.230  67.012  1.00  0.00    -0.171 C  
ATOM      4  CA  PRO A   2      -8.656  10.377  64.614  1.00  0.00    -0.185 C  
ATOM      5  N   PRO A   2      -9.239   9.679  65.776  1.00  0.00    -0.192 N  
ATOM      6  C   PRO A   2      -9.729  11.001  63.710  1.00  0.00    -0.309 C  
HETATM    7  O   UNK A   1      -9.843   9.517  67.976  1.00  0.00    -0.148 OA 
ATOM      8  CB  PRO A   2      -7.895   9.292  63.841  1.00  0.00    -0.130 C  
ATOM      9  O   PRO A   2     -10.996  10.771  64.122  1.00  0.00    -0.094 OA 
ATOM     10  CD  PRO A   2      -9.141   8.239  65.595  1.00  0.00    -0.065 C  
ATOM     11  OXT PRO A   2      -9.471  11.647  62.706  1.00  0.00    -0.348 OA 
ATOM     12  CG  PRO A   2      -7.890   8.071  64.756  1.00  0.00    -0.131 C  
ENDBRANCH   1   3
BRANCH   1  13
HETATM   13  N   UNK A   1     -10.928  12.194  67.511  1.00  0.00    -0.244 NA 
HETATM   14  H   UNK A   1     -11.560  11.394  67.463  1.00  0.00     0.000 HD 
BRANCH  13  15
HETATM   15  C   UNK A   1     -11.058  12.873  68.841  1.00  0.00    -0.255 C  
HETATM   16  O   UNK A   1     -12.069  12.069  70.940  1.00  0.00    -0.308 OA 
HETATM   17  O   UNK A   1     -12.577  10.996  69.015  1.00  0.00    -0.378 OA 
HETATM   18  C   UNK A   1     -11.943  11.962  69.730  1.00  0.00    -0.307 C  
BRANCH  15  19
HETATM   19  C   UNK A   1     -11.670  14.290  68.760  1.00  0.00    -0.378 C  
BRANCH  19  20
HETATM   20  C   UNK A   1     -11.583  14.907  67.354  1.00  0.00    -0.347 C  
BRANCH  20  21
HETATM   21  C   UNK A   1     -10.454  15.896  67.183  1.00  0.00    -0.313 A  
HETATM   22  C   UNK A   1      -8.382  17.744  66.748  1.00  0.00    -0.271 A  
HETATM   23  C   UNK A   1      -9.300  15.524  66.483  1.00  0.00    -0.311 A  
HETATM   24  C   UNK A   1      -8.269  16.443  66.265  1.00  0.00    -0.343 A  
HETATM   25  C   UNK A   1      -9.522  18.125  67.451  1.00  0.00    -0.255 A  
HETATM   26  C   UNK A   1     -10.556  17.211  67.668  1.00  0.00    -0.343 A  
ENDBRANCH  20  21
ENDBRANCH  19  20
ENDBRANCH  15  19
ENDBRANCH  13  15
ENDBRANCH   1  13
TORSDOF 6
ENDMDL
MODEL      128
REMARK 921   NORMALIZED FREE ENERGY PREDICTED BY IDOCK:   -4.33 KCAL/MOL
REMARK 922        TOTAL FREE ENERGY PREDICTED BY IDOCK:   -7.56 KCAL/MOL
REMARK 923 INTER-LIGAND FREE ENERGY PREDICTED BY IDOCK:   -6.48 KCAL/MOL
REMARK 924 INTRA-LIGAND FREE ENERGY PREDICTED BY IDOCK:   -1.08 KCAL/MOL
REMARK 927      BINDING AFFINITY PREDICTED BY RF-SCORE:    0.00 PKD
ROOT
HETATM    1  C   UNK A   1      -9.656  12.304  67.690  1.00  0.00    -0.191 C  
HETATM    2  C   UNK A   1      -8.860  11.314  66.846  1.00  0.00    -0.165 C  
ENDROOT
BRANCH   1   3
HETATM    3  C   UNK A   1     -11.063  12.499  67.059  1.00  0.00    -0.281 C  
ATOM      4  CA  PRO A   2     -10.377  14.776  66.105  1.00  0.00    -0.304 C  
ATOM      5  N   PRO A   2     -11.343  13.717  66.456  1.00  0.00    -0.311 N  
ATOM      6  C   PRO A   2     -10.148  15.763  67.260  1.00  0.00    -0.247 C  
HETATM    7  O   UNK A   1     -11.914  11.606  67.125  1.00  0.00    -0.614 OA 
ATOM      8  CB  PRO A   2     -11.009  15.510  64.915  1.00  0.00    -0.452 C  
ATOM      9  O   PRO A   2     -10.889  15.502  68.361  1.00  0.00    -0.252 OA 
ATOM     10  CD  PRO A   2     -12.610  13.951  65.780  1.00  0.00    -0.494 C  
ATOM     11  OXT PRO A   2      -9.371  16.703  67.198  1.00  0.00    -0.222 OA 
ATOM     12  CG  PRO A   2     -12.203  14.656  64.500  1.00  0.00    -0.473 C  
ENDBRANCH   1   3
BRANCH   1  13
HETATM   13  N   UNK A   1      -9.850  11.838  69.086  1.00  0.00    -0.403 NA 
HETATM   14  H   UNK A   1     -10.771  12.120  69.423  1.00  0.00     0.000 HD 
BRANCH  13  15
HETATM   15  C   UNK A   1      -9.649  10.369  69.308  1.00  0.00    -0.209 C  
HETATM   16  O   UNK A   1     -11.145   8.702  70.335  1.00  0.00    -0.240 OA 
HETATM   17  O   UNK A   1     -11.559  10.895  70.700  1.00  0.00    -0.328 OA 
HETATM   18  C   UNK A   1     -10.846   9.872  70.159  1.00  0.00    -0.304 C  
BRANCH  15  19
HETATM   19  C   UNK A   1      -8.317  10.023  70.012  1.00  0.00    -0.137 C  
BRANCH  19  20
HETATM   20  C   UNK A   1      -7.485   8.977  69.252  1.00  0.00    -0.075 C  
BRANCH  20  21
HETATM   21  C   UNK A   1      -8.041   7.574  69.327  1.00  0.00    -0.126 A  
HETATM   22  C   UNK A   1      -9.170   5.008  69.526  1.00  0.00    -0.167 A  
HETATM   23  C   UNK A   1      -8.048   6.889  70.548  1.00  0.00    -0.115 A  
HETATM   24  C   UNK A   1      -8.610   5.613  70.649  1.00  0.00    -0.130 A  
HETATM   25  C   UNK A   1      -9.164   5.676  68.304  1.00  0.00    -0.116 A  
HETATM   26  C   UNK A   1      -8.606   6.953  68.200  1.00  0.00    -0.123 A  
ENDBRANCH  20  21
ENDBRANCH  19  20
ENDBRANCH  15  19
ENDBRANCH  13  15
ENDBRANCH   1  13
TORSDOF 6
ENDMDL
MODEL      129
REMARK 921   NORMALIZED FREE ENERGY PREDICTED BY IDOCK:   -4.30 KCAL/MOL
REMARK 922        TOTAL FREE ENERGY PREDICTED BY IDOCK:   -7.53 KCAL/MOL
REMARK 923 INTER-LIGAND FREE ENERGY PREDICTED BY IDOCK:   -7.61 KCAL/MOL
REMARK 924 INTRA-LIGAND FREE ENERGY PREDICTED BY IDOCK:    0.08 KCAL/MOL
REMARK 927      BINDING AFFINITY PREDICTED BY RF-SCORE:    0.00 PKD
ROOT
HETATM    1  C   UNK A   1      -9.898   9.341  71.433  1.00  0.00    -0.226 C  
HETATM    2  C   UNK A   1      -9.776   8.040  72.221  1.00  0.00    -0.294 C  
ENDROOT
BRANCH   1   3
HETATM    3  C   UNK A   1      -8.793   9.382  70.340  1.00  0.00    -0.249 C  
ATOM      4  CA  PRO A   2     -10.254   8.017  68.739  1.00  0.00    -0.206 C  
ATOM      5  N   PRO A   2      -8.994   8.642  69.184  1.00  0.00    -0.141 N  
ATOM      6  C   PRO A   2     -10.429   6.596  69.295  1.00  0.00    -0.214 C  
HETATM    7  O   UNK A   1      -7.755  10.028  70.516  1.00  0.00    -0.264 OA 
ATOM      8  CB  PRO A   2     -10.151   7.963  67.209  1.00  0.00    -0.307 C  
ATOM      9  O   PRO A   2      -9.392   6.172  70.055  1.00  0.00    -0.152 OA 
ATOM     10  CD  PRO A   2      -8.042   8.686  68.084  1.00  0.00    -0.115 C  
ATOM     11  OXT PRO A   2     -11.409   5.902  69.076  1.00  0.00    -0.258 OA 
ATOM     12  CG  PRO A   2      -8.923   8.797  66.856  1.00  0.00    -0.155 C  
ENDBRANCH   1   3
BRANCH   1  13
HETATM   13  N   UNK A   1     -11.209   9.476  70.752  1.00  0.00    -0.289 NA 
HETATM   14  H   UNK A   1     -11.914   8.923  71.239  1.00  0.00     0.000 HD 
BRANCH  13  15
HETATM   15  C   UNK A   1     -11.696  10.882  70.566  1.00  0.00    -0.342 C  
HETATM   16  O   UNK A   1     -13.402  12.147  71.816  1.00  0.00    -0.407 OA 
HETATM   17  O   UNK A   1     -13.360   9.895  72.022  1.00  0.00    -0.423 OA 
HETATM   18  C   UNK A   1     -12.903  11.072  71.521  1.00  0.00    -0.450 C  
BRANCH  15  19
HETATM   19  C   UNK A   1     -12.112  11.209  69.114  1.00  0.00    -0.352 C  
BRANCH  19  20
HETATM   20  C   UNK A   1     -10.929  11.629  68.225  1.00  0.00    -0.273 C  
BRANCH  20  21
HETATM   21  C   UNK A   1     -11.336  12.222  66.896  1.00  0.00    -0.392 A  
HETATM   22  C   UNK A   1     -12.174  13.236  64.413  1.00  0.00    -0.449 A  
HETATM   23  C   UNK A   1     -10.997  11.568  65.706  1.00  0.00    -0.305 A  
HETATM   24  C   UNK A   1     -11.414  12.070  64.470  1.00  0.00    -0.385 A  
HETATM   25  C   UNK A   1     -12.513  13.900  65.589  1.00  0.00    -0.538 A  
HETATM   26  C   UNK A   1     -12.101  13.399  66.827  1.00  0.00    -0.419 A  
ENDBRANCH  20  21
ENDBRANCH  19  20
ENDBRANCH  15  19
ENDBRANCH  13  15
ENDBRANCH   1  13
TORSDOF 6
ENDMDL
MODEL      130
REMARK 921   NORMALIZED FREE ENERGY PREDICTED BY IDOCK:   -4.29 KCAL/MOL
REMARK 922        TOTAL FREE ENERGY PREDICTED BY IDOCK:   -7.51 KCAL/MOL
REMARK 923 INTER-LIGAND FREE ENERGY PREDICTED BY IDOCK:   -6.24 KCAL/MOL
REMARK 924 INTRA-LIGAND FREE ENERGY PREDICTED BY IDOCK:   -1.27 KCAL/MOL
REMARK 927      BINDING AFFINITY PREDICTED BY RF-SCORE:    0.00 PKD
ROOT
HETATM    1  C   UNK A   1      -9.487  14.402  66.742  1.00  0.00    -0.267 C  
HETATM    2  C   UNK A   1      -8.043  14.740  67.099  1.00  0.00    -0.226 C  
ENDROOT
BRANCH   1   3
HETATM    3  C   UNK A   1     -10.431  15.466  67.370  1.00  0.00    -0.277 C  
ATOM      4  CA  PRO A   2     -11.191  13.806  69.168  1.00  0.00    -0.262 C  
ATOM      5  N   PRO A   2     -11.267  15.066  68.403  1.00  0.00    -0.279 N  
ATOM      6  C   PRO A   2     -11.994  12.674  68.509  1.00  0.00    -0.214 C  
HETATM    7  O   UNK A   1     -10.457  16.622  66.936  1.00  0.00    -0.301 OA 
ATOM      8  CB  PRO A   2     -11.795  14.137  70.538  1.00  0.00    -0.352 C  
ATOM      9  O   PRO A   2     -12.641  13.045  67.380  1.00  0.00    -0.020 OA 
ATOM     10  CD  PRO A   2     -12.126  16.017  69.091  1.00  0.00    -0.053 C  
ATOM     11  OXT PRO A   2     -12.051  11.540  68.956  1.00  0.00    -0.326 OA 
ATOM     12  CG  PRO A   2     -11.958  15.655  70.553  1.00  0.00    -0.417 C  
ENDBRANCH   1   3
BRANCH   1  13
HETATM   13  N   UNK A   1      -9.727  14.397  65.278  1.00  0.00    -0.540 NA 
HETATM   14  H   UNK A   1      -8.902  14.742  64.788  1.00  0.00     0.000 HD 
BRANCH  13  15
HETATM   15  C   UNK A   1     -10.155  13.081  64.701  1.00  0.00    -0.230 C  
HETATM   16  O   UNK A   1     -12.057  12.537  63.230  1.00  0.00    -0.509 OA 
HETATM   17  O   UNK A   1     -12.079  14.507  64.342  1.00  0.00    -0.472 OA 
HETATM   18  C   UNK A   1     -11.521  13.314  64.005  1.00  0.00    -0.388 C  
BRANCH  15  19
HETATM   19  C   UNK A   1     -10.281  11.952  65.750  1.00  0.00    -0.276 C  
BRANCH  19  20
HETATM   20  C   UNK A   1      -9.230  10.842  65.573  1.00  0.00    -0.232 C  
BRANCH  20  21
HETATM   21  C   UNK A   1      -8.029  10.981  66.479  1.00  0.00    -0.158 A  
HETATM   22  C   UNK A   1      -5.824  11.134  68.214  1.00  0.00    -0.045 A  
HETATM   23  C   UNK A   1      -8.207  11.279  67.835  1.00  0.00    -0.123 A  
HETATM   24  C   UNK A   1      -7.111  11.354  68.699  1.00  0.00    -0.095 A  
HETATM   25  C   UNK A   1      -5.633  10.842  66.866  1.00  0.00    -0.065 A  
HETATM   26  C   UNK A   1      -6.726  10.762  65.999  1.00  0.00    -0.109 A  
ENDBRANCH  20  21
ENDBRANCH  19  20
ENDBRANCH  15  19
ENDBRANCH  13  15
ENDBRANCH   1  13
TORSDOF 6
ENDMDL
MODEL      131
REMARK 921   NORMALIZED FREE ENERGY PREDICTED BY IDOCK:   -4.28 KCAL/MOL
REMARK 922        TOTAL FREE ENERGY PREDICTED BY IDOCK:   -7.50 KCAL/MOL
REMARK 923 INTER-LIGAND FREE ENERGY PREDICTED BY IDOCK:   -6.50 KCAL/MOL
REMARK 924 INTRA-LIGAND FREE ENERGY PREDICTED BY IDOCK:   -1.00 KCAL/MOL
REMARK 927      BINDING AFFINITY PREDICTED BY RF-SCORE:    0.00 PKD
ROOT
HETATM    1  C   UNK A   1     -11.133  12.570  67.385  1.00  0.00    -0.272 C  
HETATM    2  C   UNK A   1     -11.244  12.318  65.884  1.00  0.00    -0.381 C  
ENDROOT
BRANCH   1   3
HETATM    3  C   UNK A   1     -11.408  14.073  67.672  1.00  0.00    -0.312 C  
ATOM      4  CA  PRO A   2      -9.131  14.729  66.698  1.00  0.00    -0.272 C  
ATOM      5  N   PRO A   2     -10.382  14.978  67.439  1.00  0.00    -0.237 N  
ATOM      6  C   PRO A   2      -8.014  14.187  67.604  1.00  0.00    -0.178 C  
HETATM    7  O   UNK A   1     -12.495  14.440  68.127  1.00  0.00    -0.075 OA 
ATOM      8  CB  PRO A   2      -8.722  16.097  66.137  1.00  0.00    -0.358 C  
ATOM      9  O   PRO A   2      -8.370  14.071  68.904  1.00  0.00    -0.092 OA 
ATOM     10  CD  PRO A   2     -10.583  16.408  67.613  1.00  0.00    -0.313 C  
ATOM     11  OXT PRO A   2      -6.903  13.888  67.197  1.00  0.00    -0.146 OA 
ATOM     12  CG  PRO A   2      -9.917  17.012  66.393  1.00  0.00    -0.318 C  
ENDBRANCH   1   3
BRANCH   1  13
HETATM   13  N   UNK A   1     -12.109  11.776  68.171  1.00  0.00    -0.531 NA 
HETATM   14  H   UNK A   1     -12.796  11.351  67.548  1.00  0.00     0.000 HD 
BRANCH  13  15
HETATM   15  C   UNK A   1     -11.516  10.734  69.071  1.00  0.00    -0.298 C  
HETATM   16  O   UNK A   1     -11.916  10.287  71.461  1.00  0.00    -0.358 OA 
HETATM   17  O   UNK A   1     -12.556  12.283  70.613  1.00  0.00    -0.257 OA 
HETATM   18  C   UNK A   1     -12.001  11.047  70.509  1.00  0.00    -0.379 C  
BRANCH  15  19
HETATM   19  C   UNK A   1      -9.971  10.684  69.031  1.00  0.00    -0.226 C  
BRANCH  19  20
HETATM   20  C   UNK A   1      -9.415   9.259  68.868  1.00  0.00    -0.154 C  
BRANCH  20  21
HETATM   21  C   UNK A   1      -9.500   8.418  70.120  1.00  0.00    -0.165 A  
HETATM   22  C   UNK A   1      -9.726   6.938  72.498  1.00  0.00    -0.169 A  
HETATM   23  C   UNK A   1      -8.807   8.807  71.272  1.00  0.00    -0.288 A  
HETATM   24  C   UNK A   1      -8.920   8.073  72.456  1.00  0.00    -0.256 A  
HETATM   25  C   UNK A   1     -10.416   6.536  71.358  1.00  0.00    -0.246 A  
HETATM   26  C   UNK A   1     -10.309   7.270  70.173  1.00  0.00    -0.221 A  
ENDBRANCH  20  21
ENDBRANCH  19  20
ENDBRANCH  15  19
ENDBRANCH  13  15
ENDBRANCH   1  13
TORSDOF 6
ENDMDL
MODEL      132
REMARK 921   NORMALIZED FREE ENERGY PREDICTED BY IDOCK:   -4.27 KCAL/MOL
REMARK 922        TOTAL FREE ENERGY PREDICTED BY IDOCK:   -7.48 KCAL/MOL
REMARK 923 INTER-LIGAND FREE ENERGY PREDICTED BY IDOCK:   -6.24 KCAL/MOL
REMARK 924 INTRA-LIGAND FREE ENERGY PREDICTED BY IDOCK:   -1.24 KCAL/MOL
REMARK 927      BINDING AFFINITY PREDICTED BY RF-SCORE:    0.00 PKD
ROOT
HETATM    1  C   UNK A   1      -7.698  11.847  67.364  1.00  0.00    -0.158 C  
HETATM    2  C   UNK A   1      -7.402  10.776  68.410  1.00  0.00    -0.092 C  
ENDROOT
BRANCH   1   3
HETATM    3  C   UNK A   1      -6.546  12.891  67.361  1.00  0.00    -0.126 C  
ATOM      4  CA  PRO A   2      -8.028  14.605  68.556  1.00  0.00    -0.136 C  
ATOM      5  N   PRO A   2      -6.827  14.170  67.817  1.00  0.00    -0.164 N  
ATOM      6  C   PRO A   2      -9.166  15.035  67.618  1.00  0.00    -0.182 C  
HETATM    7  O   UNK A   1      -5.426  12.594  66.934  1.00  0.00    -0.335 OA 
ATOM      8  CB  PRO A   2      -7.567  15.806  69.392  1.00  0.00    -0.214 C  
ATOM      9  O   PRO A   2      -8.850  14.968  66.304  1.00  0.00    -0.255 OA 
ATOM     10  CD  PRO A   2      -5.786  15.183  67.915  1.00  0.00    -0.143 C  
ATOM     11  OXT PRO A   2     -10.260  15.408  68.012  1.00  0.00    -0.231 OA 
ATOM     12  CG  PRO A   2      -6.046  15.830  69.260  1.00  0.00    -0.133 C  
ENDBRANCH   1   3
BRANCH   1  13
HETATM   13  N   UNK A   1      -7.804  11.291  65.992  1.00  0.00    -0.362 NA 
HETATM   14  H   UNK A   1      -6.909  11.379  65.510  1.00  0.00     0.000 HD 
BRANCH  13  15
HETATM   15  C   UNK A   1      -8.298   9.878  65.906  1.00  0.00    -0.123 C  
HETATM   16  O   UNK A   1      -7.325   7.926  64.760  1.00  0.00    -0.074 OA 
HETATM   17  O   UNK A   1      -6.599   9.988  64.184  1.00  0.00    -0.123 OA 
HETATM   18  C   UNK A   1      -7.376   9.137  64.904  1.00  0.00    -0.101 C  
BRANCH  15  19
HETATM   19  C   UNK A   1      -9.773   9.761  65.456  1.00  0.00    -0.382 C  
BRANCH  19  20
HETATM   20  C   UNK A   1     -10.729  10.634  66.286  1.00  0.00    -0.172 C  
BRANCH  20  21
HETATM   21  C   UNK A   1     -11.284  11.824  65.537  1.00  0.00    -0.316 A  
HETATM   22  C   UNK A   1     -12.410  13.968  64.111  1.00  0.00    -0.374 A  
HETATM   23  C   UNK A   1     -11.257  11.843  64.138  1.00  0.00    -0.446 A  
HETATM   24  C   UNK A   1     -11.818  12.908  63.427  1.00  0.00    -0.576 A  
HETATM   25  C   UNK A   1     -12.438  13.964  65.503  1.00  0.00    -0.541 A  
HETATM   26  C   UNK A   1     -11.882  12.899  66.218  1.00  0.00    -0.477 A  
ENDBRANCH  20  21
ENDBRANCH  19  20
ENDBRANCH  15  19
ENDBRANCH  13  15
ENDBRANCH   1  13
TORSDOF 6
ENDMDL
MODEL      133
REMARK 921   NORMALIZED FREE ENERGY PREDICTED BY IDOCK:   -4.27 KCAL/MOL
REMARK 922        TOTAL FREE ENERGY PREDICTED BY IDOCK:   -7.48 KCAL/MOL
REMARK 923 INTER-LIGAND FREE ENERGY PREDICTED BY IDOCK:   -7.16 KCAL/MOL
REMARK 924 INTRA-LIGAND FREE ENERGY PREDICTED BY IDOCK:   -0.31 KCAL/MOL
REMARK 927      BINDING AFFINITY PREDICTED BY RF-SCORE:    0.00 PKD
ROOT
HETATM    1  C   UNK A   1     -11.435  13.393  66.638  1.00  0.00    -0.344 C  
HETATM    2  C   UNK A   1     -12.380  12.855  65.568  1.00  0.00    -0.517 C  
ENDROOT
BRANCH   1   3
HETATM    3  C   UNK A   1     -11.851  12.821  68.023  1.00  0.00    -0.336 C  
ATOM      4  CA  PRO A   2     -11.714  15.150  69.083  1.00  0.00    -0.325 C  
ATOM      5  N   PRO A   2     -11.833  13.679  69.113  1.00  0.00    -0.329 N  
ATOM      6  C   PRO A   2     -10.251  15.617  69.095  1.00  0.00    -0.233 C  
HETATM    7  O   UNK A   1     -12.156  11.631  68.148  1.00  0.00    -0.577 OA 
ATOM      8  CB  PRO A   2     -12.421  15.630  70.357  1.00  0.00    -0.409 C  
ATOM      9  O   PRO A   2      -9.352  14.608  69.164  1.00  0.00    -0.153 OA 
ATOM     10  CD  PRO A   2     -12.278  13.240  70.427  1.00  0.00    -0.332 C  
ATOM     11  OXT PRO A   2      -9.918  16.791  69.051  1.00  0.00    -0.257 OA 
ATOM     12  CG  PRO A   2     -13.123  14.398  70.920  1.00  0.00    -0.390 C  
ENDBRANCH   1   3
BRANCH   1  13
HETATM   13  N   UNK A   1     -10.022  13.006  66.399  1.00  0.00    -0.271 NA 
HETATM   14  H   UNK A   1      -9.401  13.769  66.669  1.00  0.00     0.000 HD 
BRANCH  13  15
HETATM   15  C   UNK A   1      -9.584  11.731  67.054  1.00  0.00    -0.187 C  
HETATM   16  O   UNK A   1      -7.514  11.211  68.287  1.00  0.00    -0.084 OA 
HETATM   17  O   UNK A   1      -7.554  13.048  66.969  1.00  0.00    -0.064 OA 
HETATM   18  C   UNK A   1      -8.118  11.939  67.514  1.00  0.00    -0.156 C  
BRANCH  15  19
HETATM   19  C   UNK A   1      -9.679  10.494  66.131  1.00  0.00    -0.259 C  
BRANCH  19  20
HETATM   20  C   UNK A   1      -8.869   9.291  66.645  1.00  0.00    -0.146 C  
BRANCH  20  21
HETATM   21  C   UNK A   1      -9.688   8.278  67.409  1.00  0.00    -0.225 A  
HETATM   22  C   UNK A   1     -11.119   6.315  68.823  1.00  0.00    -0.424 A  
HETATM   23  C   UNK A   1     -10.199   7.153  66.751  1.00  0.00    -0.289 A  
HETATM   24  C   UNK A   1     -10.910   6.176  67.453  1.00  0.00    -0.431 A  
HETATM   25  C   UNK A   1     -10.621   7.432  69.489  1.00  0.00    -0.244 A  
HETATM   26  C   UNK A   1      -9.906   8.410  68.791  1.00  0.00    -0.180 A  
ENDBRANCH  20  21
ENDBRANCH  19  20
ENDBRANCH  15  19
ENDBRANCH  13  15
ENDBRANCH   1  13
TORSDOF 6
ENDMDL
MODEL      134
REMARK 921   NORMALIZED FREE ENERGY PREDICTED BY IDOCK:   -4.26 KCAL/MOL
REMARK 922        TOTAL FREE ENERGY PREDICTED BY IDOCK:   -7.47 KCAL/MOL
REMARK 923 INTER-LIGAND FREE ENERGY PREDICTED BY IDOCK:   -6.54 KCAL/MOL
REMARK 924 INTRA-LIGAND FREE ENERGY PREDICTED BY IDOCK:   -0.94 KCAL/MOL
REMARK 927      BINDING AFFINITY PREDICTED BY RF-SCORE:    0.00 PKD
ROOT
HETATM    1  C   UNK A   1      -9.124  10.066  68.920  1.00  0.00    -0.159 C  
HETATM    2  C   UNK A   1      -7.689  10.575  69.032  1.00  0.00    -0.125 C  
ENDROOT
BRANCH   1   3
HETATM    3  C   UNK A   1      -9.476   9.852  67.421  1.00  0.00    -0.149 C  
ATOM      4  CA  PRO A   2     -10.408  12.232  67.247  1.00  0.00    -0.214 C  
ATOM      5  N   PRO A   2     -10.175  10.856  66.768  1.00  0.00    -0.223 N  
ATOM      6  C   PRO A   2     -11.679  12.345  68.103  1.00  0.00    -0.353 C  
HETATM    7  O   UNK A   1      -9.169   8.804  66.845  1.00  0.00    -0.144 OA 
ATOM      8  CB  PRO A   2     -10.566  13.074  65.974  1.00  0.00    -0.292 C  
ATOM      9  O   PRO A   2     -12.360  11.183  68.230  1.00  0.00    -0.532 OA 
ATOM     10  CD  PRO A   2     -10.478  10.764  65.347  1.00  0.00    -0.202 C  
ATOM     11  OXT PRO A   2     -12.050  13.385  68.623  1.00  0.00    -0.346 OA 
ATOM     12  CG  PRO A   2     -10.164  12.152  64.826  1.00  0.00    -0.310 C  
ENDBRANCH   1   3
BRANCH   1  13
HETATM   13  N   UNK A   1      -9.327   8.773  69.619  1.00  0.00    -0.156 NA 
HETATM   14  H   UNK A   1      -8.770   8.747  70.473  1.00  0.00     0.000 HD 
BRANCH  13  15
HETATM   15  C   UNK A   1     -10.753   8.423  69.924  1.00  0.00    -0.227 C  
HETATM   16  O   UNK A   1     -12.133   8.965  71.892  1.00  0.00    -0.325 OA 
HETATM   17  O   UNK A   1      -9.887   9.172  72.057  1.00  0.00    -0.249 OA 
HETATM   18  C   UNK A   1     -11.028   8.873  71.382  1.00  0.00    -0.310 C  
BRANCH  15  19
HETATM   19  C   UNK A   1     -11.072   6.919  69.763  1.00  0.00    -0.316 C  
BRANCH  19  20
HETATM   20  C   UNK A   1      -9.878   6.008  70.099  1.00  0.00    -0.217 C  
BRANCH  20  21
HETATM   21  C   UNK A   1     -10.146   5.027  71.216  1.00  0.00    -0.276 A  
HETATM   22  C   UNK A   1     -10.533   3.219  73.332  1.00  0.00    -0.262 A  
HETATM   23  C   UNK A   1      -9.542   3.764  71.196  1.00  0.00    -0.246 A  
HETATM   24  C   UNK A   1      -9.732   2.865  72.249  1.00  0.00    -0.225 A  
HETATM   25  C   UNK A   1     -11.144   4.470  73.361  1.00  0.00    -0.408 A  
HETATM   26  C   UNK A   1     -10.954   5.374  72.312  1.00  0.00    -0.277 A  
ENDBRANCH  20  21
ENDBRANCH  19  20
ENDBRANCH  15  19
ENDBRANCH  13  15
ENDBRANCH   1  13
TORSDOF 6
ENDMDL
MODEL      135
REMARK 921   NORMALIZED FREE ENERGY PREDICTED BY IDOCK:   -4.24 KCAL/MOL
REMARK 922        TOTAL FREE ENERGY PREDICTED BY IDOCK:   -7.44 KCAL/MOL
REMARK 923 INTER-LIGAND FREE ENERGY PREDICTED BY IDOCK:   -6.66 KCAL/MOL
REMARK 924 INTRA-LIGAND FREE ENERGY PREDICTED BY IDOCK:   -0.78 KCAL/MOL
REMARK 927      BINDING AFFINITY PREDICTED BY RF-SCORE:    0.00 PKD
ROOT
HETATM    1  C   UNK A   1     -10.416   8.083  70.666  1.00  0.00    -0.210 C  
HETATM    2  C   UNK A   1      -9.623   8.945  71.644  1.00  0.00    -0.363 C  
ENDROOT
BRANCH   1   3
HETATM    3  C   UNK A   1     -10.632   6.673  71.285  1.00  0.00    -0.223 C  
ATOM      4  CA  PRO A   2      -8.766   5.691  69.830  1.00  0.00    -0.125 C  
ATOM      5  N   PRO A   2      -9.915   5.612  70.753  1.00  0.00    -0.186 N  
ATOM      6  C   PRO A   2      -9.200   5.720  68.357  1.00  0.00    -0.117 C  
HETATM    7  O   UNK A   1     -11.443   6.504  72.201  1.00  0.00    -0.265 OA 
ATOM      8  CB  PRO A   2      -7.950   4.420  70.103  1.00  0.00    -0.059 C  
ATOM      9  O   PRO A   2     -10.539   5.635  68.178  1.00  0.00    -0.216 OA 
ATOM     10  CD  PRO A   2     -10.006   4.277  71.324  1.00  0.00    -0.160 C  
ATOM     11  OXT PRO A   2      -8.417   5.808  67.425  1.00  0.00    -0.105 OA 
ATOM     12  CG  PRO A   2      -8.566   3.805  71.357  1.00  0.00    -0.113 C  
ENDBRANCH   1   3
BRANCH   1  13
HETATM   13  N   UNK A   1     -11.752   8.648  70.359  1.00  0.00    -0.472 NA 
HETATM   14  H   UNK A   1     -12.471   8.150  70.884  1.00  0.00     0.000 HD 
BRANCH  13  15
HETATM   15  C   UNK A   1     -11.891  10.126  70.572  1.00  0.00    -0.321 C  
HETATM   16  O   UNK A   1     -13.343  11.375  72.122  1.00  0.00    -0.469 OA 
HETATM   17  O   UNK A   1     -13.832   9.210  71.691  1.00  0.00    -0.380 OA 
HETATM   18  C   UNK A   1     -13.084  10.334  71.539  1.00  0.00    -0.433 C  
BRANCH  15  19
HETATM   19  C   UNK A   1     -12.121  10.924  69.267  1.00  0.00    -0.332 C  
BRANCH  19  20
HETATM   20  C   UNK A   1     -11.955  12.442  69.449  1.00  0.00    -0.319 C  
BRANCH  20  21
HETATM   21  C   UNK A   1     -11.144  13.108  68.362  1.00  0.00    -0.298 A  
HETATM   22  C   UNK A   1      -9.633  14.242  66.282  1.00  0.00    -0.310 A  
HETATM   23  C   UNK A   1      -9.783  12.810  68.223  1.00  0.00    -0.216 A  
HETATM   24  C   UNK A   1      -9.031  13.372  67.188  1.00  0.00    -0.227 A  
HETATM   25  C   UNK A   1     -10.984  14.552  66.413  1.00  0.00    -0.324 A  
HETATM   26  C   UNK A   1     -11.741  13.989  67.444  1.00  0.00    -0.421 A  
ENDBRANCH  20  21
ENDBRANCH  19  20
ENDBRANCH  15  19
ENDBRANCH  13  15
ENDBRANCH   1  13
TORSDOF 6
ENDMDL
MODEL      136
REMARK 921   NORMALIZED FREE ENERGY PREDICTED BY IDOCK:   -4.22 KCAL/MOL
REMARK 922        TOTAL FREE ENERGY PREDICTED BY IDOCK:   -7.42 KCAL/MOL
REMARK 923 INTER-LIGAND FREE ENERGY PREDICTED BY IDOCK:   -6.42 KCAL/MOL
REMARK 924 INTRA-LIGAND FREE ENERGY PREDICTED BY IDOCK:   -1.00 KCAL/MOL
REMARK 927      BINDING AFFINITY PREDICTED BY RF-SCORE:    0.00 PKD
ROOT
HETATM    1  C   UNK A   1      -9.638   5.375  69.668  1.00  0.00    -0.160 C  
HETATM    2  C   UNK A   1      -9.400   3.965  70.201  1.00  0.00    -0.241 C  
ENDROOT
BRANCH   1   3
HETATM    3  C   UNK A   1      -8.736   6.374  70.445  1.00  0.00    -0.147 C  
ATOM      4  CA  PRO A   2     -10.604   6.822  72.140  1.00  0.00    -0.211 C  
ATOM      5  N   PRO A   2      -9.304   7.084  71.493  1.00  0.00    -0.154 N  
ATOM      6  C   PRO A   2     -11.762   7.550  71.441  1.00  0.00    -0.283 C  
HETATM    7  O   UNK A   1      -7.560   6.552  70.114  1.00  0.00    -0.092 OA 
ATOM      8  CB  PRO A   2     -10.449   7.353  73.571  1.00  0.00    -0.396 C  
ATOM      9  O   PRO A   2     -11.377   8.315  70.393  1.00  0.00    -0.254 OA 
ATOM     10  CD  PRO A   2      -8.509   7.983  72.315  1.00  0.00    -0.155 C  
ATOM     11  OXT PRO A   2     -12.927   7.456  71.792  1.00  0.00    -0.338 OA 
ATOM     12  CG  PRO A   2      -8.964   7.670  73.726  1.00  0.00    -0.315 C  
ENDBRANCH   1   3
BRANCH   1  13
HETATM   13  N   UNK A   1      -9.311   5.502  68.226  1.00  0.00    -0.109 NA 
HETATM   14  H   UNK A   1      -8.688   4.747  67.941  1.00  0.00     0.000 HD 
BRANCH  13  15
HETATM   15  C   UNK A   1     -10.490   5.571  67.302  1.00  0.00    -0.236 C  
HETATM   16  O   UNK A   1     -10.832   4.545  65.088  1.00  0.00    -0.227 OA 
HETATM   17  O   UNK A   1      -8.726   4.684  65.901  1.00  0.00    -0.118 OA 
HETATM   18  C   UNK A   1     -10.068   4.885  65.977  1.00  0.00    -0.239 C  
BRANCH  15  19
HETATM   19  C   UNK A   1     -10.977   7.012  67.022  1.00  0.00    -0.357 C  
BRANCH  19  20
HETATM   20  C   UNK A   1      -9.829   7.991  66.724  1.00  0.00    -0.327 C  
BRANCH  20  21
HETATM   21  C   UNK A   1     -10.271   9.427  66.558  1.00  0.00    -0.308 A  
HETATM   22  C   UNK A   1     -11.184  12.058  66.183  1.00  0.00    -0.394 A  
HETATM   23  C   UNK A   1     -10.109  10.070  65.325  1.00  0.00    -0.299 A  
HETATM   24  C   UNK A   1     -10.564  11.378  65.137  1.00  0.00    -0.352 A  
HETATM   25  C   UNK A   1     -11.346  11.432  67.416  1.00  0.00    -0.359 A  
HETATM   26  C   UNK A   1     -10.895  10.122  67.608  1.00  0.00    -0.346 A  
ENDBRANCH  20  21
ENDBRANCH  19  20
ENDBRANCH  15  19
ENDBRANCH  13  15
ENDBRANCH   1  13
TORSDOF 6
ENDMDL
MODEL      137
REMARK 921   NORMALIZED FREE ENERGY PREDICTED BY IDOCK:   -4.22 KCAL/MOL
REMARK 922        TOTAL FREE ENERGY PREDICTED BY IDOCK:   -7.42 KCAL/MOL
REMARK 923 INTER-LIGAND FREE ENERGY PREDICTED BY IDOCK:   -6.73 KCAL/MOL
REMARK 924 INTRA-LIGAND FREE ENERGY PREDICTED BY IDOCK:   -0.69 KCAL/MOL
REMARK 927      BINDING AFFINITY PREDICTED BY RF-SCORE:    0.00 PKD
ROOT
HETATM    1  C   UNK A   1     -11.071   7.648  71.248  1.00  0.00    -0.246 C  
HETATM    2  C   UNK A   1     -12.170   6.665  71.643  1.00  0.00    -0.401 C  
ENDROOT
BRANCH   1   3
HETATM    3  C   UNK A   1      -9.927   6.875  70.532  1.00  0.00    -0.183 C  
ATOM      4  CA  PRO A   2      -8.567   6.776  72.701  1.00  0.00    -0.122 C  
ATOM      5  N   PRO A   2      -8.764   6.626  71.246  1.00  0.00    -0.130 N  
ATOM      6  C   PRO A   2      -8.119   8.193  73.086  1.00  0.00    -0.179 C  
HETATM    7  O   UNK A   1     -10.043   6.527  69.353  1.00  0.00    -0.164 OA 
ATOM      8  CB  PRO A   2      -7.463   5.771  73.056  1.00  0.00    -0.096 C  
ATOM      9  O   PRO A   2      -7.958   9.024  72.031  1.00  0.00    -0.356 OA 
ATOM     10  CD  PRO A   2      -7.678   5.847  70.672  1.00  0.00    -0.097 C  
ATOM     11  OXT PRO A   2      -7.921   8.548  74.238  1.00  0.00    -0.348 OA 
ATOM     12  CG  PRO A   2      -7.267   4.924  71.802  1.00  0.00    -0.067 C  
ENDBRANCH   1   3
BRANCH   1  13
HETATM   13  N   UNK A   1     -11.552   8.700  70.320  1.00  0.00    -0.461 NA 
HETATM   14  H   UNK A   1     -12.521   8.518  70.058  1.00  0.00     0.000 HD 
BRANCH  13  15
HETATM   15  C   UNK A   1     -11.409  10.109  70.813  1.00  0.00    -0.354 C  
HETATM   16  O   UNK A   1     -13.039  11.564  71.952  1.00  0.00    -0.481 OA 
HETATM   17  O   UNK A   1     -13.800   9.734  70.862  1.00  0.00    -0.178 OA 
HETATM   18  C   UNK A   1     -12.813  10.571  71.278  1.00  0.00    -0.431 C  
BRANCH  15  19
HETATM   19  C   UNK A   1     -10.854  11.086  69.751  1.00  0.00    -0.205 C  
BRANCH  19  20
HETATM   20  C   UNK A   1     -11.956  11.764  68.919  1.00  0.00    -0.332 C  
BRANCH  20  21
HETATM   21  C   UNK A   1     -11.442  12.519  67.714  1.00  0.00    -0.378 A  
HETATM   22  C   UNK A   1     -10.382  13.863  65.486  1.00  0.00    -0.347 A  
HETATM   23  C   UNK A   1     -10.486  13.528  67.878  1.00  0.00    -0.253 A  
HETATM   24  C   UNK A   1      -9.956  14.196  66.770  1.00  0.00    -0.267 A  
HETATM   25  C   UNK A   1     -11.337  12.866  65.310  1.00  0.00    -0.333 A  
HETATM   26  C   UNK A   1     -11.866  12.192  66.415  1.00  0.00    -0.321 A  
ENDBRANCH  20  21
ENDBRANCH  19  20
ENDBRANCH  15  19
ENDBRANCH  13  15
ENDBRANCH   1  13
TORSDOF 6
ENDMDL
MODEL      138
REMARK 921   NORMALIZED FREE ENERGY PREDICTED BY IDOCK:   -4.20 KCAL/MOL
REMARK 922        TOTAL FREE ENERGY PREDICTED BY IDOCK:   -7.39 KCAL/MOL
REMARK 923 INTER-LIGAND FREE ENERGY PREDICTED BY IDOCK:   -6.84 KCAL/MOL
REMARK 924 INTRA-LIGAND FREE ENERGY PREDICTED BY IDOCK:   -0.55 KCAL/MOL
REMARK 927      BINDING AFFINITY PREDICTED BY RF-SCORE:    0.00 PKD
ROOT
HETATM    1  C   UNK A   1     -10.445  12.512  67.374  1.00  0.00    -0.219 C  
HETATM    2  C   UNK A   1      -9.121  12.678  68.114  1.00  0.00    -0.204 C  
ENDROOT
BRANCH   1   3
HETATM    3  C   UNK A   1     -11.007  11.088  67.644  1.00  0.00    -0.275 C  
ATOM      4  CA  PRO A   2      -8.922  10.015  66.612  1.00  0.00    -0.139 C  
ATOM      5  N   PRO A   2     -10.297  10.004  67.148  1.00  0.00    -0.227 N  
ATOM      6  C   PRO A   2      -8.885  10.319  65.106  1.00  0.00    -0.184 C  
HETATM    7  O   UNK A   1     -12.070  10.933  68.251  1.00  0.00    -0.562 OA 
ATOM      8  CB  PRO A   2      -8.386   8.599  66.866  1.00  0.00    -0.108 C  
ATOM      9  O   PRO A   2     -10.107  10.486  64.550  1.00  0.00    -0.334 OA 
ATOM     10  CD  PRO A   2     -10.716   8.638  67.420  1.00  0.00    -0.142 C  
ATOM     11  OXT PRO A   2      -7.852  10.402  64.461  1.00  0.00    -0.141 OA 
ATOM     12  CG  PRO A   2      -9.421   7.931  67.766  1.00  0.00    -0.165 C  
ENDBRANCH   1   3
BRANCH   1  13
HETATM   13  N   UNK A   1     -11.471  13.490  67.814  1.00  0.00    -0.296 NA 
HETATM   14  H   UNK A   1     -12.192  13.018  68.360  1.00  0.00     0.000 HD 
BRANCH  13  15
HETATM   15  C   UNK A   1     -10.949  14.676  68.568  1.00  0.00    -0.252 C  
HETATM   16  O   UNK A   1     -11.188  15.272  70.948  1.00  0.00    -0.312 OA 
HETATM   17  O   UNK A   1     -12.587  13.724  70.076  1.00  0.00    -0.275 OA 
HETATM   18  C   UNK A   1     -11.564  14.614  69.990  1.00  0.00    -0.284 C  
BRANCH  15  19
HETATM   19  C   UNK A   1     -11.282  16.032  67.905  1.00  0.00    -0.276 C  
BRANCH  19  20
HETATM   20  C   UNK A   1     -10.374  16.358  66.707  1.00  0.00    -0.293 C  
BRANCH  20  21
HETATM   21  C   UNK A   1      -9.667  17.689  66.814  1.00  0.00    -0.300 A  
HETATM   22  C   UNK A   1      -8.283  20.133  66.920  1.00  0.00    -0.363 A  
HETATM   23  C   UNK A   1      -8.357  17.747  67.303  1.00  0.00    -0.228 A  
HETATM   24  C   UNK A   1      -7.667  18.961  67.355  1.00  0.00    -0.247 A  
HETATM   25  C   UNK A   1      -9.588  20.090  66.437  1.00  0.00    -0.536 A  
HETATM   26  C   UNK A   1     -10.281  18.877  66.380  1.00  0.00    -0.481 A  
ENDBRANCH  20  21
ENDBRANCH  19  20
ENDBRANCH  15  19
ENDBRANCH  13  15
ENDBRANCH   1  13
TORSDOF 6
ENDMDL
MODEL      139
REMARK 921   NORMALIZED FREE ENERGY PREDICTED BY IDOCK:   -4.20 KCAL/MOL
REMARK 922        TOTAL FREE ENERGY PREDICTED BY IDOCK:   -7.38 KCAL/MOL
REMARK 923 INTER-LIGAND FREE ENERGY PREDICTED BY IDOCK:   -6.28 KCAL/MOL
REMARK 924 INTRA-LIGAND FREE ENERGY PREDICTED BY IDOCK:   -1.10 KCAL/MOL
REMARK 927      BINDING AFFINITY PREDICTED BY RF-SCORE:    0.00 PKD
ROOT
HETATM    1  C   UNK A   1      -9.623  10.460  64.935  1.00  0.00    -0.289 C  
HETATM    2  C   UNK A   1      -9.514  10.236  63.429  1.00  0.00    -0.340 C  
ENDROOT
BRANCH   1   3
HETATM    3  C   UNK A   1      -8.286  10.046  65.612  1.00  0.00    -0.145 C  
ATOM      4  CA  PRO A   2      -9.241   7.746  66.211  1.00  0.00    -0.166 C  
ATOM      5  N   PRO A   2      -8.244   8.831  66.279  1.00  0.00    -0.113 N  
ATOM      6  C   PRO A   2     -10.359   7.914  67.251  1.00  0.00    -0.307 C  
HETATM    7  O   UNK A   1      -7.306  10.796  65.582  1.00  0.00    -0.121 OA 
ATOM      8  CB  PRO A   2      -8.452   6.463  66.503  1.00  0.00    -0.118 C  
ATOM      9  O   PRO A   2     -10.207   8.994  68.051  1.00  0.00    -0.192 OA 
ATOM     10  CD  PRO A   2      -7.011   8.339  66.875  1.00  0.00    -0.070 C  
ATOM     11  OXT PRO A   2     -11.302   7.145  67.357  1.00  0.00    -0.097 OA 
ATOM     12  CG  PRO A   2      -6.983   6.877  66.480  1.00  0.00    -0.066 C  
ENDBRANCH   1   3
BRANCH   1  13
HETATM   13  N   UNK A   1      -9.884  11.878  65.284  1.00  0.00    -0.271 NA 
HETATM   14  H   UNK A   1      -9.537  12.489  64.544  1.00  0.00     0.000 HD 
BRANCH  13  15
HETATM   15  C   UNK A   1     -11.311  12.212  65.600  1.00  0.00    -0.347 C  
HETATM   16  O   UNK A   1     -12.777  13.955  64.660  1.00  0.00    -0.648 OA 
HETATM   17  O   UNK A   1     -10.545  14.137  64.347  1.00  0.00    -0.348 OA 
HETATM   18  C   UNK A   1     -11.651  13.515  64.833  1.00  0.00    -0.335 C  
BRANCH  15  19
HETATM   19  C   UNK A   1     -11.587  12.398  67.110  1.00  0.00    -0.435 C  
BRANCH  19  20
HETATM   20  C   UNK A   1     -10.344  12.838  67.902  1.00  0.00    -0.228 C  
BRANCH  20  21
HETATM   21  C   UNK A   1     -10.319  14.310  68.241  1.00  0.00    -0.242 A  
HETATM   22  C   UNK A   1     -10.343  17.069  68.776  1.00  0.00    -0.336 A  
HETATM   23  C   UNK A   1      -9.597  15.200  67.437  1.00  0.00    -0.208 A  
HETATM   24  C   UNK A   1      -9.609  16.572  67.701  1.00  0.00    -0.235 A  
HETATM   25  C   UNK A   1     -11.060  16.194  69.588  1.00  0.00    -0.344 A  
HETATM   26  C   UNK A   1     -11.054  14.821  69.325  1.00  0.00    -0.283 A  
ENDBRANCH  20  21
ENDBRANCH  19  20
ENDBRANCH  15  19
ENDBRANCH  13  15
ENDBRANCH   1  13
TORSDOF 6
ENDMDL
MODEL      140
REMARK 921   NORMALIZED FREE ENERGY PREDICTED BY IDOCK:   -4.18 KCAL/MOL
REMARK 922        TOTAL FREE ENERGY PREDICTED BY IDOCK:   -7.36 KCAL/MOL
REMARK 923 INTER-LIGAND FREE ENERGY PREDICTED BY IDOCK:   -7.09 KCAL/MOL
REMARK 924 INTRA-LIGAND FREE ENERGY PREDICTED BY IDOCK:   -0.27 KCAL/MOL
REMARK 927      BINDING AFFINITY PREDICTED BY RF-SCORE:    0.00 PKD
ROOT
HETATM    1  C   UNK A   1     -11.521   8.734  71.118  1.00  0.00    -0.286 C  
HETATM    2  C   UNK A   1     -12.708   9.200  71.956  1.00  0.00    -0.473 C  
ENDROOT
BRANCH   1   3
HETATM    3  C   UNK A   1     -11.416   7.185  71.199  1.00  0.00    -0.290 C  
ATOM      4  CA  PRO A   2     -10.225   7.333  73.462  1.00  0.00    -0.358 C  
ATOM      5  N   PRO A   2     -10.695   6.636  72.249  1.00  0.00    -0.215 N  
ATOM      6  C   PRO A   2      -8.841   7.972  73.268  1.00  0.00    -0.265 C  
HETATM    7  O   UNK A   1     -11.931   6.471  70.333  1.00  0.00    -0.397 OA 
ATOM      8  CB  PRO A   2     -10.144   6.243  74.539  1.00  0.00    -0.353 C  
ATOM      9  O   PRO A   2      -8.301   7.753  72.047  1.00  0.00    -0.104 OA 
ATOM     10  CD  PRO A   2     -10.611   5.196  72.436  1.00  0.00    -0.221 C  
ATOM     11  OXT PRO A   2      -8.271   8.619  74.133  1.00  0.00    -0.341 OA 
ATOM     12  CG  PRO A   2     -10.817   5.018  73.927  1.00  0.00    -0.336 C  
ENDBRANCH   1   3
BRANCH   1  13
HETATM   13  N   UNK A   1     -11.654   9.101  69.686  1.00  0.00    -0.389 NA 
HETATM   14  H   UNK A   1     -12.591   9.460  69.503  1.00  0.00     0.000 HD 
BRANCH  13  15
HETATM   15  C   UNK A   1     -10.625  10.063  69.170  1.00  0.00    -0.218 C  
HETATM   16  O   UNK A   1     -10.708  12.518  68.974  1.00  0.00    -0.195 OA 
HETATM   17  O   UNK A   1     -12.648  11.391  69.255  1.00  0.00    -0.225 OA 
HETATM   18  C   UNK A   1     -11.298  11.459  69.116  1.00  0.00    -0.288 C  
BRANCH  15  19
HETATM   19  C   UNK A   1     -10.067   9.689  67.778  1.00  0.00    -0.232 C  
BRANCH  19  20
HETATM   20  C   UNK A   1     -10.423  10.714  66.688  1.00  0.00    -0.296 C  
BRANCH  20  21
HETATM   21  C   UNK A   1      -9.865  10.382  65.324  1.00  0.00    -0.361 A  
HETATM   22  C   UNK A   1      -8.783   9.876  62.780  1.00  0.00    -0.215 A  
HETATM   23  C   UNK A   1     -10.445  10.938  64.177  1.00  0.00    -0.397 A  
HETATM   24  C   UNK A   1      -9.907  10.688  62.912  1.00  0.00    -0.271 A  
HETATM   25  C   UNK A   1      -8.200   9.312  63.911  1.00  0.00    -0.165 A  
HETATM   26  C   UNK A   1      -8.732   9.562  65.179  1.00  0.00    -0.200 A  
ENDBRANCH  20  21
ENDBRANCH  19  20
ENDBRANCH  15  19
ENDBRANCH  13  15
ENDBRANCH   1  13
TORSDOF 6
ENDMDL
MODEL      141
REMARK 921   NORMALIZED FREE ENERGY PREDICTED BY IDOCK:   -4.17 KCAL/MOL
REMARK 922        TOTAL FREE ENERGY PREDICTED BY IDOCK:   -7.35 KCAL/MOL
REMARK 923 INTER-LIGAND FREE ENERGY PREDICTED BY IDOCK:   -6.40 KCAL/MOL
REMARK 924 INTRA-LIGAND FREE ENERGY PREDICTED BY IDOCK:   -0.96 KCAL/MOL
REMARK 927      BINDING AFFINITY PREDICTED BY RF-SCORE:    0.00 PKD
ROOT
HETATM    1  C   UNK A   1     -11.119  10.879  68.722  1.00  0.00    -0.256 C  
HETATM    2  C   UNK A   1     -11.990  11.497  69.813  1.00  0.00    -0.415 C  
ENDROOT
BRANCH   1   3
HETATM    3  C   UNK A   1      -9.981  11.871  68.353  1.00  0.00    -0.203 C  
ATOM      4  CA  PRO A   2     -11.568  13.212  66.853  1.00  0.00    -0.368 C  
ATOM      5  N   PRO A   2     -10.246  12.837  67.393  1.00  0.00    -0.221 N  
ATOM      6  C   PRO A   2     -11.969  12.356  65.643  1.00  0.00    -0.386 C  
HETATM    7  O   UNK A   1      -8.867  11.777  68.877  1.00  0.00    -0.031 OA 
ATOM      8  CB  PRO A   2     -11.418  14.677  66.422  1.00  0.00    -0.348 C  
ATOM      9  O   PRO A   2     -11.034  11.448  65.278  1.00  0.00    -0.262 OA 
ATOM     10  CD  PRO A   2      -9.259  13.847  67.045  1.00  0.00    -0.250 C  
ATOM     11  OXT PRO A   2     -13.032  12.477  65.054  1.00  0.00    -0.779 OA 
ATOM     12  CG  PRO A   2     -10.069  15.126  66.977  1.00  0.00    -0.244 C  
ENDBRANCH   1   3
BRANCH   1  13
HETATM   13  N   UNK A   1     -10.485   9.607  69.150  1.00  0.00    -0.207 NA 
HETATM   14  H   UNK A   1      -9.478   9.735  69.249  1.00  0.00     0.000 HD 
BRANCH  13  15
HETATM   15  C   UNK A   1     -11.051   8.992  70.395  1.00  0.00    -0.244 C  
HETATM   16  O   UNK A   1     -10.119   8.882  72.673  1.00  0.00    -0.098 OA 
HETATM   17  O   UNK A   1      -8.728   9.378  70.960  1.00  0.00    -0.261 OA 
HETATM   18  C   UNK A   1      -9.945   9.067  71.479  1.00  0.00    -0.321 C  
BRANCH  15  19
HETATM   19  C   UNK A   1     -11.514   7.528  70.210  1.00  0.00    -0.173 C  
BRANCH  19  20
HETATM   20  C   UNK A   1     -10.353   6.519  70.232  1.00  0.00    -0.241 C  
BRANCH  20  21
HETATM   21  C   UNK A   1      -9.868   6.107  68.862  1.00  0.00    -0.167 A  
HETATM   22  C   UNK A   1      -9.017   5.439  66.268  1.00  0.00    -0.137 A  
HETATM   23  C   UNK A   1     -10.782   5.648  67.906  1.00  0.00    -0.241 A  
HETATM   24  C   UNK A   1     -10.361   5.317  66.616  1.00  0.00    -0.330 A  
HETATM   25  C   UNK A   1      -8.097   5.889  67.211  1.00  0.00    -0.102 A  
HETATM   26  C   UNK A   1      -8.515   6.225  68.502  1.00  0.00    -0.115 A  
ENDBRANCH  20  21
ENDBRANCH  19  20
ENDBRANCH  15  19
ENDBRANCH  13  15
ENDBRANCH   1  13
TORSDOF 6
ENDMDL
MODEL      142
REMARK 921   NORMALIZED FREE ENERGY PREDICTED BY IDOCK:   -4.17 KCAL/MOL
REMARK 922        TOTAL FREE ENERGY PREDICTED BY IDOCK:   -7.35 KCAL/MOL
REMARK 923 INTER-LIGAND FREE ENERGY PREDICTED BY IDOCK:   -7.01 KCAL/MOL
REMARK 924 INTRA-LIGAND FREE ENERGY PREDICTED BY IDOCK:   -0.34 KCAL/MOL
REMARK 927      BINDING AFFINITY PREDICTED BY RF-SCORE:    0.00 PKD
ROOT
HETATM    1  C   UNK A   1     -10.553  11.070  66.195  1.00  0.00    -0.228 C  
HETATM    2  C   UNK A   1     -10.950  11.230  64.731  1.00  0.00    -0.262 C  
ENDROOT
BRANCH   1   3
HETATM    3  C   UNK A   1      -9.018  10.838  66.287  1.00  0.00    -0.170 C  
ATOM      4  CA  PRO A   2      -9.346   8.298  66.223  1.00  0.00    -0.204 C  
ATOM      5  N   PRO A   2      -8.564   9.534  66.419  1.00  0.00    -0.132 N  
ATOM      6  C   PRO A   2     -10.052   7.843  67.510  1.00  0.00    -0.213 C  
HETATM    7  O   UNK A   1      -8.234  11.792  66.275  1.00  0.00    -0.075 OA 
ATOM      8  CB  PRO A   2      -8.318   7.241  65.797  1.00  0.00    -0.140 C  
ATOM      9  O   PRO A   2      -9.802   8.632  68.580  1.00  0.00    -0.161 OA 
ATOM     10  CD  PRO A   2      -7.142   9.227  66.437  1.00  0.00    -0.088 C  
ATOM     11  OXT PRO A   2     -10.772   6.859  67.572  1.00  0.00    -0.240 OA 
ATOM     12  CG  PRO A   2      -7.028   8.014  65.536  1.00  0.00    -0.059 C  
ENDBRANCH   1   3
BRANCH   1  13
HETATM   13  N   UNK A   1     -10.875  12.268  67.009  1.00  0.00    -0.241 NA 
HETATM   14  H   UNK A   1     -11.881  12.438  66.996  1.00  0.00     0.000 HD 
BRANCH  13  15
HETATM   15  C   UNK A   1     -10.378  12.239  68.423  1.00  0.00    -0.224 C  
HETATM   16  O   UNK A   1     -11.180  10.945  70.361  1.00  0.00    -0.267 OA 
HETATM   17  O   UNK A   1     -12.535  11.150  68.562  1.00  0.00    -0.452 OA 
HETATM   18  C   UNK A   1     -11.380  11.383  69.239  1.00  0.00    -0.289 C  
BRANCH  15  19
HETATM   19  C   UNK A   1     -10.235  13.640  69.061  1.00  0.00    -0.006 C  
BRANCH  19  20
HETATM   20  C   UNK A   1     -11.576  14.380  69.203  1.00  0.00    -0.344 C  
BRANCH  20  21
HETATM   21  C   UNK A   1     -12.024  14.575  70.632  1.00  0.00    -0.387 A  
HETATM   22  C   UNK A   1     -12.921  15.034  73.256  1.00  0.00    -0.642 A  
HETATM   23  C   UNK A   1     -11.518  15.642  71.384  1.00  0.00    -0.488 A  
HETATM   24  C   UNK A   1     -11.964  15.873  72.688  1.00  0.00    -0.610 A  
HETATM   25  C   UNK A   1     -13.429  13.966  72.521  1.00  0.00    -0.676 A  
HETATM   26  C   UNK A   1     -12.988  13.734  71.215  1.00  0.00    -0.409 A  
ENDBRANCH  20  21
ENDBRANCH  19  20
ENDBRANCH  15  19
ENDBRANCH  13  15
ENDBRANCH   1  13
TORSDOF 6
ENDMDL
MODEL      143
REMARK 921   NORMALIZED FREE ENERGY PREDICTED BY IDOCK:   -4.17 KCAL/MOL
REMARK 922        TOTAL FREE ENERGY PREDICTED BY IDOCK:   -7.34 KCAL/MOL
REMARK 923 INTER-LIGAND FREE ENERGY PREDICTED BY IDOCK:   -5.88 KCAL/MOL
REMARK 924 INTRA-LIGAND FREE ENERGY PREDICTED BY IDOCK:   -1.47 KCAL/MOL
REMARK 927      BINDING AFFINITY PREDICTED BY RF-SCORE:    0.00 PKD
ROOT
HETATM    1  C   UNK A   1     -10.257   8.203  70.496  1.00  0.00    -0.198 C  
HETATM    2  C   UNK A   1      -9.781   8.469  71.922  1.00  0.00    -0.358 C  
ENDROOT
BRANCH   1   3
HETATM    3  C   UNK A   1     -10.390   6.670  70.278  1.00  0.00    -0.202 C  
ATOM      4  CA  PRO A   2      -8.897   6.784  68.199  1.00  0.00    -0.120 C  
ATOM      5  N   PRO A   2      -9.835   6.126  69.129  1.00  0.00    -0.141 N  
ATOM      6  C   PRO A   2      -9.624   7.564  67.093  1.00  0.00    -0.161 C  
HETATM    7  O   UNK A   1     -11.001   5.968  71.090  1.00  0.00    -0.264 OA 
ATOM      8  CB  PRO A   2      -8.088   5.639  67.576  1.00  0.00    -0.102 C  
ATOM      9  O   PRO A   2     -10.973   7.478  67.156  1.00  0.00    -0.293 OA 
ATOM     10  CD  PRO A   2      -9.853   4.691  68.889  1.00  0.00    -0.140 C  
ATOM     11  OXT PRO A   2      -9.046   8.205  66.230  1.00  0.00    -0.166 OA 
ATOM     12  CG  PRO A   2      -8.454   4.398  68.385  1.00  0.00    -0.101 C  
ENDBRANCH   1   3
BRANCH   1  13
HETATM   13  N   UNK A   1     -11.580   8.814  70.213  1.00  0.00    -0.462 NA 
HETATM   14  H   UNK A   1     -12.306   8.336  70.747  1.00  0.00     0.000 HD 
BRANCH  13  15
HETATM   15  C   UNK A   1     -11.667  10.294  70.436  1.00  0.00    -0.319 C  
HETATM   16  O   UNK A   1     -12.990  11.575  72.073  1.00  0.00    -0.433 OA 
HETATM   17  O   UNK A   1     -13.560   9.424  71.670  1.00  0.00    -0.378 OA 
HETATM   18  C   UNK A   1     -12.794  10.529  71.474  1.00  0.00    -0.463 C  
BRANCH  15  19
HETATM   19  C   UNK A   1     -11.955  11.101  69.149  1.00  0.00    -0.413 C  
BRANCH  19  20
HETATM   20  C   UNK A   1     -10.868  10.932  68.073  1.00  0.00    -0.293 C  
BRANCH  20  21
HETATM   21  C   UNK A   1      -9.587  11.676  68.369  1.00  0.00    -0.195 A  
HETATM   22  C   UNK A   1      -7.162  13.026  68.811  1.00  0.00    -0.082 A  
HETATM   23  C   UNK A   1      -8.413  10.965  68.645  1.00  0.00    -0.152 A  
HETATM   24  C   UNK A   1      -7.206  11.635  68.863  1.00  0.00    -0.113 A  
HETATM   25  C   UNK A   1      -8.324  13.746  68.544  1.00  0.00    -0.120 A  
HETATM   26  C   UNK A   1      -9.532  13.080  68.321  1.00  0.00    -0.208 A  
ENDBRANCH  20  21
ENDBRANCH  19  20
ENDBRANCH  15  19
ENDBRANCH  13  15
ENDBRANCH   1  13
TORSDOF 6
ENDMDL
MODEL      144
REMARK 921   NORMALIZED FREE ENERGY PREDICTED BY IDOCK:   -4.16 KCAL/MOL
REMARK 922        TOTAL FREE ENERGY PREDICTED BY IDOCK:   -7.33 KCAL/MOL
REMARK 923 INTER-LIGAND FREE ENERGY PREDICTED BY IDOCK:   -5.84 KCAL/MOL
REMARK 924 INTRA-LIGAND FREE ENERGY PREDICTED BY IDOCK:   -1.49 KCAL/MOL
REMARK 927      BINDING AFFINITY PREDICTED BY RF-SCORE:    0.00 PKD
ROOT
HETATM    1  C   UNK A   1      -9.490  10.512  65.161  1.00  0.00    -0.233 C  
HETATM    2  C   UNK A   1      -8.526  10.212  64.017  1.00  0.00    -0.185 C  
ENDROOT
BRANCH   1   3
HETATM    3  C   UNK A   1     -10.715  11.293  64.607  1.00  0.00    -0.303 C  
ATOM      4  CA  PRO A   2     -10.778  12.777  66.694  1.00  0.00    -0.261 C  
ATOM      5  N   PRO A   2     -11.316  12.232  65.432  1.00  0.00    -0.332 N  
ATOM      6  C   PRO A   2     -11.170  11.927  67.912  1.00  0.00    -0.263 C  
HETATM    7  O   UNK A   1     -11.155  11.056  63.478  1.00  0.00    -0.193 OA 
ATOM      8  CB  PRO A   2     -11.400  14.175  66.818  1.00  0.00    -0.353 C  
ATOM      9  O   PRO A   2     -11.954  10.866  67.611  1.00  0.00    -0.512 OA 
ATOM     10  CD  PRO A   2     -12.420  13.055  64.962  1.00  0.00    -0.477 C  
ATOM     11  OXT PRO A   2     -10.814  12.179  69.052  1.00  0.00    -0.216 OA 
ATOM     12  CG  PRO A   2     -12.074  14.439  65.475  1.00  0.00    -0.358 C  
ENDBRANCH   1   3
BRANCH   1  13
HETATM   13  N   UNK A   1     -10.000   9.282  65.815  1.00  0.00    -0.414 NA 
HETATM   14  H   UNK A   1     -10.776   8.896  65.277  1.00  0.00     0.000 HD 
BRANCH  13  15
HETATM   15  C   UNK A   1      -8.976   8.218  66.074  1.00  0.00    -0.181 C  
HETATM   16  O   UNK A   1      -9.270   5.851  66.695  1.00  0.00    -0.131 OA 
HETATM   17  O   UNK A   1     -11.018   7.262  66.956  1.00  0.00    -0.358 OA 
HETATM   18  C   UNK A   1      -9.738   6.975  66.603  1.00  0.00    -0.166 C  
BRANCH  15  19
HETATM   19  C   UNK A   1      -7.883   8.639  67.084  1.00  0.00    -0.097 C  
BRANCH  19  20
HETATM   20  C   UNK A   1      -8.442   9.401  68.298  1.00  0.00    -0.120 C  
BRANCH  20  21
HETATM   21  C   UNK A   1      -7.566  10.539  68.767  1.00  0.00    -0.101 A  
HETATM   22  C   UNK A   1      -5.841  12.591  69.611  1.00  0.00    -0.115 A  
HETATM   23  C   UNK A   1      -6.830  10.412  69.951  1.00  0.00    -0.143 A  
HETATM   24  C   UNK A   1      -5.971  11.431  70.371  1.00  0.00    -0.142 A  
HETATM   25  C   UNK A   1      -6.572  12.733  68.435  1.00  0.00    -0.083 A  
HETATM   26  C   UNK A   1      -7.430  11.715  68.009  1.00  0.00    -0.100 A  
ENDBRANCH  20  21
ENDBRANCH  19  20
ENDBRANCH  15  19
ENDBRANCH  13  15
ENDBRANCH   1  13
TORSDOF 6
ENDMDL
MODEL      145
REMARK 921   NORMALIZED FREE ENERGY PREDICTED BY IDOCK:   -4.13 KCAL/MOL
REMARK 922        TOTAL FREE ENERGY PREDICTED BY IDOCK:   -7.30 KCAL/MOL
REMARK 923 INTER-LIGAND FREE ENERGY PREDICTED BY IDOCK:   -6.11 KCAL/MOL
REMARK 924 INTRA-LIGAND FREE ENERGY PREDICTED BY IDOCK:   -1.19 KCAL/MOL
REMARK 927      BINDING AFFINITY PREDICTED BY RF-SCORE:    0.00 PKD
ROOT
HETATM    1  C   UNK A   1      -8.252   9.823  70.141  1.00  0.00    -0.179 C  
HETATM    2  C   UNK A   1      -7.010  10.680  69.913  1.00  0.00    -0.148 C  
ENDROOT
BRANCH   1   3
HETATM    3  C   UNK A   1      -8.886   9.466  68.768  1.00  0.00    -0.132 C  
ATOM      4  CA  PRO A   2     -10.792  11.134  69.156  1.00  0.00    -0.238 C  
ATOM      5  N   PRO A   2     -10.117  10.025  68.454  1.00  0.00    -0.160 N  
ATOM      6  C   PRO A   2     -11.671  10.642  70.315  1.00  0.00    -0.344 C  
HETATM    7  O   UNK A   1      -8.324   8.682  67.998  1.00  0.00    -0.121 OA 
ATOM      8  CB  PRO A   2     -11.670  11.802  68.089  1.00  0.00    -0.377 C  
ATOM      9  O   PRO A   2     -11.690   9.296  70.457  1.00  0.00    -0.257 OA 
ATOM     10  CD  PRO A   2     -10.741   9.799  67.160  1.00  0.00    -0.202 C  
ATOM     11  OXT PRO A   2     -12.302  11.389  71.047  1.00  0.00    -0.369 OA 
ATOM     12  CG  PRO A   2     -11.248  11.172  66.765  1.00  0.00    -0.215 C  
ENDBRANCH   1   3
BRANCH   1  13
HETATM   13  N   UNK A   1      -7.947   8.551  70.840  1.00  0.00    -0.098 NA 
HETATM   14  H   UNK A   1      -7.273   8.715  71.588  1.00  0.00     0.000 HD 
BRANCH  13  15
HETATM   15  C   UNK A   1      -9.136   7.809  71.376  1.00  0.00    -0.134 C  
HETATM   16  O   UNK A   1     -10.131   7.826  73.630  1.00  0.00    -0.294 OA 
HETATM   17  O   UNK A   1      -8.029   8.618  73.371  1.00  0.00    -0.405 OA 
HETATM   18  C   UNK A   1      -9.180   8.069  72.903  1.00  0.00    -0.265 C  
BRANCH  15  19
HETATM   19  C   UNK A   1      -9.098   6.289  71.097  1.00  0.00    -0.148 C  
BRANCH  19  20
HETATM   20  C   UNK A   1     -10.426   5.742  70.546  1.00  0.00    -0.331 C  
BRANCH  20  21
HETATM   21  C   UNK A   1     -10.388   5.396  69.076  1.00  0.00    -0.282 A  
HETATM   22  C   UNK A   1     -10.242   4.844  66.325  1.00  0.00    -0.312 A  
HETATM   23  C   UNK A   1     -11.022   6.228  68.146  1.00  0.00    -0.412 A  
HETATM   24  C   UNK A   1     -10.949   5.956  66.777  1.00  0.00    -0.280 A  
HETATM   25  C   UNK A   1      -9.613   4.004  67.240  1.00  0.00    -0.229 A  
HETATM   26  C   UNK A   1      -9.680   4.275  68.609  1.00  0.00    -0.174 A  
ENDBRANCH  20  21
ENDBRANCH  19  20
ENDBRANCH  15  19
ENDBRANCH  13  15
ENDBRANCH   1  13
TORSDOF 6
ENDMDL
MODEL      146
REMARK 921   NORMALIZED FREE ENERGY PREDICTED BY IDOCK:   -4.13 KCAL/MOL
REMARK 922        TOTAL FREE ENERGY PREDICTED BY IDOCK:   -7.29 KCAL/MOL
REMARK 923 INTER-LIGAND FREE ENERGY PREDICTED BY IDOCK:   -5.81 KCAL/MOL
REMARK 924 INTRA-LIGAND FREE ENERGY PREDICTED BY IDOCK:   -1.48 KCAL/MOL
REMARK 927      BINDING AFFINITY PREDICTED BY RF-SCORE:    0.00 PKD
ROOT
HETATM    1  C   UNK A   1     -10.420   7.565  69.161  1.00  0.00    -0.215 C  
HETATM    2  C   UNK A   1     -11.402   6.404  69.299  1.00  0.00    -0.405 C  
ENDROOT
BRANCH   1   3
HETATM    3  C   UNK A   1     -10.043   7.740  67.663  1.00  0.00    -0.196 C  
ATOM      4  CA  PRO A   2      -8.176   5.998  67.874  1.00  0.00    -0.112 C  
ATOM      5  N   PRO A   2      -8.922   7.073  67.191  1.00  0.00    -0.119 N  
ATOM      6  C   PRO A   2      -7.071   6.545  68.790  1.00  0.00    -0.082 C  
HETATM    7  O   UNK A   1     -10.706   8.479  66.928  1.00  0.00    -0.265 OA 
ATOM      8  CB  PRO A   2      -7.549   5.171  66.744  1.00  0.00    -0.088 C  
ATOM      9  O   PRO A   2      -6.964   7.894  68.776  1.00  0.00    -0.063 OA 
ATOM     10  CD  PRO A   2      -8.546   7.128  65.787  1.00  0.00    -0.133 C  
ATOM     11  OXT PRO A   2      -6.347   5.836  69.470  1.00  0.00    -0.036 OA 
ATOM     12  CG  PRO A   2      -8.186   5.692  65.459  1.00  0.00    -0.129 C  
ENDBRANCH   1   3
BRANCH   1  13
HETATM   13  N   UNK A   1     -10.985   8.851  69.636  1.00  0.00    -0.391 NA 
HETATM   14  H   UNK A   1     -11.649   9.215  68.951  1.00  0.00     0.000 HD 
BRANCH  13  15
HETATM   15  C   UNK A   1     -11.618   8.814  70.995  1.00  0.00    -0.288 C  
HETATM   16  O   UNK A   1     -13.223  10.364  72.040  1.00  0.00    -0.456 OA 
HETATM   17  O   UNK A   1     -12.075  11.062  70.221  1.00  0.00    -0.300 OA 
HETATM   18  C   UNK A   1     -12.398  10.142  71.167  1.00  0.00    -0.385 C  
BRANCH  15  19
HETATM   19  C   UNK A   1     -10.603   8.641  72.149  1.00  0.00    -0.411 C  
BRANCH  19  20
HETATM   20  C   UNK A   1     -11.021   7.565  73.165  1.00  0.00    -0.420 C  
BRANCH  20  21
HETATM   21  C   UNK A   1     -10.437   6.198  72.890  1.00  0.00    -0.238 A  
HETATM   22  C   UNK A   1      -9.429   3.646  72.287  1.00  0.00    -0.189 A  
HETATM   23  C   UNK A   1     -11.185   5.049  73.173  1.00  0.00    -0.408 A  
HETATM   24  C   UNK A   1     -10.686   3.779  72.873  1.00  0.00    -0.200 A  
HETATM   25  C   UNK A   1      -8.672   4.780  72.005  1.00  0.00    -0.132 A  
HETATM   26  C   UNK A   1      -9.169   6.052  72.301  1.00  0.00    -0.146 A  
ENDBRANCH  20  21
ENDBRANCH  19  20
ENDBRANCH  15  19
ENDBRANCH  13  15
ENDBRANCH   1  13
TORSDOF 6
ENDMDL
MODEL      147
REMARK 921   NORMALIZED FREE ENERGY PREDICTED BY IDOCK:   -4.12 KCAL/MOL
REMARK 922        TOTAL FREE ENERGY PREDICTED BY IDOCK:   -7.29 KCAL/MOL
REMARK 923 INTER-LIGAND FREE ENERGY PREDICTED BY IDOCK:   -7.35 KCAL/MOL
REMARK 924 INTRA-LIGAND FREE ENERGY PREDICTED BY IDOCK:    0.06 KCAL/MOL
REMARK 927      BINDING AFFINITY PREDICTED BY RF-SCORE:    0.00 PKD
ROOT
HETATM    1  C   UNK A   1     -10.879  15.315  68.487  1.00  0.00    -0.253 C  
HETATM    2  C   UNK A   1     -12.264  15.936  68.643  1.00  0.00     0.243 C  
ENDROOT
BRANCH   1   3
HETATM    3  C   UNK A   1      -9.799  16.395  68.771  1.00  0.00    -0.250 C  
ATOM      4  CA  PRO A   2     -10.718  17.881  66.897  1.00  0.00    -0.176 C  
ATOM      5  N   PRO A   2      -9.723  17.482  67.912  1.00  0.00    -0.270 N  
ATOM      6  C   PRO A   2     -10.475  17.200  65.542  1.00  0.00    -0.144 C  
HETATM    7  O   UNK A   1      -9.012  16.269  69.715  1.00  0.00     0.088 OA 
ATOM      8  CB  PRO A   2     -10.546  19.399  66.750  1.00  0.00    -0.574 C  
ATOM      9  O   PRO A   2      -9.388  16.394  65.520  1.00  0.00    -0.442 OA 
ATOM     10  CD  PRO A   2      -8.789  18.571  68.151  1.00  0.00    -0.306 C  
ATOM     11  OXT PRO A   2     -11.191  17.365  64.567  1.00  0.00    -1.018 OA 
ATOM     12  CG  PRO A   2      -9.616  19.813  67.886  1.00  0.00    -0.482 C  
ENDBRANCH   1   3
BRANCH   1  13
HETATM   13  N   UNK A   1     -10.649  14.190  69.428  1.00  0.00    -0.431 NA 
HETATM   14  H   UNK A   1     -10.319  14.548  70.325  1.00  0.00     0.000 HD 
BRANCH  13  15
HETATM   15  C   UNK A   1     -11.818  13.276  69.637  1.00  0.00    -0.327 C  
HETATM   16  O   UNK A   1     -13.566  13.310  71.374  1.00  0.00    -0.180 OA 
HETATM   17  O   UNK A   1     -11.671  14.492  71.726  1.00  0.00    -0.256 OA 
HETATM   18  C   UNK A   1     -12.465  13.671  70.989  1.00  0.00    -0.377 C  
BRANCH  15  19
HETATM   19  C   UNK A   1     -11.441  11.777  69.648  1.00  0.00    -0.341 C  
BRANCH  19  20
HETATM   20  C   UNK A   1     -10.523  11.375  68.481  1.00  0.00    -0.223 C  
BRANCH  20  21
HETATM   21  C   UNK A   1     -10.825  12.090  67.185  1.00  0.00    -0.297 A  
HETATM   22  C   UNK A   1     -11.348  13.323  64.714  1.00  0.00    -0.350 A  
HETATM   23  C   UNK A   1      -9.776  12.546  66.378  1.00  0.00    -0.253 A  
HETATM   24  C   UNK A   1     -10.034  13.158  65.148  1.00  0.00    -0.170 A  
HETATM   25  C   UNK A   1     -12.401  12.880  65.511  1.00  0.00    -0.517 A  
HETATM   26  C   UNK A   1     -12.146  12.264  66.739  1.00  0.00    -0.043 A  
ENDBRANCH  20  21
ENDBRANCH  19  20
ENDBRANCH  15  19
ENDBRANCH  13  15
ENDBRANCH   1  13
TORSDOF 6
ENDMDL
MODEL      148
REMARK 921   NORMALIZED FREE ENERGY PREDICTED BY IDOCK:   -4.12 KCAL/MOL
REMARK 922        TOTAL FREE ENERGY PREDICTED BY IDOCK:   -7.28 KCAL/MOL
REMARK 923 INTER-LIGAND FREE ENERGY PREDICTED BY IDOCK:   -6.38 KCAL/MOL
REMARK 924 INTRA-LIGAND FREE ENERGY PREDICTED BY IDOCK:   -0.90 KCAL/MOL
REMARK 927      BINDING AFFINITY PREDICTED BY RF-SCORE:    0.00 PKD
ROOT
HETATM    1  C   UNK A   1     -10.158  14.417  66.548  1.00  0.00    -0.276 C  
HETATM    2  C   UNK A   1      -9.533  15.505  65.678  1.00  0.00    -0.271 C  
ENDROOT
BRANCH   1   3
HETATM    3  C   UNK A   1      -9.409  13.077  66.307  1.00  0.00    -0.140 C  
ATOM      4  CA  PRO A   2     -10.735  12.663  64.154  1.00  0.00    -0.406 C  
ATOM      5  N   PRO A   2      -9.826  12.278  65.252  1.00  0.00    -0.224 N  
ATOM      6  C   PRO A   2     -12.210  12.417  64.504  1.00  0.00    -0.431 C  
HETATM    7  O   UNK A   1      -8.493  12.722  67.056  1.00  0.00    -0.193 OA 
ATOM      8  CB  PRO A   2     -10.329  11.771  62.973  1.00  0.00    -0.237 C  
ATOM      9  O   PRO A   2     -12.400  11.869  65.727  1.00  0.00    -0.343 OA 
ATOM     10  CD  PRO A   2      -9.130  11.045  64.916  1.00  0.00    -0.147 C  
ATOM     11  OXT PRO A   2     -13.134  12.685  63.754  1.00  0.00    -0.630 OA 
ATOM     12  CG  PRO A   2      -9.031  11.094  63.405  1.00  0.00    -0.097 C  
ENDBRANCH   1   3
BRANCH   1  13
HETATM   13  N   UNK A   1     -10.073  14.726  67.996  1.00  0.00    -0.217 NA 
HETATM   14  H   UNK A   1      -9.514  14.017  68.472  1.00  0.00     0.000 HD 
BRANCH  13  15
HETATM   15  C   UNK A   1      -9.564  16.094  68.335  1.00  0.00    -0.209 C  
HETATM   16  O   UNK A   1      -7.458  16.781  69.415  1.00  0.00    -0.199 OA 
HETATM   17  O   UNK A   1      -8.114  14.624  69.599  1.00  0.00     0.006 OA 
HETATM   18  C   UNK A   1      -8.270  15.903  69.167  1.00  0.00    -0.240 C  
BRANCH  15  19
HETATM   19  C   UNK A   1     -10.577  16.958  69.121  1.00  0.00    -0.330 C  
BRANCH  19  20
HETATM   20  C   UNK A   1     -10.137  18.425  69.266  1.00  0.00    -0.045 C  
BRANCH  20  21
HETATM   21  C   UNK A   1      -9.853  19.116  67.953  1.00  0.00    -0.418 A  
HETATM   22  C   UNK A   1      -9.284  20.296  65.467  1.00  0.00     0.368 A  
HETATM   23  C   UNK A   1      -8.530  19.351  67.560  1.00  0.00    -0.328 A  
HETATM   24  C   UNK A   1      -8.246  19.936  66.323  1.00  0.00    -0.357 A  
HETATM   25  C   UNK A   1     -10.605  20.073  65.849  1.00  0.00    -0.459 A  
HETATM   26  C   UNK A   1     -10.893  19.485  67.083  1.00  0.00    -0.555 A  
ENDBRANCH  20  21
ENDBRANCH  19  20
ENDBRANCH  15  19
ENDBRANCH  13  15
ENDBRANCH   1  13
TORSDOF 6
ENDMDL
MODEL      149
REMARK 921   NORMALIZED FREE ENERGY PREDICTED BY IDOCK:   -4.11 KCAL/MOL
REMARK 922        TOTAL FREE ENERGY PREDICTED BY IDOCK:   -7.27 KCAL/MOL
REMARK 923 INTER-LIGAND FREE ENERGY PREDICTED BY IDOCK:   -5.96 KCAL/MOL
REMARK 924 INTRA-LIGAND FREE ENERGY PREDICTED BY IDOCK:   -1.31 KCAL/MOL
REMARK 927      BINDING AFFINITY PREDICTED BY RF-SCORE:    0.00 PKD
ROOT
HETATM    1  C   UNK A   1     -10.064   6.900  70.548  1.00  0.00    -0.187 C  
HETATM    2  C   UNK A   1     -11.298   6.431  69.782  1.00  0.00    -0.494 C  
ENDROOT
BRANCH   1   3
HETATM    3  C   UNK A   1      -9.168   5.673  70.874  1.00  0.00    -0.155 C  
ATOM      4  CA  PRO A   2      -8.866   6.470  73.290  1.00  0.00    -0.124 C  
ATOM      5  N   PRO A   2      -8.561   5.623  72.121  1.00  0.00    -0.126 N  
ATOM      6  C   PRO A   2      -8.047   7.770  73.299  1.00  0.00    -0.148 C  
HETATM    7  O   UNK A   1      -8.978   4.789  70.033  1.00  0.00    -0.090 OA 
ATOM      8  CB  PRO A   2      -8.490   5.615  74.508  1.00  0.00    -0.107 C  
ATOM      9  O   PRO A   2      -7.185   7.883  72.263  1.00  0.00    -0.075 OA 
ATOM     10  CD  PRO A   2      -7.767   4.475  72.529  1.00  0.00    -0.086 C  
ATOM     11  OXT PRO A   2      -8.157   8.629  74.159  1.00  0.00    -0.373 OA 
ATOM     12  CG  PRO A   2      -8.218   4.220  73.954  1.00  0.00    -0.096 C  
ENDBRANCH   1   3
BRANCH   1  13
HETATM   13  N   UNK A   1      -9.243   7.863  69.774  1.00  0.00    -0.150 NA 
HETATM   14  H   UNK A   1      -8.369   7.424  69.485  1.00  0.00     0.000 HD 
BRANCH  13  15
HETATM   15  C   UNK A   1      -9.922   8.483  68.589  1.00  0.00    -0.184 C  
HETATM   16  O   UNK A   1      -9.496   8.184  66.181  1.00  0.00    -0.201 OA 
HETATM   17  O   UNK A   1      -7.904   7.533  67.649  1.00  0.00    -0.109 OA 
HETATM   18  C   UNK A   1      -9.113   8.067  67.334  1.00  0.00    -0.134 C  
BRANCH  15  19
HETATM   19  C   UNK A   1     -10.026  10.024  68.667  1.00  0.00    -0.176 C  
BRANCH  19  20
HETATM   20  C   UNK A   1     -11.463  10.543  68.493  1.00  0.00    -0.284 C  
BRANCH  20  21
HETATM   21  C   UNK A   1     -12.040  11.188  69.732  1.00  0.00    -0.414 A  
HETATM   22  C   UNK A   1     -13.206  12.424  71.970  1.00  0.00    -0.514 A  
HETATM   23  C   UNK A   1     -12.035  12.581  69.861  1.00  0.00    -0.371 A  
HETATM   24  C   UNK A   1     -12.616  13.198  70.973  1.00  0.00    -0.397 A  
HETATM   25  C   UNK A   1     -13.212  11.036  71.857  1.00  0.00    -0.503 A  
HETATM   26  C   UNK A   1     -12.635  10.416  70.745  1.00  0.00    -0.462 A  
ENDBRANCH  20  21
ENDBRANCH  19  20
ENDBRANCH  15  19
ENDBRANCH  13  15
ENDBRANCH   1  13
TORSDOF 6
ENDMDL
MODEL      150
REMARK 921   NORMALIZED FREE ENERGY PREDICTED BY IDOCK:   -4.11 KCAL/MOL
REMARK 922        TOTAL FREE ENERGY PREDICTED BY IDOCK:   -7.27 KCAL/MOL
REMARK 923 INTER-LIGAND FREE ENERGY PREDICTED BY IDOCK:   -5.95 KCAL/MOL
REMARK 924 INTRA-LIGAND FREE ENERGY PREDICTED BY IDOCK:   -1.32 KCAL/MOL
REMARK 927      BINDING AFFINITY PREDICTED BY RF-SCORE:    0.00 PKD
ROOT
HETATM    1  C   UNK A   1      -9.009   9.584  67.048  1.00  0.00    -0.134 C  
HETATM    2  C   UNK A   1      -9.993   9.409  65.895  1.00  0.00    -0.327 C  
ENDROOT
BRANCH   1   3
HETATM    3  C   UNK A   1      -8.567   8.185  67.560  1.00  0.00    -0.129 C  
ATOM      4  CA  PRO A   2     -10.608   8.046  69.103  1.00  0.00    -0.169 C  
ATOM      5  N   PRO A   2      -9.293   7.610  68.593  1.00  0.00    -0.147 N  
ATOM      6  C   PRO A   2     -10.482   9.105  70.209  1.00  0.00    -0.218 C  
HETATM    7  O   UNK A   1      -7.577   7.622  67.082  1.00  0.00    -0.099 OA 
ATOM      8  CB  PRO A   2     -11.253   6.776  69.674  1.00  0.00    -0.345 C  
ATOM      9  O   PRO A   2      -9.205   9.414  70.531  1.00  0.00    -0.237 OA 
ATOM     10  CD  PRO A   2      -8.988   6.273  69.078  1.00  0.00    -0.123 C  
ATOM     11  OXT PRO A   2     -11.442   9.624  70.756  1.00  0.00    -0.279 OA 
ATOM     12  CG  PRO A   2     -10.352   5.629  69.226  1.00  0.00    -0.340 C  
ENDBRANCH   1   3
BRANCH   1  13
HETATM   13  N   UNK A   1      -7.787  10.324  66.649  1.00  0.00    -0.113 NA 
HETATM   14  H   UNK A   1      -7.707  10.344  65.632  1.00  0.00     0.000 HD 
BRANCH  13  15
HETATM   15  C   UNK A   1      -7.665  11.713  67.201  1.00  0.00    -0.159 C  
HETATM   16  O   UNK A   1      -6.035  12.648  68.795  1.00  0.00    -0.062 OA 
HETATM   17  O   UNK A   1      -6.241  10.401  68.655  1.00  0.00    -0.047 OA 
HETATM   18  C   UNK A   1      -6.569  11.670  68.297  1.00  0.00    -0.059 C  
BRANCH  15  19
HETATM   19  C   UNK A   1      -8.983  12.266  67.790  1.00  0.00    -0.177 C  
BRANCH  19  20
HETATM   20  C   UNK A   1      -9.568  13.432  66.975  1.00  0.00    -0.244 C  
BRANCH  20  21
HETATM   21  C   UNK A   1     -10.459  13.000  65.834  1.00  0.00    -0.293 A  
HETATM   22  C   UNK A   1     -12.150  12.312  63.698  1.00  0.00    -0.648 A  
HETATM   23  C   UNK A   1     -11.848  12.975  66.002  1.00  0.00    -0.471 A  
HETATM   24  C   UNK A   1     -12.691  12.635  64.941  1.00  0.00    -0.450 A  
HETATM   25  C   UNK A   1     -10.769  12.327  63.518  1.00  0.00    -0.497 A  
HETATM   26  C   UNK A   1      -9.923  12.670  64.577  1.00  0.00    -0.186 A  
ENDBRANCH  20  21
ENDBRANCH  19  20
ENDBRANCH  15  19
ENDBRANCH  13  15
ENDBRANCH   1  13
TORSDOF 6
ENDMDL
MODEL      151
REMARK 921   NORMALIZED FREE ENERGY PREDICTED BY IDOCK:   -4.11 KCAL/MOL
REMARK 922        TOTAL FREE ENERGY PREDICTED BY IDOCK:   -7.26 KCAL/MOL
REMARK 923 INTER-LIGAND FREE ENERGY PREDICTED BY IDOCK:   -5.87 KCAL/MOL
REMARK 924 INTRA-LIGAND FREE ENERGY PREDICTED BY IDOCK:   -1.40 KCAL/MOL
REMARK 927      BINDING AFFINITY PREDICTED BY RF-SCORE:    0.00 PKD
ROOT
HETATM    1  C   UNK A   1      -8.372  11.745  68.064  1.00  0.00    -0.154 C  
HETATM    2  C   UNK A   1      -7.127  12.620  68.174  1.00  0.00    -0.102 C  
ENDROOT
BRANCH   1   3
HETATM    3  C   UNK A   1      -8.022  10.298  68.512  1.00  0.00    -0.107 C  
ATOM      4  CA  PRO A   2      -7.891   9.521  66.074  1.00  0.00    -0.100 C  
ATOM      5  N   PRO A   2      -7.941   9.316  67.535  1.00  0.00    -0.099 N  
ATOM      6  C   PRO A   2      -9.290   9.581  65.444  1.00  0.00    -0.261 C  
HETATM    7  O   UNK A   1      -7.856  10.029  69.705  1.00  0.00    -0.147 OA 
ATOM      8  CB  PRO A   2      -7.132   8.303  65.529  1.00  0.00    -0.067 C  
ATOM      9  O   PRO A   2     -10.299   9.405  66.329  1.00  0.00    -0.240 OA 
ATOM     10  CD  PRO A   2      -7.547   7.955  67.863  1.00  0.00    -0.109 C  
ATOM     11  OXT PRO A   2      -9.486   9.768  64.254  1.00  0.00    -0.263 OA 
ATOM     12  CG  PRO A   2      -6.575   7.591  66.759  1.00  0.00    -0.057 C  
ENDBRANCH   1   3
BRANCH   1  13
HETATM   13  N   UNK A   1      -9.484  12.224  68.922  1.00  0.00    -0.396 NA 
HETATM   14  H   UNK A   1      -9.272  13.155  69.281  1.00  0.00     0.000 HD 
BRANCH  13  15
HETATM   15  C   UNK A   1     -10.840  12.216  68.283  1.00  0.00    -0.223 C  
HETATM   16  O   UNK A   1     -12.260  14.094  67.553  1.00  0.00    -0.370 OA 
HETATM   17  O   UNK A   1     -10.558  14.518  68.980  1.00  0.00    -0.240 OA 
HETATM   18  C   UNK A   1     -11.317  13.690  68.216  1.00  0.00    -0.289 C  
BRANCH  15  19
HETATM   19  C   UNK A   1     -11.880  11.357  69.039  1.00  0.00    -0.415 C  
BRANCH  19  20
HETATM   20  C   UNK A   1     -11.362  10.829  70.388  1.00  0.00    -0.342 C  
BRANCH  20  21
HETATM   21  C   UNK A   1     -11.565   9.345  70.588  1.00  0.00    -0.330 A  
HETATM   22  C   UNK A   1     -11.826   6.576  70.991  1.00  0.00    -0.390 A  
HETATM   23  C   UNK A   1     -11.012   8.435  69.679  1.00  0.00    -0.094 A  
HETATM   24  C   UNK A   1     -11.140   7.058  69.879  1.00  0.00    -0.301 A  
HETATM   25  C   UNK A   1     -12.386   7.470  71.900  1.00  0.00    -0.342 A  
HETATM   26  C   UNK A   1     -12.257   8.848  71.706  1.00  0.00    -0.429 A  
ENDBRANCH  20  21
ENDBRANCH  19  20
ENDBRANCH  15  19
ENDBRANCH  13  15
ENDBRANCH   1  13
TORSDOF 6
ENDMDL
MODEL      152
REMARK 921   NORMALIZED FREE ENERGY PREDICTED BY IDOCK:   -4.10 KCAL/MOL
REMARK 922        TOTAL FREE ENERGY PREDICTED BY IDOCK:   -7.26 KCAL/MOL
REMARK 923 INTER-LIGAND FREE ENERGY PREDICTED BY IDOCK:   -6.00 KCAL/MOL
REMARK 924 INTRA-LIGAND FREE ENERGY PREDICTED BY IDOCK:   -1.26 KCAL/MOL
REMARK 927      BINDING AFFINITY PREDICTED BY RF-SCORE:    0.00 PKD
ROOT
HETATM    1  C   UNK A   1      -8.799  13.757  67.921  1.00  0.00    -0.186 C  
HETATM    2  C   UNK A   1      -8.477  15.145  67.376  1.00  0.00    -0.202 C  
ENDROOT
BRANCH   1   3
HETATM    3  C   UNK A   1      -7.580  13.230  68.730  1.00  0.00    -0.043 C  
ATOM      4  CA  PRO A   2      -7.848  10.895  67.712  1.00  0.00    -0.109 C  
ATOM      5  N   PRO A   2      -7.293  11.875  68.665  1.00  0.00    -0.111 N  
ATOM      6  C   PRO A   2      -9.157  10.268  68.214  1.00  0.00    -0.139 C  
HETATM    7  O   UNK A   1      -6.911  13.994  69.433  1.00  0.00    -0.110 OA 
ATOM      8  CB  PRO A   2      -6.771   9.809  67.586  1.00  0.00    -0.069 C  
ATOM      9  O   PRO A   2      -9.538  10.700  69.438  1.00  0.00    -0.187 OA 
ATOM     10  CD  PRO A   2      -6.127  11.317  69.334  1.00  0.00    -0.074 C  
ATOM     11  OXT PRO A   2      -9.802   9.451  67.576  1.00  0.00    -0.157 OA 
ATOM     12  CG  PRO A   2      -5.545  10.371  68.302  1.00  0.00    -0.037 C  
ENDBRANCH   1   3
BRANCH   1  13
HETATM   13  N   UNK A   1      -9.973  13.757  68.828  1.00  0.00    -0.382 NA 
HETATM   14  H   UNK A   1      -9.668  13.641  69.795  1.00  0.00     0.000 HD 
BRANCH  13  15
HETATM   15  C   UNK A   1     -10.875  14.950  68.714  1.00  0.00    -0.252 C  
HETATM   16  O   UNK A   1     -12.515  15.857  70.315  1.00  0.00    -0.339 OA 
HETATM   17  O   UNK A   1     -11.777  13.739  70.606  1.00  0.00    -0.231 OA 
HETATM   18  C   UNK A   1     -11.814  14.926  69.947  1.00  0.00    -0.311 C  
BRANCH  15  19
HETATM   19  C   UNK A   1     -11.708  14.978  67.412  1.00  0.00    -0.255 C  
BRANCH  19  20
HETATM   20  C   UNK A   1     -12.387  13.633  67.100  1.00  0.00    -0.234 C  
BRANCH  20  21
HETATM   21  C   UNK A   1     -12.006  13.047  65.760  1.00  0.00    -0.482 A  
HETATM   22  C   UNK A   1     -11.225  12.052  63.251  1.00  0.00    -0.403 A  
HETATM   23  C   UNK A   1     -12.478  13.635  64.581  1.00  0.00    -0.359 A  
HETATM   24  C   UNK A   1     -12.089  13.142  63.332  1.00  0.00    -0.558 A  
HETATM   25  C   UNK A   1     -10.753  11.454  64.416  1.00  0.00    -0.405 A  
HETATM   26  C   UNK A   1     -11.137  11.946  65.667  1.00  0.00    -0.362 A  
ENDBRANCH  20  21
ENDBRANCH  19  20
ENDBRANCH  15  19
ENDBRANCH  13  15
ENDBRANCH   1  13
TORSDOF 6
ENDMDL
MODEL      153
REMARK 921   NORMALIZED FREE ENERGY PREDICTED BY IDOCK:   -4.09 KCAL/MOL
REMARK 922        TOTAL FREE ENERGY PREDICTED BY IDOCK:   -7.24 KCAL/MOL
REMARK 923 INTER-LIGAND FREE ENERGY PREDICTED BY IDOCK:   -5.83 KCAL/MOL
REMARK 924 INTRA-LIGAND FREE ENERGY PREDICTED BY IDOCK:   -1.41 KCAL/MOL
REMARK 927      BINDING AFFINITY PREDICTED BY RF-SCORE:    0.00 PKD
ROOT
HETATM    1  C   UNK A   1     -10.522   7.532  69.309  1.00  0.00    -0.214 C  
HETATM    2  C   UNK A   1     -11.283   6.246  69.619  1.00  0.00    -0.506 C  
ENDROOT
BRANCH   1   3
HETATM    3  C   UNK A   1     -10.216   7.590  67.786  1.00  0.00    -0.201 C  
ATOM      4  CA  PRO A   2      -8.012   8.821  68.223  1.00  0.00    -0.106 C  
ATOM      5  N   PRO A   2      -9.104   8.309  67.372  1.00  0.00    -0.139 N  
ATOM      6  C   PRO A   2      -8.312  10.220  68.780  1.00  0.00    -0.125 C  
HETATM    7  O   UNK A   1     -10.963   7.039  66.971  1.00  0.00    -0.375 OA 
ATOM      8  CB  PRO A   2      -6.788   8.884  67.300  1.00  0.00    -0.077 C  
ATOM      9  O   PRO A   2      -9.494  10.734  68.367  1.00  0.00    -0.159 OA 
ATOM     10  CD  PRO A   2      -8.710   8.351  65.973  1.00  0.00    -0.157 C  
ATOM     11  OXT PRO A   2      -7.558  10.824  69.527  1.00  0.00    -0.141 OA 
ATOM     12  CG  PRO A   2      -7.206   8.162  66.022  1.00  0.00    -0.069 C  
ENDBRANCH   1   3
BRANCH   1  13
HETATM   13  N   UNK A   1     -11.293   8.751  69.659  1.00  0.00    -0.434 NA 
HETATM   14  H   UNK A   1     -12.044   8.895  68.984  1.00  0.00     0.000 HD 
BRANCH  13  15
HETATM   15  C   UNK A   1     -11.841   8.787  71.054  1.00  0.00    -0.271 C  
HETATM   16  O   UNK A   1     -13.380  10.395  72.112  1.00  0.00    -0.441 OA 
HETATM   17  O   UNK A   1     -12.345  10.992  70.192  1.00  0.00    -0.310 OA 
HETATM   18  C   UNK A   1     -12.609  10.125  71.204  1.00  0.00    -0.386 C  
BRANCH  15  19
HETATM   19  C   UNK A   1     -10.758   8.672  72.151  1.00  0.00    -0.417 C  
BRANCH  19  20
HETATM   20  C   UNK A   1     -11.035   7.545  73.161  1.00  0.00    -0.420 C  
BRANCH  20  21
HETATM   21  C   UNK A   1      -9.957   6.488  73.216  1.00  0.00    -0.200 A  
HETATM   22  C   UNK A   1      -8.027   4.446  73.261  1.00  0.00    -0.095 A  
HETATM   23  C   UNK A   1     -10.102   5.386  74.068  1.00  0.00    -0.241 A  
HETATM   24  C   UNK A   1      -9.143   4.370  74.091  1.00  0.00    -0.109 A  
HETATM   25  C   UNK A   1      -7.868   5.539  72.413  1.00  0.00    -0.103 A  
HETATM   26  C   UNK A   1      -8.826   6.556  72.385  1.00  0.00    -0.133 A  
ENDBRANCH  20  21
ENDBRANCH  19  20
ENDBRANCH  15  19
ENDBRANCH  13  15
ENDBRANCH   1  13
TORSDOF 6
ENDMDL
MODEL      154
REMARK 921   NORMALIZED FREE ENERGY PREDICTED BY IDOCK:   -4.06 KCAL/MOL
REMARK 922        TOTAL FREE ENERGY PREDICTED BY IDOCK:   -7.21 KCAL/MOL
REMARK 923 INTER-LIGAND FREE ENERGY PREDICTED BY IDOCK:   -6.22 KCAL/MOL
REMARK 924 INTRA-LIGAND FREE ENERGY PREDICTED BY IDOCK:   -0.99 KCAL/MOL
REMARK 927      BINDING AFFINITY PREDICTED BY RF-SCORE:    0.00 PKD
ROOT
HETATM    1  C   UNK A   1     -10.158   6.106  70.128  1.00  0.00    -0.184 C  
HETATM    2  C   UNK A   1     -11.649   6.430  70.153  1.00  0.00    -0.449 C  
ENDROOT
BRANCH   1   3
HETATM    3  C   UNK A   1      -9.944   4.643  70.607  1.00  0.00    -0.223 C  
ATOM      4  CA  PRO A   2     -10.332   5.330  73.044  1.00  0.00    -0.193 C  
ATOM      5  N   PRO A   2      -9.919   4.403  71.973  1.00  0.00    -0.179 N  
ATOM      6  C   PRO A   2      -9.182   6.237  73.507  1.00  0.00    -0.131 C  
HETATM    7  O   UNK A   1      -9.769   3.731  69.792  1.00  0.00    -0.200 OA 
ATOM      8  CB  PRO A   2     -10.774   4.426  74.203  1.00  0.00    -0.313 C  
ATOM      9  O   PRO A   2      -8.008   5.999  72.877  1.00  0.00    -0.106 OA 
ATOM     10  CD  PRO A   2      -9.797   3.052  72.500  1.00  0.00    -0.151 C  
ATOM     11  OXT PRO A   2      -9.304   7.096  74.366  1.00  0.00    -0.225 OA 
ATOM     12  CG  PRO A   2     -10.817   3.015  73.621  1.00  0.00    -0.310 C  
ENDBRANCH   1   3
BRANCH   1  13
HETATM   13  N   UNK A   1      -9.571   6.225  68.770  1.00  0.00    -0.121 NA 
HETATM   14  H   UNK A   1      -8.878   5.491  68.624  1.00  0.00     0.000 HD 
BRANCH  13  15
HETATM   15  C   UNK A   1     -10.556   6.233  67.640  1.00  0.00    -0.271 C  
HETATM   16  O   UNK A   1     -10.769   4.716  65.710  1.00  0.00    -0.310 OA 
HETATM   17  O   UNK A   1      -8.828   4.723  66.870  1.00  0.00    -0.111 OA 
HETATM   18  C   UNK A   1     -10.093   5.155  66.628  1.00  0.00    -0.237 C  
BRANCH  15  19
HETATM   19  C   UNK A   1     -10.683   7.604  66.936  1.00  0.00    -0.271 C  
BRANCH  19  20
HETATM   20  C   UNK A   1      -9.837   8.705  67.597  1.00  0.00    -0.229 C  
BRANCH  20  21
HETATM   21  C   UNK A   1     -10.636   9.901  68.061  1.00  0.00    -0.288 A  
HETATM   22  C   UNK A   1     -12.023  12.165  68.981  1.00  0.00    -0.302 A  
HETATM   23  C   UNK A   1     -11.007  10.013  69.406  1.00  0.00    -0.280 A  
HETATM   24  C   UNK A   1     -11.696  11.139  69.865  1.00  0.00    -0.433 A  
HETATM   25  C   UNK A   1     -11.664  12.063  67.639  1.00  0.00    -0.365 A  
HETATM   26  C   UNK A   1     -10.972  10.940  67.177  1.00  0.00    -0.334 A  
ENDBRANCH  20  21
ENDBRANCH  19  20
ENDBRANCH  15  19
ENDBRANCH  13  15
ENDBRANCH   1  13
TORSDOF 6
ENDMDL
MODEL      155
REMARK 921   NORMALIZED FREE ENERGY PREDICTED BY IDOCK:   -4.06 KCAL/MOL
REMARK 922        TOTAL FREE ENERGY PREDICTED BY IDOCK:   -7.20 KCAL/MOL
REMARK 923 INTER-LIGAND FREE ENERGY PREDICTED BY IDOCK:   -5.81 KCAL/MOL
REMARK 924 INTRA-LIGAND FREE ENERGY PREDICTED BY IDOCK:   -1.40 KCAL/MOL
REMARK 927      BINDING AFFINITY PREDICTED BY RF-SCORE:    0.00 PKD
ROOT
HETATM    1  C   UNK A   1      -9.919   9.264  69.302  1.00  0.00    -0.180 C  
HETATM    2  C   UNK A   1      -8.576   9.931  69.589  1.00  0.00    -0.207 C  
ENDROOT
BRANCH   1   3
HETATM    3  C   UNK A   1     -10.784   9.278  70.593  1.00  0.00    -0.269 C  
ATOM      4  CA  PRO A   2     -10.036   6.900  71.183  1.00  0.00    -0.191 C  
ATOM      5  N   PRO A   2     -10.874   8.106  71.329  1.00  0.00    -0.232 N  
ATOM      6  C   PRO A   2     -10.604   5.916  70.148  1.00  0.00    -0.292 C  
HETATM    7  O   UNK A   1     -11.397  10.296  70.931  1.00  0.00    -0.337 OA 
ATOM      8  CB  PRO A   2     -10.036   6.246  72.571  1.00  0.00    -0.193 C  
ATOM      9  O   PRO A   2     -11.771   6.317  69.593  1.00  0.00    -0.382 OA 
ATOM     10  CD  PRO A   2     -11.603   8.058  72.587  1.00  0.00    -0.387 C  
ATOM     11  OXT PRO A   2     -10.061   4.865  69.849  1.00  0.00    -0.240 OA 
ATOM     12  CG  PRO A   2     -10.686   7.268  73.500  1.00  0.00    -0.367 C  
ENDBRANCH   1   3
BRANCH   1  13
HETATM   13  N   UNK A   1     -10.686   9.958  68.239  1.00  0.00    -0.234 NA 
HETATM   14  H   UNK A   1     -11.598  10.244  68.597  1.00  0.00     0.000 HD 
BRANCH  13  15
HETATM   15  C   UNK A   1      -9.995  11.127  67.604  1.00  0.00    -0.174 C  
HETATM   16  O   UNK A   1     -10.666  13.496  67.489  1.00  0.00    -0.255 OA 
HETATM   17  O   UNK A   1     -12.232  11.954  68.022  1.00  0.00    -0.491 OA 
HETATM   18  C   UNK A   1     -10.970  12.330  67.688  1.00  0.00    -0.244 C  
BRANCH  15  19
HETATM   19  C   UNK A   1      -9.580  10.882  66.135  1.00  0.00    -0.239 C  
BRANCH  19  20
HETATM   20  C   UNK A   1      -9.731   9.414  65.701  1.00  0.00    -0.336 C  
BRANCH  20  21
HETATM   21  C   UNK A   1      -8.458   8.606  65.803  1.00  0.00    -0.165 A  
HETATM   22  C   UNK A   1      -6.095   7.117  66.112  1.00  0.00    -0.036 A  
HETATM   23  C   UNK A   1      -7.258   9.236  66.152  1.00  0.00    -0.091 A  
HETATM   24  C   UNK A   1      -6.082   8.496  66.308  1.00  0.00    -0.052 A  
HETATM   25  C   UNK A   1      -7.281   6.479  65.758  1.00  0.00    -0.070 A  
HETATM   26  C   UNK A   1      -8.460   7.215  65.605  1.00  0.00    -0.141 A  
ENDBRANCH  20  21
ENDBRANCH  19  20
ENDBRANCH  15  19
ENDBRANCH  13  15
ENDBRANCH   1  13
TORSDOF 6
ENDMDL
MODEL      156
REMARK 921   NORMALIZED FREE ENERGY PREDICTED BY IDOCK:   -4.02 KCAL/MOL
REMARK 922        TOTAL FREE ENERGY PREDICTED BY IDOCK:   -7.15 KCAL/MOL
REMARK 923 INTER-LIGAND FREE ENERGY PREDICTED BY IDOCK:   -5.86 KCAL/MOL
REMARK 924 INTRA-LIGAND FREE ENERGY PREDICTED BY IDOCK:   -1.28 KCAL/MOL
REMARK 927      BINDING AFFINITY PREDICTED BY RF-SCORE:    0.00 PKD
ROOT
HETATM    1  C   UNK A   1     -10.081   9.567  67.337  1.00  0.00    -0.208 C  
HETATM    2  C   UNK A   1      -9.945   9.574  65.817  1.00  0.00    -0.316 C  
ENDROOT
BRANCH   1   3
HETATM    3  C   UNK A   1      -9.180   8.445  67.925  1.00  0.00    -0.135 C  
ATOM      4  CA  PRO A   2     -11.013   7.771  69.584  1.00  0.00    -0.122 C  
ATOM      5  N   PRO A   2      -9.643   7.754  69.036  1.00  0.00    -0.154 N  
ATOM      6  C   PRO A   2     -11.220   8.904  70.601  1.00  0.00    -0.266 C  
HETATM    7  O   UNK A   1      -8.072   8.203  67.436  1.00  0.00    -0.118 OA 
ATOM      8  CB  PRO A   2     -11.178   6.414  70.281  1.00  0.00    -0.445 C  
ATOM      9  O   PRO A   2     -10.113   9.647  70.828  1.00  0.00    -0.278 OA 
ATOM     10  CD  PRO A   2      -8.892   6.642  69.600  1.00  0.00    -0.143 C  
ATOM     11  OXT PRO A   2     -12.283   9.120  71.161  1.00  0.00    -0.296 OA 
ATOM     12  CG  PRO A   2      -9.956   5.597  69.871  1.00  0.00    -0.268 C  
ENDBRANCH   1   3
BRANCH   1  13
HETATM   13  N   UNK A   1      -9.662  10.849  67.954  1.00  0.00    -0.163 NA 
HETATM   14  H   UNK A   1      -9.113  10.669  68.795  1.00  0.00     0.000 HD 
BRANCH  13  15
HETATM   15  C   UNK A   1      -8.923  11.789  67.049  1.00  0.00    -0.186 C  
HETATM   16  O   UNK A   1      -6.543  12.426  67.027  1.00  0.00    -0.127 OA 
HETATM   17  O   UNK A   1      -7.381  11.441  68.882  1.00  0.00    -0.104 OA 
HETATM   18  C   UNK A   1      -7.490  11.935  67.622  1.00  0.00    -0.127 C  
BRANCH  15  19
HETATM   19  C   UNK A   1      -9.587  13.179  66.920  1.00  0.00    -0.248 C  
BRANCH  19  20
HETATM   20  C   UNK A   1      -9.157  14.160  68.024  1.00  0.00    -0.191 C  
BRANCH  20  21
HETATM   21  C   UNK A   1     -10.271  14.559  68.964  1.00  0.00    -0.210 A  
HETATM   22  C   UNK A   1     -12.384  15.374  70.626  1.00  0.00    -0.451 A  
HETATM   23  C   UNK A   1     -10.268  15.829  69.551  1.00  0.00    -0.271 A  
HETATM   24  C   UNK A   1     -11.319  16.237  70.377  1.00  0.00    -0.313 A  
HETATM   25  C   UNK A   1     -12.396  14.105  70.053  1.00  0.00    -0.403 A  
HETATM   26  C   UNK A   1     -11.349  13.695  69.223  1.00  0.00    -0.323 A  
ENDBRANCH  20  21
ENDBRANCH  19  20
ENDBRANCH  15  19
ENDBRANCH  13  15
ENDBRANCH   1  13
TORSDOF 6
ENDMDL
MODEL      157
REMARK 921   NORMALIZED FREE ENERGY PREDICTED BY IDOCK:   -4.01 KCAL/MOL
REMARK 922        TOTAL FREE ENERGY PREDICTED BY IDOCK:   -7.13 KCAL/MOL
REMARK 923 INTER-LIGAND FREE ENERGY PREDICTED BY IDOCK:   -6.73 KCAL/MOL
REMARK 924 INTRA-LIGAND FREE ENERGY PREDICTED BY IDOCK:   -0.40 KCAL/MOL
REMARK 927      BINDING AFFINITY PREDICTED BY RF-SCORE:    0.00 PKD
ROOT
HETATM    1  C   UNK A   1      -9.157  12.528  67.571  1.00  0.00    -0.187 C  
HETATM    2  C   UNK A   1      -7.792  13.198  67.443  1.00  0.00    -0.169 C  
ENDROOT
BRANCH   1   3
HETATM    3  C   UNK A   1      -9.201  11.278  66.647  1.00  0.00    -0.180 C  
ATOM      4  CA  PRO A   2     -10.500  12.579  64.863  1.00  0.00    -0.303 C  
ATOM      5  N   PRO A   2      -9.945  11.358  65.479  1.00  0.00    -0.228 N  
ATOM      6  C   PRO A   2     -11.898  12.920  65.399  1.00  0.00    -0.403 C  
HETATM    7  O   UNK A   1      -8.618  10.237  66.965  1.00  0.00    -0.129 OA 
ATOM      8  CB  PRO A   2     -10.584  12.262  63.364  1.00  0.00    -0.427 C  
ATOM      9  O   PRO A   2     -12.372  12.032  66.302  1.00  0.00    -0.432 OA 
ATOM     10  CD  PRO A   2      -9.978  10.258  64.528  1.00  0.00    -0.289 C  
ATOM     11  OXT PRO A   2     -12.534  13.901  65.046  1.00  0.00    -0.467 OA 
ATOM     12  CG  PRO A   2      -9.832  10.946  63.185  1.00  0.00    -0.392 C  
ENDBRANCH   1   3
BRANCH   1  13
HETATM   13  N   UNK A   1      -9.443  12.075  68.954  1.00  0.00    -0.407 NA 
HETATM   14  H   UNK A   1      -9.776  12.858  69.516  1.00  0.00     0.000 HD 
BRANCH  13  15
HETATM   15  C   UNK A   1     -10.391  10.919  69.071  1.00  0.00    -0.211 C  
HETATM   16  O   UNK A   1     -12.823  10.898  69.470  1.00  0.00    -0.211 OA 
HETATM   17  O   UNK A   1     -11.669  12.787  69.931  1.00  0.00    -0.302 OA 
HETATM   18  C   UNK A   1     -11.762  11.500  69.504  1.00  0.00    -0.346 C  
BRANCH  15  19
HETATM   19  C   UNK A   1      -9.933   9.836  70.075  1.00  0.00    -0.299 C  
BRANCH  19  20
HETATM   20  C   UNK A   1     -10.816   8.578  70.052  1.00  0.00    -0.225 C  
BRANCH  20  21
HETATM   21  C   UNK A   1     -10.205   7.408  69.317  1.00  0.00    -0.199 A  
HETATM   22  C   UNK A   1      -9.095   5.287  67.846  1.00  0.00    -0.117 A  
HETATM   23  C   UNK A   1     -11.028   6.500  68.641  1.00  0.00    -0.363 A  
HETATM   24  C   UNK A   1     -10.478   5.445  67.908  1.00  0.00    -0.202 A  
HETATM   25  C   UNK A   1      -8.265   6.179  68.518  1.00  0.00    -0.111 A  
HETATM   26  C   UNK A   1      -8.811   7.238  69.250  1.00  0.00    -0.136 A  
ENDBRANCH  20  21
ENDBRANCH  19  20
ENDBRANCH  15  19
ENDBRANCH  13  15
ENDBRANCH   1  13
TORSDOF 6
ENDMDL
MODEL      158
REMARK 921   NORMALIZED FREE ENERGY PREDICTED BY IDOCK:   -4.00 KCAL/MOL
REMARK 922        TOTAL FREE ENERGY PREDICTED BY IDOCK:   -7.12 KCAL/MOL
REMARK 923 INTER-LIGAND FREE ENERGY PREDICTED BY IDOCK:   -5.81 KCAL/MOL
REMARK 924 INTRA-LIGAND FREE ENERGY PREDICTED BY IDOCK:   -1.31 KCAL/MOL
REMARK 927      BINDING AFFINITY PREDICTED BY RF-SCORE:    0.00 PKD
ROOT
HETATM    1  C   UNK A   1     -11.108  12.378  68.560  1.00  0.00    -0.258 C  
HETATM    2  C   UNK A   1     -11.904  12.677  69.828  1.00  0.00    -0.379 C  
ENDROOT
BRANCH   1   3
HETATM    3  C   UNK A   1     -10.488  13.698  68.023  1.00  0.00    -0.248 C  
ATOM      4  CA  PRO A   2     -11.299  13.174  65.650  1.00  0.00    -0.303 C  
ATOM      5  N   PRO A   2     -10.516  13.920  66.654  1.00  0.00    -0.270 N  
ATOM      6  C   PRO A   2     -10.544  11.949  65.112  1.00  0.00    -0.287 C  
HETATM    7  O   UNK A   1      -9.957  14.505  68.792  1.00  0.00    -0.230 OA 
ATOM      8  CB  PRO A   2     -11.539  14.174  64.511  1.00  0.00    -0.400 C  
ATOM      9  O   PRO A   2      -9.302  11.801  65.628  1.00  0.00    -0.221 OA 
ATOM     10  CD  PRO A   2     -10.022  15.163  66.080  1.00  0.00    -0.295 C  
ATOM     11  OXT PRO A   2     -11.012  11.176  64.292  1.00  0.00    -0.341 OA 
ATOM     12  CG  PRO A   2     -11.077  15.524  65.054  1.00  0.00    -0.411 C  
ENDBRANCH   1   3
BRANCH   1  13
HETATM   13  N   UNK A   1      -9.998  11.422  68.795  1.00  0.00    -0.289 NA 
HETATM   14  H   UNK A   1      -9.425  11.738  69.577  1.00  0.00     0.000 HD 
BRANCH  13  15
HETATM   15  C   UNK A   1     -10.409   9.995  69.002  1.00  0.00    -0.206 C  
HETATM   16  O   UNK A   1      -9.484   8.282  70.513  1.00  0.00    -0.163 OA 
HETATM   17  O   UNK A   1      -8.241  10.119  70.073  1.00  0.00    -0.160 OA 
HETATM   18  C   UNK A   1      -9.354   9.352  69.939  1.00  0.00    -0.214 C  
BRANCH  15  19
HETATM   19  C   UNK A   1     -10.520   9.183  67.692  1.00  0.00    -0.323 C  
BRANCH  19  20
HETATM   20  C   UNK A   1      -9.377   8.170  67.508  1.00  0.00    -0.165 C  
BRANCH  20  21
HETATM   21  C   UNK A   1      -8.339   8.589  66.493  1.00  0.00    -0.113 A  
HETATM   22  C   UNK A   1      -6.487   9.451  64.564  1.00  0.00    -0.084 A  
HETATM   23  C   UNK A   1      -8.523   8.283  65.139  1.00  0.00    -0.164 A  
HETATM   24  C   UNK A   1      -7.603   8.713  64.179  1.00  0.00    -0.121 A  
HETATM   25  C   UNK A   1      -6.289   9.757  65.908  1.00  0.00    -0.080 A  
HETATM   26  C   UNK A   1      -7.208   9.333  66.872  1.00  0.00    -0.086 A  
ENDBRANCH  20  21
ENDBRANCH  19  20
ENDBRANCH  15  19
ENDBRANCH  13  15
ENDBRANCH   1  13
TORSDOF 6
ENDMDL
MODEL      159
REMARK 921   NORMALIZED FREE ENERGY PREDICTED BY IDOCK:   -3.99 KCAL/MOL
REMARK 922        TOTAL FREE ENERGY PREDICTED BY IDOCK:   -7.10 KCAL/MOL
REMARK 923 INTER-LIGAND FREE ENERGY PREDICTED BY IDOCK:   -7.74 KCAL/MOL
REMARK 924 INTRA-LIGAND FREE ENERGY PREDICTED BY IDOCK:    0.64 KCAL/MOL
REMARK 927      BINDING AFFINITY PREDICTED BY RF-SCORE:    0.00 PKD
ROOT
HETATM    1  C   UNK A   1     -10.787  14.598  65.519  1.00  0.00    -0.345 C  
HETATM    2  C   UNK A   1     -11.908  14.130  66.443  1.00  0.00    -0.440 C  
ENDROOT
BRANCH   1   3
HETATM    3  C   UNK A   1     -10.904  16.134  65.310  1.00  0.00    -0.336 C  
ATOM      4  CA  PRO A   2      -9.531  16.578  67.427  1.00  0.00    -0.228 C  
ATOM      5  N   PRO A   2     -10.404  16.965  66.301  1.00  0.00    -0.320 N  
ATOM      6  C   PRO A   2     -10.331  16.125  68.657  1.00  0.00    -0.252 C  
HETATM    7  O   UNK A   1     -11.457  16.594  64.306  1.00  0.00    -1.075 OA 
ATOM      8  CB  PRO A   2      -8.736  17.846  67.766  1.00  0.00    -0.250 C  
ATOM      9  O   PRO A   2     -11.673  16.195  68.496  1.00  0.00    -0.348 OA 
ATOM     10  CD  PRO A   2     -10.409  18.412  66.147  1.00  0.00    -0.407 C  
ATOM     11  OXT PRO A   2      -9.813  15.738  69.693  1.00  0.00    -0.276 OA 
ATOM     12  CG  PRO A   2      -9.035  18.826  66.635  1.00  0.00    -0.315 C  
ENDBRANCH   1   3
BRANCH   1  13
HETATM   13  N   UNK A   1      -9.438  14.321  66.071  1.00  0.00    -0.499 NA 
HETATM   14  H   UNK A   1      -9.130  15.103  66.649  1.00  0.00     0.000 HD 
BRANCH  13  15
HETATM   15  C   UNK A   1      -9.305  13.036  66.833  1.00  0.00    -0.241 C  
HETATM   16  O   UNK A   1      -7.709  12.397  68.599  1.00  0.00    -0.118 OA 
HETATM   17  O   UNK A   1      -7.230  14.190  67.306  1.00  0.00    -0.148 OA 
HETATM   18  C   UNK A   1      -8.013  13.145  67.682  1.00  0.00    -0.174 C  
BRANCH  15  19
HETATM   19  C   UNK A   1      -9.243  11.782  65.932  1.00  0.00    -0.178 C  
BRANCH  19  20
HETATM   20  C   UNK A   1     -10.420  10.817  66.155  1.00  0.00    -0.278 C  
BRANCH  20  21
HETATM   21  C   UNK A   1     -10.008   9.378  66.362  1.00  0.00    -0.346 A  
HETATM   22  C   UNK A   1      -9.335   6.669  66.683  1.00  0.00    -0.192 A  
HETATM   23  C   UNK A   1     -10.755   8.553  67.210  1.00  0.00    -0.219 A  
HETATM   24  C   UNK A   1     -10.423   7.204  67.369  1.00  0.00    -0.354 A  
HETATM   25  C   UNK A   1      -8.580   7.481  65.842  1.00  0.00    -0.165 A  
HETATM   26  C   UNK A   1      -8.911   8.829  65.677  1.00  0.00    -0.239 A  
ENDBRANCH  20  21
ENDBRANCH  19  20
ENDBRANCH  15  19
ENDBRANCH  13  15
ENDBRANCH   1  13
TORSDOF 6
ENDMDL
MODEL      160
REMARK 921   NORMALIZED FREE ENERGY PREDICTED BY IDOCK:   -3.97 KCAL/MOL
REMARK 922        TOTAL FREE ENERGY PREDICTED BY IDOCK:   -7.08 KCAL/MOL
REMARK 923 INTER-LIGAND FREE ENERGY PREDICTED BY IDOCK:   -6.21 KCAL/MOL
REMARK 924 INTRA-LIGAND FREE ENERGY PREDICTED BY IDOCK:   -0.87 KCAL/MOL
REMARK 927      BINDING AFFINITY PREDICTED BY RF-SCORE:    0.00 PKD
ROOT
HETATM    1  C   UNK A   1     -10.759   9.129  69.617  1.00  0.00    -0.225 C  
HETATM    2  C   UNK A   1     -11.716   9.604  70.706  1.00  0.00    -0.390 C  
ENDROOT
BRANCH   1   3
HETATM    3  C   UNK A   1     -10.428   7.628  69.846  1.00  0.00    -0.231 C  
ATOM      4  CA  PRO A   2      -8.471   8.240  71.382  1.00  0.00    -0.138 C  
ATOM      5  N   PRO A   2      -9.286   7.316  70.570  1.00  0.00    -0.158 N  
ATOM      6  C   PRO A   2      -7.373   8.929  70.558  1.00  0.00    -0.078 C  
HETATM    7  O   UNK A   1     -11.144   6.743  69.367  1.00  0.00    -0.268 OA 
ATOM      8  CB  PRO A   2      -7.830   7.358  72.462  1.00  0.00    -0.108 C  
ATOM      9  O   PRO A   2      -7.335   8.542  69.262  1.00  0.00    -0.068 OA 
ATOM     10  CD  PRO A   2      -8.947   5.938  70.889  1.00  0.00    -0.146 C  
ATOM     11  OXT PRO A   2      -6.598   9.751  71.021  1.00  0.00    -0.238 OA 
ATOM     12  CG  PRO A   2      -8.523   6.004  72.343  1.00  0.00    -0.116 C  
ENDBRANCH   1   3
BRANCH   1  13
HETATM   13  N   UNK A   1     -11.333   9.260  68.255  1.00  0.00    -0.305 NA 
HETATM   14  H   UNK A   1     -12.351   9.214  68.299  1.00  0.00     0.000 HD 
BRANCH  13  15
HETATM   15  C   UNK A   1     -10.907  10.478  67.491  1.00  0.00    -0.301 C  
HETATM   16  O   UNK A   1      -9.840  10.669  65.278  1.00  0.00    -0.235 OA 
HETATM   17  O   UNK A   1      -9.800   8.666  66.328  1.00  0.00    -0.267 OA 
HETATM   18  C   UNK A   1     -10.130   9.982  66.245  1.00  0.00    -0.243 C  
BRANCH  15  19
HETATM   19  C   UNK A   1     -10.029  11.451  68.311  1.00  0.00    -0.203 C  
BRANCH  19  20
HETATM   20  C   UNK A   1     -10.658  12.846  68.471  1.00  0.00    -0.270 C  
BRANCH  20  21
HETATM   21  C   UNK A   1     -10.795  13.613  67.176  1.00  0.00    -0.292 A  
HETATM   22  C   UNK A   1     -11.123  15.115  64.824  1.00  0.00    -0.395 A  
HETATM   23  C   UNK A   1     -11.990  13.552  66.451  1.00  0.00    -0.459 A  
HETATM   24  C   UNK A   1     -12.156  14.300  65.282  1.00  0.00    -0.400 A  
HETATM   25  C   UNK A   1      -9.926  15.180  65.533  1.00  0.00    -0.384 A  
HETATM   26  C   UNK A   1      -9.758  14.436  66.705  1.00  0.00    -0.289 A  
ENDBRANCH  20  21
ENDBRANCH  19  20
ENDBRANCH  15  19
ENDBRANCH  13  15
ENDBRANCH   1  13
TORSDOF 6
ENDMDL
MODEL      161
REMARK 921   NORMALIZED FREE ENERGY PREDICTED BY IDOCK:   -3.96 KCAL/MOL
REMARK 922        TOTAL FREE ENERGY PREDICTED BY IDOCK:   -7.06 KCAL/MOL
REMARK 923 INTER-LIGAND FREE ENERGY PREDICTED BY IDOCK:   -5.59 KCAL/MOL
REMARK 924 INTRA-LIGAND FREE ENERGY PREDICTED BY IDOCK:   -1.47 KCAL/MOL
REMARK 927      BINDING AFFINITY PREDICTED BY RF-SCORE:    0.00 PKD
ROOT
HETATM    1  C   UNK A   1      -9.959  10.826  64.595  1.00  0.00    -0.324 C  
HETATM    2  C   UNK A   1     -11.246  11.419  64.027  1.00  0.00    -0.350 C  
ENDROOT
BRANCH   1   3
HETATM    3  C   UNK A   1      -8.949  10.594  63.437  1.00  0.00    -0.219 C  
ATOM      4  CA  PRO A   2      -8.044   8.487  64.579  1.00  0.00    -0.158 C  
ATOM      5  N   PRO A   2      -8.026   9.567  63.575  1.00  0.00    -0.131 N  
ATOM      6  C   PRO A   2      -7.320   8.881  65.875  1.00  0.00    -0.093 C  
HETATM    7  O   UNK A   1      -8.950  11.325  62.442  1.00  0.00    -0.321 OA 
ATOM      8  CB  PRO A   2      -7.311   7.314  63.914  1.00  0.00    -0.089 C  
ATOM      9  O   PRO A   2      -6.776  10.120  65.844  1.00  0.00    -0.092 OA 
ATOM     10  CD  PRO A   2      -7.095   9.240  62.505  1.00  0.00    -0.100 C  
ATOM     11  OXT PRO A   2      -7.234   8.150  66.849  1.00  0.00    -0.080 OA 
ATOM     12  CG  PRO A   2      -7.130   7.725  62.456  1.00  0.00    -0.082 C  
ENDBRANCH   1   3
BRANCH   1  13
HETATM   13  N   UNK A   1      -9.309  11.717  65.587  1.00  0.00    -0.358 NA 
HETATM   14  H   UNK A   1      -8.827  12.479  65.109  1.00  0.00     0.000 HD 
BRANCH  13  15
HETATM   15  C   UNK A   1     -10.214  12.267  66.648  1.00  0.00    -0.216 C  
HETATM   16  O   UNK A   1      -9.790  13.995  68.354  1.00  0.00    -0.224 OA 
HETATM   17  O   UNK A   1      -8.020  13.039  67.321  1.00  0.00    -0.172 OA 
HETATM   18  C   UNK A   1      -9.351  13.196  67.541  1.00  0.00    -0.207 C  
BRANCH  15  19
HETATM   19  C   UNK A   1     -10.892  11.180  67.513  1.00  0.00    -0.303 C  
BRANCH  19  20
HETATM   20  C   UNK A   1      -9.887  10.290  68.264  1.00  0.00    -0.161 C  
BRANCH  20  21
HETATM   21  C   UNK A   1     -10.263   8.827  68.296  1.00  0.00    -0.240 A  
HETATM   22  C   UNK A   1     -11.069   6.137  68.406  1.00  0.00    -0.343 A  
HETATM   23  C   UNK A   1     -10.315   8.146  69.519  1.00  0.00    -0.222 A  
HETATM   24  C   UNK A   1     -10.717   6.809  69.575  1.00  0.00    -0.294 A  
HETATM   25  C   UNK A   1     -11.015   6.801  67.183  1.00  0.00    -0.458 A  
HETATM   26  C   UNK A   1     -10.617   8.139  67.123  1.00  0.00    -0.355 A  
ENDBRANCH  20  21
ENDBRANCH  19  20
ENDBRANCH  15  19
ENDBRANCH  13  15
ENDBRANCH   1  13
TORSDOF 6
ENDMDL
MODEL      162
REMARK 921   NORMALIZED FREE ENERGY PREDICTED BY IDOCK:   -3.96 KCAL/MOL
REMARK 922        TOTAL FREE ENERGY PREDICTED BY IDOCK:   -7.06 KCAL/MOL
REMARK 923 INTER-LIGAND FREE ENERGY PREDICTED BY IDOCK:   -5.98 KCAL/MOL
REMARK 924 INTRA-LIGAND FREE ENERGY PREDICTED BY IDOCK:   -1.08 KCAL/MOL
REMARK 927      BINDING AFFINITY PREDICTED BY RF-SCORE:    0.00 PKD
ROOT
HETATM    1  C   UNK A   1      -9.161   5.397  67.525  1.00  0.00    -0.107 C  
HETATM    2  C   UNK A   1      -8.956   4.485  66.319  1.00  0.00    -0.119 C  
ENDROOT
BRANCH   1   3
HETATM    3  C   UNK A   1     -10.023   6.619  67.102  1.00  0.00    -0.160 C  
ATOM      4  CA  PRO A   2      -7.920   7.999  66.614  1.00  0.00    -0.102 C  
ATOM      5  N   PRO A   2      -9.369   7.809  66.818  1.00  0.00    -0.170 N  
ATOM      6  C   PRO A   2      -7.176   8.276  67.929  1.00  0.00    -0.095 C  
HETATM    7  O   UNK A   1     -11.254   6.537  67.054  1.00  0.00    -0.397 OA 
ATOM      8  CB  PRO A   2      -7.806   9.219  65.689  1.00  0.00    -0.099 C  
ATOM      9  O   PRO A   2      -7.982   8.327  69.015  1.00  0.00    -0.108 OA 
ATOM     10  CD  PRO A   2     -10.098   8.977  66.345  1.00  0.00    -0.281 C  
ATOM     11  OXT PRO A   2      -5.968   8.439  67.998  1.00  0.00    -0.041 OA 
ATOM     12  CG  PRO A   2      -9.230   9.505  65.220  1.00  0.00    -0.307 C  
ENDBRANCH   1   3
BRANCH   1  13
HETATM   13  N   UNK A   1      -9.862   4.718  68.643  1.00  0.00    -0.157 NA 
HETATM   14  H   UNK A   1      -9.650   3.720  68.632  1.00  0.00     0.000 HD 
BRANCH  13  15
HETATM   15  C   UNK A   1      -9.600   5.284  70.006  1.00  0.00    -0.174 C  
HETATM   16  O   UNK A   1      -8.803   4.174  72.057  1.00  0.00    -0.107 OA 
HETATM   17  O   UNK A   1      -9.615   2.892  70.381  1.00  0.00    -0.153 OA 
HETATM   18  C   UNK A   1      -9.291   4.087  70.941  1.00  0.00    -0.151 C  
BRANCH  15  19
HETATM   19  C   UNK A   1     -10.777   6.109  70.573  1.00  0.00    -0.340 C  
BRANCH  19  20
HETATM   20  C   UNK A   1     -10.322   7.296  71.440  1.00  0.00    -0.212 C  
BRANCH  20  21
HETATM   21  C   UNK A   1     -11.270   8.473  71.420  1.00  0.00    -0.327 A  
HETATM   22  C   UNK A   1     -12.990  10.694  71.491  1.00  0.00    -0.566 A  
HETATM   23  C   UNK A   1     -12.393   8.480  72.256  1.00  0.00    -0.450 A  
HETATM   24  C   UNK A   1     -13.248   9.585  72.293  1.00  0.00    -0.507 A  
HETATM   25  C   UNK A   1     -11.879  10.697  70.651  1.00  0.00    -0.463 A  
HETATM   26  C   UNK A   1     -11.019   9.596  70.613  1.00  0.00    -0.386 A  
ENDBRANCH  20  21
ENDBRANCH  19  20
ENDBRANCH  15  19
ENDBRANCH  13  15
ENDBRANCH   1  13
TORSDOF 6
ENDMDL
MODEL      163
REMARK 921   NORMALIZED FREE ENERGY PREDICTED BY IDOCK:   -3.94 KCAL/MOL
REMARK 922        TOTAL FREE ENERGY PREDICTED BY IDOCK:   -7.03 KCAL/MOL
REMARK 923 INTER-LIGAND FREE ENERGY PREDICTED BY IDOCK:   -6.26 KCAL/MOL
REMARK 924 INTRA-LIGAND FREE ENERGY PREDICTED BY IDOCK:   -0.78 KCAL/MOL
REMARK 927      BINDING AFFINITY PREDICTED BY RF-SCORE:    0.00 PKD
ROOT
HETATM    1  C   UNK A   1      -8.309   9.157  70.142  1.00  0.00    -0.165 C  
HETATM    2  C   UNK A   1      -7.381   8.693  71.261  1.00  0.00    -0.105 C  
ENDROOT
BRANCH   1   3
HETATM    3  C   UNK A   1      -9.778   8.821  70.523  1.00  0.00    -0.190 C  
ATOM      4  CA  PRO A   2      -9.394   6.338  70.024  1.00  0.00    -0.155 C  
ATOM      5  N   PRO A   2     -10.222   7.523  70.320  1.00  0.00    -0.202 N  
ATOM      6  C   PRO A   2      -9.157   6.152  68.517  1.00  0.00    -0.117 C  
HETATM    7  O   UNK A   1     -10.531   9.695  70.962  1.00  0.00    -0.304 OA 
ATOM      8  CB  PRO A   2     -10.194   5.148  70.571  1.00  0.00    -0.330 C  
ATOM      9  O   PRO A   2      -9.772   7.079  67.747  1.00  0.00    -0.132 OA 
ATOM     10  CD  PRO A   2     -11.559   7.111  70.718  1.00  0.00    -0.318 C  
ATOM     11  OXT PRO A   2      -8.480   5.252  68.047  1.00  0.00    -0.098 OA 
ATOM     12  CG  PRO A   2     -11.335   5.764  71.376  1.00  0.00    -0.175 C  
ENDBRANCH   1   3
BRANCH   1  13
HETATM   13  N   UNK A   1      -8.229  10.619  69.903  1.00  0.00    -0.312 NA 
HETATM   14  H   UNK A   1      -7.517  11.033  70.506  1.00  0.00     0.000 HD 
BRANCH  13  15
HETATM   15  C   UNK A   1      -7.999  11.028  68.479  1.00  0.00    -0.137 C  
HETATM   16  O   UNK A   1      -6.190  12.379  67.490  1.00  0.00    -0.117 OA 
HETATM   17  O   UNK A   1      -6.503  12.465  69.728  1.00  0.00    -0.109 OA 
HETATM   18  C   UNK A   1      -6.809  12.022  68.481  1.00  0.00    -0.078 C  
BRANCH  15  19
HETATM   19  C   UNK A   1      -9.232  11.678  67.811  1.00  0.00    -0.178 C  
BRANCH  19  20
HETATM   20  C   UNK A   1     -10.004  10.713  66.895  1.00  0.00    -0.245 C  
BRANCH  20  21
HETATM   21  C   UNK A   1     -10.721  11.390  65.751  1.00  0.00    -0.309 A  
HETATM   22  C   UNK A   1     -12.111  12.546  63.599  1.00  0.00    -0.642 A  
HETATM   23  C   UNK A   1     -10.370  11.089  64.430  1.00  0.00    -0.424 A  
HETATM   24  C   UNK A   1     -11.061  11.662  63.358  1.00  0.00    -0.422 A  
HETATM   25  C   UNK A   1     -12.466  12.859  64.908  1.00  0.00    -0.540 A  
HETATM   26  C   UNK A   1     -11.780  12.286  65.982  1.00  0.00    -0.451 A  
ENDBRANCH  20  21
ENDBRANCH  19  20
ENDBRANCH  15  19
ENDBRANCH  13  15
ENDBRANCH   1  13
TORSDOF 6
ENDMDL
MODEL      164
REMARK 921   NORMALIZED FREE ENERGY PREDICTED BY IDOCK:   -3.94 KCAL/MOL
REMARK 922        TOTAL FREE ENERGY PREDICTED BY IDOCK:   -7.03 KCAL/MOL
REMARK 923 INTER-LIGAND FREE ENERGY PREDICTED BY IDOCK:   -7.79 KCAL/MOL
REMARK 924 INTRA-LIGAND FREE ENERGY PREDICTED BY IDOCK:    0.75 KCAL/MOL
REMARK 927      BINDING AFFINITY PREDICTED BY RF-SCORE:    0.00 PKD
ROOT
HETATM    1  C   UNK A   1     -10.663   9.870  70.543  1.00  0.00    -0.317 C  
HETATM    2  C   UNK A   1     -11.966   9.135  70.847  1.00  0.00    -0.299 C  
ENDROOT
BRANCH   1   3
HETATM    3  C   UNK A   1      -9.462   8.950  70.900  1.00  0.00    -0.236 C  
ATOM      4  CA  PRO A   2      -9.279   8.159  68.470  1.00  0.00    -0.136 C  
ATOM      5  N   PRO A   2      -8.971   8.109  69.912  1.00  0.00    -0.143 N  
ATOM      6  C   PRO A   2     -10.521   7.331  68.109  1.00  0.00    -0.198 C  
HETATM    7  O   UNK A   1      -8.986   8.948  72.039  1.00  0.00    -0.365 OA 
ATOM      8  CB  PRO A   2      -8.044   7.565  67.780  1.00  0.00    -0.119 C  
ATOM      9  O   PRO A   2     -11.078   6.689  69.162  1.00  0.00    -0.280 OA 
ATOM     10  CD  PRO A   2      -7.804   7.272  70.145  1.00  0.00    -0.100 C  
ATOM     11  OXT PRO A   2     -10.972   7.250  66.977  1.00  0.00    -0.358 OA 
ATOM     12  CG  PRO A   2      -6.991   7.435  68.877  1.00  0.00    -0.078 C  
ENDBRANCH   1   3
BRANCH   1  13
HETATM   13  N   UNK A   1     -10.536  10.239  69.111  1.00  0.00    -0.215 NA 
HETATM   14  H   UNK A   1     -10.770   9.440  68.522  1.00  0.00     0.000 HD 
BRANCH  13  15
HETATM   15  C   UNK A   1     -11.326  11.440  68.684  1.00  0.00    -0.265 C  
HETATM   16  O   UNK A   1     -12.006  12.170  66.431  1.00  0.00    -0.611 OA 
HETATM   17  O   UNK A   1     -10.352  10.639  66.617  1.00  0.00    -0.227 OA 
HETATM   18  C   UNK A   1     -11.286  11.480  67.135  1.00  0.00    -0.284 C  
BRANCH  15  19
HETATM   19  C   UNK A   1     -10.795  12.772  69.262  1.00  0.00    -0.044 C  
BRANCH  19  20
HETATM   20  C   UNK A   1     -11.864  13.877  69.315  1.00  0.00    -0.394 C  
BRANCH  20  21
HETATM   21  C   UNK A   1     -12.220  14.324  70.714  1.00  0.00    -0.423 A  
HETATM   22  C   UNK A   1     -12.932  15.253  73.268  1.00  0.00    -0.645 A  
HETATM   23  C   UNK A   1     -11.521  15.379  71.310  1.00  0.00    -0.444 A  
HETATM   24  C   UNK A   1     -11.874  15.844  72.580  1.00  0.00    -0.613 A  
HETATM   25  C   UNK A   1     -13.632  14.198  72.689  1.00  0.00    -0.618 A  
HETATM   26  C   UNK A   1     -13.284  13.733  71.418  1.00  0.00    -0.378 A  
ENDBRANCH  20  21
ENDBRANCH  19  20
ENDBRANCH  15  19
ENDBRANCH  13  15
ENDBRANCH   1  13
TORSDOF 6
ENDMDL
MODEL      165
REMARK 921   NORMALIZED FREE ENERGY PREDICTED BY IDOCK:   -3.93 KCAL/MOL
REMARK 922        TOTAL FREE ENERGY PREDICTED BY IDOCK:   -7.02 KCAL/MOL
REMARK 923 INTER-LIGAND FREE ENERGY PREDICTED BY IDOCK:   -6.05 KCAL/MOL
REMARK 924 INTRA-LIGAND FREE ENERGY PREDICTED BY IDOCK:   -0.97 KCAL/MOL
REMARK 927      BINDING AFFINITY PREDICTED BY RF-SCORE:    0.00 PKD
ROOT
HETATM    1  C   UNK A   1     -10.588   9.426  71.156  1.00  0.00    -0.333 C  
HETATM    2  C   UNK A   1     -11.852  10.226  70.854  1.00  0.00    -0.473 C  
ENDROOT
BRANCH   1   3
HETATM    3  C   UNK A   1     -10.986   8.015  71.671  1.00  0.00    -0.239 C  
ATOM      4  CA  PRO A   2      -8.937   7.940  73.207  1.00  0.00    -0.264 C  
ATOM      5  N   PRO A   2     -10.104   7.358  72.517  1.00  0.00    -0.181 N  
ATOM      6  C   PRO A   2      -7.662   7.877  72.352  1.00  0.00    -0.109 C  
HETATM    7  O   UNK A   1     -12.041   7.485  71.309  1.00  0.00    -0.305 OA 
ATOM      8  CB  PRO A   2      -8.755   7.086  74.468  1.00  0.00    -0.227 C  
ATOM      9  O   PRO A   2      -7.835   7.277  71.151  1.00  0.00    -0.091 OA 
ATOM     10  CD  PRO A   2     -10.437   6.067  73.099  1.00  0.00    -0.230 C  
ATOM     11  OXT PRO A   2      -6.585   8.323  72.714  1.00  0.00    -0.083 OA 
ATOM     12  CG  PRO A   2     -10.000   6.206  74.544  1.00  0.00    -0.343 C  
ENDBRANCH   1   3
BRANCH   1  13
HETATM   13  N   UNK A   1      -9.729   9.243  69.960  1.00  0.00    -0.193 NA 
HETATM   14  H   UNK A   1      -9.192   8.379  70.045  1.00  0.00     0.000 HD 
BRANCH  13  15
HETATM   15  C   UNK A   1     -10.443   9.276  68.643  1.00  0.00    -0.209 C  
HETATM   16  O   UNK A   1     -10.734   7.508  66.951  1.00  0.00    -0.352 OA 
HETATM   17  O   UNK A   1      -9.124   7.250  68.518  1.00  0.00    -0.137 OA 
HETATM   18  C   UNK A   1     -10.139   7.934  67.929  1.00  0.00    -0.191 C  
BRANCH  15  19
HETATM   19  C   UNK A   1     -10.029  10.462  67.741  1.00  0.00    -0.203 C  
BRANCH  19  20
HETATM   20  C   UNK A   1     -11.093  10.823  66.691  1.00  0.00    -0.107 C  
BRANCH  20  21
HETATM   21  C   UNK A   1     -10.581  10.825  65.269  1.00  0.00    -0.230 A  
HETATM   22  C   UNK A   1      -9.573  10.931  62.648  1.00  0.00    -0.290 A  
HETATM   23  C   UNK A   1     -11.105  11.729  64.338  1.00  0.00    -0.396 A  
HETATM   24  C   UNK A   1     -10.604  11.784  63.035  1.00  0.00    -0.202 A  
HETATM   25  C   UNK A   1      -9.047  10.022  63.562  1.00  0.00    -0.303 A  
HETATM   26  C   UNK A   1      -9.543   9.966  64.868  1.00  0.00    -0.356 A  
ENDBRANCH  20  21
ENDBRANCH  19  20
ENDBRANCH  15  19
ENDBRANCH  13  15
ENDBRANCH   1  13
TORSDOF 6
ENDMDL
MODEL      166
REMARK 921   NORMALIZED FREE ENERGY PREDICTED BY IDOCK:   -3.92 KCAL/MOL
REMARK 922        TOTAL FREE ENERGY PREDICTED BY IDOCK:   -7.01 KCAL/MOL
REMARK 923 INTER-LIGAND FREE ENERGY PREDICTED BY IDOCK:   -5.98 KCAL/MOL
REMARK 924 INTRA-LIGAND FREE ENERGY PREDICTED BY IDOCK:   -1.03 KCAL/MOL
REMARK 927      BINDING AFFINITY PREDICTED BY RF-SCORE:    0.00 PKD
ROOT
HETATM    1  C   UNK A   1      -9.974   8.122  67.751  1.00  0.00    -0.181 C  
HETATM    2  C   UNK A   1     -10.305   6.804  67.056  1.00  0.00    -0.338 C  
ENDROOT
BRANCH   1   3
HETATM    3  C   UNK A   1      -9.715   9.215  66.677  1.00  0.00    -0.223 C  
ATOM      4  CA  PRO A   2      -7.209   8.682  66.663  1.00  0.00    -0.081 C  
ATOM      5  N   PRO A   2      -8.400   9.487  66.329  1.00  0.00    -0.115 N  
ATOM      6  C   PRO A   2      -6.597   9.079  68.014  1.00  0.00    -0.061 C  
HETATM    7  O   UNK A   1     -10.654   9.843  66.178  1.00  0.00    -0.121 OA 
ATOM      8  CB  PRO A   2      -6.207   8.971  65.537  1.00  0.00    -0.063 C  
ATOM      9  O   PRO A   2      -7.234  10.103  68.627  1.00  0.00    -0.076 OA 
ATOM     10  CD  PRO A   2      -8.079  10.444  65.281  1.00  0.00    -0.152 C  
ATOM     11  OXT PRO A   2      -5.621   8.528  68.499  1.00  0.00    -0.036 OA 
ATOM     12  CG  PRO A   2      -6.994   9.747  64.484  1.00  0.00    -0.125 C  
ENDBRANCH   1   3
BRANCH   1  13
HETATM   13  N   UNK A   1     -11.074   8.600  68.624  1.00  0.00    -0.396 NA 
HETATM   14  H   UNK A   1     -11.684   7.821  68.874  1.00  0.00     0.000 HD 
BRANCH  13  15
HETATM   15  C   UNK A   1     -10.644   9.333  69.859  1.00  0.00    -0.226 C  
HETATM   16  O   UNK A   1     -10.330   8.513  72.162  1.00  0.00    -0.293 OA 
HETATM   17  O   UNK A   1     -11.528   7.249  70.719  1.00  0.00    -0.282 OA 
HETATM   18  C   UNK A   1     -10.802   8.350  71.047  1.00  0.00    -0.238 C  
BRANCH  15  19
HETATM   19  C   UNK A   1     -11.452  10.624  70.129  1.00  0.00    -0.411 C  
BRANCH  19  20
HETATM   20  C   UNK A   1     -12.080  11.221  68.858  1.00  0.00    -0.292 C  
BRANCH  20  21
HETATM   21  C   UNK A   1     -11.885  12.713  68.716  1.00  0.00    -0.341 A  
HETATM   22  C   UNK A   1     -11.636  15.495  68.413  1.00  0.00    -0.368 A  
HETATM   23  C   UNK A   1     -11.795  13.287  67.443  1.00  0.00    -0.413 A  
HETATM   24  C   UNK A   1     -11.672  14.671  67.291  1.00  0.00    -0.406 A  
HETATM   25  C   UNK A   1     -11.719  14.936  69.686  1.00  0.00    -0.356 A  
HETATM   26  C   UNK A   1     -11.845  13.553  69.842  1.00  0.00    -0.386 A  
ENDBRANCH  20  21
ENDBRANCH  19  20
ENDBRANCH  15  19
ENDBRANCH  13  15
ENDBRANCH   1  13
TORSDOF 6
ENDMDL
MODEL      167
REMARK 921   NORMALIZED FREE ENERGY PREDICTED BY IDOCK:   -3.90 KCAL/MOL
REMARK 922        TOTAL FREE ENERGY PREDICTED BY IDOCK:   -6.99 KCAL/MOL
REMARK 923 INTER-LIGAND FREE ENERGY PREDICTED BY IDOCK:   -6.54 KCAL/MOL
REMARK 924 INTRA-LIGAND FREE ENERGY PREDICTED BY IDOCK:   -0.45 KCAL/MOL
REMARK 927      BINDING AFFINITY PREDICTED BY RF-SCORE:    0.00 PKD
ROOT
HETATM    1  C   UNK A   1      -8.972   9.073  70.019  1.00  0.00    -0.175 C  
HETATM    2  C   UNK A   1      -7.687   8.939  70.831  1.00  0.00    -0.139 C  
ENDROOT
BRANCH   1   3
HETATM    3  C   UNK A   1     -10.172   8.576  70.874  1.00  0.00    -0.200 C  
ATOM      4  CA  PRO A   2      -9.789   6.164  70.100  1.00  0.00    -0.171 C  
ATOM      5  N   PRO A   2     -10.550   7.247  70.752  1.00  0.00    -0.220 N  
ATOM      6  C   PRO A   2     -10.097   6.056  68.599  1.00  0.00    -0.168 C  
HETATM    7  O   UNK A   1     -10.787   9.353  71.611  1.00  0.00    -0.368 OA 
ATOM      8  CB  PRO A   2     -10.237   4.880  70.813  1.00  0.00    -0.276 C  
ATOM      9  O   PRO A   2     -11.023   6.941  68.163  1.00  0.00    -0.207 OA 
ATOM     10  CD  PRO A   2     -11.615   6.687  71.571  1.00  0.00    -0.309 C  
ATOM     11  OXT PRO A   2      -9.563   5.246  67.858  1.00  0.00    -0.123 OA 
ATOM     12  CG  PRO A   2     -11.058   5.348  72.011  1.00  0.00    -0.204 C  
ENDBRANCH   1   3
BRANCH   1  13
HETATM   13  N   UNK A   1      -9.253  10.475  69.622  1.00  0.00    -0.411 NA 
HETATM   14  H   UNK A   1      -8.444  10.872  69.145  1.00  0.00     0.000 HD 
BRANCH  13  15
HETATM   15  C   UNK A   1     -10.487  10.675  68.794  1.00  0.00    -0.194 C  
HETATM   16  O   UNK A   1     -10.856  10.312  66.385  1.00  0.00    -0.095 OA 
HETATM   17  O   UNK A   1      -8.730  10.450  67.144  1.00  0.00    -0.129 OA 
HETATM   18  C   UNK A   1     -10.078  10.463  67.314  1.00  0.00    -0.200 C  
BRANCH  15  19
HETATM   19  C   UNK A   1     -11.136  12.067  68.971  1.00  0.00    -0.291 C  
BRANCH  19  20
HETATM   20  C   UNK A   1     -10.317  13.202  68.333  1.00  0.00    -0.257 C  
BRANCH  20  21
HETATM   21  C   UNK A   1     -10.860  13.686  67.009  1.00  0.00    -0.291 A  
HETATM   22  C   UNK A   1     -11.806  14.502  64.492  1.00  0.00    -0.459 A  
HETATM   23  C   UNK A   1     -10.028  14.382  66.124  1.00  0.00    -0.328 A  
HETATM   24  C   UNK A   1     -10.497  14.787  64.871  1.00  0.00    -0.398 A  
HETATM   25  C   UNK A   1     -12.647  13.816  65.365  1.00  0.00    -0.534 A  
HETATM   26  C   UNK A   1     -12.181  13.406  66.617  1.00  0.00    -0.391 A  
ENDBRANCH  20  21
ENDBRANCH  19  20
ENDBRANCH  15  19
ENDBRANCH  13  15
ENDBRANCH   1  13
TORSDOF 6
ENDMDL
MODEL      168
REMARK 921   NORMALIZED FREE ENERGY PREDICTED BY IDOCK:   -3.90 KCAL/MOL
REMARK 922        TOTAL FREE ENERGY PREDICTED BY IDOCK:   -6.99 KCAL/MOL
REMARK 923 INTER-LIGAND FREE ENERGY PREDICTED BY IDOCK:   -5.55 KCAL/MOL
REMARK 924 INTRA-LIGAND FREE ENERGY PREDICTED BY IDOCK:   -1.44 KCAL/MOL
REMARK 927      BINDING AFFINITY PREDICTED BY RF-SCORE:    0.00 PKD
ROOT
HETATM    1  C   UNK A   1      -8.458  11.693  67.295  1.00  0.00    -0.156 C  
HETATM    2  C   UNK A   1      -7.444  11.195  68.321  1.00  0.00    -0.094 C  
ENDROOT
BRANCH   1   3
HETATM    3  C   UNK A   1      -8.385  13.244  67.216  1.00  0.00    -0.177 C  
ATOM      4  CA  PRO A   2     -10.928  13.401  66.945  1.00  0.00    -0.284 C  
ATOM      5  N   PRO A   2      -9.553  13.937  66.930  1.00  0.00    -0.259 N  
ATOM      6  C   PRO A   2     -11.334  12.797  65.592  1.00  0.00    -0.319 C  
HETATM    7  O   UNK A   1      -7.311  13.834  67.370  1.00  0.00    -0.171 OA 
ATOM      8  CB  PRO A   2     -11.820  14.610  67.259  1.00  0.00    -0.375 C  
ATOM      9  O   PRO A   2     -10.380  12.896  64.638  1.00  0.00    -0.333 OA 
ATOM     10  CD  PRO A   2      -9.583  15.391  66.910  1.00  0.00    -0.226 C  
ATOM     11  OXT PRO A   2     -12.419  12.276  65.386  1.00  0.00    -0.596 OA 
ATOM     12  CG  PRO A   2     -10.861  15.730  67.652  1.00  0.00    -0.310 C  
ENDBRANCH   1   3
BRANCH   1  13
HETATM   13  N   UNK A   1      -8.202  11.161  65.934  1.00  0.00    -0.324 NA 
HETATM   14  H   UNK A   1      -7.236  11.344  65.663  1.00  0.00     0.000 HD 
BRANCH  13  15
HETATM   15  C   UNK A   1      -8.525   9.710  65.738  1.00  0.00    -0.133 C  
HETATM   16  O   UNK A   1      -7.848   8.163  63.944  1.00  0.00    -0.134 OA 
HETATM   17  O   UNK A   1      -7.641  10.386  63.588  1.00  0.00    -0.126 OA 
HETATM   18  C   UNK A   1      -7.979   9.309  64.344  1.00  0.00    -0.133 C  
BRANCH  15  19
HETATM   19  C   UNK A   1     -10.035   9.391  65.828  1.00  0.00    -0.278 C  
BRANCH  19  20
HETATM   20  C   UNK A   1     -10.435   8.725  67.156  1.00  0.00    -0.354 C  
BRANCH  20  21
HETATM   21  C   UNK A   1      -9.439   7.707  67.659  1.00  0.00    -0.165 A  
HETATM   22  C   UNK A   1      -7.667   5.778  68.677  1.00  0.00    -0.090 A  
HETATM   23  C   UNK A   1      -8.810   7.896  68.895  1.00  0.00    -0.142 A  
HETATM   24  C   UNK A   1      -7.930   6.937  69.403  1.00  0.00    -0.115 A  
HETATM   25  C   UNK A   1      -8.281   5.580  67.443  1.00  0.00    -0.101 A  
HETATM   26  C   UNK A   1      -9.165   6.535  66.933  1.00  0.00    -0.153 A  
ENDBRANCH  20  21
ENDBRANCH  19  20
ENDBRANCH  15  19
ENDBRANCH  13  15
ENDBRANCH   1  13
TORSDOF 6
ENDMDL
MODEL      169
REMARK 921   NORMALIZED FREE ENERGY PREDICTED BY IDOCK:   -3.89 KCAL/MOL
REMARK 922        TOTAL FREE ENERGY PREDICTED BY IDOCK:   -6.97 KCAL/MOL
REMARK 923 INTER-LIGAND FREE ENERGY PREDICTED BY IDOCK:   -7.37 KCAL/MOL
REMARK 924 INTRA-LIGAND FREE ENERGY PREDICTED BY IDOCK:    0.40 KCAL/MOL
REMARK 927      BINDING AFFINITY PREDICTED BY RF-SCORE:    0.00 PKD
ROOT
HETATM    1  C   UNK A   1     -10.532   9.647  69.733  1.00  0.00    -0.238 C  
HETATM    2  C   UNK A   1     -11.603  10.642  70.174  1.00  0.00    -0.414 C  
ENDROOT
BRANCH   1   3
HETATM    3  C   UNK A   1      -9.808   9.086  70.989  1.00  0.00    -0.282 C  
ATOM      4  CA  PRO A   2     -11.664   7.356  71.349  1.00  0.00    -0.288 C  
ATOM      5  N   PRO A   2     -10.462   8.119  71.739  1.00  0.00    -0.227 N  
ATOM      6  C   PRO A   2     -12.963   8.078  71.737  1.00  0.00    -0.331 C  
HETATM    7  O   UNK A   1      -8.700   9.515  71.324  1.00  0.00    -0.241 OA 
ATOM      8  CB  PRO A   2     -11.559   6.032  72.117  1.00  0.00    -0.348 C  
ATOM      9  O   PRO A   2     -12.769   9.249  72.385  1.00  0.00    -0.370 OA 
ATOM     10  CD  PRO A   2      -9.822   7.491  72.885  1.00  0.00    -0.219 C  
ATOM     11  OXT PRO A   2     -14.076   7.641  71.489  1.00  0.00    -0.414 OA 
ATOM     12  CG  PRO A   2     -10.157   6.022  72.719  1.00  0.00    -0.201 C  
ENDBRANCH   1   3
BRANCH   1  13
HETATM   13  N   UNK A   1     -11.095   8.496  68.986  1.00  0.00    -0.417 NA 
HETATM   14  H   UNK A   1     -12.114   8.539  68.994  1.00  0.00     0.000 HD 
BRANCH  13  15
HETATM   15  C   UNK A   1     -10.598   8.335  67.581  1.00  0.00    -0.194 C  
HETATM   16  O   UNK A   1      -9.460   6.429  66.510  1.00  0.00    -0.159 OA 
HETATM   17  O   UNK A   1      -9.533   6.513  68.768  1.00  0.00    -0.130 OA 
HETATM   18  C   UNK A   1      -9.806   7.003  67.531  1.00  0.00    -0.148 C  
BRANCH  15  19
HETATM   19  C   UNK A   1      -9.704   9.501  67.100  1.00  0.00    -0.221 C  
BRANCH  19  20
HETATM   20  C   UNK A   1     -10.105  10.039  65.715  1.00  0.00    -0.320 C  
BRANCH  20  21
HETATM   21  C   UNK A   1     -10.552  11.482  65.720  1.00  0.00    -0.315 A  
HETATM   22  C   UNK A   1     -11.454  14.142  65.635  1.00  0.00    -0.325 A  
HETATM   23  C   UNK A   1     -10.127  12.348  64.706  1.00  0.00    -0.260 A  
HETATM   24  C   UNK A   1     -10.576  13.671  64.662  1.00  0.00    -0.446 A  
HETATM   25  C   UNK A   1     -11.880  13.292  66.653  1.00  0.00    -0.447 A  
HETATM   26  C   UNK A   1     -11.436  11.968  66.699  1.00  0.00    -0.411 A  
ENDBRANCH  20  21
ENDBRANCH  19  20
ENDBRANCH  15  19
ENDBRANCH  13  15
ENDBRANCH   1  13
TORSDOF 6
ENDMDL
MODEL      170
REMARK 921   NORMALIZED FREE ENERGY PREDICTED BY IDOCK:   -3.89 KCAL/MOL
REMARK 922        TOTAL FREE ENERGY PREDICTED BY IDOCK:   -6.97 KCAL/MOL
REMARK 923 INTER-LIGAND FREE ENERGY PREDICTED BY IDOCK:   -5.71 KCAL/MOL
REMARK 924 INTRA-LIGAND FREE ENERGY PREDICTED BY IDOCK:   -1.26 KCAL/MOL
REMARK 927      BINDING AFFINITY PREDICTED BY RF-SCORE:    0.00 PKD
ROOT
HETATM    1  C   UNK A   1     -12.132  11.025  70.135  1.00  0.00    -0.356 C  
HETATM    2  C   UNK A   1     -12.917  11.027  71.444  1.00  0.00    -0.517 C  
ENDROOT
BRANCH   1   3
HETATM    3  C   UNK A   1     -11.818  12.491  69.725  1.00  0.00    -0.310 C  
ATOM      4  CA  PRO A   2     -11.800  11.849  67.245  1.00  0.00    -0.148 C  
ATOM      5  N   PRO A   2     -11.559  12.752  68.388  1.00  0.00    -0.303 N  
ATOM      6  C   PRO A   2     -10.602  10.928  66.967  1.00  0.00    -0.257 C  
HETATM    7  O   UNK A   1     -11.768  13.387  70.574  1.00  0.00    -0.203 OA 
ATOM      8  CB  PRO A   2     -12.027  12.778  66.046  1.00  0.00    -0.491 C  
ATOM      9  O   PRO A   2      -9.548  11.135  67.789  1.00  0.00    -0.167 OA 
ATOM     10  CD  PRO A   2     -11.329  14.108  67.913  1.00  0.00    -0.294 C  
ATOM     11  OXT PRO A   2     -10.592  10.085  66.084  1.00  0.00    -0.129 OA 
ATOM     12  CG  PRO A   2     -12.144  14.180  66.637  1.00  0.00    -0.480 C  
ENDBRANCH   1   3
BRANCH   1  13
HETATM   13  N   UNK A   1     -10.841  10.302  70.244  1.00  0.00    -0.349 NA 
HETATM   14  H   UNK A   1     -10.248  10.750  70.944  1.00  0.00     0.000 HD 
BRANCH  13  15
HETATM   15  C   UNK A   1     -10.947   8.833  70.524  1.00  0.00    -0.239 C  
HETATM   16  O   UNK A   1      -9.934   7.484  72.320  1.00  0.00    -0.170 OA 
HETATM   17  O   UNK A   1      -9.084   9.537  71.901  1.00  0.00     0.010 OA 
HETATM   18  C   UNK A   1      -9.953   8.518  71.671  1.00  0.00    -0.259 C  
BRANCH  15  19
HETATM   19  C   UNK A   1     -10.640   7.943  69.298  1.00  0.00    -0.195 C  
BRANCH  19  20
HETATM   20  C   UNK A   1      -9.140   7.864  68.967  1.00  0.00    -0.144 C  
BRANCH  20  21
HETATM   21  C   UNK A   1      -8.834   7.189  67.650  1.00  0.00    -0.119 A  
HETATM   22  C   UNK A   1      -8.149   5.926  65.235  1.00  0.00    -0.133 A  
HETATM   23  C   UNK A   1      -8.125   7.879  66.660  1.00  0.00    -0.107 A  
HETATM   24  C   UNK A   1      -7.782   7.251  65.458  1.00  0.00    -0.108 A  
HETATM   25  C   UNK A   1      -8.861   5.231  66.209  1.00  0.00    -0.130 A  
HETATM   26  C   UNK A   1      -9.202   5.853  67.413  1.00  0.00    -0.108 A  
ENDBRANCH  20  21
ENDBRANCH  19  20
ENDBRANCH  15  19
ENDBRANCH  13  15
ENDBRANCH   1  13
TORSDOF 6
ENDMDL
MODEL      171
REMARK 921   NORMALIZED FREE ENERGY PREDICTED BY IDOCK:   -3.89 KCAL/MOL
REMARK 922        TOTAL FREE ENERGY PREDICTED BY IDOCK:   -6.96 KCAL/MOL
REMARK 923 INTER-LIGAND FREE ENERGY PREDICTED BY IDOCK:   -5.92 KCAL/MOL
REMARK 924 INTRA-LIGAND FREE ENERGY PREDICTED BY IDOCK:   -1.04 KCAL/MOL
REMARK 927      BINDING AFFINITY PREDICTED BY RF-SCORE:    0.00 PKD
ROOT
HETATM    1  C   UNK A   1      -8.679  11.063  68.142  1.00  0.00    -0.141 C  
HETATM    2  C   UNK A   1      -7.409  11.909  68.123  1.00  0.00    -0.092 C  
ENDROOT
BRANCH   1   3
HETATM    3  C   UNK A   1      -9.113  10.760  66.681  1.00  0.00    -0.159 C  
ATOM      4  CA  PRO A   2     -10.547  12.882  66.612  1.00  0.00    -0.261 C  
ATOM      5  N   PRO A   2     -10.069  11.582  66.102  1.00  0.00    -0.221 N  
ATOM      6  C   PRO A   2     -11.728  12.730  67.582  1.00  0.00    -0.367 C  
HETATM    7  O   UNK A   1      -8.644   9.795  66.070  1.00  0.00    -0.131 OA 
ATOM      8  CB  PRO A   2     -10.999  13.655  65.365  1.00  0.00    -0.302 C  
ATOM      9  O   PRO A   2     -12.129  11.451  67.763  1.00  0.00    -0.637 OA 
ATOM     10  CD  PRO A   2     -10.475  11.409  64.716  1.00  0.00    -0.308 C  
ATOM     11  OXT PRO A   2     -12.265  13.673  68.143  1.00  0.00    -0.322 OA 
ATOM     12  CG  PRO A   2     -10.516  12.826  64.178  1.00  0.00    -0.437 C  
ENDBRANCH   1   3
BRANCH   1  13
HETATM   13  N   UNK A   1      -8.491   9.764  68.834  1.00  0.00    -0.123 NA 
HETATM   14  H   UNK A   1      -7.516   9.657  69.115  1.00  0.00     0.000 HD 
BRANCH  13  15
HETATM   15  C   UNK A   1      -9.394   9.521  70.006  1.00  0.00    -0.234 C  
HETATM   16  O   UNK A   1      -8.847   8.889  72.324  1.00  0.00    -0.397 OA 
HETATM   17  O   UNK A   1      -7.273   8.601  70.727  1.00  0.00    -0.053 OA 
HETATM   18  C   UNK A   1      -8.507   8.976  71.155  1.00  0.00    -0.177 C  
BRANCH  15  19
HETATM   19  C   UNK A   1     -10.545   8.532  69.710  1.00  0.00    -0.224 C  
BRANCH  19  20
HETATM   20  C   UNK A   1     -10.102   7.060  69.744  1.00  0.00    -0.197 C  
BRANCH  20  21
HETATM   21  C   UNK A   1      -9.921   6.438  68.379  1.00  0.00    -0.151 A  
HETATM   22  C   UNK A   1      -9.557   5.178  65.894  1.00  0.00    -0.163 A  
HETATM   23  C   UNK A   1      -8.637   6.125  67.918  1.00  0.00    -0.114 A  
HETATM   24  C   UNK A   1      -8.454   5.497  66.683  1.00  0.00    -0.112 A  
HETATM   25  C   UNK A   1     -10.839   5.489  66.337  1.00  0.00    -0.195 A  
HETATM   26  C   UNK A   1     -11.027   6.114  67.574  1.00  0.00    -0.404 A  
ENDBRANCH  20  21
ENDBRANCH  19  20
ENDBRANCH  15  19
ENDBRANCH  13  15
ENDBRANCH   1  13
TORSDOF 6
ENDMDL
MODEL      172
REMARK 921   NORMALIZED FREE ENERGY PREDICTED BY IDOCK:   -3.86 KCAL/MOL
REMARK 922        TOTAL FREE ENERGY PREDICTED BY IDOCK:   -6.93 KCAL/MOL
REMARK 923 INTER-LIGAND FREE ENERGY PREDICTED BY IDOCK:   -7.05 KCAL/MOL
REMARK 924 INTRA-LIGAND FREE ENERGY PREDICTED BY IDOCK:    0.12 KCAL/MOL
REMARK 927      BINDING AFFINITY PREDICTED BY RF-SCORE:    0.00 PKD
ROOT
HETATM    1  C   UNK A   1     -11.039  11.415  68.665  1.00  0.00    -0.236 C  
HETATM    2  C   UNK A   1     -12.016  11.440  69.838  1.00  0.00    -0.434 C  
ENDROOT
BRANCH   1   3
HETATM    3  C   UNK A   1     -11.568  12.346  67.539  1.00  0.00    -0.365 C  
ATOM      4  CA  PRO A   2     -10.639  14.410  68.739  1.00  0.00    -0.254 C  
ATOM      5  N   PRO A   2     -11.448  13.717  67.718  1.00  0.00    -0.299 N  
ATOM      6  C   PRO A   2     -11.414  14.630  70.047  1.00  0.00    -0.265 C  
HETATM    7  O   UNK A   1     -12.108  11.876  66.533  1.00  0.00    -0.568 OA 
ATOM      8  CB  PRO A   2     -10.289  15.767  68.112  1.00  0.00    -0.242 C  
ATOM      9  O   PRO A   2     -12.690  14.182  70.012  1.00  0.00    -0.292 OA 
ATOM     10  CD  PRO A   2     -11.852  14.652  66.680  1.00  0.00    -0.310 C  
ATOM     11  OXT PRO A   2     -10.931  15.162  71.034  1.00  0.00    -0.283 OA 
ATOM     12  CG  PRO A   2     -10.722  15.662  66.653  1.00  0.00    -0.296 C  
ENDBRANCH   1   3
BRANCH   1  13
HETATM   13  N   UNK A   1      -9.684  11.887  69.040  1.00  0.00    -0.407 NA 
HETATM   14  H   UNK A   1      -9.680  12.205  70.010  1.00  0.00     0.000 HD 
BRANCH  13  15
HETATM   15  C   UNK A   1      -8.574  10.904  68.818  1.00  0.00    -0.159 C  
HETATM   16  O   UNK A   1      -6.467  11.147  67.562  1.00  0.00    -0.062 OA 
HETATM   17  O   UNK A   1      -8.126  12.638  67.188  1.00  0.00    -0.177 OA 
HETATM   18  C   UNK A   1      -7.596  11.547  67.801  1.00  0.00    -0.111 C  
BRANCH  15  19
HETATM   19  C   UNK A   1      -9.055   9.531  68.296  1.00  0.00    -0.127 C  
BRANCH  19  20
HETATM   20  C   UNK A   1      -8.795   8.382  69.285  1.00  0.00    -0.142 C  
BRANCH  20  21
HETATM   21  C   UNK A   1      -9.958   8.083  70.202  1.00  0.00    -0.191 A  
HETATM   22  C   UNK A   1     -12.069   7.422  71.935  1.00  0.00    -0.341 A  
HETATM   23  C   UNK A   1     -10.903   7.116  69.840  1.00  0.00    -0.276 A  
HETATM   24  C   UNK A   1     -11.952   6.785  70.702  1.00  0.00    -0.418 A  
HETATM   25  C   UNK A   1     -11.139   8.390  72.305  1.00  0.00    -0.438 A  
HETATM   26  C   UNK A   1     -10.085   8.721  71.448  1.00  0.00    -0.354 A  
ENDBRANCH  20  21
ENDBRANCH  19  20
ENDBRANCH  15  19
ENDBRANCH  13  15
ENDBRANCH   1  13
TORSDOF 6
ENDMDL
MODEL      173
REMARK 921   NORMALIZED FREE ENERGY PREDICTED BY IDOCK:   -3.84 KCAL/MOL
REMARK 922        TOTAL FREE ENERGY PREDICTED BY IDOCK:   -6.90 KCAL/MOL
REMARK 923 INTER-LIGAND FREE ENERGY PREDICTED BY IDOCK:   -6.94 KCAL/MOL
REMARK 924 INTRA-LIGAND FREE ENERGY PREDICTED BY IDOCK:    0.03 KCAL/MOL
REMARK 927      BINDING AFFINITY PREDICTED BY RF-SCORE:    0.00 PKD
ROOT
HETATM    1  C   UNK A   1     -11.014  11.512  69.069  1.00  0.00    -0.234 C  
HETATM    2  C   UNK A   1     -11.457  10.878  67.754  1.00  0.00    -0.323 C  
ENDROOT
BRANCH   1   3
HETATM    3  C   UNK A   1     -11.497  10.626  70.252  1.00  0.00    -0.337 C  
ATOM      4  CA  PRO A   2      -9.304   9.303  70.225  1.00  0.00    -0.239 C  
ATOM      5  N   PRO A   2     -10.699   9.558  70.634  1.00  0.00    -0.284 N  
ATOM      6  C   PRO A   2      -9.216   8.489  68.925  1.00  0.00    -0.146 C  
HETATM    7  O   UNK A   1     -12.576  10.851  70.809  1.00  0.00    -0.340 OA 
ATOM      8  CB  PRO A   2      -8.693   8.498  71.380  1.00  0.00    -0.237 C  
ATOM      9  O   PRO A   2     -10.419   8.133  68.418  1.00  0.00    -0.207 OA 
ATOM     10  CD  PRO A   2     -11.045   8.727  71.777  1.00  0.00    -0.347 C  
ATOM     11  OXT PRO A   2      -8.162   8.184  68.391  1.00  0.00    -0.126 OA 
ATOM     12  CG  PRO A   2      -9.725   8.555  72.503  1.00  0.00    -0.326 C  
ENDBRANCH   1   3
BRANCH   1  13
HETATM   13  N   UNK A   1      -9.540  11.637  69.175  1.00  0.00    -0.399 NA 
HETATM   14  H   UNK A   1      -9.121  10.719  69.326  1.00  0.00     0.000 HD 
BRANCH  13  15
HETATM   15  C   UNK A   1      -8.867  12.324  68.024  1.00  0.00    -0.182 C  
HETATM   16  O   UNK A   1      -6.518  12.249  67.286  1.00  0.00    -0.144 OA 
HETATM   17  O   UNK A   1      -7.016  11.547  69.376  1.00  0.00    -0.112 OA 
HETATM   18  C   UNK A   1      -7.347  12.051  68.159  1.00  0.00    -0.094 C  
BRANCH  15  19
HETATM   19  C   UNK A   1      -9.130  13.847  67.969  1.00  0.00    -0.192 C  
BRANCH  19  20
HETATM   20  C   UNK A   1      -9.280  14.384  66.535  1.00  0.00    -0.269 C  
BRANCH  20  21
HETATM   21  C   UNK A   1     -10.388  13.729  65.744  1.00  0.00    -0.315 A  
HETATM   22  C   UNK A   1     -12.472  12.619  64.221  1.00  0.00    -0.494 A  
HETATM   23  C   UNK A   1     -11.725  14.013  66.048  1.00  0.00    -0.378 A  
HETATM   24  C   UNK A   1     -12.762  13.462  65.290  1.00  0.00    -0.481 A  
HETATM   25  C   UNK A   1     -11.147  12.323  63.912  1.00  0.00    -0.475 A  
HETATM   26  C   UNK A   1     -10.106  12.875  64.665  1.00  0.00    -0.254 A  
ENDBRANCH  20  21
ENDBRANCH  19  20
ENDBRANCH  15  19
ENDBRANCH  13  15
ENDBRANCH   1  13
TORSDOF 6
ENDMDL
MODEL      174
REMARK 921   NORMALIZED FREE ENERGY PREDICTED BY IDOCK:   -3.84 KCAL/MOL
REMARK 922        TOTAL FREE ENERGY PREDICTED BY IDOCK:   -6.90 KCAL/MOL
REMARK 923 INTER-LIGAND FREE ENERGY PREDICTED BY IDOCK:   -5.80 KCAL/MOL
REMARK 924 INTRA-LIGAND FREE ENERGY PREDICTED BY IDOCK:   -1.10 KCAL/MOL
REMARK 927      BINDING AFFINITY PREDICTED BY RF-SCORE:    0.00 PKD
ROOT
HETATM    1  C   UNK A   1     -10.279   6.362  70.121  1.00  0.00    -0.187 C  
HETATM    2  C   UNK A   1     -11.586   6.489  69.343  1.00  0.00    -0.249 C  
ENDROOT
BRANCH   1   3
HETATM    3  C   UNK A   1     -10.005   4.861  70.419  1.00  0.00    -0.246 C  
ATOM      4  CA  PRO A   2     -10.503   5.210  72.908  1.00  0.00    -0.211 C  
ATOM      5  N   PRO A   2     -10.010   4.449  71.743  1.00  0.00    -0.183 N  
ATOM      6  C   PRO A   2      -9.415   6.103  73.523  1.00  0.00    -0.140 C  
HETATM    7  O   UNK A   1      -9.759   4.070  69.502  1.00  0.00    -0.202 OA 
ATOM      8  CB  PRO A   2     -10.933   4.145  73.925  1.00  0.00    -0.295 C  
ATOM      9  O   PRO A   2      -8.212   6.003  72.913  1.00  0.00    -0.117 OA 
ATOM     10  CD  PRO A   2      -9.836   3.049  72.099  1.00  0.00    -0.169 C  
ATOM     11  OXT PRO A   2      -9.607   6.838  74.479  1.00  0.00    -0.251 OA 
ATOM     12  CG  PRO A   2     -10.886   2.820  73.168  1.00  0.00    -0.241 C  
ENDBRANCH   1   3
BRANCH   1  13
HETATM   13  N   UNK A   1      -9.113   6.891  69.371  1.00  0.00    -0.141 NA 
HETATM   14  H   UNK A   1      -8.407   6.162  69.264  1.00  0.00     0.000 HD 
BRANCH  13  15
HETATM   15  C   UNK A   1      -9.428   7.500  68.038  1.00  0.00    -0.142 C  
HETATM   16  O   UNK A   1      -8.864   6.725  65.767  1.00  0.00    -0.145 OA 
HETATM   17  O   UNK A   1      -7.731   5.853  67.519  1.00  0.00    -0.095 OA 
HETATM   18  C   UNK A   1      -8.665   6.674  66.971  1.00  0.00    -0.113 C  
BRANCH  15  19
HETATM   19  C   UNK A   1      -9.040   8.993  67.929  1.00  0.00    -0.141 C  
BRANCH  19  20
HETATM   20  C   UNK A   1     -10.249   9.940  68.022  1.00  0.00    -0.219 C  
BRANCH  20  21
HETATM   21  C   UNK A   1     -10.597  10.625  66.721  1.00  0.00    -0.297 A  
HETATM   22  C   UNK A   1     -11.176  11.992  64.335  1.00  0.00    -0.406 A  
HETATM   23  C   UNK A   1     -11.465  11.723  66.720  1.00  0.00    -0.352 A  
HETATM   24  C   UNK A   1     -11.753  12.405  65.534  1.00  0.00    -0.459 A  
HETATM   25  C   UNK A   1     -10.316  10.898  64.321  1.00  0.00    -0.436 A  
HETATM   26  C   UNK A   1     -10.022  10.215  65.505  1.00  0.00    -0.363 A  
ENDBRANCH  20  21
ENDBRANCH  19  20
ENDBRANCH  15  19
ENDBRANCH  13  15
ENDBRANCH   1  13
TORSDOF 6
ENDMDL
MODEL      175
REMARK 921   NORMALIZED FREE ENERGY PREDICTED BY IDOCK:   -3.83 KCAL/MOL
REMARK 922        TOTAL FREE ENERGY PREDICTED BY IDOCK:   -6.89 KCAL/MOL
REMARK 923 INTER-LIGAND FREE ENERGY PREDICTED BY IDOCK:   -6.26 KCAL/MOL
REMARK 924 INTRA-LIGAND FREE ENERGY PREDICTED BY IDOCK:   -0.63 KCAL/MOL
REMARK 927      BINDING AFFINITY PREDICTED BY RF-SCORE:    0.00 PKD
ROOT
HETATM    1  C   UNK A   1      -8.549  11.494  67.147  1.00  0.00    -0.155 C  
HETATM    2  C   UNK A   1      -7.172  11.750  67.752  1.00  0.00    -0.097 C  
ENDROOT
BRANCH   1   3
HETATM    3  C   UNK A   1      -9.607  11.447  68.285  1.00  0.00    -0.192 C  
ATOM      4  CA  PRO A   2      -9.208   8.939  68.622  1.00  0.00    -0.137 C  
ATOM      5  N   PRO A   2      -9.933  10.209  68.819  1.00  0.00    -0.171 N  
ATOM      6  C   PRO A   2      -9.696   8.175  67.382  1.00  0.00    -0.170 C  
HETATM    7  O   UNK A   1     -10.162  12.480  68.674  1.00  0.00    -0.220 OA 
ATOM      8  CB  PRO A   2      -9.500   8.116  69.884  1.00  0.00    -0.160 C  
ATOM      9  O   PRO A   2     -10.711   8.784  66.726  1.00  0.00    -0.206 OA 
ATOM     10  CD  PRO A   2     -10.859  10.089  69.936  1.00  0.00    -0.285 C  
ATOM     11  OXT PRO A   2      -9.220   7.112  67.015  1.00  0.00    -0.134 OA 
ATOM     12  CG  PRO A   2     -10.186   9.081  70.847  1.00  0.00    -0.324 C  
ENDBRANCH   1   3
BRANCH   1  13
HETATM   13  N   UNK A   1      -8.961  12.555  66.194  1.00  0.00    -0.426 NA 
HETATM   14  H   UNK A   1      -8.343  12.554  65.383  1.00  0.00     0.000 HD 
BRANCH  13  15
HETATM   15  C   UNK A   1     -10.392  12.503  65.751  1.00  0.00    -0.265 C  
HETATM   16  O   UNK A   1     -11.391  11.503  63.732  1.00  0.00    -0.404 OA 
HETATM   17  O   UNK A   1      -9.161  11.879  63.761  1.00  0.00     0.052 OA 
HETATM   18  C   UNK A   1     -10.400  11.911  64.318  1.00  0.00    -0.321 C  
BRANCH  15  19
HETATM   19  C   UNK A   1     -11.097  13.879  65.760  1.00  0.00    -0.294 C  
BRANCH  19  20
HETATM   20  C   UNK A   1     -10.184  15.029  65.302  1.00  0.00    -0.409 C  
BRANCH  20  21
HETATM   21  C   UNK A   1     -10.117  16.186  66.272  1.00  0.00    -0.337 A  
HETATM   22  C   UNK A   1     -10.113  18.343  68.073  1.00  0.00    -0.392 A  
HETATM   23  C   UNK A   1     -10.421  17.481  65.836  1.00  0.00    -0.251 A  
HETATM   24  C   UNK A   1     -10.421  18.555  66.731  1.00  0.00    -0.432 A  
HETATM   25  C   UNK A   1      -9.803  17.061  68.519  1.00  0.00    -0.290 A  
HETATM   26  C   UNK A   1      -9.806  15.984  67.627  1.00  0.00    -0.235 A  
ENDBRANCH  20  21
ENDBRANCH  19  20
ENDBRANCH  15  19
ENDBRANCH  13  15
ENDBRANCH   1  13
TORSDOF 6
ENDMDL
MODEL      176
REMARK 921   NORMALIZED FREE ENERGY PREDICTED BY IDOCK:   -3.81 KCAL/MOL
REMARK 922        TOTAL FREE ENERGY PREDICTED BY IDOCK:   -6.86 KCAL/MOL
REMARK 923 INTER-LIGAND FREE ENERGY PREDICTED BY IDOCK:   -6.06 KCAL/MOL
REMARK 924 INTRA-LIGAND FREE ENERGY PREDICTED BY IDOCK:   -0.80 KCAL/MOL
REMARK 927      BINDING AFFINITY PREDICTED BY RF-SCORE:    0.00 PKD
ROOT
HETATM    1  C   UNK A   1     -10.908  11.741  67.974  1.00  0.00    -0.213 C  
HETATM    2  C   UNK A   1     -11.178  11.861  66.477  1.00  0.00    -0.383 C  
ENDROOT
BRANCH   1   3
HETATM    3  C   UNK A   1     -10.079  12.969  68.445  1.00  0.00    -0.225 C  
ATOM      4  CA  PRO A   2      -7.903  11.867  67.661  1.00  0.00    -0.142 C  
ATOM      5  N   PRO A   2      -8.696  12.886  68.375  1.00  0.00    -0.158 N  
ATOM      6  C   PRO A   2      -7.613  10.637  68.534  1.00  0.00    -0.097 C  
HETATM    7  O   UNK A   1     -10.640  13.972  68.898  1.00  0.00    -0.244 OA 
ATOM      8  CB  PRO A   2      -6.586  12.568  67.303  1.00  0.00    -0.125 C  
ATOM      9  O   PRO A   2      -8.103  10.728  69.792  1.00  0.00     0.008 OA 
ATOM     10  CD  PRO A   2      -7.853  14.019  68.728  1.00  0.00    -0.097 C  
ATOM     11  OXT PRO A   2      -6.994   9.661  68.139  1.00  0.00    -0.075 OA 
ATOM     12  CG  PRO A   2      -6.812  14.043  67.626  1.00  0.00    -0.195 C  
ENDBRANCH   1   3
BRANCH   1  13
HETATM   13  N   UNK A   1     -12.154  11.704  68.778  1.00  0.00    -0.433 NA 
HETATM   14  H   UNK A   1     -12.967  11.705  68.162  1.00  0.00     0.000 HD 
BRANCH  13  15
HETATM   15  C   UNK A   1     -12.254  10.575  69.760  1.00  0.00    -0.181 C  
HETATM   16  O   UNK A   1     -13.188  10.535  72.040  1.00  0.00    -0.464 OA 
HETATM   17  O   UNK A   1     -12.700  12.537  71.108  1.00  0.00    -0.354 OA 
HETATM   18  C   UNK A   1     -12.763  11.180  71.094  1.00  0.00    -0.408 C  
BRANCH  15  19
HETATM   19  C   UNK A   1     -10.919   9.831  69.991  1.00  0.00    -0.319 C  
BRANCH  19  20
HETATM   20  C   UNK A   1     -11.100   8.321  70.221  1.00  0.00    -0.220 C  
BRANCH  20  21
HETATM   21  C   UNK A   1     -10.676   7.852  71.593  1.00  0.00    -0.268 A  
HETATM   22  C   UNK A   1      -9.853   6.875  74.096  1.00  0.00    -0.346 A  
HETATM   23  C   UNK A   1     -11.408   6.853  72.246  1.00  0.00    -0.306 A  
HETATM   24  C   UNK A   1     -10.999   6.365  73.491  1.00  0.00    -0.099 A  
HETATM   25  C   UNK A   1      -9.119   7.873  73.461  1.00  0.00    -0.346 A  
HETATM   26  C   UNK A   1      -9.523   8.361  72.214  1.00  0.00    -0.367 A  
ENDBRANCH  20  21
ENDBRANCH  19  20
ENDBRANCH  15  19
ENDBRANCH  13  15
ENDBRANCH   1  13
TORSDOF 6
ENDMDL
MODEL      177
REMARK 921   NORMALIZED FREE ENERGY PREDICTED BY IDOCK:   -3.79 KCAL/MOL
REMARK 922        TOTAL FREE ENERGY PREDICTED BY IDOCK:   -6.83 KCAL/MOL
REMARK 923 INTER-LIGAND FREE ENERGY PREDICTED BY IDOCK:   -6.16 KCAL/MOL
REMARK 924 INTRA-LIGAND FREE ENERGY PREDICTED BY IDOCK:   -0.67 KCAL/MOL
REMARK 927      BINDING AFFINITY PREDICTED BY RF-SCORE:    0.00 PKD
ROOT
HETATM    1  C   UNK A   1      -8.942   8.073  71.982  1.00  0.00    -0.156 C  
HETATM    2  C   UNK A   1      -7.819   8.129  73.014  1.00  0.00    -0.207 C  
ENDROOT
BRANCH   1   3
HETATM    3  C   UNK A   1     -10.162   7.328  72.594  1.00  0.00    -0.212 C  
ATOM      4  CA  PRO A   2      -9.341   5.095  71.644  1.00  0.00    -0.147 C  
ATOM      5  N   PRO A   2     -10.328   5.987  72.283  1.00  0.00    -0.188 N  
ATOM      6  C   PRO A   2      -9.427   5.132  70.111  1.00  0.00    -0.168 C  
HETATM    7  O   UNK A   1     -10.973   7.926  73.307  1.00  0.00    -0.334 OA 
ATOM      8  CB  PRO A   2      -9.692   3.689  72.148  1.00  0.00    -0.231 C  
ATOM      9  O   PRO A   2     -10.403   5.940  69.635  1.00  0.00    -0.200 OA 
ATOM     10  CD  PRO A   2     -11.402   5.202  72.873  1.00  0.00    -0.282 C  
ATOM     11  OXT PRO A   2      -8.689   4.491  69.379  1.00  0.00    -0.083 OA 
ATOM     12  CG  PRO A   2     -10.724   3.901  73.252  1.00  0.00    -0.287 C  
ENDBRANCH   1   3
BRANCH   1  13
HETATM   13  N   UNK A   1      -9.401   9.420  71.564  1.00  0.00    -0.289 NA 
HETATM   14  H   UNK A   1      -8.740  10.129  71.883  1.00  0.00     0.000 HD 
BRANCH  13  15
HETATM   15  C   UNK A   1      -9.662   9.585  70.097  1.00  0.00    -0.246 C  
HETATM   16  O   UNK A   1      -8.090   9.977  68.241  1.00  0.00    -0.102 OA 
HETATM   17  O   UNK A   1      -7.382  10.356  70.354  1.00  0.00    -0.245 OA 
HETATM   18  C   UNK A   1      -8.317   9.988  69.440  1.00  0.00    -0.165 C  
BRANCH  15  19
HETATM   19  C   UNK A   1     -10.747  10.638  69.773  1.00  0.00    -0.283 C  
BRANCH  19  20
HETATM   20  C   UNK A   1     -11.424  10.410  68.410  1.00  0.00    -0.227 C  
BRANCH  20  21
HETATM   21  C   UNK A   1     -11.560  11.660  67.573  1.00  0.00    -0.345 A  
HETATM   22  C   UNK A   1     -11.914  13.939  65.967  1.00  0.00    -0.436 A  
HETATM   23  C   UNK A   1     -11.324  11.606  66.194  1.00  0.00    -0.275 A  
HETATM   24  C   UNK A   1     -11.501  12.739  65.394  1.00  0.00    -0.363 A  
HETATM   25  C   UNK A   1     -12.146  14.008  67.339  1.00  0.00    -0.384 A  
HETATM   26  C   UNK A   1     -11.974  12.877  68.142  1.00  0.00    -0.306 A  
ENDBRANCH  20  21
ENDBRANCH  19  20
ENDBRANCH  15  19
ENDBRANCH  13  15
ENDBRANCH   1  13
TORSDOF 6
ENDMDL
MODEL      178
REMARK 921   NORMALIZED FREE ENERGY PREDICTED BY IDOCK:   -3.79 KCAL/MOL
REMARK 922        TOTAL FREE ENERGY PREDICTED BY IDOCK:   -6.83 KCAL/MOL
REMARK 923 INTER-LIGAND FREE ENERGY PREDICTED BY IDOCK:   -5.68 KCAL/MOL
REMARK 924 INTRA-LIGAND FREE ENERGY PREDICTED BY IDOCK:   -1.15 KCAL/MOL
REMARK 927      BINDING AFFINITY PREDICTED BY RF-SCORE:    0.00 PKD
ROOT
HETATM    1  C   UNK A   1     -10.337  11.951  67.924  1.00  0.00    -0.198 C  
HETATM    2  C   UNK A   1     -11.473  12.457  68.808  1.00  0.00    -0.350 C  
ENDROOT
BRANCH   1   3
HETATM    3  C   UNK A   1     -10.512  10.424  67.690  1.00  0.00    -0.233 C  
ATOM      4  CA  PRO A   2      -7.973  10.081  67.687  1.00  0.00    -0.105 C  
ATOM      5  N   PRO A   2      -9.372   9.665  67.470  1.00  0.00    -0.130 N  
ATOM      6  C   PRO A   2      -7.369  10.764  66.451  1.00  0.00    -0.142 C  
HETATM    7  O   UNK A   1     -11.636   9.914  67.669  1.00  0.00     0.019 OA 
ATOM      8  CB  PRO A   2      -7.213   8.781  67.982  1.00  0.00    -0.083 C  
ATOM      9  O   PRO A   2      -8.210  10.827  65.393  1.00  0.00    -0.151 OA 
ATOM     10  CD  PRO A   2      -9.445   8.220  67.316  1.00  0.00    -0.151 C  
ATOM     11  OXT PRO A   2      -6.233  11.210  66.415  1.00  0.00    -0.128 OA 
ATOM     12  CG  PRO A   2      -8.291   7.714  68.158  1.00  0.00    -0.124 C  
ENDBRANCH   1   3
BRANCH   1  13
HETATM   13  N   UNK A   1     -10.312  12.609  66.594  1.00  0.00    -0.235 NA 
HETATM   14  H   UNK A   1     -10.542  11.933  65.865  1.00  0.00     0.000 HD 
BRANCH  13  15
HETATM   15  C   UNK A   1     -11.180  13.824  66.460  1.00  0.00    -0.312 C  
HETATM   16  O   UNK A   1     -13.494  14.037  65.641  1.00  0.00    -0.604 OA 
HETATM   17  O   UNK A   1     -12.345  12.151  65.154  1.00  0.00    -0.488 OA 
HETATM   18  C   UNK A   1     -12.467  13.381  65.719  1.00  0.00    -0.439 C  
BRANCH  15  19
HETATM   19  C   UNK A   1     -10.505  14.990  65.701  1.00  0.00    -0.368 C  
BRANCH  19  20
HETATM   20  C   UNK A   1     -10.125  16.167  66.615  1.00  0.00    -0.283 C  
BRANCH  20  21
HETATM   21  C   UNK A   1     -10.428  15.936  68.077  1.00  0.00    -0.274 A  
HETATM   22  C   UNK A   1     -11.050  15.404  70.766  1.00  0.00    -0.371 A  
HETATM   23  C   UNK A   1     -11.736  16.089  68.552  1.00  0.00    -0.244 A  
HETATM   24  C   UNK A   1     -12.047  15.824  69.889  1.00  0.00    -0.315 A  
HETATM   25  C   UNK A   1      -9.743  15.253  70.308  1.00  0.00     0.273 A  
HETATM   26  C   UNK A   1      -9.429  15.514  68.971  1.00  0.00    -0.242 A  
ENDBRANCH  20  21
ENDBRANCH  19  20
ENDBRANCH  15  19
ENDBRANCH  13  15
ENDBRANCH   1  13
TORSDOF 6
ENDMDL
MODEL      179
REMARK 921   NORMALIZED FREE ENERGY PREDICTED BY IDOCK:   -3.77 KCAL/MOL
REMARK 922        TOTAL FREE ENERGY PREDICTED BY IDOCK:   -6.81 KCAL/MOL
REMARK 923 INTER-LIGAND FREE ENERGY PREDICTED BY IDOCK:   -6.18 KCAL/MOL
REMARK 924 INTRA-LIGAND FREE ENERGY PREDICTED BY IDOCK:   -0.63 KCAL/MOL
REMARK 927      BINDING AFFINITY PREDICTED BY RF-SCORE:    0.00 PKD
ROOT
HETATM    1  C   UNK A   1     -10.007  11.498  67.261  1.00  0.00    -0.191 C  
HETATM    2  C   UNK A   1     -10.666  10.716  68.394  1.00  0.00    -0.260 C  
ENDROOT
BRANCH   1   3
HETATM    3  C   UNK A   1      -9.849  10.570  66.024  1.00  0.00    -0.222 C  
ATOM      4  CA  PRO A   2      -7.982   9.254  67.185  1.00  0.00    -0.106 C  
ATOM      5  N   PRO A   2      -8.812   9.649  66.030  1.00  0.00    -0.147 N  
ATOM      6  C   PRO A   2      -6.753  10.159  67.358  1.00  0.00    -0.073 C  
HETATM    7  O   UNK A   1     -10.606  10.676  65.054  1.00  0.00    -0.255 OA 
ATOM      8  CB  PRO A   2      -7.529   7.821  66.876  1.00  0.00    -0.094 C  
ATOM      9  O   PRO A   2      -6.641  11.119  66.411  1.00  0.00    -0.134 OA 
ATOM     10  CD  PRO A   2      -8.641   8.696  64.943  1.00  0.00    -0.135 C  
ATOM     11  OXT PRO A   2      -5.944  10.030  68.262  1.00  0.00    -0.042 OA 
ATOM     12  CG  PRO A   2      -8.342   7.393  65.657  1.00  0.00    -0.143 C  
ENDBRANCH   1   3
BRANCH   1  13
HETATM   13  N   UNK A   1     -10.805  12.675  66.840  1.00  0.00    -0.249 NA 
HETATM   14  H   UNK A   1     -11.773  12.568  67.144  1.00  0.00     0.000 HD 
BRANCH  13  15
HETATM   15  C   UNK A   1     -10.273  14.006  67.282  1.00  0.00    -0.260 C  
HETATM   16  O   UNK A   1     -10.831  15.358  69.265  1.00  0.00    -0.227 OA 
HETATM   17  O   UNK A   1     -12.247  13.705  68.650  1.00  0.00    -0.339 OA 
HETATM   18  C   UNK A   1     -11.121  14.450  68.501  1.00  0.00    -0.253 C  
BRANCH  15  19
HETATM   19  C   UNK A   1     -10.317  15.090  66.181  1.00  0.00    -0.310 C  
BRANCH  19  20
HETATM   20  C   UNK A   1      -9.071  15.992  66.170  1.00  0.00    -0.387 C  
BRANCH  20  21
HETATM   21  C   UNK A   1      -9.300  17.367  66.755  1.00  0.00    -0.279 A  
HETATM   22  C   UNK A   1      -9.613  19.952  67.811  1.00  0.00    -0.496 A  
HETATM   23  C   UNK A   1      -8.672  17.730  67.952  1.00  0.00    -0.251 A  
HETATM   24  C   UNK A   1      -8.826  19.016  68.478  1.00  0.00    -0.398 A  
HETATM   25  C   UNK A   1     -10.248  19.601  66.622  1.00  0.00    -0.576 A  
HETATM   26  C   UNK A   1     -10.094  18.318  66.091  1.00  0.00    -0.354 A  
ENDBRANCH  20  21
ENDBRANCH  19  20
ENDBRANCH  15  19
ENDBRANCH  13  15
ENDBRANCH   1  13
TORSDOF 6
ENDMDL
MODEL      180
REMARK 921   NORMALIZED FREE ENERGY PREDICTED BY IDOCK:   -3.77 KCAL/MOL
REMARK 922        TOTAL FREE ENERGY PREDICTED BY IDOCK:   -6.80 KCAL/MOL
REMARK 923 INTER-LIGAND FREE ENERGY PREDICTED BY IDOCK:   -5.90 KCAL/MOL
REMARK 924 INTRA-LIGAND FREE ENERGY PREDICTED BY IDOCK:   -0.91 KCAL/MOL
REMARK 927      BINDING AFFINITY PREDICTED BY RF-SCORE:    0.00 PKD
ROOT
HETATM    1  C   UNK A   1     -11.694  14.431  66.732  1.00  0.00    -0.397 C  
HETATM    2  C   UNK A   1     -12.669  14.077  65.612  1.00  0.00    -0.515 C  
ENDROOT
BRANCH   1   3
HETATM    3  C   UNK A   1     -10.679  13.268  66.913  1.00  0.00    -0.271 C  
ATOM      4  CA  PRO A   2     -12.033  12.322  68.871  1.00  0.00    -0.248 C  
ATOM      5  N   PRO A   2     -10.848  12.420  67.997  1.00  0.00    -0.212 N  
ATOM      6  C   PRO A   2     -11.969  13.300  70.054  1.00  0.00    -0.329 C  
HETATM    7  O   UNK A   1      -9.734  13.128  66.131  1.00  0.00    -0.276 OA 
ATOM      8  CB  PRO A   2     -12.022  10.879  69.393  1.00  0.00    -0.393 C  
ATOM      9  O   PRO A   2     -10.837  14.039  70.094  1.00  0.00     0.143 OA 
ATOM     10  CD  PRO A   2      -9.984  11.266  68.195  1.00  0.00    -0.181 C  
ATOM     11  OXT PRO A   2     -12.854  13.407  70.888  1.00  0.00    -0.284 OA 
ATOM     12  CG  PRO A   2     -10.950  10.162  68.579  1.00  0.00    -0.278 C  
ENDBRANCH   1   3
BRANCH   1  13
HETATM   13  N   UNK A   1     -10.919  15.664  66.446  1.00  0.00    -0.253 NA 
HETATM   14  H   UNK A   1     -11.131  16.000  65.506  1.00  0.00     0.000 HD 
BRANCH  13  15
HETATM   15  C   UNK A   1     -11.087  16.775  67.439  1.00  0.00     0.019 C  
HETATM   16  O   UNK A   1     -11.055  19.217  67.107  1.00  0.00    -0.396 OA 
HETATM   17  O   UNK A   1     -10.200  17.894  65.484  1.00  0.00    -0.576 OA 
HETATM   18  C   UNK A   1     -10.791  18.099  66.690  1.00  0.00    -0.019 C  
BRANCH  15  19
HETATM   19  C   UNK A   1     -10.168  16.648  68.676  1.00  0.00    -0.284 C  
BRANCH  19  20
HETATM   20  C   UNK A   1      -8.727  17.116  68.410  1.00  0.00    -0.246 C  
BRANCH  20  21
HETATM   21  C   UNK A   1      -7.667  16.164  68.913  1.00  0.00    -0.207 A  
HETATM   22  C   UNK A   1      -5.670  14.367  69.735  1.00  0.00    -0.104 A  
HETATM   23  C   UNK A   1      -7.868  14.782  68.819  1.00  0.00    -0.146 A  
HETATM   24  C   UNK A   1      -6.874  13.887  69.226  1.00  0.00    -0.094 A  
HETATM   25  C   UNK A   1      -5.460  15.739  69.840  1.00  0.00    -0.126 A  
HETATM   26  C   UNK A   1      -6.449  16.638  69.430  1.00  0.00    -0.220 A  
ENDBRANCH  20  21
ENDBRANCH  19  20
ENDBRANCH  15  19
ENDBRANCH  13  15
ENDBRANCH   1  13
TORSDOF 6
ENDMDL
MODEL      181
REMARK 921   NORMALIZED FREE ENERGY PREDICTED BY IDOCK:   -3.76 KCAL/MOL
REMARK 922        TOTAL FREE ENERGY PREDICTED BY IDOCK:   -6.80 KCAL/MOL
REMARK 923 INTER-LIGAND FREE ENERGY PREDICTED BY IDOCK:   -7.65 KCAL/MOL
REMARK 924 INTRA-LIGAND FREE ENERGY PREDICTED BY IDOCK:    0.85 KCAL/MOL
REMARK 927      BINDING AFFINITY PREDICTED BY RF-SCORE:    0.00 PKD
ROOT
HETATM    1  C   UNK A   1     -10.966  14.161  68.826  1.00  0.00    -0.257 C  
HETATM    2  C   UNK A   1     -11.461  14.051  67.386  1.00  0.00    -0.373 C  
ENDROOT
BRANCH   1   3
HETATM    3  C   UNK A   1     -11.866  13.287  69.744  1.00  0.00    -0.325 C  
ATOM      4  CA  PRO A   2     -10.550  11.180  69.118  1.00  0.00    -0.204 C  
ATOM      5  N   PRO A   2     -11.681  11.913  69.720  1.00  0.00    -0.327 N  
ATOM      6  C   PRO A   2     -10.789  10.852  67.636  1.00  0.00    -0.266 C  
HETATM    7  O   UNK A   1     -12.740  13.804  70.446  1.00  0.00    -0.276 OA 
ATOM      8  CB  PRO A   2     -10.446   9.879  69.924  1.00  0.00    -0.309 C  
ATOM      9  O   PRO A   2     -11.991  11.262  67.171  1.00  0.00    -0.470 OA 
ATOM     10  CD  PRO A   2     -12.433  11.034  70.602  1.00  0.00    -0.373 C  
ATOM     11  OXT PRO A   2      -9.975  10.273  66.935  1.00  0.00    -0.191 OA 
ATOM     12  CG  PRO A   2     -11.386  10.064  71.113  1.00  0.00    -0.397 C  
ENDBRANCH   1   3
BRANCH   1  13
HETATM   13  N   UNK A   1      -9.568  13.689  68.986  1.00  0.00    -0.398 NA 
HETATM   14  H   UNK A   1      -9.553  12.676  69.106  1.00  0.00     0.000 HD 
BRANCH  13  15
HETATM   15  C   UNK A   1      -8.623  14.091  67.894  1.00  0.00    -0.181 C  
HETATM   16  O   UNK A   1      -6.630  12.937  67.017  1.00  0.00    -0.140 OA 
HETATM   17  O   UNK A   1      -7.448  12.304  69.028  1.00  0.00    -0.058 OA 
HETATM   18  C   UNK A   1      -7.457  13.070  67.906  1.00  0.00    -0.137 C  
BRANCH  15  19
HETATM   19  C   UNK A   1      -8.071  15.527  68.047  1.00  0.00    -0.140 C  
BRANCH  19  20
HETATM   20  C   UNK A   1      -8.988  16.443  68.876  1.00  0.00    -0.256 C  
BRANCH  20  21
HETATM   21  C   UNK A   1      -9.619  17.564  68.084  1.00  0.00    -0.294 A  
HETATM   22  C   UNK A   1     -10.685  19.704  66.607  1.00  0.00    -0.552 A  
HETATM   23  C   UNK A   1      -9.833  18.810  68.685  1.00  0.00    -0.441 A  
HETATM   24  C   UNK A   1     -10.361  19.876  67.951  1.00  0.00    -0.545 A  
HETATM   25  C   UNK A   1     -10.483  18.468  65.999  1.00  0.00    -0.433 A  
HETATM   26  C   UNK A   1      -9.951  17.401  66.728  1.00  0.00    -0.307 A  
ENDBRANCH  20  21
ENDBRANCH  19  20
ENDBRANCH  15  19
ENDBRANCH  13  15
ENDBRANCH   1  13
TORSDOF 6
ENDMDL
MODEL      182
REMARK 921   NORMALIZED FREE ENERGY PREDICTED BY IDOCK:   -3.75 KCAL/MOL
REMARK 922        TOTAL FREE ENERGY PREDICTED BY IDOCK:   -6.79 KCAL/MOL
REMARK 923 INTER-LIGAND FREE ENERGY PREDICTED BY IDOCK:   -5.87 KCAL/MOL
REMARK 924 INTRA-LIGAND FREE ENERGY PREDICTED BY IDOCK:   -0.91 KCAL/MOL
REMARK 927      BINDING AFFINITY PREDICTED BY RF-SCORE:    0.00 PKD
ROOT
HETATM    1  C   UNK A   1     -10.133   9.524  69.552  1.00  0.00    -0.206 C  
HETATM    2  C   UNK A   1     -10.887   9.640  68.230  1.00  0.00    -0.230 C  
ENDROOT
BRANCH   1   3
HETATM    3  C   UNK A   1      -9.275   8.228  69.540  1.00  0.00    -0.158 C  
ATOM      4  CA  PRO A   2     -10.826   7.123  71.254  1.00  0.00    -0.233 C  
ATOM      5  N   PRO A   2      -9.596   7.226  70.444  1.00  0.00    -0.166 N  
ATOM      6  C   PRO A   2     -10.702   7.855  72.598  1.00  0.00    -0.347 C  
HETATM    7  O   UNK A   1      -8.316   8.114  68.770  1.00  0.00    -0.123 OA 
ATOM      8  CB  PRO A   2     -11.013   5.620  71.499  1.00  0.00    -0.268 C  
ATOM      9  O   PRO A   2      -9.492   8.425  72.804  1.00  0.00    -0.272 OA 
ATOM     10  CD  PRO A   2      -8.888   5.955  70.446  1.00  0.00    -0.143 C  
ATOM     11  OXT PRO A   2     -11.607   7.920  73.415  1.00  0.00    -0.147 OA 
ATOM     12  CG  PRO A   2      -9.996   4.932  70.593  1.00  0.00    -0.305 C  
ENDBRANCH   1   3
BRANCH   1  13
HETATM   13  N   UNK A   1      -9.218  10.667  69.790  1.00  0.00    -0.371 NA 
HETATM   14  H   UNK A   1      -8.456  10.382  70.406  1.00  0.00     0.000 HD 
BRANCH  13  15
HETATM   15  C   UNK A   1      -8.666  11.318  68.557  1.00  0.00    -0.156 C  
HETATM   16  O   UNK A   1      -6.337  11.514  67.775  1.00  0.00    -0.057 OA 
HETATM   17  O   UNK A   1      -6.708  10.976  69.940  1.00  0.00    -0.142 OA 
HETATM   18  C   UNK A   1      -7.121  11.291  68.685  1.00  0.00    -0.093 C  
BRANCH  15  19
HETATM   19  C   UNK A   1      -9.155  12.769  68.347  1.00  0.00    -0.129 C  
BRANCH  19  20
HETATM   20  C   UNK A   1      -9.040  13.241  66.888  1.00  0.00    -0.235 C  
BRANCH  20  21
HETATM   21  C   UNK A   1     -10.336  13.173  66.113  1.00  0.00    -0.287 A  
HETATM   22  C   UNK A   1     -12.756  13.165  64.686  1.00  0.00    -0.326 A  
HETATM   23  C   UNK A   1     -11.555  13.362  66.774  1.00  0.00    -0.404 A  
HETATM   24  C   UNK A   1     -12.760  13.360  66.065  1.00  0.00    -0.233 A  
HETATM   25  C   UNK A   1     -11.551  12.970  64.017  1.00  0.00    -0.487 A  
HETATM   26  C   UNK A   1     -10.343  12.975  64.722  1.00  0.00    -0.356 A  
ENDBRANCH  20  21
ENDBRANCH  19  20
ENDBRANCH  15  19
ENDBRANCH  13  15
ENDBRANCH   1  13
TORSDOF 6
ENDMDL
MODEL      183
REMARK 921   NORMALIZED FREE ENERGY PREDICTED BY IDOCK:   -3.75 KCAL/MOL
REMARK 922        TOTAL FREE ENERGY PREDICTED BY IDOCK:   -6.77 KCAL/MOL
REMARK 923 INTER-LIGAND FREE ENERGY PREDICTED BY IDOCK:   -6.53 KCAL/MOL
REMARK 924 INTRA-LIGAND FREE ENERGY PREDICTED BY IDOCK:   -0.24 KCAL/MOL
REMARK 927      BINDING AFFINITY PREDICTED BY RF-SCORE:    0.00 PKD
ROOT
HETATM    1  C   UNK A   1     -10.730  11.450  67.630  1.00  0.00    -0.216 C  
HETATM    2  C   UNK A   1     -11.172  11.500  69.090  1.00  0.00    -0.337 C  
ENDROOT
BRANCH   1   3
HETATM    3  C   UNK A   1     -10.386   9.982  67.250  1.00  0.00    -0.237 C  
ATOM      4  CA  PRO A   2      -8.875  10.777  65.339  1.00  0.00    -0.189 C  
ATOM      5  N   PRO A   2      -9.626   9.767  66.109  1.00  0.00    -0.208 N  
ATOM      6  C   PRO A   2      -9.734  11.442  64.254  1.00  0.00    -0.230 C  
HETATM    7  O   UNK A   1     -10.807   9.039  67.927  1.00  0.00    -0.178 OA 
ATOM      8  CB  PRO A   2      -7.724  10.001  64.684  1.00  0.00    -0.146 C  
ATOM      9  O   PRO A   2     -10.997  10.962  64.182  1.00  0.00    -0.225 OA 
ATOM     10  CD  PRO A   2      -9.201   8.429  65.726  1.00  0.00    -0.111 C  
ATOM     11  OXT PRO A   2      -9.323  12.324  63.516  1.00  0.00    -0.056 OA 
ATOM     12  CG  PRO A   2      -7.751   8.618  65.328  1.00  0.00    -0.092 C  
ENDBRANCH   1   3
BRANCH   1  13
HETATM   13  N   UNK A   1     -11.784  11.920  66.698  1.00  0.00    -0.579 NA 
HETATM   14  H   UNK A   1     -12.588  11.292  66.734  1.00  0.00     0.000 HD 
BRANCH  13  15
HETATM   15  C   UNK A   1     -12.231  13.338  66.892  1.00  0.00    -0.257 C  
HETATM   16  O   UNK A   1     -13.595  14.785  65.437  1.00  0.00     0.072 OA 
HETATM   17  O   UNK A   1     -12.663  12.927  64.546  1.00  0.00    -0.654 OA 
HETATM   18  C   UNK A   1     -12.907  13.785  65.571  1.00  0.00    -0.419 C  
BRANCH  15  19
HETATM   19  C   UNK A   1     -11.082  14.307  67.254  1.00  0.00    -0.315 C  
BRANCH  19  20
HETATM   20  C   UNK A   1     -10.333  14.845  66.023  1.00  0.00    -0.313 C  
BRANCH  20  21
HETATM   21  C   UNK A   1      -9.868  16.276  66.160  1.00  0.00    -0.358 A  
HETATM   22  C   UNK A   1      -8.951  18.928  66.309  1.00  0.00    -0.267 A  
HETATM   23  C   UNK A   1      -8.519  16.552  66.413  1.00  0.00    -0.357 A  
HETATM   24  C   UNK A   1      -8.061  17.870  66.485  1.00  0.00    -0.303 A  
HETATM   25  C   UNK A   1     -10.296  18.667  66.063  1.00  0.00    -0.436 A  
HETATM   26  C   UNK A   1     -10.758  17.350  65.986  1.00  0.00    -0.122 A  
ENDBRANCH  20  21
ENDBRANCH  19  20
ENDBRANCH  15  19
ENDBRANCH  13  15
ENDBRANCH   1  13
TORSDOF 6
ENDMDL
MODEL      184
REMARK 921   NORMALIZED FREE ENERGY PREDICTED BY IDOCK:   -3.74 KCAL/MOL
REMARK 922        TOTAL FREE ENERGY PREDICTED BY IDOCK:   -6.77 KCAL/MOL
REMARK 923 INTER-LIGAND FREE ENERGY PREDICTED BY IDOCK:   -6.13 KCAL/MOL
REMARK 924 INTRA-LIGAND FREE ENERGY PREDICTED BY IDOCK:   -0.64 KCAL/MOL
REMARK 927      BINDING AFFINITY PREDICTED BY RF-SCORE:    0.00 PKD
ROOT
HETATM    1  C   UNK A   1     -10.241  11.371  64.938  1.00  0.00    -0.278 C  
HETATM    2  C   UNK A   1     -10.586  11.006  63.497  1.00  0.00    -0.303 C  
ENDROOT
BRANCH   1   3
HETATM    3  C   UNK A   1      -9.064  10.479  65.424  1.00  0.00    -0.187 C  
ATOM      4  CA  PRO A   2     -10.507   9.507  67.304  1.00  0.00    -0.262 C  
ATOM      5  N   PRO A   2      -9.238   9.750  66.591  1.00  0.00    -0.147 N  
ATOM      6  C   PRO A   2     -10.823  10.610  68.325  1.00  0.00    -0.241 C  
HETATM    7  O   UNK A   1      -7.996  10.451  64.804  1.00  0.00    -0.152 OA 
ATOM      8  CB  PRO A   2     -10.304   8.172  68.032  1.00  0.00    -0.267 C  
ATOM      9  O   PRO A   2      -9.875  11.572  68.405  1.00  0.00    -0.193 OA 
ATOM     10  CD  PRO A   2      -8.212   8.837  67.071  1.00  0.00    -0.103 C  
ATOM     11  OXT PRO A   2     -11.834  10.626  69.010  1.00  0.00    -0.270 OA 
ATOM     12  CG  PRO A   2      -8.997   7.607  67.484  1.00  0.00    -0.128 C  
ENDBRANCH   1   3
BRANCH   1  13
HETATM   13  N   UNK A   1      -9.823  12.787  65.084  1.00  0.00    -0.480 NA 
HETATM   14  H   UNK A   1      -9.753  13.227  64.167  1.00  0.00     0.000 HD 
BRANCH  13  15
HETATM   15  C   UNK A   1     -10.677  13.621  65.991  1.00  0.00    -0.280 C  
HETATM   16  O   UNK A   1     -12.824  14.748  65.552  1.00  0.00    -0.084 OA 
HETATM   17  O   UNK A   1     -11.576  14.078  63.790  1.00  0.00    -0.159 OA 
HETATM   18  C   UNK A   1     -11.813  14.216  65.121  1.00  0.00    -0.372 C  
BRANCH  15  19
HETATM   19  C   UNK A   1      -9.906  14.755  66.704  1.00  0.00    -0.270 C  
BRANCH  19  20
HETATM   20  C   UNK A   1      -9.187  15.704  65.730  1.00  0.00    -0.247 C  
BRANCH  20  21
HETATM   21  C   UNK A   1      -8.568  16.913  66.391  1.00  0.00    -0.328 A  
HETATM   22  C   UNK A   1      -7.445  19.115  67.728  1.00  0.00    -0.283 A  
HETATM   23  C   UNK A   1      -9.386  17.875  66.994  1.00  0.00    -0.267 A  
HETATM   24  C   UNK A   1      -8.829  18.970  67.661  1.00  0.00    -0.319 A  
HETATM   25  C   UNK A   1      -6.620  18.168  67.126  1.00  0.00    -0.200 A  
HETATM   26  C   UNK A   1      -7.173  17.069  66.462  1.00  0.00    -0.311 A  
ENDBRANCH  20  21
ENDBRANCH  19  20
ENDBRANCH  15  19
ENDBRANCH  13  15
ENDBRANCH   1  13
TORSDOF 6
ENDMDL
MODEL      185
REMARK 921   NORMALIZED FREE ENERGY PREDICTED BY IDOCK:   -3.73 KCAL/MOL
REMARK 922        TOTAL FREE ENERGY PREDICTED BY IDOCK:   -6.75 KCAL/MOL
REMARK 923 INTER-LIGAND FREE ENERGY PREDICTED BY IDOCK:   -7.39 KCAL/MOL
REMARK 924 INTRA-LIGAND FREE ENERGY PREDICTED BY IDOCK:    0.64 KCAL/MOL
REMARK 927      BINDING AFFINITY PREDICTED BY RF-SCORE:    0.00 PKD
ROOT
HETATM    1  C   UNK A   1      -9.799  14.373  68.099  1.00  0.00    -0.223 C  
HETATM    2  C   UNK A   1     -11.059  15.227  68.215  1.00  0.00    -0.301 C  
ENDROOT
BRANCH   1   3
HETATM    3  C   UNK A   1     -10.201  12.910  67.763  1.00  0.00    -0.224 C  
ATOM      4  CA  PRO A   2     -10.491  13.502  65.287  1.00  0.00    -0.336 C  
ATOM      5  N   PRO A   2     -10.622  12.631  66.471  1.00  0.00    -0.251 N  
ATOM      6  C   PRO A   2     -11.686  14.454  65.128  1.00  0.00    -0.372 C  
HETATM    7  O   UNK A   1     -10.178  12.034  68.633  1.00  0.00    -0.214 OA 
ATOM      8  CB  PRO A   2     -10.433  12.542  64.092  1.00  0.00    -0.429 C  
ATOM      9  O   PRO A   2     -12.642  14.298  66.072  1.00  0.00    -0.447 OA 
ATOM     10  CD  PRO A   2     -10.946  11.273  66.059  1.00  0.00    -0.174 C  
ATOM     11  OXT PRO A   2     -11.775  15.280  64.233  1.00  0.00    -0.347 OA 
ATOM     12  CG  PRO A   2     -10.288  11.149  64.699  1.00  0.00    -0.393 C  
ENDBRANCH   1   3
BRANCH   1  13
HETATM   13  N   UNK A   1      -8.887  14.845  67.028  1.00  0.00    -0.219 NA 
HETATM   14  H   UNK A   1      -9.409  15.383  66.336  1.00  0.00     0.000 HD 
BRANCH  13  15
HETATM   15  C   UNK A   1      -7.696  15.629  67.495  1.00  0.00    -0.168 C  
HETATM   16  O   UNK A   1      -5.315  14.999  67.573  1.00  0.00    -0.328 OA 
HETATM   17  O   UNK A   1      -6.859  13.362  67.350  1.00  0.00    -0.165 OA 
HETATM   18  C   UNK A   1      -6.485  14.661  67.483  1.00  0.00    -0.052 C  
BRANCH  15  19
HETATM   19  C   UNK A   1      -7.870  16.244  68.903  1.00  0.00    -0.224 C  
BRANCH  19  20
HETATM   20  C   UNK A   1      -7.575  17.753  68.945  1.00  0.00    -0.223 C  
BRANCH  20  21
HETATM   21  C   UNK A   1      -8.545  18.593  68.148  1.00  0.00    -0.332 A  
HETATM   22  C   UNK A   1     -10.345  20.239  66.752  1.00  0.00    -0.420 A  
HETATM   23  C   UNK A   1      -9.864  18.748  68.593  1.00  0.00    -0.441 A  
HETATM   24  C   UNK A   1     -10.759  19.568  67.900  1.00  0.00    -0.423 A  
HETATM   25  C   UNK A   1      -9.039  20.088  66.295  1.00  0.00    -0.402 A  
HETATM   26  C   UNK A   1      -8.138  19.272  66.987  1.00  0.00    -0.284 A  
ENDBRANCH  20  21
ENDBRANCH  19  20
ENDBRANCH  15  19
ENDBRANCH  13  15
ENDBRANCH   1  13
TORSDOF 6
ENDMDL
MODEL      186
REMARK 921   NORMALIZED FREE ENERGY PREDICTED BY IDOCK:   -3.73 KCAL/MOL
REMARK 922        TOTAL FREE ENERGY PREDICTED BY IDOCK:   -6.75 KCAL/MOL
REMARK 923 INTER-LIGAND FREE ENERGY PREDICTED BY IDOCK:   -5.19 KCAL/MOL
REMARK 924 INTRA-LIGAND FREE ENERGY PREDICTED BY IDOCK:   -1.56 KCAL/MOL
REMARK 927      BINDING AFFINITY PREDICTED BY RF-SCORE:    0.00 PKD
ROOT
HETATM    1  C   UNK A   1      -9.814   8.300  68.257  1.00  0.00    -0.172 C  
HETATM    2  C   UNK A   1     -10.834   7.526  67.426  1.00  0.00    -0.272 C  
ENDROOT
BRANCH   1   3
HETATM    3  C   UNK A   1     -10.168   9.813  68.221  1.00  0.00    -0.183 C  
ATOM      4  CA  PRO A   2      -7.695  10.439  67.982  1.00  0.00    -0.092 C  
ATOM      5  N   PRO A   2      -9.123  10.726  68.218  1.00  0.00    -0.151 N  
ATOM      6  C   PRO A   2      -6.951  10.076  69.276  1.00  0.00    -0.063 C  
HETATM    7  O   UNK A   1     -11.345  10.186  68.229  1.00  0.00    -0.232 OA 
ATOM      8  CB  PRO A   2      -7.120  11.738  67.403  1.00  0.00    -0.126 C  
ATOM      9  O   PRO A   2      -7.725  10.118  70.384  1.00  0.00    -0.230 OA 
ATOM     10  CD  PRO A   2      -9.370  12.156  68.112  1.00  0.00    -0.204 C  
ATOM     11  OXT PRO A   2      -5.768   9.778  69.311  1.00  0.00    -0.035 OA 
ATOM     12  CG  PRO A   2      -8.330  12.622  67.112  1.00  0.00    -0.172 C  
ENDBRANCH   1   3
BRANCH   1  13
HETATM   13  N   UNK A   1      -9.796   7.876  69.679  1.00  0.00    -0.177 NA 
HETATM   14  H   UNK A   1      -9.495   8.651  70.270  1.00  0.00     0.000 HD 
BRANCH  13  15
HETATM   15  C   UNK A   1     -11.081   7.304  70.197  1.00  0.00    -0.258 C  
HETATM   16  O   UNK A   1     -12.758   8.286  71.713  1.00  0.00    -0.314 OA 
HETATM   17  O   UNK A   1     -10.700   9.219  71.627  1.00  0.00    -0.354 OA 
HETATM   18  C   UNK A   1     -11.626   8.298  71.254  1.00  0.00    -0.281 C  
BRANCH  15  19
HETATM   19  C   UNK A   1     -10.929   5.897  70.820  1.00  0.00    -0.343 C  
BRANCH  19  20
HETATM   20  C   UNK A   1      -9.506   5.328  70.691  1.00  0.00    -0.222 C  
BRANCH  20  21
HETATM   21  C   UNK A   1      -9.391   4.169  69.729  1.00  0.00    -0.237 A  
HETATM   22  C   UNK A   1      -9.290   1.983  67.965  1.00  0.00    -0.236 A  
HETATM   23  C   UNK A   1      -9.347   2.858  70.218  1.00  0.00    -0.219 A  
HETATM   24  C   UNK A   1      -9.299   1.770  69.342  1.00  0.00    -0.167 A  
HETATM   25  C   UNK A   1      -9.327   3.283  67.466  1.00  0.00    -0.250 A  
HETATM   26  C   UNK A   1      -9.379   4.373  68.339  1.00  0.00    -0.203 A  
ENDBRANCH  20  21
ENDBRANCH  19  20
ENDBRANCH  15  19
ENDBRANCH  13  15
ENDBRANCH   1  13
TORSDOF 6
ENDMDL
MODEL      187
REMARK 921   NORMALIZED FREE ENERGY PREDICTED BY IDOCK:   -3.71 KCAL/MOL
REMARK 922        TOTAL FREE ENERGY PREDICTED BY IDOCK:   -6.72 KCAL/MOL
REMARK 923 INTER-LIGAND FREE ENERGY PREDICTED BY IDOCK:   -5.24 KCAL/MOL
REMARK 924 INTRA-LIGAND FREE ENERGY PREDICTED BY IDOCK:   -1.49 KCAL/MOL
REMARK 927      BINDING AFFINITY PREDICTED BY RF-SCORE:    0.00 PKD
ROOT
HETATM    1  C   UNK A   1     -10.093   8.792  69.818  1.00  0.00    -0.196 C  
HETATM    2  C   UNK A   1      -8.659   9.160  70.189  1.00  0.00    -0.195 C  
ENDROOT
BRANCH   1   3
HETATM    3  C   UNK A   1     -10.451   7.422  70.460  1.00  0.00    -0.218 C  
ATOM      4  CA  PRO A   2      -9.241   6.167  68.583  1.00  0.00    -0.123 C  
ATOM      5  N   PRO A   2     -10.126   6.270  69.759  1.00  0.00    -0.170 N  
ATOM      6  C   PRO A   2      -9.997   6.373  67.262  1.00  0.00    -0.146 C  
HETATM    7  O   UNK A   1     -11.037   7.368  71.545  1.00  0.00    -0.236 OA 
ATOM      8  CB  PRO A   2      -8.674   4.742  68.636  1.00  0.00    -0.111 C  
ATOM      9  O   PRO A   2     -11.326   6.576  67.417  1.00  0.00    -0.304 OA 
ATOM     10  CD  PRO A   2     -10.362   4.950  70.324  1.00  0.00    -0.181 C  
ATOM     11  OXT PRO A   2      -9.458   6.355  66.167  1.00  0.00    -0.136 OA 
ATOM     12  CG  PRO A   2      -9.090   4.192  69.998  1.00  0.00    -0.182 C  
ENDBRANCH   1   3
BRANCH   1  13
HETATM   13  N   UNK A   1     -11.082   9.787  70.301  1.00  0.00    -0.271 NA 
HETATM   14  H   UNK A   1     -10.949   9.956  71.298  1.00  0.00     0.000 HD 
BRANCH  13  15
HETATM   15  C   UNK A   1     -11.102  11.089  69.557  1.00  0.00    -0.263 C  
HETATM   16  O   UNK A   1     -12.212  13.217  70.114  1.00  0.00    -0.329 OA 
HETATM   17  O   UNK A   1     -12.885  11.336  71.176  1.00  0.00    -0.376 OA 
HETATM   18  C   UNK A   1     -12.109  12.012  70.288  1.00  0.00    -0.312 C  
BRANCH  15  19
HETATM   19  C   UNK A   1     -11.494  10.949  68.068  1.00  0.00    -0.356 C  
BRANCH  19  20
HETATM   20  C   UNK A   1     -10.643  11.824  67.133  1.00  0.00    -0.267 C  
BRANCH  20  21
HETATM   21  C   UNK A   1      -9.257  11.282  66.873  1.00  0.00    -0.184 A  
HETATM   22  C   UNK A   1      -6.662  10.269  66.509  1.00  0.00    -0.090 A  
HETATM   23  C   UNK A   1      -8.136  12.083  67.123  1.00  0.00    -0.177 A  
HETATM   24  C   UNK A   1      -6.845  11.579  66.944  1.00  0.00    -0.138 A  
HETATM   25  C   UNK A   1      -7.768   9.464  66.251  1.00  0.00    -0.097 A  
HETATM   26  C   UNK A   1      -9.062   9.962  66.433  1.00  0.00    -0.179 A  
ENDBRANCH  20  21
ENDBRANCH  19  20
ENDBRANCH  15  19
ENDBRANCH  13  15
ENDBRANCH   1  13
TORSDOF 6
ENDMDL
MODEL      188
REMARK 921   NORMALIZED FREE ENERGY PREDICTED BY IDOCK:   -3.69 KCAL/MOL
REMARK 922        TOTAL FREE ENERGY PREDICTED BY IDOCK:   -6.70 KCAL/MOL
REMARK 923 INTER-LIGAND FREE ENERGY PREDICTED BY IDOCK:   -7.33 KCAL/MOL
REMARK 924 INTRA-LIGAND FREE ENERGY PREDICTED BY IDOCK:    0.64 KCAL/MOL
REMARK 927      BINDING AFFINITY PREDICTED BY RF-SCORE:    0.00 PKD
ROOT
HETATM    1  C   UNK A   1      -9.797  10.895  66.618  1.00  0.00    -0.198 C  
HETATM    2  C   UNK A   1      -9.649  10.360  65.196  1.00  0.00    -0.329 C  
ENDROOT
BRANCH   1   3
HETATM    3  C   UNK A   1      -9.335  12.378  66.657  1.00  0.00    -0.227 C  
ATOM      4  CA  PRO A   2     -11.580  13.157  65.701  1.00  0.00    -0.338 C  
ATOM      5  N   PRO A   2     -10.171  13.335  66.101  1.00  0.00    -0.290 N  
ATOM      6  C   PRO A   2     -11.718  12.659  64.254  1.00  0.00    -0.381 C  
HETATM    7  O   UNK A   1      -8.240  12.686  67.139  1.00  0.00    -0.182 OA 
ATOM      8  CB  PRO A   2     -12.208  14.552  65.828  1.00  0.00    -0.270 C  
ATOM      9  O   PRO A   2     -10.537  12.508  63.611  1.00  0.00    -0.429 OA 
ATOM     10  CD  PRO A   2      -9.844  14.752  66.163  1.00  0.00    -0.312 C  
ATOM     11  OXT PRO A   2     -12.791  12.420  63.723  1.00  0.00    -0.734 OA 
ATOM     12  CG  PRO A   2     -11.160  15.403  66.539  1.00  0.00    -0.227 C  
ENDBRANCH   1   3
BRANCH   1  13
HETATM   13  N   UNK A   1     -11.198  10.848  67.103  1.00  0.00    -0.364 NA 
HETATM   14  H   UNK A   1     -11.804  10.452  66.383  1.00  0.00     0.000 HD 
BRANCH  13  15
HETATM   15  C   UNK A   1     -11.407  10.129  68.402  1.00  0.00    -0.113 C  
HETATM   16  O   UNK A   1     -12.513  10.882  70.472  1.00  0.00    -0.320 OA 
HETATM   17  O   UNK A   1     -11.896  12.436  68.949  1.00  0.00    -0.305 OA 
HETATM   18  C   UNK A   1     -11.998  11.158  69.399  1.00  0.00    -0.349 C  
BRANCH  15  19
HETATM   19  C   UNK A   1     -10.116   9.508  68.984  1.00  0.00    -0.201 C  
BRANCH  19  20
HETATM   20  C   UNK A   1     -10.163   7.973  69.060  1.00  0.00    -0.217 C  
BRANCH  20  21
HETATM   21  C   UNK A   1     -10.527   7.434  70.424  1.00  0.00    -0.230 A  
HETATM   22  C   UNK A   1     -11.195   6.322  72.917  1.00  0.00    -0.233 A  
HETATM   23  C   UNK A   1     -11.788   6.867  70.638  1.00  0.00    -0.418 A  
HETATM   24  C   UNK A   1     -12.122   6.312  71.877  1.00  0.00    -0.311 A  
HETATM   25  C   UNK A   1      -9.939   6.889  72.720  1.00  0.00    -0.193 A  
HETATM   26  C   UNK A   1      -9.600   7.442  71.481  1.00  0.00    -0.163 A  
ENDBRANCH  20  21
ENDBRANCH  19  20
ENDBRANCH  15  19
ENDBRANCH  13  15
ENDBRANCH   1  13
TORSDOF 6
ENDMDL
MODEL      189
REMARK 921   NORMALIZED FREE ENERGY PREDICTED BY IDOCK:   -3.68 KCAL/MOL
REMARK 922        TOTAL FREE ENERGY PREDICTED BY IDOCK:   -6.68 KCAL/MOL
REMARK 923 INTER-LIGAND FREE ENERGY PREDICTED BY IDOCK:   -5.57 KCAL/MOL
REMARK 924 INTRA-LIGAND FREE ENERGY PREDICTED BY IDOCK:   -1.11 KCAL/MOL
REMARK 927      BINDING AFFINITY PREDICTED BY RF-SCORE:    0.00 PKD
ROOT
HETATM    1  C   UNK A   1      -8.506   9.414  69.435  1.00  0.00    -0.142 C  
HETATM    2  C   UNK A   1      -8.567   8.873  70.861  1.00  0.00    -0.242 C  
ENDROOT
BRANCH   1   3
HETATM    3  C   UNK A   1      -9.792   8.992  68.671  1.00  0.00    -0.165 C  
ATOM      4  CA  PRO A   2      -8.585   6.976  67.649  1.00  0.00    -0.122 C  
ATOM      5  N   PRO A   2      -9.701   7.933  67.779  1.00  0.00    -0.150 N  
ATOM      6  C   PRO A   2      -7.503   7.471  66.677  1.00  0.00    -0.092 C  
HETATM    7  O   UNK A   1     -10.852   9.604  68.833  1.00  0.00    -0.221 OA 
ATOM      8  CB  PRO A   2      -9.224   5.694  67.100  1.00  0.00    -0.114 C  
ATOM      9  O   PRO A   2      -7.784   8.662  66.102  1.00  0.00    -0.094 OA 
ATOM     10  CD  PRO A   2     -10.874   7.431  67.081  1.00  0.00    -0.270 C  
ATOM     11  OXT PRO A   2      -6.479   6.851  66.437  1.00  0.00    -0.047 OA 
ATOM     12  CG  PRO A   2     -10.731   5.925  67.184  1.00  0.00    -0.387 C  
ENDBRANCH   1   3
BRANCH   1  13
HETATM   13  N   UNK A   1      -8.423  10.895  69.390  1.00  0.00    -0.381 NA 
HETATM   14  H   UNK A   1      -7.964  11.245  70.231  1.00  0.00     0.000 HD 
BRANCH  13  15
HETATM   15  C   UNK A   1      -7.764  11.466  68.170  1.00  0.00    -0.118 C  
HETATM   16  O   UNK A   1      -5.548  12.513  67.908  1.00  0.00    -0.073 OA 
HETATM   17  O   UNK A   1      -6.405  12.304  69.990  1.00  0.00    -0.119 OA 
HETATM   18  C   UNK A   1      -6.455  12.150  68.641  1.00  0.00    -0.072 C  
BRANCH  15  19
HETATM   19  C   UNK A   1      -8.645  12.479  67.403  1.00  0.00    -0.187 C  
BRANCH  19  20
HETATM   20  C   UNK A   1      -9.439  11.839  66.251  1.00  0.00    -0.238 C  
BRANCH  20  21
HETATM   21  C   UNK A   1     -10.401  12.783  65.567  1.00  0.00    -0.301 A  
HETATM   22  C   UNK A   1     -12.095  14.586  64.235  1.00  0.00    -0.448 A  
HETATM   23  C   UNK A   1     -10.412  14.140  65.912  1.00  0.00    -0.313 A  
HETATM   24  C   UNK A   1     -11.254  15.038  65.249  1.00  0.00    -0.368 A  
HETATM   25  C   UNK A   1     -12.098  13.238  63.887  1.00  0.00    -0.531 A  
HETATM   26  C   UNK A   1     -11.255  12.337  64.544  1.00  0.00    -0.378 A  
ENDBRANCH  20  21
ENDBRANCH  19  20
ENDBRANCH  15  19
ENDBRANCH  13  15
ENDBRANCH   1  13
TORSDOF 6
ENDMDL
MODEL      190
REMARK 921   NORMALIZED FREE ENERGY PREDICTED BY IDOCK:   -3.67 KCAL/MOL
REMARK 922        TOTAL FREE ENERGY PREDICTED BY IDOCK:   -6.67 KCAL/MOL
REMARK 923 INTER-LIGAND FREE ENERGY PREDICTED BY IDOCK:   -6.05 KCAL/MOL
REMARK 924 INTRA-LIGAND FREE ENERGY PREDICTED BY IDOCK:   -0.62 KCAL/MOL
REMARK 927      BINDING AFFINITY PREDICTED BY RF-SCORE:    0.00 PKD
ROOT
HETATM    1  C   UNK A   1      -9.560  17.506  67.842  1.00  0.00    -0.277 C  
HETATM    2  C   UNK A   1     -10.603  17.701  66.744  1.00  0.00    -0.224 C  
ENDROOT
BRANCH   1   3
HETATM    3  C   UNK A   1      -8.962  18.887  68.231  1.00  0.00    -0.328 C  
ATOM      4  CA  PRO A   2      -6.954  18.511  66.685  1.00  0.00    -0.204 C  
ATOM      5  N   PRO A   2      -7.703  19.210  67.747  1.00  0.00    -0.257 N  
ATOM      6  C   PRO A   2      -6.096  17.362  67.236  1.00  0.00    -0.139 C  
HETATM    7  O   UNK A   1      -9.579  19.655  68.976  1.00  0.00    -0.383 OA 
ATOM      8  CB  PRO A   2      -6.046  19.583  66.068  1.00  0.00    -0.194 C  
ATOM      9  O   PRO A   2      -6.159  17.226  68.581  1.00  0.00    -0.156 OA 
ATOM     10  CD  PRO A   2      -7.106  20.512  68.006  1.00  0.00    -0.238 C  
ATOM     11  OXT PRO A   2      -5.414  16.633  66.533  1.00  0.00    -0.348 OA 
ATOM     12  CG  PRO A   2      -6.519  20.906  66.665  1.00  0.00    -0.347 C  
ENDBRANCH   1   3
BRANCH   1  13
HETATM   13  N   UNK A   1     -10.131  16.901  69.071  1.00  0.00    -0.286 NA 
HETATM   14  H   UNK A   1     -10.716  17.582  69.556  1.00  0.00     0.000 HD 
BRANCH  13  15
HETATM   15  C   UNK A   1     -10.891  15.625  68.867  1.00  0.00    -0.252 C  
HETATM   16  O   UNK A   1     -12.847  14.734  70.073  1.00  0.00    -0.221 OA 
HETATM   17  O   UNK A   1     -11.648  16.393  71.035  1.00  0.00    -0.380 OA 
HETATM   18  C   UNK A   1     -11.906  15.511  70.034  1.00  0.00    -0.359 C  
BRANCH  15  19
HETATM   19  C   UNK A   1      -9.994  14.367  68.821  1.00  0.00    -0.223 C  
BRANCH  19  20
HETATM   20  C   UNK A   1      -8.966  14.398  67.677  1.00  0.00    -0.192 C  
BRANCH  20  21
HETATM   21  C   UNK A   1      -8.628  13.037  67.114  1.00  0.00    -0.195 A  
HETATM   22  C   UNK A   1      -7.989  10.465  66.181  1.00  0.00    -0.138 A  
HETATM   23  C   UNK A   1      -7.320  12.548  67.208  1.00  0.00    -0.113 A  
HETATM   24  C   UNK A   1      -7.001  11.269  66.745  1.00  0.00    -0.141 A  
HETATM   25  C   UNK A   1      -9.293  10.942  66.076  1.00  0.00    -0.215 A  
HETATM   26  C   UNK A   1      -9.617  12.220  66.541  1.00  0.00    -0.242 A  
ENDBRANCH  20  21
ENDBRANCH  19  20
ENDBRANCH  15  19
ENDBRANCH  13  15
ENDBRANCH   1  13
TORSDOF 6
ENDMDL
MODEL      191
REMARK 921   NORMALIZED FREE ENERGY PREDICTED BY IDOCK:   -3.67 KCAL/MOL
REMARK 922        TOTAL FREE ENERGY PREDICTED BY IDOCK:   -6.67 KCAL/MOL
REMARK 923 INTER-LIGAND FREE ENERGY PREDICTED BY IDOCK:   -5.10 KCAL/MOL
REMARK 924 INTRA-LIGAND FREE ENERGY PREDICTED BY IDOCK:   -1.57 KCAL/MOL
REMARK 927      BINDING AFFINITY PREDICTED BY RF-SCORE:    0.00 PKD
ROOT
HETATM    1  C   UNK A   1      -9.837   7.778  68.269  1.00  0.00    -0.167 C  
HETATM    2  C   UNK A   1     -10.816   8.074  67.137  1.00  0.00    -0.150 C  
ENDROOT
BRANCH   1   3
HETATM    3  C   UNK A   1     -10.442   6.687  69.196  1.00  0.00    -0.219 C  
ATOM      4  CA  PRO A   2      -9.837   8.049  71.280  1.00  0.00    -0.163 C  
ATOM      5  N   PRO A   2     -10.286   6.838  70.566  1.00  0.00    -0.191 N  
ATOM      6  C   PRO A   2      -8.308   8.109  71.422  1.00  0.00    -0.122 C  
HETATM    7  O   UNK A   1     -11.013   5.701  68.721  1.00  0.00    -0.216 OA 
ATOM      8  CB  PRO A   2     -10.481   7.952  72.669  1.00  0.00    -0.384 C  
ATOM      9  O   PRO A   2      -7.666   7.038  70.903  1.00  0.00    -0.092 OA 
ATOM     10  CD  PRO A   2     -10.885   5.899  71.503  1.00  0.00    -0.266 C  
ATOM     11  OXT PRO A   2      -7.718   9.035  71.957  1.00  0.00    -0.348 OA 
ATOM     12  CG  PRO A   2     -11.471   6.794  72.576  1.00  0.00    -0.270 C  
ENDBRANCH   1   3
BRANCH   1  13
HETATM   13  N   UNK A   1      -8.530   7.275  67.777  1.00  0.00    -0.121 NA 
HETATM   14  H   UNK A   1      -8.334   6.359  68.181  1.00  0.00     0.000 HD 
BRANCH  13  15
HETATM   15  C   UNK A   1      -8.380   7.222  66.286  1.00  0.00    -0.129 C  
HETATM   16  O   UNK A   1      -8.274   5.281  64.772  1.00  0.00    -0.117 OA 
HETATM   17  O   UNK A   1      -7.925   4.948  66.981  1.00  0.00    -0.102 OA 
HETATM   18  C   UNK A   1      -8.191   5.732  65.904  1.00  0.00    -0.121 C  
BRANCH  15  19
HETATM   19  C   UNK A   1      -7.198   8.062  65.750  1.00  0.00    -0.071 C  
BRANCH  19  20
HETATM   20  C   UNK A   1      -7.378   9.573  65.974  1.00  0.00    -0.097 C  
BRANCH  20  21
HETATM   21  C   UNK A   1      -8.475  10.193  65.140  1.00  0.00    -0.167 A  
HETATM   22  C   UNK A   1     -10.567  11.239  63.582  1.00  0.00    -0.453 A  
HETATM   23  C   UNK A   1      -8.549   9.921  63.769  1.00  0.00    -0.205 A  
HETATM   24  C   UNK A   1      -9.590  10.439  62.993  1.00  0.00    -0.341 A  
HETATM   25  C   UNK A   1     -10.501  11.523  64.943  1.00  0.00    -0.345 A  
HETATM   26  C   UNK A   1      -9.464  11.003  65.724  1.00  0.00    -0.242 A  
ENDBRANCH  20  21
ENDBRANCH  19  20
ENDBRANCH  15  19
ENDBRANCH  13  15
ENDBRANCH   1  13
TORSDOF 6
ENDMDL
MODEL      192
REMARK 921   NORMALIZED FREE ENERGY PREDICTED BY IDOCK:   -3.65 KCAL/MOL
REMARK 922        TOTAL FREE ENERGY PREDICTED BY IDOCK:   -6.65 KCAL/MOL
REMARK 923 INTER-LIGAND FREE ENERGY PREDICTED BY IDOCK:   -6.65 KCAL/MOL
REMARK 924 INTRA-LIGAND FREE ENERGY PREDICTED BY IDOCK:    0.00 KCAL/MOL
REMARK 927      BINDING AFFINITY PREDICTED BY RF-SCORE:    0.00 PKD
ROOT
HETATM    1  C   UNK A   1      -9.203  11.323  66.701  1.00  0.00    -0.180 C  
HETATM    2  C   UNK A   1      -9.854  10.906  65.385  1.00  0.00    -0.308 C  
ENDROOT
BRANCH   1   3
HETATM    3  C   UNK A   1      -7.665  11.118  66.599  1.00  0.00    -0.155 C  
ATOM      4  CA  PRO A   2      -7.991   8.737  65.711  1.00  0.00    -0.105 C  
ATOM      5  N   PRO A   2      -7.199   9.858  66.253  1.00  0.00    -0.098 N  
ATOM      6  C   PRO A   2      -8.594   7.859  66.818  1.00  0.00    -0.131 C  
HETATM    7  O   UNK A   1      -6.887  12.042  66.852  1.00  0.00    -0.125 OA 
ATOM      8  CB  PRO A   2      -6.996   7.913  64.882  1.00  0.00    -0.059 C  
ATOM      9  O   PRO A   2      -8.265   8.251  68.070  1.00  0.00    -0.125 OA 
ATOM     10  CD  PRO A   2      -5.779   9.603  66.066  1.00  0.00    -0.056 C  
ATOM     11  OXT PRO A   2      -9.305   6.891  66.597  1.00  0.00    -0.154 OA 
ATOM     12  CG  PRO A   2      -5.732   8.764  64.804  1.00  0.00    -0.062 C  
ENDBRANCH   1   3
BRANCH   1  13
HETATM   13  N   UNK A   1      -9.444  12.750  67.031  1.00  0.00    -0.225 NA 
HETATM   14  H   UNK A   1      -9.118  13.344  66.268  1.00  0.00     0.000 HD 
BRANCH  13  15
HETATM   15  C   UNK A   1     -10.859  13.098  67.385  1.00  0.00    -0.255 C  
HETATM   16  O   UNK A   1     -12.596  14.225  66.050  1.00  0.00    -0.447 OA 
HETATM   17  O   UNK A   1     -10.442  14.396  65.384  1.00  0.00    -0.326 OA 
HETATM   18  C   UNK A   1     -11.417  13.959  66.223  1.00  0.00    -0.339 C  
BRANCH  15  19
HETATM   19  C   UNK A   1     -10.995  13.861  68.723  1.00  0.00    -0.286 C  
BRANCH  19  20
HETATM   20  C   UNK A   1     -12.312  13.560  69.459  1.00  0.00    -0.198 C  
BRANCH  20  21
HETATM   21  C   UNK A   1     -12.570  14.454  70.650  1.00  0.00    -0.424 A  
HETATM   22  C   UNK A   1     -13.057  16.018  72.934  1.00  0.00    -0.548 A  
HETATM   23  C   UNK A   1     -13.843  14.493  71.231  1.00  0.00    -0.381 A  
HETATM   24  C   UNK A   1     -14.086  15.269  72.368  1.00  0.00    -0.622 A  
HETATM   25  C   UNK A   1     -11.787  15.993  72.361  1.00  0.00    -0.639 A  
HETATM   26  C   UNK A   1     -11.539  15.215  71.227  1.00  0.00    -0.406 A  
ENDBRANCH  20  21
ENDBRANCH  19  20
ENDBRANCH  15  19
ENDBRANCH  13  15
ENDBRANCH   1  13
TORSDOF 6
ENDMDL
MODEL      193
REMARK 921   NORMALIZED FREE ENERGY PREDICTED BY IDOCK:   -3.65 KCAL/MOL
REMARK 922        TOTAL FREE ENERGY PREDICTED BY IDOCK:   -6.64 KCAL/MOL
REMARK 923 INTER-LIGAND FREE ENERGY PREDICTED BY IDOCK:   -6.28 KCAL/MOL
REMARK 924 INTRA-LIGAND FREE ENERGY PREDICTED BY IDOCK:   -0.36 KCAL/MOL
REMARK 927      BINDING AFFINITY PREDICTED BY RF-SCORE:    0.00 PKD
ROOT
HETATM    1  C   UNK A   1      -8.867  11.267  65.837  1.00  0.00    -0.169 C  
HETATM    2  C   UNK A   1      -8.852  12.085  67.125  1.00  0.00    -0.188 C  
ENDROOT
BRANCH   1   3
HETATM    3  C   UNK A   1      -9.364   9.828  66.151  1.00  0.00    -0.191 C  
ATOM      4  CA  PRO A   2      -7.494   8.816  64.722  1.00  0.00    -0.100 C  
ATOM      5  N   PRO A   2      -8.750   8.771  65.496  1.00  0.00    -0.176 N  
ATOM      6  C   PRO A   2      -7.731   9.173  63.247  1.00  0.00    -0.115 C  
HETATM    7  O   UNK A   1     -10.300   9.640  66.934  1.00  0.00    -0.239 OA 
ATOM      8  CB  PRO A   2      -6.915   7.398  64.823  1.00  0.00    -0.051 C  
ATOM      9  O   PRO A   2      -9.034   9.346  62.926  1.00  0.00    -0.242 OA 
ATOM     10  CD  PRO A   2      -9.107   7.391  65.789  1.00  0.00     0.041 C  
ATOM     11  OXT PRO A   2      -6.832   9.290  62.429  1.00  0.00    -0.093 OA 
ATOM     12  CG  PRO A   2      -7.767   6.687  65.870  1.00  0.00    -0.091 C  
ENDBRANCH   1   3
BRANCH   1  13
HETATM   13  N   UNK A   1      -9.770  11.840  64.808  1.00  0.00    -0.378 NA 
HETATM   14  H   UNK A   1     -10.002  11.130  64.113  1.00  0.00     0.000 HD 
BRANCH  13  15
HETATM   15  C   UNK A   1     -11.023  12.475  65.331  1.00  0.00    -0.294 C  
HETATM   16  O   UNK A   1     -13.324  12.403  64.451  1.00  0.00    -0.789 OA 
HETATM   17  O   UNK A   1     -11.625  11.807  63.083  1.00  0.00    -0.294 OA 
HETATM   18  C   UNK A   1     -12.127  12.238  64.269  1.00  0.00    -0.412 C  
BRANCH  15  19
HETATM   19  C   UNK A   1     -10.880  13.987  65.620  1.00  0.00    -0.295 C  
BRANCH  19  20
HETATM   20  C   UNK A   1     -11.961  14.526  66.572  1.00  0.00    -0.358 C  
BRANCH  20  21
HETATM   21  C   UNK A   1     -11.975  13.861  67.929  1.00  0.00    -0.393 A  
HETATM   22  C   UNK A   1     -12.114  12.662  70.467  1.00  0.00    -0.360 A  
HETATM   23  C   UNK A   1     -11.942  14.641  69.090  1.00  0.00    -0.329 A  
HETATM   24  C   UNK A   1     -12.012  14.047  70.353  1.00  0.00    -0.398 A  
HETATM   25  C   UNK A   1     -12.142  11.873  69.320  1.00  0.00    -0.270 A  
HETATM   26  C   UNK A   1     -12.075  12.464  68.055  1.00  0.00    -0.091 A  
ENDBRANCH  20  21
ENDBRANCH  19  20
ENDBRANCH  15  19
ENDBRANCH  13  15
ENDBRANCH   1  13
TORSDOF 6
ENDMDL
MODEL      194
REMARK 921   NORMALIZED FREE ENERGY PREDICTED BY IDOCK:   -3.64 KCAL/MOL
REMARK 922        TOTAL FREE ENERGY PREDICTED BY IDOCK:   -6.63 KCAL/MOL
REMARK 923 INTER-LIGAND FREE ENERGY PREDICTED BY IDOCK:   -5.36 KCAL/MOL
REMARK 924 INTRA-LIGAND FREE ENERGY PREDICTED BY IDOCK:   -1.27 KCAL/MOL
REMARK 927      BINDING AFFINITY PREDICTED BY RF-SCORE:    0.00 PKD
ROOT
HETATM    1  C   UNK A   1      -9.093   8.959  66.004  1.00  0.00    -0.214 C  
HETATM    2  C   UNK A   1      -9.094   9.960  64.852  1.00  0.00    -0.271 C  
ENDROOT
BRANCH   1   3
HETATM    3  C   UNK A   1      -8.472   7.620  65.518  1.00  0.00    -0.120 C  
ATOM      4  CA  PRO A   2     -10.294   6.279  66.720  1.00  0.00    -0.221 C  
ATOM      5  N   PRO A   2      -9.017   6.438  65.998  1.00  0.00    -0.152 N  
ATOM      6  C   PRO A   2     -10.130   6.445  68.239  1.00  0.00    -0.153 C  
HETATM    7  O   UNK A   1      -7.502   7.614  64.754  1.00  0.00    -0.081 OA 
ATOM      8  CB  PRO A   2     -10.754   4.849  66.404  1.00  0.00    -0.170 C  
ATOM      9  O   PRO A   2      -8.855   6.671  68.632  1.00  0.00    -0.124 OA 
ATOM     10  CD  PRO A   2      -8.541   5.144  65.534  1.00  0.00    -0.143 C  
ATOM     11  OXT PRO A   2     -11.059   6.379  69.028  1.00  0.00    -0.327 OA 
ATOM     12  CG  PRO A   2      -9.816   4.357  65.305  1.00  0.00    -0.209 C  
ENDBRANCH   1   3
BRANCH   1  13
HETATM   13  N   UNK A   1      -8.298   9.427  67.167  1.00  0.00    -0.123 NA 
HETATM   14  H   UNK A   1      -7.461   9.913  66.844  1.00  0.00     0.000 HD 
BRANCH  13  15
HETATM   15  C   UNK A   1      -9.039  10.279  68.153  1.00  0.00    -0.136 C  
HETATM   16  O   UNK A   1      -9.167  12.732  68.349  1.00  0.00    -0.198 OA 
HETATM   17  O   UNK A   1      -7.506  11.833  67.106  1.00  0.00    -0.135 OA 
HETATM   18  C   UNK A   1      -8.604  11.745  67.902  1.00  0.00    -0.156 C  
BRANCH  15  19
HETATM   19  C   UNK A   1      -8.779   9.893  69.627  1.00  0.00    -0.218 C  
BRANCH  19  20
HETATM   20  C   UNK A   1     -10.063   9.829  70.472  1.00  0.00    -0.289 C  
BRANCH  20  21
HETATM   21  C   UNK A   1      -9.982   8.882  71.647  1.00  0.00    -0.397 A  
HETATM   22  C   UNK A   1      -9.815   7.216  73.904  1.00  0.00    -0.346 A  
HETATM   23  C   UNK A   1      -8.755   8.666  72.286  1.00  0.00    -0.193 A  
HETATM   24  C   UNK A   1      -8.671   7.839  73.410  1.00  0.00    -0.283 A  
HETATM   25  C   UNK A   1     -11.040   7.417  73.273  1.00  0.00    -0.303 A  
HETATM   26  C   UNK A   1     -11.129   8.247  72.151  1.00  0.00    -0.397 A  
ENDBRANCH  20  21
ENDBRANCH  19  20
ENDBRANCH  15  19
ENDBRANCH  13  15
ENDBRANCH   1  13
TORSDOF 6
ENDMDL
MODEL      195
REMARK 921   NORMALIZED FREE ENERGY PREDICTED BY IDOCK:   -3.62 KCAL/MOL
REMARK 922        TOTAL FREE ENERGY PREDICTED BY IDOCK:   -6.60 KCAL/MOL
REMARK 923 INTER-LIGAND FREE ENERGY PREDICTED BY IDOCK:   -5.59 KCAL/MOL
REMARK 924 INTRA-LIGAND FREE ENERGY PREDICTED BY IDOCK:   -1.02 KCAL/MOL
REMARK 927      BINDING AFFINITY PREDICTED BY RF-SCORE:    0.00 PKD
ROOT
HETATM    1  C   UNK A   1     -10.772   8.432  68.810  1.00  0.00    -0.051 C  
HETATM    2  C   UNK A   1     -10.127   7.788  67.586  1.00  0.00    -0.254 C  
ENDROOT
BRANCH   1   3
HETATM    3  C   UNK A   1      -9.698   8.615  69.918  1.00  0.00    -0.173 C  
ATOM      4  CA  PRO A   2     -11.379   7.937  71.730  1.00  0.00    -0.264 C  
ATOM      5  N   PRO A   2     -10.099   8.486  71.240  1.00  0.00    -0.205 N  
ATOM      6  C   PRO A   2     -12.472   9.011  71.837  1.00  0.00    -0.384 C  
HETATM    7  O   UNK A   1      -8.532   8.898  69.627  1.00  0.00    -0.121 OA 
ATOM      8  CB  PRO A   2     -11.063   7.381  73.125  1.00  0.00    -0.357 C  
ATOM      9  O   PRO A   2     -12.056  10.253  71.498  1.00  0.00    -0.370 OA 
ATOM     10  CD  PRO A   2      -9.141   8.571  72.332  1.00  0.00    -0.238 C  
ATOM     11  OXT PRO A   2     -13.614   8.776  72.197  1.00  0.00    -0.382 OA 
ATOM     12  CG  PRO A   2      -9.542   7.430  73.245  1.00  0.00    -0.281 C  
ENDBRANCH   1   3
BRANCH   1  13
HETATM   13  N   UNK A   1     -11.347   9.768  68.516  1.00  0.00    -0.508 NA 
HETATM   14  H   UNK A   1     -11.797  10.146  69.350  1.00  0.00     0.000 HD 
BRANCH  13  15
HETATM   15  C   UNK A   1     -10.387  10.772  67.951  1.00  0.00    -0.185 C  
HETATM   16  O   UNK A   1     -10.100  13.162  68.478  1.00  0.00    -0.238 OA 
HETATM   17  O   UNK A   1     -12.013  12.138  69.115  1.00  0.00    -0.299 OA 
HETATM   18  C   UNK A   1     -10.788  12.155  68.526  1.00  0.00    -0.236 C  
BRANCH  15  19
HETATM   19  C   UNK A   1     -10.378  10.823  66.406  1.00  0.00    -0.306 C  
BRANCH  19  20
HETATM   20  C   UNK A   1      -9.142  11.535  65.831  1.00  0.00    -0.186 C  
BRANCH  20  21
HETATM   21  C   UNK A   1      -7.832  11.070  66.423  1.00  0.00    -0.150 A  
HETATM   22  C   UNK A   1      -5.446  10.209  67.633  1.00  0.00    -0.041 A  
HETATM   23  C   UNK A   1      -7.045  11.960  67.162  1.00  0.00    -0.142 A  
HETATM   24  C   UNK A   1      -5.859  11.533  67.766  1.00  0.00    -0.049 A  
HETATM   25  C   UNK A   1      -6.217   9.315  66.895  1.00  0.00    -0.065 A  
HETATM   26  C   UNK A   1      -7.406   9.737  66.293  1.00  0.00    -0.099 A  
ENDBRANCH  20  21
ENDBRANCH  19  20
ENDBRANCH  15  19
ENDBRANCH  13  15
ENDBRANCH   1  13
TORSDOF 6
ENDMDL
MODEL      196
REMARK 921   NORMALIZED FREE ENERGY PREDICTED BY IDOCK:   -3.60 KCAL/MOL
REMARK 922        TOTAL FREE ENERGY PREDICTED BY IDOCK:   -6.58 KCAL/MOL
REMARK 923 INTER-LIGAND FREE ENERGY PREDICTED BY IDOCK:   -5.91 KCAL/MOL
REMARK 924 INTRA-LIGAND FREE ENERGY PREDICTED BY IDOCK:   -0.67 KCAL/MOL
REMARK 927      BINDING AFFINITY PREDICTED BY RF-SCORE:    0.00 PKD
ROOT
HETATM    1  C   UNK A   1     -10.677  12.330  67.154  1.00  0.00    -0.233 C  
HETATM    2  C   UNK A   1     -11.606  12.649  65.986  1.00  0.00    -0.443 C  
ENDROOT
BRANCH   1   3
HETATM    3  C   UNK A   1     -11.004  13.279  68.341  1.00  0.00    -0.264 C  
ATOM      4  CA  PRO A   2      -9.160  14.903  67.618  1.00  0.00    -0.183 C  
ATOM      5  N   PRO A   2     -10.176  14.372  68.548  1.00  0.00    -0.238 N  
ATOM      6  C   PRO A   2      -7.790  14.234  67.806  1.00  0.00    -0.165 C  
HETATM    7  O   UNK A   1     -11.954  13.043  69.095  1.00  0.00    -0.303 OA 
ATOM      8  CB  PRO A   2      -9.056  16.397  67.956  1.00  0.00    -0.200 C  
ATOM      9  O   PRO A   2      -7.759  13.316  68.799  1.00  0.00    -0.111 OA 
ATOM     10  CD  PRO A   2     -10.457  15.346  69.591  1.00  0.00    -0.280 C  
ATOM     11  OXT PRO A   2      -6.811  14.502  67.128  1.00  0.00    -0.205 OA 
ATOM     12  CG  PRO A   2     -10.215  16.678  68.908  1.00  0.00    -0.284 C  
ENDBRANCH   1   3
BRANCH   1  13
HETATM   13  N   UNK A   1     -10.827  10.936  67.639  1.00  0.00    -0.245 NA 
HETATM   14  H   UNK A   1     -10.743  10.284  66.858  1.00  0.00     0.000 HD 
BRANCH  13  15
HETATM   15  C   UNK A   1      -9.897  10.535  68.744  1.00  0.00    -0.186 C  
HETATM   16  O   UNK A   1      -8.050   8.904  68.750  1.00  0.00    -0.110 OA 
HETATM   17  O   UNK A   1      -9.570   8.809  67.078  1.00  0.00    -0.156 OA 
HETATM   18  C   UNK A   1      -9.061   9.338  68.221  1.00  0.00    -0.128 C  
BRANCH  15  19
HETATM   19  C   UNK A   1     -10.619  10.145  70.054  1.00  0.00    -0.338 C  
BRANCH  19  20
HETATM   20  C   UNK A   1     -11.031   8.663  70.100  1.00  0.00    -0.234 C  
BRANCH  20  21
HETATM   21  C   UNK A   1     -10.753   7.987  71.423  1.00  0.00    -0.270 A  
HETATM   22  C   UNK A   1     -10.302   6.815  73.937  1.00  0.00    -0.397 A  
HETATM   23  C   UNK A   1      -9.882   8.583  72.343  1.00  0.00    -0.358 A  
HETATM   24  C   UNK A   1      -9.658   8.002  73.594  1.00  0.00    -0.066 A  
HETATM   25  C   UNK A   1     -11.167   6.209  73.029  1.00  0.00    -0.206 A  
HETATM   26  C   UNK A   1     -11.396   6.789  71.778  1.00  0.00    -0.307 A  
ENDBRANCH  20  21
ENDBRANCH  19  20
ENDBRANCH  15  19
ENDBRANCH  13  15
ENDBRANCH   1  13
TORSDOF 6
ENDMDL
MODEL      197
REMARK 921   NORMALIZED FREE ENERGY PREDICTED BY IDOCK:   -3.60 KCAL/MOL
REMARK 922        TOTAL FREE ENERGY PREDICTED BY IDOCK:   -6.57 KCAL/MOL
REMARK 923 INTER-LIGAND FREE ENERGY PREDICTED BY IDOCK:   -5.55 KCAL/MOL
REMARK 924 INTRA-LIGAND FREE ENERGY PREDICTED BY IDOCK:   -1.02 KCAL/MOL
REMARK 927      BINDING AFFINITY PREDICTED BY RF-SCORE:    0.00 PKD
ROOT
HETATM    1  C   UNK A   1     -10.117   9.263  69.442  1.00  0.00    -0.197 C  
HETATM    2  C   UNK A   1      -8.845  10.107  69.456  1.00  0.00    -0.198 C  
ENDROOT
BRANCH   1   3
HETATM    3  C   UNK A   1     -10.546   8.961  70.905  1.00  0.00    -0.233 C  
ATOM      4  CA  PRO A   2      -9.355   6.694  70.841  1.00  0.00    -0.157 C  
ATOM      5  N   PRO A   2     -10.258   7.706  71.422  1.00  0.00    -0.186 N  
ATOM      6  C   PRO A   2     -10.076   5.767  69.851  1.00  0.00    -0.209 C  
HETATM    7  O   UNK A   1     -11.156   9.804  71.571  1.00  0.00    -0.343 OA 
ATOM      8  CB  PRO A   2      -8.852   5.878  72.039  1.00  0.00    -0.137 C  
ATOM      9  O   PRO A   2     -11.398   6.026  69.720  1.00  0.00    -0.409 OA 
ATOM     10  CD  PRO A   2     -10.562   7.371  72.805  1.00  0.00    -0.297 C  
ATOM     11  OXT PRO A   2      -9.517   4.874  69.235  1.00  0.00    -0.118 OA 
ATOM     12  CG  PRO A   2      -9.318   6.643  73.275  1.00  0.00    -0.150 C  
ENDBRANCH   1   3
BRANCH   1  13
HETATM   13  N   UNK A   1     -11.250   9.949  68.774  1.00  0.00    -0.457 NA 
HETATM   14  H   UNK A   1     -12.066   9.953  69.386  1.00  0.00     0.000 HD 
BRANCH  13  15
HETATM   15  C   UNK A   1     -10.966  11.339  68.288  1.00  0.00    -0.224 C  
HETATM   16  O   UNK A   1     -11.939  13.493  68.985  1.00  0.00    -0.327 OA 
HETATM   17  O   UNK A   1     -13.026  11.587  69.535  1.00  0.00     0.250 OA 
HETATM   18  C   UNK A   1     -12.005  12.274  68.957  1.00  0.00    -0.248 C  
BRANCH  15  19
HETATM   19  C   UNK A   1     -11.033  11.486  66.750  1.00  0.00    -0.347 C  
BRANCH  19  20
HETATM   20  C   UNK A   1      -9.709  11.967  66.130  1.00  0.00    -0.251 C  
BRANCH  20  21
HETATM   21  C   UNK A   1      -9.267  13.332  66.603  1.00  0.00    -0.222 A  
HETATM   22  C   UNK A   1      -8.560  15.897  67.507  1.00  0.00    -0.181 A  
HETATM   23  C   UNK A   1      -9.547  14.464  65.829  1.00  0.00    -0.216 A  
HETATM   24  C   UNK A   1      -9.197  15.740  66.278  1.00  0.00    -0.368 A  
HETATM   25  C   UNK A   1      -8.269  14.778  68.284  1.00  0.00    -0.142 A  
HETATM   26  C   UNK A   1      -8.621  13.500  67.840  1.00  0.00    -0.182 A  
ENDBRANCH  20  21
ENDBRANCH  19  20
ENDBRANCH  15  19
ENDBRANCH  13  15
ENDBRANCH   1  13
TORSDOF 6
ENDMDL
MODEL      198
REMARK 921   NORMALIZED FREE ENERGY PREDICTED BY IDOCK:   -3.59 KCAL/MOL
REMARK 922        TOTAL FREE ENERGY PREDICTED BY IDOCK:   -6.56 KCAL/MOL
REMARK 923 INTER-LIGAND FREE ENERGY PREDICTED BY IDOCK:   -5.81 KCAL/MOL
REMARK 924 INTRA-LIGAND FREE ENERGY PREDICTED BY IDOCK:   -0.76 KCAL/MOL
REMARK 927      BINDING AFFINITY PREDICTED BY RF-SCORE:    0.00 PKD
ROOT
HETATM    1  C   UNK A   1     -10.915  13.602  66.015  1.00  0.00    -0.286 C  
HETATM    2  C   UNK A   1     -11.860  13.172  64.896  1.00  0.00    -0.399 C  
ENDROOT
BRANCH   1   3
HETATM    3  C   UNK A   1     -11.554  13.249  67.387  1.00  0.00    -0.353 C  
ATOM      4  CA  PRO A   2     -10.840  15.510  68.359  1.00  0.00    -0.273 C  
ATOM      5  N   PRO A   2     -11.363  14.132  68.440  1.00  0.00    -0.271 N  
ATOM      6  C   PRO A   2      -9.308  15.560  68.458  1.00  0.00    -0.197 C  
HETATM    7  O   UNK A   1     -12.183  12.197  67.539  1.00  0.00    -0.474 OA 
ATOM      8  CB  PRO A   2     -11.460  16.240  69.557  1.00  0.00    -0.231 C  
ATOM      9  O   PRO A   2      -8.729  14.350  68.634  1.00  0.00    -0.177 OA 
ATOM     10  CD  PRO A   2     -11.988  13.910  69.735  1.00  0.00    -0.338 C  
ATOM     11  OXT PRO A   2      -8.662  16.594  68.390  1.00  0.00    -0.208 OA 
ATOM     12  CG  PRO A   2     -12.507  15.282  70.118  1.00  0.00    -0.374 C  
ENDBRANCH   1   3
BRANCH   1  13
HETATM   13  N   UNK A   1      -9.599  12.921  65.943  1.00  0.00    -0.435 NA 
HETATM   14  H   UNK A   1      -8.893  13.474  66.430  1.00  0.00     0.000 HD 
BRANCH  13  15
HETATM   15  C   UNK A   1      -9.577  11.507  66.441  1.00  0.00    -0.209 C  
HETATM   16  O   UNK A   1      -7.831  10.290  67.683  1.00  0.00    -0.098 OA 
HETATM   17  O   UNK A   1      -7.265  12.204  66.620  1.00  0.00     0.023 OA 
HETATM   18  C   UNK A   1      -8.151  11.242  66.989  1.00  0.00    -0.149 C  
BRANCH  15  19
HETATM   19  C   UNK A   1      -9.932  10.461  65.359  1.00  0.00    -0.362 C  
BRANCH  19  20
HETATM   20  C   UNK A   1      -8.831  10.288  64.300  1.00  0.00    -0.234 C  
BRANCH  20  21
HETATM   21  C   UNK A   1      -8.372   8.861  64.115  1.00  0.00    -0.168 A  
HETATM   22  C   UNK A   1      -7.407   6.247  63.751  1.00  0.00    -0.069 A  
HETATM   23  C   UNK A   1      -8.037   8.394  62.838  1.00  0.00    -0.170 A  
HETATM   24  C   UNK A   1      -7.556   7.095  62.656  1.00  0.00    -0.105 A  
HETATM   25  C   UNK A   1      -7.742   6.696  65.025  1.00  0.00    -0.103 A  
HETATM   26  C   UNK A   1      -8.221   7.996  65.212  1.00  0.00    -0.148 A  
ENDBRANCH  20  21
ENDBRANCH  19  20
ENDBRANCH  15  19
ENDBRANCH  13  15
ENDBRANCH   1  13
TORSDOF 6
ENDMDL
MODEL      199
REMARK 921   NORMALIZED FREE ENERGY PREDICTED BY IDOCK:   -3.58 KCAL/MOL
REMARK 922        TOTAL FREE ENERGY PREDICTED BY IDOCK:   -6.55 KCAL/MOL
REMARK 923 INTER-LIGAND FREE ENERGY PREDICTED BY IDOCK:   -5.51 KCAL/MOL
REMARK 924 INTRA-LIGAND FREE ENERGY PREDICTED BY IDOCK:   -1.04 KCAL/MOL
REMARK 927      BINDING AFFINITY PREDICTED BY RF-SCORE:    0.00 PKD
ROOT
HETATM    1  C   UNK A   1      -7.798   6.953  68.340  1.00  0.00    -0.121 C  
HETATM    2  C   UNK A   1      -7.196   5.560  68.502  1.00  0.00    -0.074 C  
ENDROOT
BRANCH   1   3
HETATM    3  C   UNK A   1      -8.334   7.113  66.890  1.00  0.00    -0.118 C  
ATOM      4  CA  PRO A   2      -7.422   9.504  66.762  1.00  0.00    -0.094 C  
ATOM      5  N   PRO A   2      -8.225   8.359  66.290  1.00  0.00    -0.107 N  
ATOM      6  C   PRO A   2      -8.198  10.398  67.740  1.00  0.00    -0.110 C  
HETATM    7  O   UNK A   1      -8.871   6.166  66.307  1.00  0.00    -0.137 OA 
ATOM      8  CB  PRO A   2      -7.082  10.299  65.494  1.00  0.00    -0.142 C  
ATOM      9  O   PRO A   2      -9.470   9.995  67.961  1.00  0.00    -0.137 OA 
ATOM     10  CD  PRO A   2      -8.636   8.572  64.911  1.00  0.00    -0.108 C  
ATOM     11  OXT PRO A   2      -7.719  11.387  68.274  1.00  0.00    -0.109 OA 
ATOM     12  CG  PRO A   2      -7.514   9.410  64.331  1.00  0.00    -0.110 C  
ENDBRANCH   1   3
BRANCH   1  13
HETATM   13  N   UNK A   1      -8.931   7.197  69.268  1.00  0.00    -0.139 NA 
HETATM   14  H   UNK A   1      -9.815   7.002  68.798  1.00  0.00     0.000 HD 
BRANCH  13  15
HETATM   15  C   UNK A   1      -8.867   6.456  70.570  1.00  0.00    -0.144 C  
HETATM   16  O   UNK A   1     -10.025   4.401  71.283  1.00  0.00    -0.187 OA 
HETATM   17  O   UNK A   1     -10.811   5.513  69.478  1.00  0.00    -0.311 OA 
HETATM   18  C   UNK A   1      -9.944   5.343  70.510  1.00  0.00    -0.221 C  
BRANCH  15  19
HETATM   19  C   UNK A   1      -9.100   7.353  71.807  1.00  0.00    -0.143 C  
BRANCH  19  20
HETATM   20  C   UNK A   1     -10.543   7.289  72.339  1.00  0.00    -0.273 C  
BRANCH  20  21
HETATM   21  C   UNK A   1     -11.391   8.482  71.965  1.00  0.00    -0.425 A  
HETATM   22  C   UNK A   1     -12.980  10.655  71.159  1.00  0.00    -0.483 A  
HETATM   23  C   UNK A   1     -10.878   9.463  71.109  1.00  0.00    -0.427 A  
HETATM   24  C   UNK A   1     -11.668  10.544  70.706  1.00  0.00    -0.454 A  
HETATM   25  C   UNK A   1     -13.501   9.689  72.017  1.00  0.00    -0.514 A  
HETATM   26  C   UNK A   1     -12.716   8.605  72.419  1.00  0.00    -0.423 A  
ENDBRANCH  20  21
ENDBRANCH  19  20
ENDBRANCH  15  19
ENDBRANCH  13  15
ENDBRANCH   1  13
TORSDOF 6
ENDMDL
MODEL      200
REMARK 921   NORMALIZED FREE ENERGY PREDICTED BY IDOCK:   -3.58 KCAL/MOL
REMARK 922        TOTAL FREE ENERGY PREDICTED BY IDOCK:   -6.54 KCAL/MOL
REMARK 923 INTER-LIGAND FREE ENERGY PREDICTED BY IDOCK:   -5.55 KCAL/MOL
REMARK 924 INTRA-LIGAND FREE ENERGY PREDICTED BY IDOCK:   -0.99 KCAL/MOL
REMARK 927      BINDING AFFINITY PREDICTED BY RF-SCORE:    0.00 PKD
ROOT
HETATM    1  C   UNK A   1      -8.247   8.962  67.058  1.00  0.00    -0.106 C  
HETATM    2  C   UNK A   1      -7.463   9.471  68.264  1.00  0.00    -0.078 C  
ENDROOT
BRANCH   1   3
HETATM    3  C   UNK A   1      -9.633   8.441  67.532  1.00  0.00    -0.154 C  
ATOM      4  CA  PRO A   2      -8.671   6.103  67.948  1.00  0.00    -0.113 C  
ATOM      5  N   PRO A   2      -9.762   7.087  67.803  1.00  0.00    -0.133 N  
ATOM      6  C   PRO A   2      -8.273   5.471  66.606  1.00  0.00    -0.105 C  
HETATM    7  O   UNK A   1     -10.595   9.209  67.631  1.00  0.00    -0.258 OA 
ATOM      8  CB  PRO A   2      -9.233   5.023  68.881  1.00  0.00    -0.155 C  
ATOM      9  O   PRO A   2      -9.009   5.903  65.556  1.00  0.00    -0.139 OA 
ATOM     10  CD  PRO A   2     -11.005   6.535  68.320  1.00  0.00    -0.281 C  
ATOM     11  OXT PRO A   2      -7.377   4.650  66.487  1.00  0.00    -0.079 OA 
ATOM     12  CG  PRO A   2     -10.546   5.591  69.413  1.00  0.00    -0.349 C  
ENDBRANCH   1   3
BRANCH   1  13
HETATM   13  N   UNK A   1      -8.486  10.018  66.044  1.00  0.00    -0.129 NA 
HETATM   14  H   UNK A   1      -7.653  10.597  65.940  1.00  0.00     0.000 HD 
BRANCH  13  15
HETATM   15  C   UNK A   1      -8.944   9.531  64.702  1.00  0.00    -0.221 C  
HETATM   16  O   UNK A   1      -7.648   9.059  62.660  1.00  0.00    -0.106 OA 
HETATM   17  O   UNK A   1      -6.692  10.313  64.281  1.00  0.00    -0.124 OA 
HETATM   18  C   UNK A   1      -7.718   9.593  63.756  1.00  0.00    -0.130 C  
BRANCH  15  19
HETATM   19  C   UNK A   1     -10.114  10.350  64.110  1.00  0.00    -0.262 C  
BRANCH  19  20
HETATM   20  C   UNK A   1      -9.805  11.852  63.996  1.00  0.00    -0.259 C  
BRANCH  20  21
HETATM   21  C   UNK A   1     -10.603  12.719  64.942  1.00  0.00    -0.336 A  
HETATM   22  C   UNK A   1     -12.008  14.307  66.786  1.00  0.00    -0.462 A  
HETATM   23  C   UNK A   1     -11.337  12.130  65.978  1.00  0.00    -0.410 A  
HETATM   24  C   UNK A   1     -12.035  12.919  66.897  1.00  0.00    -0.402 A  
HETATM   25  C   UNK A   1     -11.287  14.905  65.756  1.00  0.00    -0.314 A  
HETATM   26  C   UNK A   1     -10.585  14.120  64.837  1.00  0.00    -0.449 A  
ENDBRANCH  20  21
ENDBRANCH  19  20
ENDBRANCH  15  19
ENDBRANCH  13  15
ENDBRANCH   1  13
TORSDOF 6
ENDMDL
MODEL      201
REMARK 921   NORMALIZED FREE ENERGY PREDICTED BY IDOCK:   -3.57 KCAL/MOL
REMARK 922        TOTAL FREE ENERGY PREDICTED BY IDOCK:   -6.53 KCAL/MOL
REMARK 923 INTER-LIGAND FREE ENERGY PREDICTED BY IDOCK:   -6.36 KCAL/MOL
REMARK 924 INTRA-LIGAND FREE ENERGY PREDICTED BY IDOCK:   -0.17 KCAL/MOL
REMARK 927      BINDING AFFINITY PREDICTED BY RF-SCORE:    0.00 PKD
ROOT
HETATM    1  C   UNK A   1     -10.590  10.390  69.100  1.00  0.00    -0.228 C  
HETATM    2  C   UNK A   1     -11.269   9.601  67.984  1.00  0.00     0.015 C  
ENDROOT
BRANCH   1   3
HETATM    3  C   UNK A   1      -9.292   9.652  69.531  1.00  0.00    -0.200 C  
ATOM      4  CA  PRO A   2     -10.584   7.464  69.863  1.00  0.00    -0.236 C  
ATOM      5  N   PRO A   2      -9.406   8.345  69.983  1.00  0.00    -0.158 N  
ATOM      6  C   PRO A   2     -11.551   7.619  71.047  1.00  0.00    -0.282 C  
HETATM    7  O   UNK A   1      -8.200  10.227  69.502  1.00  0.00    -0.158 OA 
ATOM      8  CB  PRO A   2     -10.014   6.040  69.845  1.00  0.00    -0.225 C  
ATOM      9  O   PRO A   2     -11.133   8.499  71.986  1.00  0.00    -0.295 OA 
ATOM     10  CD  PRO A   2      -8.231   7.562  70.335  1.00  0.00    -0.123 C  
ATOM     11  OXT PRO A   2     -12.602   7.006  71.143  1.00  0.00    -0.377 OA 
ATOM     12  CG  PRO A   2      -8.504   6.210  69.707  1.00  0.00    -0.128 C  
ENDBRANCH   1   3
BRANCH   1  13
HETATM   13  N   UNK A   1     -10.209  11.761  68.681  1.00  0.00    -0.257 NA 
HETATM   14  H   UNK A   1      -9.503  11.718  67.946  1.00  0.00     0.000 HD 
BRANCH  13  15
HETATM   15  C   UNK A   1     -11.344  12.642  68.251  1.00  0.00    -0.295 C  
HETATM   16  O   UNK A   1     -12.128  13.228  65.989  1.00  0.00    -0.403 OA 
HETATM   17  O   UNK A   1     -10.057  12.348  66.221  1.00  0.00    -0.231 OA 
HETATM   18  C   UNK A   1     -11.247  12.785  66.710  1.00  0.00    -0.295 C  
BRANCH  15  19
HETATM   19  C   UNK A   1     -11.334  14.038  68.915  1.00  0.00    -0.314 C  
BRANCH  19  20
HETATM   20  C   UNK A   1     -10.011  14.795  68.712  1.00  0.00    -0.234 C  
BRANCH  20  21
HETATM   21  C   UNK A   1     -10.171  16.161  68.087  1.00  0.00    -0.247 A  
HETATM   22  C   UNK A   1     -10.583  18.672  66.893  1.00  0.00    -0.437 A  
HETATM   23  C   UNK A   1     -10.230  16.289  66.694  1.00  0.00    -0.287 A  
HETATM   24  C   UNK A   1     -10.436  17.537  66.099  1.00  0.00    -0.288 A  
HETATM   25  C   UNK A   1     -10.521  18.559  68.280  1.00  0.00    -0.326 A  
HETATM   26  C   UNK A   1     -10.318  17.313  68.879  1.00  0.00    -0.352 A  
ENDBRANCH  20  21
ENDBRANCH  19  20
ENDBRANCH  15  19
ENDBRANCH  13  15
ENDBRANCH   1  13
TORSDOF 6
ENDMDL
MODEL      202
REMARK 921   NORMALIZED FREE ENERGY PREDICTED BY IDOCK:   -3.52 KCAL/MOL
REMARK 922        TOTAL FREE ENERGY PREDICTED BY IDOCK:   -6.47 KCAL/MOL
REMARK 923 INTER-LIGAND FREE ENERGY PREDICTED BY IDOCK:   -5.12 KCAL/MOL
REMARK 924 INTRA-LIGAND FREE ENERGY PREDICTED BY IDOCK:   -1.35 KCAL/MOL
REMARK 927      BINDING AFFINITY PREDICTED BY RF-SCORE:    0.00 PKD
ROOT
HETATM    1  C   UNK A   1      -9.323   9.891  65.461  1.00  0.00    -0.223 C  
HETATM    2  C   UNK A   1     -10.152  10.469  64.317  1.00  0.00    -0.380 C  
ENDROOT
BRANCH   1   3
HETATM    3  C   UNK A   1      -7.879   9.614  64.956  1.00  0.00    -0.118 C  
ATOM      4  CA  PRO A   2      -7.874   7.311  66.078  1.00  0.00    -0.106 C  
ATOM      5  N   PRO A   2      -7.248   8.458  65.392  1.00  0.00    -0.081 N  
ATOM      6  C   PRO A   2      -7.902   7.487  67.604  1.00  0.00    -0.113 C  
HETATM    7  O   UNK A   1      -7.303  10.419  64.218  1.00  0.00    -0.103 OA 
ATOM      8  CB  PRO A   2      -6.997   6.105  65.714  1.00  0.00    -0.057 C  
ATOM      9  O   PRO A   2      -7.326   8.633  68.034  1.00  0.00    -0.089 OA 
ATOM     10  CD  PRO A   2      -5.926   8.091  64.908  1.00  0.00    -0.045 C  
ATOM     11  OXT PRO A   2      -8.395   6.672  68.367  1.00  0.00    -0.120 OA 
ATOM     12  CG  PRO A   2      -6.050   6.607  64.627  1.00  0.00    -0.035 C  
ENDBRANCH   1   3
BRANCH   1  13
HETATM   13  N   UNK A   1      -9.225  10.814  66.619  1.00  0.00    -0.163 NA 
HETATM   14  H   UNK A   1      -8.698  11.647  66.358  1.00  0.00     0.000 HD 
BRANCH  13  15
HETATM   15  C   UNK A   1     -10.532  11.206  67.241  1.00  0.00    -0.226 C  
HETATM   16  O   UNK A   1     -11.683  13.385  67.270  1.00  0.00    -0.337 OA 
HETATM   17  O   UNK A   1      -9.487  13.331  66.734  1.00  0.00    -0.243 OA 
HETATM   18  C   UNK A   1     -10.658  12.745  67.096  1.00  0.00    -0.237 C  
BRANCH  15  19
HETATM   19  C   UNK A   1     -10.658  10.802  68.728  1.00  0.00    -0.229 C  
BRANCH  19  20
HETATM   20  C   UNK A   1     -10.723   9.280  68.938  1.00  0.00    -0.182 C  
BRANCH  20  21
HETATM   21  C   UNK A   1     -10.559   8.848  70.377  1.00  0.00    -0.252 A  
HETATM   22  C   UNK A   1     -10.260   7.931  73.016  1.00  0.00    -0.394 A  
HETATM   23  C   UNK A   1     -11.650   8.323  71.078  1.00  0.00    -0.301 A  
HETATM   24  C   UNK A   1     -11.503   7.865  72.390  1.00  0.00    -0.433 A  
HETATM   25  C   UNK A   1      -9.168   8.457  72.332  1.00  0.00    -0.345 A  
HETATM   26  C   UNK A   1      -9.310   8.912  71.018  1.00  0.00    -0.313 A  
ENDBRANCH  20  21
ENDBRANCH  19  20
ENDBRANCH  15  19
ENDBRANCH  13  15
ENDBRANCH   1  13
TORSDOF 6
ENDMDL
MODEL      203
REMARK 921   NORMALIZED FREE ENERGY PREDICTED BY IDOCK:   -3.50 KCAL/MOL
REMARK 922        TOTAL FREE ENERGY PREDICTED BY IDOCK:   -6.44 KCAL/MOL
REMARK 923 INTER-LIGAND FREE ENERGY PREDICTED BY IDOCK:   -4.98 KCAL/MOL
REMARK 924 INTRA-LIGAND FREE ENERGY PREDICTED BY IDOCK:   -1.45 KCAL/MOL
REMARK 927      BINDING AFFINITY PREDICTED BY RF-SCORE:    0.00 PKD
ROOT
HETATM    1  C   UNK A   1      -7.552   7.698  68.575  1.00  0.00    -0.110 C  
HETATM    2  C   UNK A   1      -6.282   6.861  68.447  1.00  0.00    -0.034 C  
ENDROOT
BRANCH   1   3
HETATM    3  C   UNK A   1      -7.772   8.500  67.262  1.00  0.00    -0.097 C  
ATOM      4  CA  PRO A   2      -8.831  10.438  68.561  1.00  0.00    -0.142 C  
ATOM      5  N   PRO A   2      -8.477   9.692  67.338  1.00  0.00    -0.125 N  
ATOM      6  C   PRO A   2     -10.169   9.978  69.158  1.00  0.00    -0.210 C  
HETATM    7  O   UNK A   1      -7.357   8.068  66.182  1.00  0.00    -0.072 OA 
ATOM      8  CB  PRO A   2      -8.940  11.902  68.115  1.00  0.00    -0.185 C  
ATOM      9  O   PRO A   2     -10.786   9.010  68.443  1.00  0.00    -0.136 OA 
ATOM     10  CD  PRO A   2      -8.662  10.536  66.167  1.00  0.00    -0.158 C  
ATOM     11  OXT PRO A   2     -10.644  10.441  70.184  1.00  0.00    -0.273 OA 
ATOM     12  CG  PRO A   2      -8.393  11.933  66.691  1.00  0.00    -0.117 C  
ENDBRANCH   1   3
BRANCH   1  13
HETATM   13  N   UNK A   1      -8.762   6.870  68.804  1.00  0.00    -0.130 NA 
HETATM   14  H   UNK A   1      -9.453   7.053  68.075  1.00  0.00     0.000 HD 
BRANCH  13  15
HETATM   15  C   UNK A   1      -8.519   5.395  68.923  1.00  0.00    -0.099 C  
HETATM   16  O   UNK A   1      -9.487   3.521  67.648  1.00  0.00    -0.197 OA 
HETATM   17  O   UNK A   1     -10.521   5.530  67.568  1.00  0.00    -0.214 OA 
HETATM   18  C   UNK A   1      -9.539   4.692  67.990  1.00  0.00    -0.155 C  
BRANCH  15  19
HETATM   19  C   UNK A   1      -8.660   4.856  70.365  1.00  0.00    -0.115 C  
BRANCH  19  20
HETATM   20  C   UNK A   1     -10.123   4.634  70.788  1.00  0.00    -0.264 C  
BRANCH  20  21
HETATM   21  C   UNK A   1     -10.780   5.851  71.396  1.00  0.00    -0.319 A  
HETATM   22  C   UNK A   1     -11.904   8.178  72.501  1.00  0.00    -0.438 A  
HETATM   23  C   UNK A   1     -10.318   6.357  72.617  1.00  0.00    -0.216 A  
HETATM   24  C   UNK A   1     -10.875   7.515  73.167  1.00  0.00    -0.448 A  
HETATM   25  C   UNK A   1     -12.377   7.681  71.289  1.00  0.00    -0.334 A  
HETATM   26  C   UNK A   1     -11.820   6.525  70.734  1.00  0.00    -0.394 A  
ENDBRANCH  20  21
ENDBRANCH  19  20
ENDBRANCH  15  19
ENDBRANCH  13  15
ENDBRANCH   1  13
TORSDOF 6
ENDMDL
MODEL      204
REMARK 921   NORMALIZED FREE ENERGY PREDICTED BY IDOCK:   -3.49 KCAL/MOL
REMARK 922        TOTAL FREE ENERGY PREDICTED BY IDOCK:   -6.42 KCAL/MOL
REMARK 923 INTER-LIGAND FREE ENERGY PREDICTED BY IDOCK:   -5.48 KCAL/MOL
REMARK 924 INTRA-LIGAND FREE ENERGY PREDICTED BY IDOCK:   -0.95 KCAL/MOL
REMARK 927      BINDING AFFINITY PREDICTED BY RF-SCORE:    0.00 PKD
ROOT
HETATM    1  C   UNK A   1     -11.785  14.148  67.781  1.00  0.00    -0.373 C  
HETATM    2  C   UNK A   1     -12.748  13.899  66.623  1.00  0.00     0.021 C  
ENDROOT
BRANCH   1   3
HETATM    3  C   UNK A   1     -11.726  12.880  68.678  1.00  0.00    -0.324 C  
ATOM      4  CA  PRO A   2     -12.700  14.177  70.662  1.00  0.00    -0.321 C  
ATOM      5  N   PRO A   2     -12.050  13.018  70.020  1.00  0.00    -0.323 N  
ATOM      6  C   PRO A   2     -11.686  15.232  71.128  1.00  0.00    -0.360 C  
HETATM    7  O   UNK A   1     -11.369  11.794  68.213  1.00  0.00    -0.236 OA 
ATOM      8  CB  PRO A   2     -13.436  13.596  71.877  1.00  0.00    -0.519 C  
ATOM      9  O   PRO A   2     -10.396  14.893  70.897  1.00  0.00     0.219 OA 
ATOM     10  CD  PRO A   2     -12.089  11.867  70.909  1.00  0.00    -0.134 C  
ATOM     11  OXT PRO A   2     -12.004  16.282  71.662  1.00  0.00    -0.468 OA 
ATOM     12  CG  PRO A   2     -13.358  12.081  71.711  1.00  0.00    -0.338 C  
ENDBRANCH   1   3
BRANCH   1  13
HETATM   13  N   UNK A   1     -10.404  14.439  67.323  1.00  0.00    -0.259 NA 
HETATM   14  H   UNK A   1     -10.374  14.475  66.304  1.00  0.00     0.000 HD 
BRANCH  13  15
HETATM   15  C   UNK A   1      -9.781  15.676  67.899  1.00  0.00    -0.211 C  
HETATM   16  O   UNK A   1      -9.777  17.990  67.054  1.00  0.00    -0.283 OA 
HETATM   17  O   UNK A   1     -10.321  16.321  65.629  1.00  0.00    -0.357 OA 
HETATM   18  C   UNK A   1      -9.947  16.800  66.845  1.00  0.00    -0.273 C  
BRANCH  15  19
HETATM   19  C   UNK A   1      -8.289  15.508  68.265  1.00  0.00    -0.147 C  
BRANCH  19  20
HETATM   20  C   UNK A   1      -7.552  14.509  67.357  1.00  0.00    -0.209 C  
BRANCH  20  21
HETATM   21  C   UNK A   1      -7.034  13.286  68.078  1.00  0.00    -0.120 A  
HETATM   22  C   UNK A   1      -5.966  11.024  69.359  1.00  0.00    -0.050 A  
HETATM   23  C   UNK A   1      -6.872  12.082  67.383  1.00  0.00    -0.142 A  
HETATM   24  C   UNK A   1      -6.340  10.956  68.018  1.00  0.00    -0.057 A  
HETATM   25  C   UNK A   1      -6.127  12.214  70.063  1.00  0.00    -0.138 A  
HETATM   26  C   UNK A   1      -6.656  13.343  69.430  1.00  0.00    -0.075 A  
ENDBRANCH  20  21
ENDBRANCH  19  20
ENDBRANCH  15  19
ENDBRANCH  13  15
ENDBRANCH   1  13
TORSDOF 6
ENDMDL
MODEL      205
REMARK 921   NORMALIZED FREE ENERGY PREDICTED BY IDOCK:   -3.43 KCAL/MOL
REMARK 922        TOTAL FREE ENERGY PREDICTED BY IDOCK:   -6.35 KCAL/MOL
REMARK 923 INTER-LIGAND FREE ENERGY PREDICTED BY IDOCK:   -6.45 KCAL/MOL
REMARK 924 INTRA-LIGAND FREE ENERGY PREDICTED BY IDOCK:    0.10 KCAL/MOL
REMARK 927      BINDING AFFINITY PREDICTED BY RF-SCORE:    0.00 PKD
ROOT
HETATM    1  C   UNK A   1     -10.207   9.837  68.242  1.00  0.00    -0.183 C  
HETATM    2  C   UNK A   1      -9.903  10.449  66.877  1.00  0.00    -0.236 C  
ENDROOT
BRANCH   1   3
HETATM    3  C   UNK A   1      -9.109   8.794  68.591  1.00  0.00    -0.141 C  
ATOM      4  CA  PRO A   2     -10.862   7.193  69.554  1.00  0.00    -0.225 C  
ATOM      5  N   PRO A   2      -9.487   7.665  69.303  1.00  0.00    -0.158 N  
ATOM      6  C   PRO A   2     -11.467   7.806  70.826  1.00  0.00    -0.272 C  
HETATM    7  O   UNK A   1      -7.931   8.986  68.271  1.00  0.00    -0.102 OA 
ATOM      8  CB  PRO A   2     -10.736   5.673  69.722  1.00  0.00    -0.401 C  
ATOM      9  O   PRO A   2     -10.625   8.630  71.492  1.00  0.00    -0.235 OA 
ATOM     10  CD  PRO A   2      -8.533   6.608  69.605  1.00  0.00    -0.132 C  
ATOM     11  OXT PRO A   2     -12.602   7.575  71.211  1.00  0.00    -0.333 OA 
ATOM     12  CG  PRO A   2      -9.306   5.338  69.308  1.00  0.00    -0.167 C  
ENDBRANCH   1   3
BRANCH   1  13
HETATM   13  N   UNK A   1     -10.228  10.847  69.329  1.00  0.00    -0.351 NA 
HETATM   14  H   UNK A   1      -9.275  11.078  69.610  1.00  0.00     0.000 HD 
BRANCH  13  15
HETATM   15  C   UNK A   1     -10.993  12.101  69.028  1.00  0.00    -0.205 C  
HETATM   16  O   UNK A   1     -12.584  13.363  70.425  1.00  0.00    -0.259 OA 
HETATM   17  O   UNK A   1     -12.086  11.235  71.007  1.00  0.00    -0.319 OA 
HETATM   18  C   UNK A   1     -11.973  12.328  70.207  1.00  0.00    -0.290 C  
BRANCH  15  19
HETATM   19  C   UNK A   1     -11.772  12.050  67.693  1.00  0.00    -0.365 C  
BRANCH  19  20
HETATM   20  C   UNK A   1     -12.341  13.415  67.271  1.00  0.00    -0.157 C  
BRANCH  20  21
HETATM   21  C   UNK A   1     -11.294  14.487  67.080  1.00  0.00    -0.361 A  
HETATM   22  C   UNK A   1      -9.408  16.521  66.628  1.00  0.00    -0.279 A  
HETATM   23  C   UNK A   1     -10.392  14.401  66.013  1.00  0.00    -0.319 A  
HETATM   24  C   UNK A   1      -9.455  15.412  65.786  1.00  0.00    -0.325 A  
HETATM   25  C   UNK A   1     -10.295  16.616  67.697  1.00  0.00    -0.305 A  
HETATM   26  C   UNK A   1     -11.237  15.609  67.925  1.00  0.00    -0.328 A  
ENDBRANCH  20  21
ENDBRANCH  19  20
ENDBRANCH  15  19
ENDBRANCH  13  15
ENDBRANCH   1  13
TORSDOF 6
ENDMDL
MODEL      206
REMARK 921   NORMALIZED FREE ENERGY PREDICTED BY IDOCK:   -3.41 KCAL/MOL
REMARK 922        TOTAL FREE ENERGY PREDICTED BY IDOCK:   -6.32 KCAL/MOL
REMARK 923 INTER-LIGAND FREE ENERGY PREDICTED BY IDOCK:   -6.99 KCAL/MOL
REMARK 924 INTRA-LIGAND FREE ENERGY PREDICTED BY IDOCK:    0.68 KCAL/MOL
REMARK 927      BINDING AFFINITY PREDICTED BY RF-SCORE:    0.00 PKD
ROOT
HETATM    1  C   UNK A   1      -8.324   9.693  69.585  1.00  0.00    -0.168 C  
HETATM    2  C   UNK A   1      -7.281   9.782  70.696  1.00  0.00    -0.084 C  
ENDROOT
BRANCH   1   3
HETATM    3  C   UNK A   1      -8.262   8.281  68.937  1.00  0.00    -0.116 C  
ATOM      4  CA  PRO A   2     -10.271   7.501  70.324  1.00  0.00    -0.204 C  
ATOM      5  N   PRO A   2      -9.115   7.303  69.427  1.00  0.00    -0.143 N  
ATOM      6  C   PRO A   2      -9.875   7.447  71.807  1.00  0.00    -0.167 C  
HETATM    7  O   UNK A   1      -7.453   8.034  68.037  1.00  0.00    -0.093 OA 
ATOM      8  CB  PRO A   2     -11.225   6.344  70.002  1.00  0.00    -0.475 C  
ATOM      9  O   PRO A   2      -8.561   7.198  72.016  1.00  0.00    -0.112 OA 
ATOM     10  CD  PRO A   2      -9.169   5.979  68.827  1.00  0.00    -0.123 C  
ATOM     11  OXT PRO A   2     -10.666   7.610  72.722  1.00  0.00    -0.281 OA 
ATOM     12  CG  PRO A   2     -10.654   5.685  68.749  1.00  0.00    -0.286 C  
ENDBRANCH   1   3
BRANCH   1  13
HETATM   13  N   UNK A   1      -9.707   9.900  70.081  1.00  0.00    -0.350 NA 
HETATM   14  H   UNK A   1      -9.690  10.132  71.074  1.00  0.00     0.000 HD 
BRANCH  13  15
HETATM   15  C   UNK A   1     -10.516  10.915  69.329  1.00  0.00    -0.202 C  
HETATM   16  O   UNK A   1     -12.436  12.272  70.065  1.00  0.00    -0.117 OA 
HETATM   17  O   UNK A   1     -11.861  10.461  71.290  1.00  0.00    -0.350 OA 
HETATM   18  C   UNK A   1     -11.706  11.309  70.240  1.00  0.00    -0.324 C  
BRANCH  15  19
HETATM   19  C   UNK A   1     -11.037  10.408  67.965  1.00  0.00    -0.359 C  
BRANCH  19  20
HETATM   20  C   UNK A   1     -10.126  10.796  66.787  1.00  0.00    -0.267 C  
BRANCH  20  21
HETATM   21  C   UNK A   1     -10.831  11.555  65.687  1.00  0.00    -0.310 A  
HETATM   22  C   UNK A   1     -12.089  13.067  63.680  1.00  0.00    -0.604 A  
HETATM   23  C   UNK A   1     -11.881  12.425  66.001  1.00  0.00    -0.459 A  
HETATM   24  C   UNK A   1     -12.507  13.179  65.004  1.00  0.00    -0.516 A  
HETATM   25  C   UNK A   1     -11.050  12.199  63.353  1.00  0.00    -0.495 A  
HETATM   26  C   UNK A   1     -10.419  11.447  64.348  1.00  0.00    -0.388 A  
ENDBRANCH  20  21
ENDBRANCH  19  20
ENDBRANCH  15  19
ENDBRANCH  13  15
ENDBRANCH   1  13
TORSDOF 6
ENDMDL
MODEL      207
REMARK 921   NORMALIZED FREE ENERGY PREDICTED BY IDOCK:   -3.39 KCAL/MOL
REMARK 922        TOTAL FREE ENERGY PREDICTED BY IDOCK:   -6.30 KCAL/MOL
REMARK 923 INTER-LIGAND FREE ENERGY PREDICTED BY IDOCK:   -5.64 KCAL/MOL
REMARK 924 INTRA-LIGAND FREE ENERGY PREDICTED BY IDOCK:   -0.66 KCAL/MOL
REMARK 927      BINDING AFFINITY PREDICTED BY RF-SCORE:    0.00 PKD
ROOT
HETATM    1  C   UNK A   1     -10.473  10.538  68.694  1.00  0.00    -0.191 C  
HETATM    2  C   UNK A   1     -11.511  11.053  69.688  1.00  0.00    -0.375 C  
ENDROOT
BRANCH   1   3
HETATM    3  C   UNK A   1      -9.470  11.679  68.365  1.00  0.00    -0.193 C  
ATOM      4  CA  PRO A   2     -11.274  12.961  67.074  1.00  0.00    -0.288 C  
ATOM      5  N   PRO A   2      -9.892  12.689  67.512  1.00  0.00    -0.200 N  
ATOM      6  C   PRO A   2     -11.652  12.175  65.810  1.00  0.00    -0.355 C  
HETATM    7  O   UNK A   1      -8.324  11.664  68.823  1.00  0.00    -0.128 OA 
ATOM      8  CB  PRO A   2     -11.306  14.466  66.775  1.00  0.00    -0.360 C  
ATOM      9  O   PRO A   2     -10.649  11.412  65.318  1.00  0.00    -0.273 OA 
ATOM     10  CD  PRO A   2      -9.039  13.829  67.212  1.00  0.00    -0.232 C  
ATOM     11  OXT PRO A   2     -12.754  12.228  65.287  1.00  0.00    -0.543 OA 
ATOM     12  CG  PRO A   2      -9.982  15.012  67.303  1.00  0.00    -0.233 C  
ENDBRANCH   1   3
BRANCH   1  13
HETATM   13  N   UNK A   1      -9.693   9.393  69.225  1.00  0.00    -0.166 NA 
HETATM   14  H   UNK A   1      -9.839   9.307  70.231  1.00  0.00     0.000 HD 
BRANCH  13  15
HETATM   15  C   UNK A   1      -9.945   8.076  68.554  1.00  0.00    -0.192 C  
HETATM   16  O   UNK A   1     -11.424   6.218  69.213  1.00  0.00    -0.411 OA 
HETATM   17  O   UNK A   1     -10.886   7.773  70.764  1.00  0.00    -0.230 OA 
HETATM   18  C   UNK A   1     -10.828   7.240  69.516  1.00  0.00    -0.209 C  
BRANCH  15  19
HETATM   19  C   UNK A   1      -8.654   7.298  68.208  1.00  0.00    -0.123 C  
BRANCH  19  20
HETATM   20  C   UNK A   1      -8.259   7.411  66.725  1.00  0.00    -0.121 C  
BRANCH  20  21
HETATM   21  C   UNK A   1      -8.447   6.135  65.938  1.00  0.00    -0.145 A  
HETATM   22  C   UNK A   1      -8.909   3.798  64.447  1.00  0.00    -0.120 A  
HETATM   23  C   UNK A   1      -9.287   5.128  66.430  1.00  0.00    -0.149 A  
HETATM   24  C   UNK A   1      -9.519   3.966  65.689  1.00  0.00    -0.176 A  
HETATM   25  C   UNK A   1      -8.066   4.788  63.950  1.00  0.00    -0.108 A  
HETATM   26  C   UNK A   1      -7.835   5.954  64.686  1.00  0.00    -0.114 A  
ENDBRANCH  20  21
ENDBRANCH  19  20
ENDBRANCH  15  19
ENDBRANCH  13  15
ENDBRANCH   1  13
TORSDOF 6
ENDMDL
MODEL      208
REMARK 921   NORMALIZED FREE ENERGY PREDICTED BY IDOCK:   -3.39 KCAL/MOL
REMARK 922        TOTAL FREE ENERGY PREDICTED BY IDOCK:   -6.30 KCAL/MOL
REMARK 923 INTER-LIGAND FREE ENERGY PREDICTED BY IDOCK:   -7.38 KCAL/MOL
REMARK 924 INTRA-LIGAND FREE ENERGY PREDICTED BY IDOCK:    1.08 KCAL/MOL
REMARK 927      BINDING AFFINITY PREDICTED BY RF-SCORE:    0.00 PKD
ROOT
HETATM    1  C   UNK A   1      -8.253  16.017  67.021  1.00  0.00    -0.220 C  
HETATM    2  C   UNK A   1      -6.974  15.186  67.094  1.00  0.00     0.019 C  
ENDROOT
BRANCH   1   3
HETATM    3  C   UNK A   1      -9.296  15.272  66.141  1.00  0.00    -0.325 C  
ATOM      4  CA  PRO A   2      -9.493  13.395  67.874  1.00  0.00    -0.216 C  
ATOM      5  N   PRO A   2      -9.717  14.016  66.554  1.00  0.00    -0.286 N  
ATOM      6  C   PRO A   2      -8.169  12.619  67.936  1.00  0.00    -0.170 C  
HETATM    7  O   UNK A   1      -9.708  15.774  65.091  1.00  0.00    -0.326 OA 
ATOM      8  CB  PRO A   2     -10.668  12.426  68.060  1.00  0.00    -0.247 C  
ATOM      9  O   PRO A   2      -7.476  12.621  66.774  1.00  0.00     0.066 OA 
ATOM     10  CD  PRO A   2     -10.744  13.287  65.826  1.00  0.00    -0.277 C  
ATOM     11  OXT PRO A   2      -7.770  12.047  68.938  1.00  0.00    -0.087 OA 
ATOM     12  CG  PRO A   2     -11.636  12.740  66.922  1.00  0.00    -0.428 C  
ENDBRANCH   1   3
BRANCH   1  13
HETATM   13  N   UNK A   1      -8.865  16.240  68.353  1.00  0.00    -0.195 NA 
HETATM   14  H   UNK A   1      -8.212  16.737  68.959  1.00  0.00     0.000 HD 
BRANCH  13  15
HETATM   15  C   UNK A   1     -10.191  16.941  68.343  1.00  0.00    -0.322 C  
HETATM   16  O   UNK A   1     -10.717  19.335  68.089  1.00  0.00    -0.329 OA 
HETATM   17  O   UNK A   1      -8.601  18.745  68.625  1.00  0.00    -0.335 OA 
HETATM   18  C   UNK A   1      -9.898  18.463  68.334  1.00  0.00    -0.371 C  
BRANCH  15  19
HETATM   19  C   UNK A   1     -11.094  16.582  69.546  1.00  0.00    -0.245 C  
BRANCH  19  20
HETATM   20  C   UNK A   1     -12.164  15.530  69.207  1.00  0.00    -0.209 C  
BRANCH  20  21
HETATM   21  C   UNK A   1     -12.666  14.754  70.402  1.00  0.00    -0.368 A  
HETATM   22  C   UNK A   1     -13.707  13.299  72.569  1.00  0.00    -0.613 A  
HETATM   23  C   UNK A   1     -13.587  15.339  71.278  1.00  0.00    -0.584 A  
HETATM   24  C   UNK A   1     -14.107  14.616  72.356  1.00  0.00    -0.542 A  
HETATM   25  C   UNK A   1     -12.786  12.707  71.709  1.00  0.00    -0.343 A  
HETATM   26  C   UNK A   1     -12.267  13.425  70.627  1.00  0.00    -0.427 A  
ENDBRANCH  20  21
ENDBRANCH  19  20
ENDBRANCH  15  19
ENDBRANCH  13  15
ENDBRANCH   1  13
TORSDOF 6
ENDMDL
MODEL      209
REMARK 921   NORMALIZED FREE ENERGY PREDICTED BY IDOCK:   -3.38 KCAL/MOL
REMARK 922        TOTAL FREE ENERGY PREDICTED BY IDOCK:   -6.28 KCAL/MOL
REMARK 923 INTER-LIGAND FREE ENERGY PREDICTED BY IDOCK:   -7.15 KCAL/MOL
REMARK 924 INTRA-LIGAND FREE ENERGY PREDICTED BY IDOCK:    0.87 KCAL/MOL
REMARK 927      BINDING AFFINITY PREDICTED BY RF-SCORE:    0.00 PKD
ROOT
HETATM    1  C   UNK A   1     -11.561   7.311  70.313  1.00  0.00    -0.174 C  
HETATM    2  C   UNK A   1     -11.227   6.294  69.225  1.00  0.00    -0.458 C  
ENDROOT
BRANCH   1   3
HETATM    3  C   UNK A   1     -11.795   6.564  71.656  1.00  0.00    -0.333 C  
ATOM      4  CA  PRO A   2      -9.289   6.629  72.188  1.00  0.00    -0.141 C  
ATOM      5  N   PRO A   2     -10.681   6.184  72.391  1.00  0.00    -0.221 N  
ATOM      6  C   PRO A   2      -8.533   5.743  71.187  1.00  0.00    -0.128 C  
HETATM    7  O   UNK A   1     -12.937   6.290  72.035  1.00  0.00    -0.125 OA 
ATOM      8  CB  PRO A   2      -8.633   6.523  73.570  1.00  0.00    -0.131 C  
ATOM      9  O   PRO A   2      -9.264   4.710  70.707  1.00  0.00    -0.126 OA 
ATOM     10  CD  PRO A   2     -10.817   5.547  73.692  1.00  0.00    -0.249 C  
ATOM     11  OXT PRO A   2      -7.377   5.942  70.850  1.00  0.00    -0.081 OA 
ATOM     12  CG  PRO A   2      -9.778   6.250  74.542  1.00  0.00    -0.309 C  
ENDBRANCH   1   3
BRANCH   1  13
HETATM   13  N   UNK A   1     -10.472   8.295  70.529  1.00  0.00    -0.207 NA 
HETATM   14  H   UNK A   1      -9.571   7.875  70.298  1.00  0.00     0.000 HD 
BRANCH  13  15
HETATM   15  C   UNK A   1     -10.630   9.600  69.808  1.00  0.00    -0.242 C  
HETATM   16  O   UNK A   1      -8.932  11.059  68.778  1.00  0.00    -0.165 OA 
HETATM   17  O   UNK A   1      -8.253   9.487  70.255  1.00  0.00    -0.159 OA 
HETATM   18  C   UNK A   1      -9.204  10.146  69.543  1.00  0.00    -0.204 C  
BRANCH  15  19
HETATM   19  C   UNK A   1     -11.461  10.644  70.588  1.00  0.00    -0.374 C  
BRANCH  19  20
HETATM   20  C   UNK A   1     -11.901  11.837  69.722  1.00  0.00    -0.420 C  
BRANCH  20  21
HETATM   21  C   UNK A   1     -12.512  12.976  70.505  1.00  0.00    -0.306 A  
HETATM   22  C   UNK A   1     -13.560  15.081  72.044  1.00  0.00    -0.522 A  
HETATM   23  C   UNK A   1     -13.179  12.717  71.708  1.00  0.00    -0.471 A  
HETATM   24  C   UNK A   1     -13.700  13.763  72.475  1.00  0.00    -0.667 A  
HETATM   25  C   UNK A   1     -12.904  15.351  70.846  1.00  0.00    -0.536 A  
HETATM   26  C   UNK A   1     -12.378  14.308  70.078  1.00  0.00    -0.403 A  
ENDBRANCH  20  21
ENDBRANCH  19  20
ENDBRANCH  15  19
ENDBRANCH  13  15
ENDBRANCH   1  13
TORSDOF 6
ENDMDL
MODEL      210
REMARK 921   NORMALIZED FREE ENERGY PREDICTED BY IDOCK:   -3.36 KCAL/MOL
REMARK 922        TOTAL FREE ENERGY PREDICTED BY IDOCK:   -6.26 KCAL/MOL
REMARK 923 INTER-LIGAND FREE ENERGY PREDICTED BY IDOCK:   -5.22 KCAL/MOL
REMARK 924 INTRA-LIGAND FREE ENERGY PREDICTED BY IDOCK:   -1.04 KCAL/MOL
REMARK 927      BINDING AFFINITY PREDICTED BY RF-SCORE:    0.00 PKD
ROOT
HETATM    1  C   UNK A   1      -9.983   6.162  69.901  1.00  0.00    -0.172 C  
HETATM    2  C   UNK A   1     -11.441   6.273  69.462  1.00  0.00    -0.387 C  
ENDROOT
BRANCH   1   3
HETATM    3  C   UNK A   1      -9.858   5.048  70.978  1.00  0.00    -0.198 C  
ATOM      4  CA  PRO A   2      -9.867   6.793  72.855  1.00  0.00    -0.166 C  
ATOM      5  N   PRO A   2      -9.686   5.438  72.299  1.00  0.00    -0.155 N  
ATOM      6  C   PRO A   2      -8.584   7.632  72.776  1.00  0.00    -0.131 C  
HETATM    7  O   UNK A   1      -9.877   3.856  70.659  1.00  0.00    -0.189 OA 
ATOM      8  CB  PRO A   2     -10.248   6.570  74.325  1.00  0.00    -0.373 C  
ATOM      9  O   PRO A   2      -7.527   6.972  72.247  1.00  0.00    -0.084 OA 
ATOM     10  CD  PRO A   2      -9.634   4.459  73.374  1.00  0.00    -0.120 C  
ATOM     11  OXT PRO A   2      -8.512   8.791  73.155  1.00  0.00    -0.386 OA 
ATOM     12  CG  PRO A   2     -10.503   5.071  74.454  1.00  0.00    -0.313 C  
ENDBRANCH   1   3
BRANCH   1  13
HETATM   13  N   UNK A   1      -9.075   5.809  68.782  1.00  0.00    -0.115 NA 
HETATM   14  H   UNK A   1      -8.336   5.189  69.115  1.00  0.00     0.000 HD 
BRANCH  13  15
HETATM   15  C   UNK A   1      -9.739   5.215  67.576  1.00  0.00    -0.151 C  
HETATM   16  O   UNK A   1      -9.358   3.051  66.461  1.00  0.00    -0.147 OA 
HETATM   17  O   UNK A   1      -7.781   3.825  67.884  1.00  0.00    -0.069 OA 
HETATM   18  C   UNK A   1      -8.967   3.917  67.228  1.00  0.00    -0.134 C  
BRANCH  15  19
HETATM   19  C   UNK A   1      -9.767   6.160  66.353  1.00  0.00    -0.152 C  
BRANCH  19  20
HETATM   20  C   UNK A   1      -8.724   7.287  66.435  1.00  0.00    -0.152 C  
BRANCH  20  21
HETATM   21  C   UNK A   1      -9.208   8.615  65.901  1.00  0.00    -0.264 A  
HETATM   22  C   UNK A   1     -10.045  11.140  64.995  1.00  0.00    -0.338 A  
HETATM   23  C   UNK A   1     -10.146   9.360  66.626  1.00  0.00    -0.332 A  
HETATM   24  C   UNK A   1     -10.562  10.616  66.178  1.00  0.00    -0.211 A  
HETATM   25  C   UNK A   1      -9.117  10.407  64.260  1.00  0.00    -0.270 A  
HETATM   26  C   UNK A   1      -8.695   9.152  64.708  1.00  0.00    -0.208 A  
ENDBRANCH  20  21
ENDBRANCH  19  20
ENDBRANCH  15  19
ENDBRANCH  13  15
ENDBRANCH   1  13
TORSDOF 6
ENDMDL
MODEL      211
REMARK 921   NORMALIZED FREE ENERGY PREDICTED BY IDOCK:   -3.33 KCAL/MOL
REMARK 922        TOTAL FREE ENERGY PREDICTED BY IDOCK:   -6.21 KCAL/MOL
REMARK 923 INTER-LIGAND FREE ENERGY PREDICTED BY IDOCK:   -5.59 KCAL/MOL
REMARK 924 INTRA-LIGAND FREE ENERGY PREDICTED BY IDOCK:   -0.63 KCAL/MOL
REMARK 927      BINDING AFFINITY PREDICTED BY RF-SCORE:    0.00 PKD
ROOT
HETATM    1  C   UNK A   1      -9.797  10.680  66.951  1.00  0.00    -0.188 C  
HETATM    2  C   UNK A   1     -10.043  10.177  65.531  1.00  0.00    -0.338 C  
ENDROOT
BRANCH   1   3
HETATM    3  C   UNK A   1      -8.266  10.762  67.205  1.00  0.00    -0.121 C  
ATOM      4  CA  PRO A   2      -8.254   8.406  68.210  1.00  0.00    -0.124 C  
ATOM      5  N   PRO A   2      -7.665   9.723  67.900  1.00  0.00    -0.087 N  
ATOM      6  C   PRO A   2      -9.036   8.413  69.533  1.00  0.00    -0.149 C  
HETATM    7  O   UNK A   1      -7.615  11.741  66.828  1.00  0.00    -0.141 OA 
ATOM      8  CB  PRO A   2      -7.057   7.452  68.323  1.00  0.00    -0.084 C  
ATOM      9  O   PRO A   2      -9.012   9.602  70.178  1.00  0.00    -0.218 OA 
ATOM     10  CD  PRO A   2      -6.226   9.690  68.115  1.00  0.00    -0.055 C  
ATOM     11  OXT PRO A   2      -9.626   7.438  69.972  1.00  0.00    -0.168 OA 
ATOM     12  CG  PRO A   2      -5.856   8.250  67.821  1.00  0.00    -0.043 C  
ENDBRANCH   1   3
BRANCH   1  13
HETATM   13  N   UNK A   1     -10.364  12.031  67.185  1.00  0.00    -0.212 NA 
HETATM   14  H   UNK A   1     -11.284  12.103  66.749  1.00  0.00     0.000 HD 
BRANCH  13  15
HETATM   15  C   UNK A   1     -10.441  12.457  68.620  1.00  0.00    -0.204 C  
HETATM   16  O   UNK A   1     -11.830  11.589  70.461  1.00  0.00    -0.346 OA 
HETATM   17  O   UNK A   1     -12.411  11.079  68.336  1.00  0.00    -0.528 OA 
HETATM   18  C   UNK A   1     -11.618  11.679  69.262  1.00  0.00    -0.320 C  
BRANCH  15  19
HETATM   19  C   UNK A   1     -10.646  13.978  68.807  1.00  0.00    -0.260 C  
BRANCH  19  20
HETATM   20  C   UNK A   1      -9.349  14.789  68.642  1.00  0.00    -0.198 C  
BRANCH  20  21
HETATM   21  C   UNK A   1      -9.539  16.125  67.964  1.00  0.00    -0.220 A  
HETATM   22  C   UNK A   1      -9.955  18.555  66.615  1.00  0.00    -0.394 A  
HETATM   23  C   UNK A   1      -8.853  16.411  66.777  1.00  0.00    -0.255 A  
HETATM   24  C   UNK A   1      -9.060  17.618  66.105  1.00  0.00    -0.146 A  
HETATM   25  C   UNK A   1     -10.639  18.287  67.798  1.00  0.00    -0.415 A  
HETATM   26  C   UNK A   1     -10.438  17.079  68.471  1.00  0.00    -0.373 A  
ENDBRANCH  20  21
ENDBRANCH  19  20
ENDBRANCH  15  19
ENDBRANCH  13  15
ENDBRANCH   1  13
TORSDOF 6
ENDMDL
MODEL      212
REMARK 921   NORMALIZED FREE ENERGY PREDICTED BY IDOCK:   -3.31 KCAL/MOL
REMARK 922        TOTAL FREE ENERGY PREDICTED BY IDOCK:   -6.19 KCAL/MOL
REMARK 923 INTER-LIGAND FREE ENERGY PREDICTED BY IDOCK:   -4.86 KCAL/MOL
REMARK 924 INTRA-LIGAND FREE ENERGY PREDICTED BY IDOCK:   -1.33 KCAL/MOL
REMARK 927      BINDING AFFINITY PREDICTED BY RF-SCORE:    0.00 PKD
ROOT
HETATM    1  C   UNK A   1      -9.592   8.881  67.869  1.00  0.00    -0.148 C  
HETATM    2  C   UNK A   1     -10.509   8.214  66.847  1.00  0.00    -0.379 C  
ENDROOT
BRANCH   1   3
HETATM    3  C   UNK A   1     -10.006  10.371  68.030  1.00  0.00    -0.155 C  
ATOM      4  CA  PRO A   2      -7.555  11.113  67.949  1.00  0.00    -0.099 C  
ATOM      5  N   PRO A   2      -8.998  11.313  68.181  1.00  0.00    -0.159 N  
ATOM      6  C   PRO A   2      -6.827  10.603  69.202  1.00  0.00    -0.079 C  
HETATM    7  O   UNK A   1     -11.196  10.697  68.055  1.00  0.00    -0.280 OA 
ATOM      8  CB  PRO A   2      -7.019  12.500  67.569  1.00  0.00    -0.149 C  
ATOM      9  O   PRO A   2      -7.628  10.464  70.283  1.00  0.00    -0.180 OA 
ATOM     10  CD  PRO A   2      -9.299  12.734  68.264  1.00  0.00    -0.194 C  
ATOM     11  OXT PRO A   2      -5.634  10.346  69.230  1.00  0.00    -0.038 OA 
ATOM     12  CG  PRO A   2      -8.256  13.371  67.367  1.00  0.00    -0.188 C  
ENDBRANCH   1   3
BRANCH   1  13
HETATM   13  N   UNK A   1      -9.671   8.246  69.208  1.00  0.00    -0.174 NA 
HETATM   14  H   UNK A   1      -9.330   8.891  69.921  1.00  0.00     0.000 HD 
BRANCH  13  15
HETATM   15  C   UNK A   1     -11.021   7.721  69.593  1.00  0.00    -0.122 C  
HETATM   16  O   UNK A   1     -12.575   8.479  71.350  1.00  0.00    -0.309 OA 
HETATM   17  O   UNK A   1     -10.416   9.145  71.456  1.00  0.00    -0.316 OA 
HETATM   18  C   UNK A   1     -11.447   8.470  70.882  1.00  0.00    -0.267 C  
BRANCH  15  19
HETATM   19  C   UNK A   1     -11.050   6.194  69.833  1.00  0.00    -0.481 C  
BRANCH  19  20
HETATM   20  C   UNK A   1      -9.648   5.576  69.965  1.00  0.00    -0.218 C  
BRANCH  20  21
HETATM   21  C   UNK A   1      -9.357   4.991  71.327  1.00  0.00    -0.197 A  
HETATM   22  C   UNK A   1      -8.883   3.990  73.910  1.00  0.00    -0.092 A  
HETATM   23  C   UNK A   1      -8.491   5.656  72.203  1.00  0.00    -0.126 A  
HETATM   24  C   UNK A   1      -8.256   5.160  73.488  1.00  0.00    -0.110 A  
HETATM   25  C   UNK A   1      -9.742   3.315  73.046  1.00  0.00    -0.170 A  
HETATM   26  C   UNK A   1      -9.983   3.810  71.761  1.00  0.00    -0.227 A  
ENDBRANCH  20  21
ENDBRANCH  19  20
ENDBRANCH  15  19
ENDBRANCH  13  15
ENDBRANCH   1  13
TORSDOF 6
ENDMDL
MODEL      213
REMARK 921   NORMALIZED FREE ENERGY PREDICTED BY IDOCK:   -3.21 KCAL/MOL
REMARK 922        TOTAL FREE ENERGY PREDICTED BY IDOCK:   -6.06 KCAL/MOL
REMARK 923 INTER-LIGAND FREE ENERGY PREDICTED BY IDOCK:   -4.83 KCAL/MOL
REMARK 924 INTRA-LIGAND FREE ENERGY PREDICTED BY IDOCK:   -1.23 KCAL/MOL
REMARK 927      BINDING AFFINITY PREDICTED BY RF-SCORE:    0.00 PKD
ROOT
HETATM    1  C   UNK A   1      -8.062   8.023  64.563  1.00  0.00    -0.132 C  
HETATM    2  C   UNK A   1      -7.850   8.507  63.131  1.00  0.00    -0.149 C  
ENDROOT
BRANCH   1   3
HETATM    3  C   UNK A   1      -7.710   6.511  64.649  1.00  0.00    -0.108 C  
ATOM      4  CA  PRO A   2      -9.665   6.094  66.252  1.00  0.00    -0.061 C  
ATOM      5  N   PRO A   2      -8.423   5.727  65.544  1.00  0.00    -0.147 N  
ATOM      6  C   PRO A   2      -9.388   6.803  67.587  1.00  0.00    -0.120 C  
HETATM    7  O   UNK A   1      -6.800   6.035  63.963  1.00  0.00    -0.037 OA 
ATOM      8  CB  PRO A   2     -10.380   4.762  66.513  1.00  0.00    -0.284 C  
ATOM      9  O   PRO A   2      -8.073   6.929  67.879  1.00  0.00    -0.112 OA 
ATOM     10  CD  PRO A   2      -8.203   4.291  65.632  1.00  0.00    -0.109 C  
ATOM     11  OXT PRO A   2     -10.269   7.216  68.325  1.00  0.00    -0.171 OA 
ATOM     12  CG  PRO A   2      -9.606   3.722  65.709  1.00  0.00    -0.165 C  
ENDBRANCH   1   3
BRANCH   1  13
HETATM   13  N   UNK A   1      -7.208   8.740  65.541  1.00  0.00    -0.083 NA 
HETATM   14  H   UNK A   1      -6.230   8.690  65.252  1.00  0.00     0.000 HD 
BRANCH  13  15
HETATM   15  C   UNK A   1      -7.592  10.163  65.811  1.00  0.00    -0.134 C  
HETATM   16  O   UNK A   1      -6.203  12.078  66.503  1.00  0.00    -0.117 OA 
HETATM   17  O   UNK A   1      -5.370   9.991  66.756  1.00  0.00    -0.040 OA 
HETATM   18  C   UNK A   1      -6.339  10.870  66.388  1.00  0.00    -0.132 C  
BRANCH  15  19
HETATM   19  C   UNK A   1      -8.782  10.312  66.788  1.00  0.00    -0.132 C  
BRANCH  19  20
HETATM   20  C   UNK A   1     -10.143  10.389  66.076  1.00  0.00    -0.307 C  
BRANCH  20  21
HETATM   21  C   UNK A   1     -10.866  11.702  66.268  1.00  0.00    -0.333 A  
HETATM   22  C   UNK A   1     -12.313  14.083  66.632  1.00  0.00    -0.408 A  
HETATM   23  C   UNK A   1     -11.661  12.219  65.239  1.00  0.00    -0.405 A  
HETATM   24  C   UNK A   1     -12.382  13.402  65.419  1.00  0.00    -0.522 A  
HETATM   25  C   UNK A   1     -11.521  13.583  67.662  1.00  0.00    -0.351 A  
HETATM   26  C   UNK A   1     -10.801  12.398  67.488  1.00  0.00    -0.271 A  
ENDBRANCH  20  21
ENDBRANCH  19  20
ENDBRANCH  15  19
ENDBRANCH  13  15
ENDBRANCH   1  13
TORSDOF 6
ENDMDL
MODEL      214
REMARK 921   NORMALIZED FREE ENERGY PREDICTED BY IDOCK:   -3.19 KCAL/MOL
REMARK 922        TOTAL FREE ENERGY PREDICTED BY IDOCK:   -6.03 KCAL/MOL
REMARK 923 INTER-LIGAND FREE ENERGY PREDICTED BY IDOCK:   -5.51 KCAL/MOL
REMARK 924 INTRA-LIGAND FREE ENERGY PREDICTED BY IDOCK:   -0.52 KCAL/MOL
REMARK 927      BINDING AFFINITY PREDICTED BY RF-SCORE:    0.00 PKD
ROOT
HETATM    1  C   UNK A   1      -9.474   6.218  68.991  1.00  0.00    -0.128 C  
HETATM    2  C   UNK A   1      -9.340   4.777  68.506  1.00  0.00    -0.181 C  
ENDROOT
BRANCH   1   3
HETATM    3  C   UNK A   1      -8.845   6.340  70.408  1.00  0.00    -0.147 C  
ATOM      4  CA  PRO A   2     -11.145   6.087  71.508  1.00  0.00    -0.276 C  
ATOM      5  N   PRO A   2      -9.701   6.394  71.498  1.00  0.00    -0.169 N  
ATOM      6  C   PRO A   2     -12.005   7.315  71.177  1.00  0.00    -0.328 C  
HETATM    7  O   UNK A   1      -7.621   6.421  70.549  1.00  0.00    -0.091 OA 
ATOM      8  CB  PRO A   2     -11.440   5.620  72.939  1.00  0.00    -0.297 C  
ATOM      9  O   PRO A   2     -11.292   8.446  70.972  1.00  0.00    -0.257 OA 
ATOM     10  CD  PRO A   2      -9.189   6.436  72.859  1.00  0.00    -0.136 C  
ATOM     11  OXT PRO A   2     -13.224   7.285  71.106  1.00  0.00    -0.337 OA 
ATOM     12  CG  PRO A   2     -10.075   5.455  73.601  1.00  0.00    -0.213 C  
ENDBRANCH   1   3
BRANCH   1  13
HETATM   13  N   UNK A   1      -8.781   7.186  68.106  1.00  0.00    -0.128 NA 
HETATM   14  H   UNK A   1      -8.885   6.904  67.131  1.00  0.00     0.000 HD 
BRANCH  13  15
HETATM   15  C   UNK A   1      -9.190   8.619  68.273  1.00  0.00    -0.137 C  
HETATM   16  O   UNK A   1     -11.350   9.714  67.819  1.00  0.00    -0.031 OA 
HETATM   17  O   UNK A   1     -10.956   7.683  66.907  1.00  0.00    -0.253 OA 
HETATM   18  C   UNK A   1     -10.606   8.759  67.658  1.00  0.00    -0.213 C  
BRANCH  15  19
HETATM   19  C   UNK A   1      -8.221   9.623  67.609  1.00  0.00    -0.114 C  
BRANCH  19  20
HETATM   20  C   UNK A   1      -8.179   9.501  66.076  1.00  0.00    -0.115 C  
BRANCH  20  21
HETATM   21  C   UNK A   1      -9.027  10.521  65.352  1.00  0.00    -0.207 A  
HETATM   22  C   UNK A   1     -10.505  12.484  63.989  1.00  0.00    -0.449 A  
HETATM   23  C   UNK A   1      -9.306  11.752  65.956  1.00  0.00    -0.231 A  
HETATM   24  C   UNK A   1     -10.040  12.730  65.279  1.00  0.00    -0.263 A  
HETATM   25  C   UNK A   1     -10.240  11.261  63.379  1.00  0.00    -0.454 A  
HETATM   26  C   UNK A   1      -9.503  10.281  64.052  1.00  0.00    -0.356 A  
ENDBRANCH  20  21
ENDBRANCH  19  20
ENDBRANCH  15  19
ENDBRANCH  13  15
ENDBRANCH   1  13
TORSDOF 6
ENDMDL
MODEL      215
REMARK 921   NORMALIZED FREE ENERGY PREDICTED BY IDOCK:   -3.19 KCAL/MOL
REMARK 922        TOTAL FREE ENERGY PREDICTED BY IDOCK:   -6.02 KCAL/MOL
REMARK 923 INTER-LIGAND FREE ENERGY PREDICTED BY IDOCK:   -4.65 KCAL/MOL
REMARK 924 INTRA-LIGAND FREE ENERGY PREDICTED BY IDOCK:   -1.38 KCAL/MOL
REMARK 927      BINDING AFFINITY PREDICTED BY RF-SCORE:    0.00 PKD
ROOT
HETATM    1  C   UNK A   1      -7.472   9.184  68.574  1.00  0.00    -0.081 C  
HETATM    2  C   UNK A   1      -6.176   9.977  68.440  1.00  0.00    -0.049 C  
ENDROOT
BRANCH   1   3
HETATM    3  C   UNK A   1      -7.623   8.239  67.348  1.00  0.00    -0.098 C  
ATOM      4  CA  PRO A   2      -8.782  10.086  66.002  1.00  0.00    -0.138 C  
ATOM      5  N   PRO A   2      -8.347   8.699  66.258  1.00  0.00    -0.118 N  
ATOM      6  C   PRO A   2     -10.148  10.394  66.634  1.00  0.00    -0.224 C  
HETATM    7  O   UNK A   1      -7.140   7.103  67.364  1.00  0.00    -0.079 OA 
ATOM      8  CB  PRO A   2      -8.883  10.195  64.475  1.00  0.00    -0.228 C  
ATOM      9  O   PRO A   2     -10.709   9.341  67.272  1.00  0.00    -0.268 OA 
ATOM     10  CD  PRO A   2      -8.472   7.905  65.045  1.00  0.00    -0.055 C  
ATOM     11  OXT PRO A   2     -10.689  11.487  66.569  1.00  0.00    -0.252 OA 
ATOM     12  CG  PRO A   2      -8.253   8.914  63.936  1.00  0.00    -0.171 C  
ENDBRANCH   1   3
BRANCH   1  13
HETATM   13  N   UNK A   1      -7.504   8.343  69.796  1.00  0.00    -0.070 NA 
HETATM   14  H   UNK A   1      -6.870   8.724  70.498  1.00  0.00     0.000 HD 
BRANCH  13  15
HETATM   15  C   UNK A   1      -8.862   8.125  70.393  1.00  0.00    -0.141 C  
HETATM   16  O   UNK A   1      -9.768   8.833  72.572  1.00  0.00    -0.247 OA 
HETATM   17  O   UNK A   1      -7.526   8.849  72.278  1.00  0.00    -0.338 OA 
HETATM   18  C   UNK A   1      -8.800   8.632  71.856  1.00  0.00    -0.205 C  
BRANCH  15  19
HETATM   19  C   UNK A   1      -9.325   6.650  70.362  1.00  0.00    -0.160 C  
BRANCH  19  20
HETATM   20  C   UNK A   1     -10.466   6.395  69.363  1.00  0.00    -0.277 C  
BRANCH  20  21
HETATM   21  C   UNK A   1     -10.121   5.408  68.272  1.00  0.00    -0.225 A  
HETATM   22  C   UNK A   1      -9.564   3.498  66.287  1.00  0.00    -0.109 A  
HETATM   23  C   UNK A   1      -9.439   4.227  68.588  1.00  0.00    -0.221 A  
HETATM   24  C   UNK A   1      -9.162   3.275  67.603  1.00  0.00    -0.237 A  
HETATM   25  C   UNK A   1     -10.237   4.671  65.958  1.00  0.00    -0.306 A  
HETATM   26  C   UNK A   1     -10.519   5.623  66.941  1.00  0.00    -0.349 A  
ENDBRANCH  20  21
ENDBRANCH  19  20
ENDBRANCH  15  19
ENDBRANCH  13  15
ENDBRANCH   1  13
TORSDOF 6
ENDMDL
MODEL      216
REMARK 921   NORMALIZED FREE ENERGY PREDICTED BY IDOCK:   -3.18 KCAL/MOL
REMARK 922        TOTAL FREE ENERGY PREDICTED BY IDOCK:   -6.01 KCAL/MOL
REMARK 923 INTER-LIGAND FREE ENERGY PREDICTED BY IDOCK:   -5.40 KCAL/MOL
REMARK 924 INTRA-LIGAND FREE ENERGY PREDICTED BY IDOCK:   -0.61 KCAL/MOL
REMARK 927      BINDING AFFINITY PREDICTED BY RF-SCORE:    0.00 PKD
ROOT
HETATM    1  C   UNK A   1     -11.219   9.565  70.483  1.00  0.00    -0.287 C  
HETATM    2  C   UNK A   1     -12.341  10.460  71.002  1.00  0.00    -0.490 C  
ENDROOT
BRANCH   1   3
HETATM    3  C   UNK A   1     -11.441   8.116  70.999  1.00  0.00    -0.279 C  
ATOM      4  CA  PRO A   2      -9.462   8.332  72.612  1.00  0.00    -0.284 C  
ATOM      5  N   PRO A   2     -10.511   7.591  71.885  1.00  0.00    -0.200 N  
ATOM      6  C   PRO A   2      -8.158   8.438  71.807  1.00  0.00    -0.148 C  
HETATM    7  O   UNK A   1     -12.399   7.445  70.603  1.00  0.00    -0.182 OA 
ATOM      8  CB  PRO A   2      -9.215   7.518  73.890  1.00  0.00    -0.314 C  
ATOM      9  O   PRO A   2      -8.201   7.813  70.608  1.00  0.00    -0.111 OA 
ATOM     10  CD  PRO A   2     -10.687   6.271  72.470  1.00  0.00    -0.226 C  
ATOM     11  OXT PRO A   2      -7.167   9.029  72.205  1.00  0.00    -0.329 OA 
ATOM     12  CG  PRO A   2     -10.331   6.478  73.929  1.00  0.00    -0.356 C  
ENDBRANCH   1   3
BRANCH   1  13
HETATM   13  N   UNK A   1     -11.169   9.512  69.001  1.00  0.00    -0.446 NA 
HETATM   14  H   UNK A   1     -11.893   8.885  68.650  1.00  0.00     0.000 HD 
BRANCH  13  15
HETATM   15  C   UNK A   1     -11.255  10.837  68.306  1.00  0.00    -0.297 C  
HETATM   16  O   UNK A   1     -11.091  11.384  65.908  1.00  0.00    -0.257 OA 
HETATM   17  O   UNK A   1     -10.343   9.369  66.611  1.00  0.00    -0.249 OA 
HETATM   18  C   UNK A   1     -10.899  10.591  66.817  1.00  0.00    -0.142 C  
BRANCH  15  19
HETATM   19  C   UNK A   1     -10.322  11.915  68.904  1.00  0.00    -0.131 C  
BRANCH  19  20
HETATM   20  C   UNK A   1      -9.272  12.429  67.904  1.00  0.00    -0.192 C  
BRANCH  20  21
HETATM   21  C   UNK A   1      -7.858  12.004  68.222  1.00  0.00    -0.145 A  
HETATM   22  C   UNK A   1      -5.236  11.271  68.918  1.00  0.00    -0.040 A  
HETATM   23  C   UNK A   1      -6.823  12.947  68.201  1.00  0.00    -0.097 A  
HETATM   24  C   UNK A   1      -5.519  12.584  68.549  1.00  0.00    -0.056 A  
HETATM   25  C   UNK A   1      -6.255  10.322  68.937  1.00  0.00    -0.047 A  
HETATM   26  C   UNK A   1      -7.561  10.681  68.594  1.00  0.00    -0.103 A  
ENDBRANCH  20  21
ENDBRANCH  19  20
ENDBRANCH  15  19
ENDBRANCH  13  15
ENDBRANCH   1  13
TORSDOF 6
ENDMDL
MODEL      217
REMARK 921   NORMALIZED FREE ENERGY PREDICTED BY IDOCK:   -3.17 KCAL/MOL
REMARK 922        TOTAL FREE ENERGY PREDICTED BY IDOCK:   -6.00 KCAL/MOL
REMARK 923 INTER-LIGAND FREE ENERGY PREDICTED BY IDOCK:   -6.70 KCAL/MOL
REMARK 924 INTRA-LIGAND FREE ENERGY PREDICTED BY IDOCK:    0.70 KCAL/MOL
REMARK 927      BINDING AFFINITY PREDICTED BY RF-SCORE:    0.00 PKD
ROOT
HETATM    1  C   UNK A   1      -9.735  11.436  67.383  1.00  0.00    -0.181 C  
HETATM    2  C   UNK A   1      -9.853   9.917  67.281  1.00  0.00    -0.228 C  
ENDROOT
BRANCH   1   3
HETATM    3  C   UNK A   1     -11.139  12.072  67.180  1.00  0.00    -0.290 C  
ATOM      4  CA  PRO A   2     -10.128  13.994  65.820  1.00  0.00    -0.327 C  
ATOM      5  N   PRO A   2     -11.208  13.310  66.558  1.00  0.00    -0.298 N  
ATOM      6  C   PRO A   2      -9.254  14.862  66.738  1.00  0.00    -0.259 C  
HETATM    7  O   UNK A   1     -12.154  11.505  67.594  1.00  0.00    -0.623 OA 
ATOM      8  CB  PRO A   2     -10.848  14.885  64.799  1.00  0.00    -0.382 C  
ATOM      9  O   PRO A   2      -9.651  14.866  68.032  1.00  0.00    -0.202 OA 
ATOM     10  CD  PRO A   2     -12.488  13.938  66.266  1.00  0.00    -0.409 C  
ATOM     11  OXT PRO A   2      -8.289  15.498  66.345  1.00  0.00    -0.259 OA 
ATOM     12  CG  PRO A   2     -12.313  14.461  64.854  1.00  0.00    -0.414 C  
ENDBRANCH   1   3
BRANCH   1  13
HETATM   13  N   UNK A   1      -9.225  11.882  68.702  1.00  0.00    -0.371 NA 
HETATM   14  H   UNK A   1      -9.959  11.802  69.406  1.00  0.00     0.000 HD 
BRANCH  13  15
HETATM   15  C   UNK A   1      -7.980  11.194  69.178  1.00  0.00    -0.042 C  
HETATM   16  O   UNK A   1      -5.653  11.407  68.396  1.00  0.00    -0.046 OA 
HETATM   17  O   UNK A   1      -7.315  12.166  67.063  1.00  0.00    -0.136 OA 
HETATM   18  C   UNK A   1      -6.845  11.583  68.197  1.00  0.00    -0.068 C  
BRANCH  15  19
HETATM   19  C   UNK A   1      -8.111   9.656  69.256  1.00  0.00    -0.107 C  
BRANCH  19  20
HETATM   20  C   UNK A   1      -8.347   9.139  70.685  1.00  0.00    -0.239 C  
BRANCH  20  21
HETATM   21  C   UNK A   1      -9.637   8.372  70.858  1.00  0.00    -0.212 A  
HETATM   22  C   UNK A   1     -12.076   6.993  71.076  1.00  0.00    -0.413 A  
HETATM   23  C   UNK A   1     -10.817   9.053  71.183  1.00  0.00    -0.364 A  
HETATM   24  C   UNK A   1     -12.030   8.369  71.290  1.00  0.00    -0.323 A  
HETATM   25  C   UNK A   1     -10.909   6.303  70.760  1.00  0.00    -0.339 A  
HETATM   26  C   UNK A   1      -9.693   6.984  70.647  1.00  0.00    -0.174 A  
ENDBRANCH  20  21
ENDBRANCH  19  20
ENDBRANCH  15  19
ENDBRANCH  13  15
ENDBRANCH   1  13
TORSDOF 6
ENDMDL
MODEL      218
REMARK 921   NORMALIZED FREE ENERGY PREDICTED BY IDOCK:   -3.14 KCAL/MOL
REMARK 922        TOTAL FREE ENERGY PREDICTED BY IDOCK:   -5.96 KCAL/MOL
REMARK 923 INTER-LIGAND FREE ENERGY PREDICTED BY IDOCK:   -6.29 KCAL/MOL
REMARK 924 INTRA-LIGAND FREE ENERGY PREDICTED BY IDOCK:    0.33 KCAL/MOL
REMARK 927      BINDING AFFINITY PREDICTED BY RF-SCORE:    0.00 PKD
ROOT
HETATM    1  C   UNK A   1      -6.308  18.440  68.832  1.00  0.00    -0.231 C  
HETATM    2  C   UNK A   1      -5.159  19.264  68.256  1.00  0.00    -0.177 C  
ENDROOT
BRANCH   1   3
HETATM    3  C   UNK A   1      -7.561  19.346  68.984  1.00  0.00    -0.334 C  
ATOM      4  CA  PRO A   2      -8.211  18.946  66.538  1.00  0.00    -0.297 C  
ATOM      5  N   PRO A   2      -8.307  19.621  67.847  1.00  0.00    -0.308 N  
ATOM      6  C   PRO A   2      -7.165  19.598  65.620  1.00  0.00    -0.281 C  
HETATM    7  O   UNK A   1      -7.860  19.832  70.079  1.00  0.00     0.269 OA 
ATOM      8  CB  PRO A   2      -9.605  19.089  65.914  1.00  0.00    -0.005 C  
ATOM      9  O   PRO A   2      -6.556  20.678  66.162  1.00  0.00    -0.224 OA 
ATOM     10  CD  PRO A   2      -9.534  20.400  67.918  1.00  0.00    -0.219 C  
ATOM     11  OXT PRO A   2      -6.902  19.188  64.501  1.00  0.00    -0.217 OA 
ATOM     12  CG  PRO A   2     -10.493  19.634  67.030  1.00  0.00    -0.600 C  
ENDBRANCH   1   3
BRANCH   1  13
HETATM   13  N   UNK A   1      -6.682  17.297  67.964  1.00  0.00    -0.170 NA 
HETATM   14  H   UNK A   1      -5.861  16.954  67.464  1.00  0.00     0.000 HD 
BRANCH  13  15
HETATM   15  C   UNK A   1      -7.373  16.161  68.656  1.00  0.00    -0.175 C  
HETATM   16  O   UNK A   1      -6.544  13.911  69.226  1.00  0.00    -0.106 OA 
HETATM   17  O   UNK A   1      -5.412  15.122  67.688  1.00  0.00    -0.280 OA 
HETATM   18  C   UNK A   1      -6.425  14.937  68.574  1.00  0.00    -0.091 C  
BRANCH  15  19
HETATM   19  C   UNK A   1      -8.750  15.807  68.049  1.00  0.00    -0.171 C  
BRANCH  19  20
HETATM   20  C   UNK A   1      -8.656  15.256  66.616  1.00  0.00    -0.305 C  
BRANCH  20  21
HETATM   21  C   UNK A   1      -9.954  14.693  66.086  1.00  0.00    -0.323 A  
HETATM   22  C   UNK A   1     -12.311  13.617  64.997  1.00  0.00    -0.462 A  
HETATM   23  C   UNK A   1     -10.643  15.365  65.069  1.00  0.00    -0.445 A  
HETATM   24  C   UNK A   1     -11.814  14.830  64.525  1.00  0.00    -0.428 A  
HETATM   25  C   UNK A   1     -11.639  12.942  66.013  1.00  0.00    -0.424 A  
HETATM   26  C   UNK A   1     -10.465  13.472  66.556  1.00  0.00    -0.284 A  
ENDBRANCH  20  21
ENDBRANCH  19  20
ENDBRANCH  15  19
ENDBRANCH  13  15
ENDBRANCH   1  13
TORSDOF 6
ENDMDL
MODEL      219
REMARK 921   NORMALIZED FREE ENERGY PREDICTED BY IDOCK:   -3.12 KCAL/MOL
REMARK 922        TOTAL FREE ENERGY PREDICTED BY IDOCK:   -5.93 KCAL/MOL
REMARK 923 INTER-LIGAND FREE ENERGY PREDICTED BY IDOCK:   -5.13 KCAL/MOL
REMARK 924 INTRA-LIGAND FREE ENERGY PREDICTED BY IDOCK:   -0.80 KCAL/MOL
REMARK 927      BINDING AFFINITY PREDICTED BY RF-SCORE:    0.00 PKD
ROOT
HETATM    1  C   UNK A   1      -9.722   8.738  68.275  1.00  0.00    -0.158 C  
HETATM    2  C   UNK A   1      -9.568   8.558  66.767  1.00  0.00    -0.273 C  
ENDROOT
BRANCH   1   3
HETATM    3  C   UNK A   1      -8.900   7.642  69.008  1.00  0.00    -0.135 C  
ATOM      4  CA  PRO A   2     -10.722   7.395  70.792  1.00  0.00    -0.232 C  
ATOM      5  N   PRO A   2      -9.379   7.171  70.221  1.00  0.00    -0.156 N  
ATOM      6  C   PRO A   2     -10.794   8.682  71.627  1.00  0.00    -0.304 C  
HETATM    7  O   UNK A   1      -7.835   7.230  68.536  1.00  0.00    -0.117 OA 
ATOM      8  CB  PRO A   2     -10.977   6.179  71.693  1.00  0.00    -0.320 C  
ATOM      9  O   PRO A   2      -9.619   9.348  71.712  1.00  0.00    -0.239 OA 
ATOM     10  CD  PRO A   2      -8.707   6.094  70.933  1.00  0.00    -0.136 C  
ATOM     11  OXT PRO A   2     -11.814   9.076  72.171  1.00  0.00    -0.358 OA 
ATOM     12  CG  PRO A   2      -9.846   5.202  71.385  1.00  0.00    -0.239 C  
ENDBRANCH   1   3
BRANCH   1  13
HETATM   13  N   UNK A   1      -9.232  10.057  68.746  1.00  0.00    -0.152 NA 
HETATM   14  H   UNK A   1      -8.793   9.960  69.661  1.00  0.00     0.000 HD 
BRANCH  13  15
HETATM   15  C   UNK A   1      -8.309  10.774  67.807  1.00  0.00    -0.113 C  
HETATM   16  O   UNK A   1      -5.920  11.329  68.047  1.00  0.00    -0.046 OA 
HETATM   17  O   UNK A   1      -7.089  10.762  69.898  1.00  0.00    -0.151 OA 
HETATM   18  C   UNK A   1      -6.974  10.994  68.564  1.00  0.00    -0.070 C  
BRANCH  15  19
HETATM   19  C   UNK A   1      -8.861  12.127  67.303  1.00  0.00    -0.186 C  
BRANCH  19  20
HETATM   20  C   UNK A   1      -8.051  13.336  67.803  1.00  0.00    -0.166 C  
BRANCH  20  21
HETATM   21  C   UNK A   1      -8.782  14.654  67.696  1.00  0.00    -0.181 A  
HETATM   22  C   UNK A   1     -10.244  17.046  67.505  1.00  0.00    -0.323 A  
HETATM   23  C   UNK A   1      -9.477  14.975  66.524  1.00  0.00    -0.306 A  
HETATM   24  C   UNK A   1     -10.206  16.163  66.428  1.00  0.00    -0.315 A  
HETATM   25  C   UNK A   1      -9.552  16.742  68.675  1.00  0.00    -0.255 A  
HETATM   26  C   UNK A   1      -8.825  15.552  68.776  1.00  0.00    -0.203 A  
ENDBRANCH  20  21
ENDBRANCH  19  20
ENDBRANCH  15  19
ENDBRANCH  13  15
ENDBRANCH   1  13
TORSDOF 6
ENDMDL
MODEL      220
REMARK 921   NORMALIZED FREE ENERGY PREDICTED BY IDOCK:   -3.07 KCAL/MOL
REMARK 922        TOTAL FREE ENERGY PREDICTED BY IDOCK:   -5.86 KCAL/MOL
REMARK 923 INTER-LIGAND FREE ENERGY PREDICTED BY IDOCK:   -4.78 KCAL/MOL
REMARK 924 INTRA-LIGAND FREE ENERGY PREDICTED BY IDOCK:   -1.08 KCAL/MOL
REMARK 927      BINDING AFFINITY PREDICTED BY RF-SCORE:    0.00 PKD
ROOT
HETATM    1  C   UNK A   1     -10.577   9.820  69.114  1.00  0.00    -0.218 C  
HETATM    2  C   UNK A   1     -11.364  10.075  70.396  1.00  0.00    -0.392 C  
ENDROOT
BRANCH   1   3
HETATM    3  C   UNK A   1      -9.416  10.849  69.013  1.00  0.00    -0.146 C  
ATOM      4  CA  PRO A   2     -10.934  12.522  67.804  1.00  0.00    -0.234 C  
ATOM      5  N   PRO A   2      -9.637  12.010  68.287  1.00  0.00    -0.202 N  
ATOM      6  C   PRO A   2     -11.302  11.966  66.420  1.00  0.00    -0.339 C  
HETATM    7  O   UNK A   1      -8.322  10.619  69.538  1.00  0.00    -0.115 OA 
ATOM      8  CB  PRO A   2     -10.753  14.043  67.718  1.00  0.00    -0.248 C  
ATOM      9  O   PRO A   2     -10.365  11.146  65.890  1.00  0.00    -0.246 OA 
ATOM     10  CD  PRO A   2      -8.626  13.054  68.207  1.00  0.00    -0.167 C  
ATOM     11  OXT PRO A   2     -12.342  12.236  65.840  1.00  0.00    -0.618 OA 
ATOM     12  CG  PRO A   2      -9.419  14.331  68.402  1.00  0.00    -0.213 C  
ENDBRANCH   1   3
BRANCH   1  13
HETATM   13  N   UNK A   1      -9.980   8.463  69.070  1.00  0.00    -0.185 NA 
HETATM   14  H   UNK A   1     -10.460   7.849  69.728  1.00  0.00     0.000 HD 
BRANCH  13  15
HETATM   15  C   UNK A   1      -9.931   7.824  67.714  1.00  0.00    -0.174 C  
HETATM   16  O   UNK A   1     -11.526   6.295  66.623  1.00  0.00    -0.027 OA 
HETATM   17  O   UNK A   1     -11.661   6.579  68.862  1.00  0.00    -0.195 OA 
HETATM   18  C   UNK A   1     -11.110   6.820  67.644  1.00  0.00    -0.230 C  
BRANCH  15  19
HETATM   19  C   UNK A   1      -8.598   7.099  67.416  1.00  0.00    -0.121 C  
BRANCH  19  20
HETATM   20  C   UNK A   1      -7.538   8.017  66.785  1.00  0.00    -0.094 C  
BRANCH  20  21
HETATM   21  C   UNK A   1      -7.734   8.261  65.307  1.00  0.00    -0.106 A  
HETATM   22  C   UNK A   1      -8.216   8.691  62.572  1.00  0.00    -0.194 A  
HETATM   23  C   UNK A   1      -8.012   7.187  64.453  1.00  0.00    -0.101 A  
HETATM   24  C   UNK A   1      -8.254   7.399  63.093  1.00  0.00     0.050 A  
HETATM   25  C   UNK A   1      -7.934   9.767  63.409  1.00  0.00    -0.147 A  
HETATM   26  C   UNK A   1      -7.696   9.559  64.771  1.00  0.00    -0.119 A  
ENDBRANCH  20  21
ENDBRANCH  19  20
ENDBRANCH  15  19
ENDBRANCH  13  15
ENDBRANCH   1  13
TORSDOF 6
ENDMDL
MODEL      221
REMARK 921   NORMALIZED FREE ENERGY PREDICTED BY IDOCK:   -3.04 KCAL/MOL
REMARK 922        TOTAL FREE ENERGY PREDICTED BY IDOCK:   -5.82 KCAL/MOL
REMARK 923 INTER-LIGAND FREE ENERGY PREDICTED BY IDOCK:   -5.98 KCAL/MOL
REMARK 924 INTRA-LIGAND FREE ENERGY PREDICTED BY IDOCK:    0.16 KCAL/MOL
REMARK 927      BINDING AFFINITY PREDICTED BY RF-SCORE:    0.00 PKD
ROOT
HETATM    1  C   UNK A   1     -10.270  15.022  69.392  1.00  0.00    -0.223 C  
HETATM    2  C   UNK A   1     -10.607  16.449  69.816  1.00  0.00    -0.288 C  
ENDROOT
BRANCH   1   3
HETATM    3  C   UNK A   1     -11.413  14.471  68.495  1.00  0.00    -0.301 C  
ATOM      4  CA  PRO A   2     -10.158  15.172  66.374  1.00  0.00    -0.273 C  
ATOM      5  N   PRO A   2     -11.333  14.695  67.128  1.00  0.00    -0.345 N  
ATOM      6  C   PRO A   2     -10.091  16.705  66.305  1.00  0.00    -0.328 C  
HETATM    7  O   UNK A   1     -12.378  13.883  68.993  1.00  0.00    -0.308 OA 
ATOM      8  CB  PRO A   2     -10.333  14.599  64.962  1.00  0.00    -0.432 C  
ATOM      9  O   PRO A   2     -11.127  17.328  66.913  1.00  0.00     0.048 OA 
ATOM     10  CD  PRO A   2     -12.325  14.149  66.214  1.00  0.00    -0.422 C  
ATOM     11  OXT PRO A   2      -9.190  17.316  65.753  1.00  0.00    -0.517 OA 
ATOM     12  CG  PRO A   2     -11.493  13.613  65.066  1.00  0.00    -0.338 C  
ENDBRANCH   1   3
BRANCH   1  13
HETATM   13  N   UNK A   1      -9.009  14.941  68.614  1.00  0.00    -0.179 NA 
HETATM   14  H   UNK A   1      -8.557  15.855  68.584  1.00  0.00     0.000 HD 
BRANCH  13  15
HETATM   15  C   UNK A   1      -8.033  13.900  69.076  1.00  0.00     0.098 C  
HETATM   16  O   UNK A   1      -5.840  14.158  70.170  1.00  0.00    -0.118 OA 
HETATM   17  O   UNK A   1      -6.739  15.946  69.118  1.00  0.00    -0.141 OA 
HETATM   18  C   UNK A   1      -6.751  14.649  69.521  1.00  0.00    -0.158 C  
BRANCH  15  19
HETATM   19  C   UNK A   1      -7.686  12.850  67.995  1.00  0.00    -0.143 C  
BRANCH  19  20
HETATM   20  C   UNK A   1      -8.892  11.993  67.575  1.00  0.00    -0.172 C  
BRANCH  20  21
HETATM   21  C   UNK A   1      -9.388  11.055  68.651  1.00  0.00    -0.196 A  
HETATM   22  C   UNK A   1     -10.338   9.232  70.567  1.00  0.00    -0.312 A  
HETATM   23  C   UNK A   1     -10.761  10.834  68.807  1.00  0.00    -0.243 A  
HETATM   24  C   UNK A   1     -11.235   9.927  69.759  1.00  0.00    -0.279 A  
HETATM   25  C   UNK A   1      -8.969   9.447  70.426  1.00  0.00    -0.294 A  
HETATM   26  C   UNK A   1      -8.491  10.351  69.473  1.00  0.00    -0.115 A  
ENDBRANCH  20  21
ENDBRANCH  19  20
ENDBRANCH  15  19
ENDBRANCH  13  15
ENDBRANCH   1  13
TORSDOF 6
ENDMDL
MODEL      222
REMARK 921   NORMALIZED FREE ENERGY PREDICTED BY IDOCK:   -3.02 KCAL/MOL
REMARK 922        TOTAL FREE ENERGY PREDICTED BY IDOCK:   -5.80 KCAL/MOL
REMARK 923 INTER-LIGAND FREE ENERGY PREDICTED BY IDOCK:   -4.74 KCAL/MOL
REMARK 924 INTRA-LIGAND FREE ENERGY PREDICTED BY IDOCK:   -1.06 KCAL/MOL
REMARK 927      BINDING AFFINITY PREDICTED BY RF-SCORE:    0.00 PKD
ROOT
HETATM    1  C   UNK A   1      -8.162   6.867  68.641  1.00  0.00    -0.121 C  
HETATM    2  C   UNK A   1      -7.292   6.229  67.561  1.00  0.00    -0.080 C  
ENDROOT
BRANCH   1   3
HETATM    3  C   UNK A   1      -9.466   7.411  67.991  1.00  0.00    -0.141 C  
ATOM      4  CA  PRO A   2      -8.311   9.621  67.402  1.00  0.00    -0.114 C  
ATOM      5  N   PRO A   2      -9.476   8.730  67.560  1.00  0.00    -0.139 N  
ATOM      6  C   PRO A   2      -7.978  10.381  68.695  1.00  0.00    -0.115 C  
HETATM    7  O   UNK A   1     -10.468   6.697  67.895  1.00  0.00    -0.175 OA 
ATOM      8  CB  PRO A   2      -8.718  10.616  66.308  1.00  0.00    -0.163 C  
ATOM      9  O   PRO A   2      -8.825  10.122  69.718  1.00  0.00    -0.193 OA 
ATOM     10  CD  PRO A   2     -10.632   9.291  66.877  1.00  0.00    -0.169 C  
ATOM     11  OXT PRO A   2      -7.039  11.154  68.799  1.00  0.00    -0.078 OA 
ATOM     12  CG  PRO A   2     -10.021  10.070  65.729  1.00  0.00    -0.346 C  
ENDBRANCH   1   3
BRANCH   1  13
HETATM   13  N   UNK A   1      -8.555   5.905  69.700  1.00  0.00    -0.120 NA 
HETATM   14  H   UNK A   1      -8.616   4.964  69.312  1.00  0.00     0.000 HD 
BRANCH  13  15
HETATM   15  C   UNK A   1      -7.687   5.902  70.922  1.00  0.00    -0.098 C  
HETATM   16  O   UNK A   1      -6.635   4.021  72.116  1.00  0.00    -0.020 OA 
HETATM   17  O   UNK A   1      -8.321   3.579  70.675  1.00  0.00    -0.065 OA 
HETATM   18  C   UNK A   1      -7.471   4.420  71.321  1.00  0.00    -0.060 C  
BRANCH  15  19
HETATM   19  C   UNK A   1      -8.284   6.690  72.111  1.00  0.00    -0.105 C  
BRANCH  19  20
HETATM   20  C   UNK A   1      -9.642   6.141  72.580  1.00  0.00    -0.149 C  
BRANCH  20  21
HETATM   21  C   UNK A   1     -10.818   7.022  72.228  1.00  0.00    -0.262 A  
HETATM   22  C   UNK A   1     -12.953   8.683  71.467  1.00  0.00    -0.344 A  
HETATM   23  C   UNK A   1     -10.664   8.413  72.194  1.00  0.00    -0.407 A  
HETATM   24  C   UNK A   1     -11.725   9.240  71.815  1.00  0.00    -0.456 A  
HETATM   25  C   UNK A   1     -13.122   7.301  71.502  1.00  0.00    -0.434 A  
HETATM   26  C   UNK A   1     -12.063   6.470  71.877  1.00  0.00    -0.388 A  
ENDBRANCH  20  21
ENDBRANCH  19  20
ENDBRANCH  15  19
ENDBRANCH  13  15
ENDBRANCH   1  13
TORSDOF 6
ENDMDL
MODEL      223
REMARK 921   NORMALIZED FREE ENERGY PREDICTED BY IDOCK:   -3.02 KCAL/MOL
REMARK 922        TOTAL FREE ENERGY PREDICTED BY IDOCK:   -5.80 KCAL/MOL
REMARK 923 INTER-LIGAND FREE ENERGY PREDICTED BY IDOCK:   -5.79 KCAL/MOL
REMARK 924 INTRA-LIGAND FREE ENERGY PREDICTED BY IDOCK:   -0.01 KCAL/MOL
REMARK 927      BINDING AFFINITY PREDICTED BY RF-SCORE:    0.00 PKD
ROOT
HETATM    1  C   UNK A   1      -9.420  10.804  65.224  1.00  0.00    -0.218 C  
HETATM    2  C   UNK A   1     -10.107   9.816  66.162  1.00  0.00    -0.315 C  
ENDROOT
BRANCH   1   3
HETATM    3  C   UNK A   1     -10.501  11.611  64.450  1.00  0.00    -0.322 C  
ATOM      4  CA  PRO A   2     -10.583  13.377  66.305  1.00  0.00    -0.291 C  
ATOM      5  N   PRO A   2     -11.066  12.711  65.079  1.00  0.00    -0.284 N  
ATOM      6  C   PRO A   2     -11.167  12.750  67.579  1.00  0.00    -0.289 C  
HETATM    7  O   UNK A   1     -10.866  11.259  63.324  1.00  0.00    -0.326 OA 
ATOM      8  CB  PRO A   2     -11.058  14.830  66.179  1.00  0.00    -0.339 C  
ATOM      9  O   PRO A   2     -12.032  11.736  67.345  1.00  0.00    -0.617 OA 
ATOM     10  CD  PRO A   2     -12.029  13.559  64.395  1.00  0.00    -0.422 C  
ATOM     11  OXT PRO A   2     -10.886  13.127  68.706  1.00  0.00    -0.251 OA 
ATOM     12  CG  PRO A   2     -11.581  14.963  64.751  1.00  0.00    -0.410 C  
ENDBRANCH   1   3
BRANCH   1  13
HETATM   13  N   UNK A   1      -8.564  11.777  65.945  1.00  0.00    -0.393 NA 
HETATM   14  H   UNK A   1      -9.140  12.511  66.357  1.00  0.00     0.000 HD 
BRANCH  13  15
HETATM   15  C   UNK A   1      -7.658  11.189  66.986  1.00  0.00    -0.135 C  
HETATM   16  O   UNK A   1      -6.684  12.218  69.003  1.00  0.00    -0.096 OA 
HETATM   17  O   UNK A   1      -7.518  13.572  67.395  1.00  0.00    -0.168 OA 
HETATM   18  C   UNK A   1      -7.224  12.352  67.916  1.00  0.00    -0.110 C  
BRANCH  15  19
HETATM   19  C   UNK A   1      -6.413  10.484  66.401  1.00  0.00    -0.105 C  
BRANCH  19  20
HETATM   20  C   UNK A   1      -6.057   9.178  67.133  1.00  0.00    -0.057 C  
BRANCH  20  21
HETATM   21  C   UNK A   1      -7.053   8.062  66.920  1.00  0.00    -0.081 A  
HETATM   22  C   UNK A   1      -8.813   5.910  66.512  1.00  0.00    -0.128 A  
HETATM   23  C   UNK A   1      -7.218   7.506  65.646  1.00  0.00    -0.066 A  
HETATM   24  C   UNK A   1      -8.092   6.434  65.442  1.00  0.00    -0.128 A  
HETATM   25  C   UNK A   1      -8.664   6.458  67.783  1.00  0.00    -0.114 A  
HETATM   26  C   UNK A   1      -7.788   7.527  67.993  1.00  0.00    -0.121 A  
ENDBRANCH  20  21
ENDBRANCH  19  20
ENDBRANCH  15  19
ENDBRANCH  13  15
ENDBRANCH   1  13
TORSDOF 6
ENDMDL
MODEL      224
REMARK 921   NORMALIZED FREE ENERGY PREDICTED BY IDOCK:   -3.00 KCAL/MOL
REMARK 922        TOTAL FREE ENERGY PREDICTED BY IDOCK:   -5.76 KCAL/MOL
REMARK 923 INTER-LIGAND FREE ENERGY PREDICTED BY IDOCK:   -4.77 KCAL/MOL
REMARK 924 INTRA-LIGAND FREE ENERGY PREDICTED BY IDOCK:   -0.99 KCAL/MOL
REMARK 927      BINDING AFFINITY PREDICTED BY RF-SCORE:    0.00 PKD
ROOT
HETATM    1  C   UNK A   1     -10.607   9.714  69.163  1.00  0.00    -0.220 C  
HETATM    2  C   UNK A   1     -11.611  10.466  70.033  1.00  0.00    -0.378 C  
ENDROOT
BRANCH   1   3
HETATM    3  C   UNK A   1      -9.278  10.518  69.106  1.00  0.00    -0.171 C  
ATOM      4  CA  PRO A   2     -10.099  11.829  67.064  1.00  0.00    -0.209 C  
ATOM      5  N   PRO A   2      -9.083  11.379  68.035  1.00  0.00    -0.164 N  
ATOM      6  C   PRO A   2     -10.222  10.878  65.864  1.00  0.00    -0.257 C  
HETATM    7  O   UNK A   1      -8.410  10.367  69.972  1.00  0.00    -0.033 OA 
ATOM      8  CB  PRO A   2      -9.608  13.203  66.586  1.00  0.00    -0.260 C  
ATOM      9  O   PRO A   2      -9.364   9.833  65.902  1.00  0.00    -0.173 OA 
ATOM     10  CD  PRO A   2      -7.899  12.220  67.947  1.00  0.00    -0.146 C  
ATOM     11  OXT PRO A   2     -11.017  11.043  64.952  1.00  0.00    -0.203 OA 
ATOM     12  CG  PRO A   2      -8.450  13.563  67.512  1.00  0.00    -0.192 C  
ENDBRANCH   1   3
BRANCH   1  13
HETATM   13  N   UNK A   1     -10.292   8.364  69.691  1.00  0.00    -0.214 NA 
HETATM   14  H   UNK A   1     -11.130   7.943  70.094  1.00  0.00     0.000 HD 
BRANCH  13  15
HETATM   15  C   UNK A   1      -9.663   7.419  68.711  1.00  0.00    -0.149 C  
HETATM   16  O   UNK A   1     -10.497   5.284  67.807  1.00  0.00    -0.168 OA 
HETATM   17  O   UNK A   1     -11.461   6.116  69.676  1.00  0.00    -0.429 OA 
HETATM   18  C   UNK A   1     -10.561   6.157  68.659  1.00  0.00    -0.270 C  
BRANCH  15  19
HETATM   19  C   UNK A   1      -8.213   7.024  69.072  1.00  0.00    -0.125 C  
BRANCH  19  20
HETATM   20  C   UNK A   1      -8.128   6.065  70.272  1.00  0.00    -0.111 C  
BRANCH  20  21
HETATM   21  C   UNK A   1      -8.167   6.754  71.616  1.00  0.00    -0.110 A  
HETATM   22  C   UNK A   1      -8.289   8.132  74.062  1.00  0.00    -0.309 A  
HETATM   23  C   UNK A   1      -7.287   7.809  71.886  1.00  0.00    -0.071 A  
HETATM   24  C   UNK A   1      -7.347   8.496  73.101  1.00  0.00    -0.038 A  
HETATM   25  C   UNK A   1      -9.166   7.081  73.808  1.00  0.00    -0.235 A  
HETATM   26  C   UNK A   1      -9.111   6.393  72.592  1.00  0.00    -0.135 A  
ENDBRANCH  20  21
ENDBRANCH  19  20
ENDBRANCH  15  19
ENDBRANCH  13  15
ENDBRANCH   1  13
TORSDOF 6
ENDMDL
MODEL      225
REMARK 921   NORMALIZED FREE ENERGY PREDICTED BY IDOCK:   -2.99 KCAL/MOL
REMARK 922        TOTAL FREE ENERGY PREDICTED BY IDOCK:   -5.75 KCAL/MOL
REMARK 923 INTER-LIGAND FREE ENERGY PREDICTED BY IDOCK:   -5.16 KCAL/MOL
REMARK 924 INTRA-LIGAND FREE ENERGY PREDICTED BY IDOCK:   -0.59 KCAL/MOL
REMARK 927      BINDING AFFINITY PREDICTED BY RF-SCORE:    0.00 PKD
ROOT
HETATM    1  C   UNK A   1     -10.927  11.780  67.533  1.00  0.00    -0.256 C  
HETATM    2  C   UNK A   1     -11.864  12.102  66.372  1.00  0.00    -0.321 C  
ENDROOT
BRANCH   1   3
HETATM    3  C   UNK A   1     -11.346  12.616  68.775  1.00  0.00    -0.289 C  
ATOM      4  CA  PRO A   2     -10.497  14.769  67.675  1.00  0.00    -0.254 C  
ATOM      5  N   PRO A   2     -10.997  13.959  68.803  1.00  0.00    -0.256 N  
ATOM      6  C   PRO A   2      -8.968  14.704  67.542  1.00  0.00    -0.190 C  
HETATM    7  O   UNK A   1     -11.940  12.089  69.720  1.00  0.00    -0.308 OA 
ATOM      8  CB  PRO A   2     -10.926  16.206  67.999  1.00  0.00    -0.338 C  
ATOM      9  O   PRO A   2      -8.366  13.951  68.491  1.00  0.00    -0.155 OA 
ATOM     10  CD  PRO A   2     -11.414  14.825  69.895  1.00  0.00    -0.281 C  
ATOM     11  OXT PRO A   2      -8.343  15.278  66.664  1.00  0.00    -0.256 OA 
ATOM     12  CG  PRO A   2     -11.872  16.087  69.192  1.00  0.00    -0.268 C  
ENDBRANCH   1   3
BRANCH   1  13
HETATM   13  N   UNK A   1     -10.969  10.348  67.920  1.00  0.00    -0.280 NA 
HETATM   14  H   UNK A   1     -11.906  10.100  68.239  1.00  0.00     0.000 HD 
BRANCH  13  15
HETATM   15  C   UNK A   1     -10.512   9.383  66.868  1.00  0.00    -0.211 C  
HETATM   16  O   UNK A   1     -10.406   6.921  66.914  1.00  0.00    -0.235 OA 
HETATM   17  O   UNK A   1     -10.602   8.031  68.874  1.00  0.00    -0.210 OA 
HETATM   18  C   UNK A   1     -10.495   7.977  67.521  1.00  0.00    -0.260 C  
BRANCH  15  19
HETATM   19  C   UNK A   1      -9.120   9.713  66.283  1.00  0.00    -0.197 C  
BRANCH  19  20
HETATM   20  C   UNK A   1      -8.008   8.790  66.810  1.00  0.00    -0.097 C  
BRANCH  20  21
HETATM   21  C   UNK A   1      -7.414   9.230  68.128  1.00  0.00    -0.083 A  
HETATM   22  C   UNK A   1      -6.202  10.013  70.539  1.00  0.00    -0.109 A  
HETATM   23  C   UNK A   1      -6.969   8.273  69.048  1.00  0.00    -0.061 A  
HETATM   24  C   UNK A   1      -6.365   8.661  70.247  1.00  0.00    -0.038 A  
HETATM   25  C   UNK A   1      -6.646  10.975  69.636  1.00  0.00    -0.132 A  
HETATM   26  C   UNK A   1      -7.248  10.591  68.434  1.00  0.00    -0.080 A  
ENDBRANCH  20  21
ENDBRANCH  19  20
ENDBRANCH  15  19
ENDBRANCH  13  15
ENDBRANCH   1  13
TORSDOF 6
ENDMDL
MODEL      226
REMARK 921   NORMALIZED FREE ENERGY PREDICTED BY IDOCK:   -2.97 KCAL/MOL
REMARK 922        TOTAL FREE ENERGY PREDICTED BY IDOCK:   -5.73 KCAL/MOL
REMARK 923 INTER-LIGAND FREE ENERGY PREDICTED BY IDOCK:   -6.54 KCAL/MOL
REMARK 924 INTRA-LIGAND FREE ENERGY PREDICTED BY IDOCK:    0.81 KCAL/MOL
REMARK 927      BINDING AFFINITY PREDICTED BY RF-SCORE:    0.00 PKD
ROOT
HETATM    1  C   UNK A   1     -10.730  10.242  70.069  1.00  0.00    -0.292 C  
HETATM    2  C   UNK A   1     -11.778  10.447  71.159  1.00  0.00    -0.387 C  
ENDROOT
BRANCH   1   3
HETATM    3  C   UNK A   1      -9.655   9.239  70.575  1.00  0.00    -0.262 C  
ATOM      4  CA  PRO A   2     -11.283   7.279  70.305  1.00  0.00    -0.262 C  
ATOM      5  N   PRO A   2     -10.037   7.920  70.769  1.00  0.00    -0.192 N  
ATOM      6  C   PRO A   2     -12.426   7.423  71.320  1.00  0.00    -0.346 C  
HETATM    7  O   UNK A   1      -8.508   9.618  70.828  1.00  0.00    -0.245 OA 
ATOM      8  CB  PRO A   2     -10.927   5.796  70.135  1.00  0.00    -0.368 C  
ATOM      9  O   PRO A   2     -12.076   8.074  72.453  1.00  0.00    -0.340 OA 
ATOM     10  CD  PRO A   2      -9.073   6.906  71.170  1.00  0.00    -0.150 C  
ATOM     11  OXT PRO A   2     -13.553   6.991  71.133  1.00  0.00    -0.271 OA 
ATOM     12  CG  PRO A   2      -9.410   5.725  70.281  1.00  0.00    -0.185 C  
ENDBRANCH   1   3
BRANCH   1  13
HETATM   13  N   UNK A   1     -11.307   9.690  68.819  1.00  0.00    -0.473 NA 
HETATM   14  H   UNK A   1     -12.323   9.640  68.895  1.00  0.00     0.000 HD 
BRANCH  13  15
HETATM   15  C   UNK A   1     -10.921  10.407  67.560  1.00  0.00    -0.295 C  
HETATM   16  O   UNK A   1     -10.007   9.525  65.448  1.00  0.00    -0.284 OA 
HETATM   17  O   UNK A   1      -9.918   8.220  67.293  1.00  0.00    -0.182 OA 
HETATM   18  C   UNK A   1     -10.238   9.366  66.637  1.00  0.00    -0.249 C  
BRANCH  15  19
HETATM   19  C   UNK A   1      -9.977  11.609  67.793  1.00  0.00    -0.191 C  
BRANCH  19  20
HETATM   20  C   UNK A   1     -10.601  12.956  67.389  1.00  0.00    -0.242 C  
BRANCH  20  21
HETATM   21  C   UNK A   1      -9.818  14.162  67.854  1.00  0.00    -0.224 A  
HETATM   22  C   UNK A   1      -8.377  16.454  68.609  1.00  0.00    -0.221 A  
HETATM   23  C   UNK A   1      -8.522  14.382  67.373  1.00  0.00    -0.216 A  
HETATM   24  C   UNK A   1      -7.805  15.522  67.746  1.00  0.00    -0.158 A  
HETATM   25  C   UNK A   1      -9.663  16.244  69.099  1.00  0.00    -0.265 A  
HETATM   26  C   UNK A   1     -10.386  15.107  68.725  1.00  0.00    -0.236 A  
ENDBRANCH  20  21
ENDBRANCH  19  20
ENDBRANCH  15  19
ENDBRANCH  13  15
ENDBRANCH   1  13
TORSDOF 6
ENDMDL
MODEL      227
REMARK 921   NORMALIZED FREE ENERGY PREDICTED BY IDOCK:   -2.95 KCAL/MOL
REMARK 922        TOTAL FREE ENERGY PREDICTED BY IDOCK:   -5.70 KCAL/MOL
REMARK 923 INTER-LIGAND FREE ENERGY PREDICTED BY IDOCK:   -4.25 KCAL/MOL
REMARK 924 INTRA-LIGAND FREE ENERGY PREDICTED BY IDOCK:   -1.45 KCAL/MOL
REMARK 927      BINDING AFFINITY PREDICTED BY RF-SCORE:    0.00 PKD
ROOT
HETATM    1  C   UNK A   1     -10.339   7.157  70.776  1.00  0.00    -0.206 C  
HETATM    2  C   UNK A   1     -11.822   6.797  70.746  1.00  0.00    -0.446 C  
ENDROOT
BRANCH   1   3
HETATM    3  C   UNK A   1      -9.592   6.169  71.715  1.00  0.00    -0.150 C  
ATOM      4  CA  PRO A   2      -8.092   8.053  72.589  1.00  0.00    -0.145 C  
ATOM      5  N   PRO A   2      -8.494   6.644  72.418  1.00  0.00    -0.117 N  
ATOM      6  C   PRO A   2      -7.175   8.540  71.457  1.00  0.00    -0.095 C  
HETATM    7  O   UNK A   1      -9.949   4.990  71.804  1.00  0.00    -0.176 OA 
ATOM      8  CB  PRO A   2      -7.332   8.090  73.921  1.00  0.00    -0.196 C  
ATOM      9  O   PRO A   2      -6.882   7.589  70.541  1.00  0.00    -0.046 OA 
ATOM     10  CD  PRO A   2      -7.787   5.803  73.372  1.00  0.00    -0.109 C  
ATOM     11  OXT PRO A   2      -6.742   9.679  71.383  1.00  0.00    -0.311 OA 
ATOM     12  CG  PRO A   2      -7.563   6.721  74.557  1.00  0.00    -0.121 C  
ENDBRANCH   1   3
BRANCH   1  13
HETATM   13  N   UNK A   1      -9.704   7.071  69.437  1.00  0.00    -0.158 NA 
HETATM   14  H   UNK A   1      -8.797   6.610  69.510  1.00  0.00     0.000 HD 
BRANCH  13  15
HETATM   15  C   UNK A   1     -10.530   6.413  68.373  1.00  0.00    -0.222 C  
HETATM   16  O   UNK A   1     -10.353   4.158  67.396  1.00  0.00     0.116 OA 
HETATM   17  O   UNK A   1      -8.588   4.978  68.548  1.00  0.00    -0.094 OA 
HETATM   18  C   UNK A   1      -9.845   5.064  68.037  1.00  0.00    -0.149 C  
BRANCH  15  19
HETATM   19  C   UNK A   1     -10.685   7.263  67.091  1.00  0.00    -0.413 C  
BRANCH  19  20
HETATM   20  C   UNK A   1     -10.546   8.774  67.346  1.00  0.00    -0.304 C  
BRANCH  20  21
HETATM   21  C   UNK A   1      -9.281   9.379  66.785  1.00  0.00    -0.179 A  
HETATM   22  C   UNK A   1      -6.995  10.586  65.681  1.00  0.00    -0.113 A  
HETATM   23  C   UNK A   1      -8.962   9.203  65.433  1.00  0.00    -0.255 A  
HETATM   24  C   UNK A   1      -7.826   9.804  64.882  1.00  0.00    -0.133 A  
HETATM   25  C   UNK A   1      -7.297  10.764  67.029  1.00  0.00    -0.110 A  
HETATM   26  C   UNK A   1      -8.434  10.168  67.582  1.00  0.00    -0.118 A  
ENDBRANCH  20  21
ENDBRANCH  19  20
ENDBRANCH  15  19
ENDBRANCH  13  15
ENDBRANCH   1  13
TORSDOF 6
ENDMDL
MODEL      228
REMARK 921   NORMALIZED FREE ENERGY PREDICTED BY IDOCK:   -2.94 KCAL/MOL
REMARK 922        TOTAL FREE ENERGY PREDICTED BY IDOCK:   -5.68 KCAL/MOL
REMARK 923 INTER-LIGAND FREE ENERGY PREDICTED BY IDOCK:   -5.42 KCAL/MOL
REMARK 924 INTRA-LIGAND FREE ENERGY PREDICTED BY IDOCK:   -0.27 KCAL/MOL
REMARK 927      BINDING AFFINITY PREDICTED BY RF-SCORE:    0.00 PKD
ROOT
HETATM    1  C   UNK A   1      -9.912   6.438  69.720  1.00  0.00    -0.166 C  
HETATM    2  C   UNK A   1     -10.419   5.021  69.976  1.00  0.00    -0.226 C  
ENDROOT
BRANCH   1   3
HETATM    3  C   UNK A   1      -9.015   6.438  68.451  1.00  0.00    -0.120 C  
ATOM      4  CA  PRO A   2      -7.015   5.578  69.801  1.00  0.00    -0.062 C  
ATOM      5  N   PRO A   2      -7.667   6.148  68.606  1.00  0.00    -0.098 N  
ATOM      6  C   PRO A   2      -6.568   6.661  70.794  1.00  0.00    -0.053 C  
HETATM    7  O   UNK A   1      -9.486   6.722  67.345  1.00  0.00    -0.130 OA 
ATOM      8  CB  PRO A   2      -5.787   4.831  69.264  1.00  0.00    -0.017 C  
ATOM      9  O   PRO A   2      -6.822   7.924  70.381  1.00  0.00    -0.041 OA 
ATOM     10  CD  PRO A   2      -6.777   6.056  67.459  1.00  0.00    -0.058 C  
ATOM     11  OXT PRO A   2      -6.029   6.415  71.862  1.00  0.00    -0.036 OA 
ATOM     12  CG  PRO A   2      -5.953   4.817  67.747  1.00  0.00    -0.023 C  
ENDBRANCH   1   3
BRANCH   1  13
HETATM   13  N   UNK A   1     -11.013   7.406  69.493  1.00  0.00    -0.396 NA 
HETATM   14  H   UNK A   1     -11.908   6.917  69.462  1.00  0.00     0.000 HD 
BRANCH  13  15
HETATM   15  C   UNK A   1     -11.082   8.543  70.467  1.00  0.00    -0.244 C  
HETATM   16  O   UNK A   1     -12.547   8.869  72.422  1.00  0.00    -0.382 OA 
HETATM   17  O   UNK A   1     -13.129   7.319  70.883  1.00  0.00    -0.220 OA 
HETATM   18  C   UNK A   1     -12.313   8.288  71.374  1.00  0.00    -0.299 C  
BRANCH  15  19
HETATM   19  C   UNK A   1     -11.197   9.932  69.797  1.00  0.00    -0.279 C  
BRANCH  19  20
HETATM   20  C   UNK A   1     -12.425  10.730  70.264  1.00  0.00    -0.395 C  
BRANCH  20  21
HETATM   21  C   UNK A   1     -12.221  12.227  70.272  1.00  0.00    -0.342 A  
HETATM   22  C   UNK A   1     -11.915  15.020  70.193  1.00  0.00    -0.366 A  
HETATM   23  C   UNK A   1     -11.463  12.834  69.264  1.00  0.00    -0.349 A  
HETATM   24  C   UNK A   1     -11.311  14.223  69.222  1.00  0.00    -0.322 A  
HETATM   25  C   UNK A   1     -12.666  14.428  71.205  1.00  0.00    -0.422 A  
HETATM   26  C   UNK A   1     -12.824  13.040  71.248  1.00  0.00    -0.370 A  
ENDBRANCH  20  21
ENDBRANCH  19  20
ENDBRANCH  15  19
ENDBRANCH  13  15
ENDBRANCH   1  13
TORSDOF 6
ENDMDL
MODEL      229
REMARK 921   NORMALIZED FREE ENERGY PREDICTED BY IDOCK:   -2.90 KCAL/MOL
REMARK 922        TOTAL FREE ENERGY PREDICTED BY IDOCK:   -5.63 KCAL/MOL
REMARK 923 INTER-LIGAND FREE ENERGY PREDICTED BY IDOCK:   -6.38 KCAL/MOL
REMARK 924 INTRA-LIGAND FREE ENERGY PREDICTED BY IDOCK:    0.75 KCAL/MOL
REMARK 927      BINDING AFFINITY PREDICTED BY RF-SCORE:    0.00 PKD
ROOT
HETATM    1  C   UNK A   1     -10.905  10.042  68.089  1.00  0.00    -0.255 C  
HETATM    2  C   UNK A   1     -11.219  11.289  67.267  1.00  0.00    -0.364 C  
ENDROOT
BRANCH   1   3
HETATM    3  C   UNK A   1      -9.709   9.290  67.440  1.00  0.00    -0.161 C  
ATOM      4  CA  PRO A   2     -10.784   7.024  67.962  1.00  0.00    -0.194 C  
ATOM      5  N   PRO A   2      -9.680   7.906  67.538  1.00  0.00    -0.151 N  
ATOM      6  C   PRO A   2     -10.811   6.811  69.483  1.00  0.00    -0.273 C  
HETATM    7  O   UNK A   1      -8.799   9.912  66.885  1.00  0.00    -0.133 OA 
ATOM      8  CB  PRO A   2     -10.515   5.687  67.259  1.00  0.00    -0.322 C  
ATOM      9  O   PRO A   2      -9.810   7.438  70.142  1.00  0.00    -0.179 OA 
ATOM     10  CD  PRO A   2      -8.635   7.125  66.895  1.00  0.00    -0.124 C  
ATOM     11  OXT PRO A   2     -11.654   6.138  70.054  1.00  0.00    -0.392 OA 
ATOM     12  CG  PRO A   2      -9.389   5.970  66.268  1.00  0.00    -0.165 C  
ENDBRANCH   1   3
BRANCH   1  13
HETATM   13  N   UNK A   1     -10.529  10.360  69.489  1.00  0.00    -0.236 NA 
HETATM   14  H   UNK A   1      -9.543  10.617  69.536  1.00  0.00     0.000 HD 
BRANCH  13  15
HETATM   15  C   UNK A   1     -11.367  11.408  70.158  1.00  0.00    -0.119 C  
HETATM   16  O   UNK A   1     -13.080  11.186  71.915  1.00  0.00    -0.488 OA 
HETATM   17  O   UNK A   1     -12.460   9.337  70.771  1.00  0.00    -0.191 OA 
HETATM   18  C   UNK A   1     -12.396  10.665  71.048  1.00  0.00    -0.403 C  
BRANCH  15  19
HETATM   19  C   UNK A   1     -12.099  12.345  69.169  1.00  0.00    -0.195 C  
BRANCH  19  20
HETATM   20  C   UNK A   1     -12.160  13.804  69.651  1.00  0.00    -0.392 C  
BRANCH  20  21
HETATM   21  C   UNK A   1     -11.233  14.738  68.909  1.00  0.00    -0.282 A  
HETATM   22  C   UNK A   1      -9.484  16.530  67.633  1.00  0.00    -0.225 A  
HETATM   23  C   UNK A   1     -11.599  16.075  68.712  1.00  0.00    -0.352 A  
HETATM   24  C   UNK A   1     -10.729  16.967  68.079  1.00  0.00    -0.365 A  
HETATM   25  C   UNK A   1      -9.111  15.201  67.817  1.00  0.00    -0.179 A  
HETATM   26  C   UNK A   1      -9.976  14.306  68.453  1.00  0.00    -0.240 A  
ENDBRANCH  20  21
ENDBRANCH  19  20
ENDBRANCH  15  19
ENDBRANCH  13  15
ENDBRANCH   1  13
TORSDOF 6
ENDMDL
MODEL      230
REMARK 921   NORMALIZED FREE ENERGY PREDICTED BY IDOCK:   -2.89 KCAL/MOL
REMARK 922        TOTAL FREE ENERGY PREDICTED BY IDOCK:   -5.62 KCAL/MOL
REMARK 923 INTER-LIGAND FREE ENERGY PREDICTED BY IDOCK:   -6.40 KCAL/MOL
REMARK 924 INTRA-LIGAND FREE ENERGY PREDICTED BY IDOCK:    0.77 KCAL/MOL
REMARK 927      BINDING AFFINITY PREDICTED BY RF-SCORE:    0.00 PKD
ROOT
HETATM    1  C   UNK A   1     -10.807   7.554  68.930  1.00  0.00    -0.037 C  
HETATM    2  C   UNK A   1     -11.022   6.118  68.462  1.00  0.00    -0.404 C  
ENDROOT
BRANCH   1   3
HETATM    3  C   UNK A   1     -11.217   7.672  70.424  1.00  0.00    -0.244 C  
ATOM      4  CA  PRO A   2      -8.970   6.693  71.171  1.00  0.00    -0.145 C  
ATOM      5  N   PRO A   2     -10.362   7.138  71.377  1.00  0.00    -0.197 N  
ATOM      6  C   PRO A   2      -8.886   5.223  70.736  1.00  0.00    -0.135 C  
HETATM    7  O   UNK A   1     -12.288   8.196  70.745  1.00  0.00    -0.123 OA 
ATOM      8  CB  PRO A   2      -8.292   6.867  72.537  1.00  0.00    -0.116 C  
ATOM      9  O   PRO A   2     -10.086   4.605  70.654  1.00  0.00    -0.223 OA 
ATOM     10  CD  PRO A   2     -10.638   7.272  72.800  1.00  0.00    -0.281 C  
ATOM     11  OXT PRO A   2      -7.835   4.654  70.486  1.00  0.00    -0.053 OA 
ATOM     12  CG  PRO A   2      -9.292   7.643  73.389  1.00  0.00    -0.324 C  
ENDBRANCH   1   3
BRANCH   1  13
HETATM   13  N   UNK A   1      -9.392   7.986  68.816  1.00  0.00    -0.147 NA 
HETATM   14  H   UNK A   1      -8.801   7.188  68.585  1.00  0.00     0.000 HD 
BRANCH  13  15
HETATM   15  C   UNK A   1      -9.137   9.110  67.856  1.00  0.00    -0.127 C  
HETATM   16  O   UNK A   1      -8.373  11.414  68.280  1.00  0.00    -0.138 OA 
HETATM   17  O   UNK A   1      -9.184  10.209  70.013  1.00  0.00    -0.166 OA 
HETATM   18  C   UNK A   1      -8.851  10.375  68.706  1.00  0.00    -0.157 C  
BRANCH  15  19
HETATM   19  C   UNK A   1     -10.309   9.377  66.885  1.00  0.00    -0.308 C  
BRANCH  19  20
HETATM   20  C   UNK A   1      -9.868  10.046  65.572  1.00  0.00    -0.373 C  
BRANCH  20  21
HETATM   21  C   UNK A   1     -10.673  11.270  65.202  1.00  0.00    -0.312 A  
HETATM   22  C   UNK A   1     -12.256  13.473  64.470  1.00  0.00    -0.445 A  
HETATM   23  C   UNK A   1     -10.810  11.636  63.858  1.00  0.00    -0.471 A  
HETATM   24  C   UNK A   1     -11.598  12.730  63.492  1.00  0.00    -0.565 A  
HETATM   25  C   UNK A   1     -12.124  13.123  65.811  1.00  0.00    -0.502 A  
HETATM   26  C   UNK A   1     -11.339  12.027  66.181  1.00  0.00    -0.407 A  
ENDBRANCH  20  21
ENDBRANCH  19  20
ENDBRANCH  15  19
ENDBRANCH  13  15
ENDBRANCH   1  13
TORSDOF 6
ENDMDL
MODEL      231
REMARK 921   NORMALIZED FREE ENERGY PREDICTED BY IDOCK:   -2.88 KCAL/MOL
REMARK 922        TOTAL FREE ENERGY PREDICTED BY IDOCK:   -5.61 KCAL/MOL
REMARK 923 INTER-LIGAND FREE ENERGY PREDICTED BY IDOCK:   -5.21 KCAL/MOL
REMARK 924 INTRA-LIGAND FREE ENERGY PREDICTED BY IDOCK:   -0.40 KCAL/MOL
REMARK 927      BINDING AFFINITY PREDICTED BY RF-SCORE:    0.00 PKD
ROOT
HETATM    1  C   UNK A   1      -9.221   5.644  69.864  1.00  0.00    -0.146 C  
HETATM    2  C   UNK A   1      -8.381   4.400  70.140  1.00  0.00    -0.079 C  
ENDROOT
BRANCH   1   3
HETATM    3  C   UNK A   1      -8.884   6.734  70.921  1.00  0.00    -0.146 C  
ATOM      4  CA  PRO A   2      -9.310   5.083  72.834  1.00  0.00    -0.134 C  
ATOM      5  N   PRO A   2      -9.072   6.422  72.260  1.00  0.00    -0.140 N  
ATOM      6  C   PRO A   2     -10.802   4.720  72.870  1.00  0.00    -0.237 C  
HETATM    7  O   UNK A   1      -8.494   7.852  70.572  1.00  0.00    -0.122 OA 
ATOM      8  CB  PRO A   2      -8.763   5.163  74.265  1.00  0.00    -0.113 C  
ATOM      9  O   PRO A   2     -11.616   5.696  72.405  1.00  0.00    -0.284 OA 
ATOM     10  CD  PRO A   2      -8.712   7.360  73.312  1.00  0.00    -0.151 C  
ATOM     11  OXT PRO A   2     -11.226   3.652  73.282  1.00  0.00    -0.183 OA 
ATOM     12  CG  PRO A   2      -8.014   6.490  74.339  1.00  0.00    -0.119 C  
ENDBRANCH   1   3
BRANCH   1  13
HETATM   13  N   UNK A   1      -8.960   6.223  68.523  1.00  0.00    -0.124 NA 
HETATM   14  H   UNK A   1      -8.038   5.938  68.193  1.00  0.00     0.000 HD 
BRANCH  13  15
HETATM   15  C   UNK A   1      -9.995   5.924  67.480  1.00  0.00    -0.143 C  
HETATM   16  O   UNK A   1      -9.843   4.538  65.448  1.00  0.00    -0.183 OA 
HETATM   17  O   UNK A   1      -7.927   5.205  66.447  1.00  0.00    -0.103 OA 
HETATM   18  C   UNK A   1      -9.280   5.148  66.344  1.00  0.00    -0.141 C  
BRANCH  15  19
HETATM   19  C   UNK A   1     -10.686   7.183  66.910  1.00  0.00    -0.363 C  
BRANCH  19  20
HETATM   20  C   UNK A   1      -9.746   8.397  66.811  1.00  0.00    -0.309 C  
BRANCH  20  21
HETATM   21  C   UNK A   1     -10.414   9.719  67.109  1.00  0.00    -0.316 A  
HETATM   22  C   UNK A   1     -11.749  12.144  67.594  1.00  0.00    -0.386 A  
HETATM   23  C   UNK A   1     -10.515  10.692  66.107  1.00  0.00    -0.260 A  
HETATM   24  C   UNK A   1     -11.180  11.898  66.347  1.00  0.00    -0.387 A  
HETATM   25  C   UNK A   1     -11.650  11.188  68.601  1.00  0.00    -0.383 A  
HETATM   26  C   UNK A   1     -10.989   9.979  68.365  1.00  0.00    -0.266 A  
ENDBRANCH  20  21
ENDBRANCH  19  20
ENDBRANCH  15  19
ENDBRANCH  13  15
ENDBRANCH   1  13
TORSDOF 6
ENDMDL
MODEL      232
REMARK 921   NORMALIZED FREE ENERGY PREDICTED BY IDOCK:   -2.82 KCAL/MOL
REMARK 922        TOTAL FREE ENERGY PREDICTED BY IDOCK:   -5.52 KCAL/MOL
REMARK 923 INTER-LIGAND FREE ENERGY PREDICTED BY IDOCK:   -6.24 KCAL/MOL
REMARK 924 INTRA-LIGAND FREE ENERGY PREDICTED BY IDOCK:    0.73 KCAL/MOL
REMARK 927      BINDING AFFINITY PREDICTED BY RF-SCORE:    0.00 PKD
ROOT
HETATM    1  C   UNK A   1     -11.402   7.470  70.165  1.00  0.00    -0.151 C  
HETATM    2  C   UNK A   1     -11.140   6.557  68.970  1.00  0.00    -0.375 C  
ENDROOT
BRANCH   1   3
HETATM    3  C   UNK A   1     -11.903   6.614  71.362  1.00  0.00    -0.337 C  
ATOM      4  CA  PRO A   2      -9.504   5.928  71.943  1.00  0.00    -0.151 C  
ATOM      5  N   PRO A   2     -10.974   5.843  72.045  1.00  0.00    -0.255 N  
ATOM      6  C   PRO A   2      -8.944   5.038  70.823  1.00  0.00    -0.132 C  
HETATM    7  O   UNK A   1     -13.099   6.599  71.670  1.00  0.00    -0.273 OA 
ATOM      8  CB  PRO A   2      -8.984   5.438  73.301  1.00  0.00    -0.120 C  
ATOM      9  O   PRO A   2      -9.887   4.324  70.166  1.00  0.00    -0.209 OA 
ATOM     10  CD  PRO A   2     -11.350   5.072  73.220  1.00  0.00    -0.317 C  
ATOM     11  OXT PRO A   2      -7.757   4.972  70.545  1.00  0.00    -0.067 OA 
ATOM     12  CG  PRO A   2     -10.218   5.334  74.193  1.00  0.00    -0.279 C  
ENDBRANCH   1   3
BRANCH   1  13
HETATM   13  N   UNK A   1     -10.185   8.194  70.608  1.00  0.00    -0.195 NA 
HETATM   14  H   UNK A   1      -9.437   7.530  70.807  1.00  0.00     0.000 HD 
BRANCH  13  15
HETATM   15  C   UNK A   1      -9.693   9.258  69.674  1.00  0.00    -0.182 C  
HETATM   16  O   UNK A   1      -7.492  10.359  69.543  1.00  0.00    -0.119 OA 
HETATM   17  O   UNK A   1      -8.027   9.234  71.431  1.00  0.00    -0.335 OA 
HETATM   18  C   UNK A   1      -8.292   9.691  70.179  1.00  0.00    -0.198 C  
BRANCH  15  19
HETATM   19  C   UNK A   1     -10.627  10.487  69.583  1.00  0.00    -0.281 C  
BRANCH  19  20
HETATM   20  C   UNK A   1     -11.173  10.729  68.166  1.00  0.00    -0.365 C  
BRANCH  20  21
HETATM   21  C   UNK A   1     -11.106  12.170  67.717  1.00  0.00    -0.302 A  
HETATM   22  C   UNK A   1     -10.876  14.826  66.827  1.00  0.00    -0.316 A  
HETATM   23  C   UNK A   1     -10.176  13.040  68.298  1.00  0.00    -0.246 A  
HETATM   24  C   UNK A   1     -10.059  14.361  67.855  1.00  0.00    -0.228 A  
HETATM   25  C   UNK A   1     -11.810  13.972  66.245  1.00  0.00    -0.428 A  
HETATM   26  C   UNK A   1     -11.927  12.650  66.682  1.00  0.00    -0.382 A  
ENDBRANCH  20  21
ENDBRANCH  19  20
ENDBRANCH  15  19
ENDBRANCH  13  15
ENDBRANCH   1  13
TORSDOF 6
ENDMDL
MODEL      233
REMARK 921   NORMALIZED FREE ENERGY PREDICTED BY IDOCK:   -2.82 KCAL/MOL
REMARK 922        TOTAL FREE ENERGY PREDICTED BY IDOCK:   -5.52 KCAL/MOL
REMARK 923 INTER-LIGAND FREE ENERGY PREDICTED BY IDOCK:   -4.62 KCAL/MOL
REMARK 924 INTRA-LIGAND FREE ENERGY PREDICTED BY IDOCK:   -0.89 KCAL/MOL
REMARK 927      BINDING AFFINITY PREDICTED BY RF-SCORE:    0.00 PKD
ROOT
HETATM    1  C   UNK A   1     -10.225   7.738  67.670  1.00  0.00    -0.219 C  
HETATM    2  C   UNK A   1     -11.085   6.620  67.088  1.00  0.00    -0.427 C  
ENDROOT
BRANCH   1   3
HETATM    3  C   UNK A   1      -9.827   8.721  66.533  1.00  0.00    -0.279 C  
ATOM      4  CA  PRO A   2      -7.918   7.178  65.798  1.00  0.00    -0.123 C  
ATOM      5  N   PRO A   2      -8.680   8.442  65.804  1.00  0.00    -0.162 N  
ATOM      6  C   PRO A   2      -6.844   7.138  66.896  1.00  0.00    -0.072 C  
HETATM    7  O   UNK A   1     -10.495   9.735  66.313  1.00  0.00    -0.191 OA 
ATOM      8  CB  PRO A   2      -7.248   7.126  64.418  1.00  0.00    -0.067 C  
ATOM      9  O   PRO A   2      -6.774   8.268  67.636  1.00  0.00    -0.060 OA 
ATOM     10  CD  PRO A   2      -8.280   9.272  64.678  1.00  0.00    -0.148 C  
ATOM     11  OXT PRO A   2      -6.114   6.178  67.089  1.00  0.00    -0.020 OA 
ATOM     12  CG  PRO A   2      -7.876   8.265  63.620  1.00  0.00    -0.152 C  
ENDBRANCH   1   3
BRANCH   1  13
HETATM   13  N   UNK A   1     -10.934   8.520  68.712  1.00  0.00    -0.433 NA 
HETATM   14  H   UNK A   1     -11.867   8.772  68.385  1.00  0.00     0.000 HD 
BRANCH  13  15
HETATM   15  C   UNK A   1     -11.020   7.868  70.060  1.00  0.00    -0.207 C  
HETATM   16  O   UNK A   1     -11.446   8.858  72.276  1.00  0.00    -0.348 OA 
HETATM   17  O   UNK A   1     -10.825  10.224  70.584  1.00  0.00    -0.291 OA 
HETATM   18  C   UNK A   1     -11.124   9.006  71.107  1.00  0.00    -0.301 C  
BRANCH  15  19
HETATM   19  C   UNK A   1      -9.817   6.955  70.387  1.00  0.00    -0.187 C  
BRANCH  19  20
HETATM   20  C   UNK A   1     -10.232   5.588  70.957  1.00  0.00    -0.287 C  
BRANCH  20  21
HETATM   21  C   UNK A   1      -9.116   4.570  70.993  1.00  0.00    -0.185 A  
HETATM   22  C   UNK A   1      -7.021   2.697  70.944  1.00  0.00    -0.033 A  
HETATM   23  C   UNK A   1      -9.287   3.323  70.380  1.00  0.00    -0.237 A  
HETATM   24  C   UNK A   1      -8.245   2.391  70.354  1.00  0.00    -0.063 A  
HETATM   25  C   UNK A   1      -6.840   3.932  71.562  1.00  0.00    -0.027 A  
HETATM   26  C   UNK A   1      -7.877   4.868  71.588  1.00  0.00    -0.106 A  
ENDBRANCH  20  21
ENDBRANCH  19  20
ENDBRANCH  15  19
ENDBRANCH  13  15
ENDBRANCH   1  13
TORSDOF 6
ENDMDL
MODEL      234
REMARK 921   NORMALIZED FREE ENERGY PREDICTED BY IDOCK:   -2.79 KCAL/MOL
REMARK 922        TOTAL FREE ENERGY PREDICTED BY IDOCK:   -5.49 KCAL/MOL
REMARK 923 INTER-LIGAND FREE ENERGY PREDICTED BY IDOCK:   -6.82 KCAL/MOL
REMARK 924 INTRA-LIGAND FREE ENERGY PREDICTED BY IDOCK:    1.34 KCAL/MOL
REMARK 927      BINDING AFFINITY PREDICTED BY RF-SCORE:    0.00 PKD
ROOT
HETATM    1  C   UNK A   1      -9.751  12.497  66.566  1.00  0.00    -0.246 C  
HETATM    2  C   UNK A   1      -8.886  12.651  67.814  1.00  0.00    -0.179 C  
ENDROOT
BRANCH   1   3
HETATM    3  C   UNK A   1     -10.424  11.095  66.580  1.00  0.00    -0.255 C  
ATOM      4  CA  PRO A   2      -8.138   9.943  66.681  1.00  0.00    -0.117 C  
ATOM      5  N   PRO A   2      -9.603   9.979  66.508  1.00  0.00    -0.178 N  
ATOM      6  C   PRO A   2      -7.387  10.183  65.363  1.00  0.00    -0.144 C  
HETATM    7  O   UNK A   1     -11.653  10.986  66.620  1.00  0.00    -0.263 OA 
ATOM      8  CB  PRO A   2      -7.835   8.530  67.198  1.00  0.00    -0.097 C  
ATOM      9  O   PRO A   2      -8.198  10.349  64.292  1.00  0.00    -0.164 OA 
ATOM     10  CD  PRO A   2     -10.149   8.633  66.589  1.00  0.00    -0.294 C  
ATOM     11  OXT PRO A   2      -6.170  10.220  65.277  1.00  0.00    -0.110 OA 
ATOM     12  CG  PRO A   2      -9.194   7.918  67.524  1.00  0.00    -0.152 C  
ENDBRANCH   1   3
BRANCH   1  13
HETATM   13  N   UNK A   1     -10.830  13.512  66.490  1.00  0.00    -0.282 NA 
HETATM   14  H   UNK A   1     -11.492  13.264  65.753  1.00  0.00     0.000 HD 
BRANCH  13  15
HETATM   15  C   UNK A   1     -11.563  13.772  67.772  1.00  0.00    -0.346 C  
HETATM   16  O   UNK A   1     -12.006  15.894  68.944  1.00  0.00    -0.370 OA 
HETATM   17  O   UNK A   1     -10.393  15.851  67.360  1.00  0.00    -0.275 OA 
HETATM   18  C   UNK A   1     -11.367  15.272  68.110  1.00  0.00    -0.338 C  
BRANCH  15  19
HETATM   19  C   UNK A   1     -11.082  12.895  68.951  1.00  0.00    -0.301 C  
BRANCH  19  20
HETATM   20  C   UNK A   1     -12.212  12.512  69.921  1.00  0.00    -0.233 C  
BRANCH  20  21
HETATM   21  C   UNK A   1     -12.103  11.109  70.471  1.00  0.00    -0.474 A  
HETATM   22  C   UNK A   1     -11.816   8.538  71.570  1.00  0.00    -0.353 A  
HETATM   23  C   UNK A   1     -10.972  10.334  70.189  1.00  0.00    -0.377 A  
HETATM   24  C   UNK A   1     -10.827   9.056  70.736  1.00  0.00    -0.310 A  
HETATM   25  C   UNK A   1     -12.949   9.297  71.854  1.00  0.00    -0.489 A  
HETATM   26  C   UNK A   1     -13.096  10.577  71.312  1.00  0.00    -0.478 A  
ENDBRANCH  20  21
ENDBRANCH  19  20
ENDBRANCH  15  19
ENDBRANCH  13  15
ENDBRANCH   1  13
TORSDOF 6
ENDMDL
MODEL      235
REMARK 921   NORMALIZED FREE ENERGY PREDICTED BY IDOCK:   -2.71 KCAL/MOL
REMARK 922        TOTAL FREE ENERGY PREDICTED BY IDOCK:   -5.38 KCAL/MOL
REMARK 923 INTER-LIGAND FREE ENERGY PREDICTED BY IDOCK:   -5.57 KCAL/MOL
REMARK 924 INTRA-LIGAND FREE ENERGY PREDICTED BY IDOCK:    0.20 KCAL/MOL
REMARK 927      BINDING AFFINITY PREDICTED BY RF-SCORE:    0.00 PKD
ROOT
HETATM    1  C   UNK A   1      -6.404  19.093  69.260  1.00  0.00    -0.289 C  
HETATM    2  C   UNK A   1      -5.471  20.256  68.936  1.00  0.00    -0.279 C  
ENDROOT
BRANCH   1   3
HETATM    3  C   UNK A   1      -7.865  19.616  69.339  1.00  0.00     0.027 C  
ATOM      4  CA  PRO A   2      -8.234  19.116  66.854  1.00  0.00    -0.272 C  
ATOM      5  N   PRO A   2      -8.589  19.705  68.159  1.00  0.00    -0.320 N  
ATOM      6  C   PRO A   2      -7.356  20.053  66.010  1.00  0.00    -0.306 C  
HETATM    7  O   UNK A   1      -8.351  19.972  70.417  1.00  0.00     0.870 OA 
ATOM      8  CB  PRO A   2      -9.574  18.887  66.144  1.00  0.00    -0.266 C  
ATOM      9  O   PRO A   2      -7.101  21.244  66.599  1.00  0.00    -0.253 OA 
ATOM     10  CD  PRO A   2      -9.985  20.115  68.159  1.00  0.00    -0.350 C  
ATOM     11  OXT PRO A   2      -6.924  19.760  64.907  1.00  0.00    -0.358 OA 
ATOM     12  CG  PRO A   2     -10.642  19.138  67.205  1.00  0.00    -0.564 C  
ENDBRANCH   1   3
BRANCH   1  13
HETATM   13  N   UNK A   1      -6.364  18.025  68.231  1.00  0.00    -0.185 NA 
HETATM   14  H   UNK A   1      -5.613  18.209  67.566  1.00  0.00     0.000 HD 
BRANCH  13  15
HETATM   15  C   UNK A   1      -6.251  16.626  68.759  1.00  0.00    -0.147 C  
HETATM   16  O   UNK A   1      -5.338  14.599  67.697  1.00  0.00    -0.310 OA 
HETATM   17  O   UNK A   1      -5.855  16.367  66.385  1.00  0.00    -0.175 OA 
HETATM   18  C   UNK A   1      -5.766  15.737  67.586  1.00  0.00    -0.124 C  
BRANCH  15  19
HETATM   19  C   UNK A   1      -7.574  16.070  69.334  1.00  0.00    -0.191 C  
BRANCH  19  20
HETATM   20  C   UNK A   1      -8.716  16.038  68.304  1.00  0.00    -0.177 C  
BRANCH  20  21
HETATM   21  C   UNK A   1      -9.992  15.411  68.816  1.00  0.00    -0.208 A  
HETATM   22  C   UNK A   1     -12.297  14.166  69.832  1.00  0.00    -0.382 A  
HETATM   23  C   UNK A   1     -10.379  14.145  68.361  1.00  0.00    -0.249 A  
HETATM   24  C   UNK A   1     -11.525  13.524  68.866  1.00  0.00    -0.348 A  
HETATM   25  C   UNK A   1     -11.926  15.428  70.288  1.00  0.00    -0.386 A  
HETATM   26  C   UNK A   1     -10.779  16.051  69.788  1.00  0.00    -0.331 A  
ENDBRANCH  20  21
ENDBRANCH  19  20
ENDBRANCH  15  19
ENDBRANCH  13  15
ENDBRANCH   1  13
TORSDOF 6
ENDMDL
MODEL      236
REMARK 921   NORMALIZED FREE ENERGY PREDICTED BY IDOCK:   -2.71 KCAL/MOL
REMARK 922        TOTAL FREE ENERGY PREDICTED BY IDOCK:   -5.37 KCAL/MOL
REMARK 923 INTER-LIGAND FREE ENERGY PREDICTED BY IDOCK:   -5.11 KCAL/MOL
REMARK 924 INTRA-LIGAND FREE ENERGY PREDICTED BY IDOCK:   -0.26 KCAL/MOL
REMARK 927      BINDING AFFINITY PREDICTED BY RF-SCORE:    0.00 PKD
ROOT
HETATM    1  C   UNK A   1      -7.230  16.420  68.265  1.00  0.00    -0.149 C  
HETATM    2  C   UNK A   1      -6.104  15.423  68.526  1.00  0.00    -0.093 C  
ENDROOT
BRANCH   1   3
HETATM    3  C   UNK A   1      -6.915  17.218  66.969  1.00  0.00    -0.188 C  
ATOM      4  CA  PRO A   2      -7.931  19.346  67.971  1.00  0.00    -0.304 C  
ATOM      5  N   PRO A   2      -7.384  18.521  66.877  1.00  0.00    -0.207 N  
ATOM      6  C   PRO A   2      -9.444  19.154  68.149  1.00  0.00    -0.342 C  
HETATM    7  O   UNK A   1      -6.296  16.693  66.039  1.00  0.00     0.083 OA 
ATOM      8  CB  PRO A   2      -7.639  20.795  67.558  1.00  0.00    -0.312 C  
ATOM      9  O   PRO A   2      -9.997  18.298  67.258  1.00  0.00    -0.309 OA 
ATOM     10  CD  PRO A   2      -7.070  19.357  65.729  1.00  0.00    -0.290 C  
ATOM     11  OXT PRO A   2     -10.099  19.719  69.010  1.00  0.00    -0.448 OA 
ATOM     12  CG  PRO A   2      -6.713  20.693  66.350  1.00  0.00    -0.303 C  
ENDBRANCH   1   3
BRANCH   1  13
HETATM   13  N   UNK A   1      -8.546  15.760  68.079  1.00  0.00    -0.162 NA 
HETATM   14  H   UNK A   1      -9.184  16.388  67.589  1.00  0.00     0.000 HD 
BRANCH  13  15
HETATM   15  C   UNK A   1      -8.507  14.428  67.392  1.00  0.00    -0.203 C  
HETATM   16  O   UNK A   1      -9.998  13.488  65.670  1.00  0.00    -0.284 OA 
HETATM   17  O   UNK A   1     -10.712  15.274  66.859  1.00  0.00    -0.303 OA 
HETATM   18  C   UNK A   1      -9.798  14.320  66.541  1.00  0.00    -0.288 C  
BRANCH  15  19
HETATM   19  C   UNK A   1      -8.410  13.230  68.364  1.00  0.00    -0.131 C  
BRANCH  19  20
HETATM   20  C   UNK A   1      -9.361  12.076  67.999  1.00  0.00    -0.196 C  
BRANCH  20  21
HETATM   21  C   UNK A   1      -8.665  10.756  67.763  1.00  0.00    -0.130 A  
HETATM   22  C   UNK A   1      -7.270   8.349  67.367  1.00  0.00    -0.088 A  
HETATM   23  C   UNK A   1      -7.727  10.636  66.731  1.00  0.00    -0.127 A  
HETATM   24  C   UNK A   1      -7.031   9.439  66.534  1.00  0.00    -0.084 A  
HETATM   25  C   UNK A   1      -8.206   8.453  68.393  1.00  0.00    -0.124 A  
HETATM   26  C   UNK A   1      -8.901   9.649  68.596  1.00  0.00    -0.128 A  
ENDBRANCH  20  21
ENDBRANCH  19  20
ENDBRANCH  15  19
ENDBRANCH  13  15
ENDBRANCH   1  13
TORSDOF 6
ENDMDL
MODEL      237
REMARK 921   NORMALIZED FREE ENERGY PREDICTED BY IDOCK:   -2.66 KCAL/MOL
REMARK 922        TOTAL FREE ENERGY PREDICTED BY IDOCK:   -5.31 KCAL/MOL
REMARK 923 INTER-LIGAND FREE ENERGY PREDICTED BY IDOCK:   -5.63 KCAL/MOL
REMARK 924 INTRA-LIGAND FREE ENERGY PREDICTED BY IDOCK:    0.32 KCAL/MOL
REMARK 927      BINDING AFFINITY PREDICTED BY RF-SCORE:    0.00 PKD
ROOT
HETATM    1  C   UNK A   1      -9.366  10.868  65.295  1.00  0.00    -0.213 C  
HETATM    2  C   UNK A   1      -9.953   9.824  66.240  1.00  0.00    -0.331 C  
ENDROOT
BRANCH   1   3
HETATM    3  C   UNK A   1     -10.519  11.542  64.499  1.00  0.00    -0.314 C  
ATOM      4  CA  PRO A   2     -10.776  13.346  66.300  1.00  0.00    -0.287 C  
ATOM      5  N   PRO A   2     -11.189  12.600  65.095  1.00  0.00    -0.293 N  
ATOM      6  C   PRO A   2     -11.300  12.703  67.593  1.00  0.00    -0.310 C  
HETATM    7  O   UNK A   1     -10.845  11.123  63.384  1.00  0.00    -0.335 OA 
ATOM      8  CB  PRO A   2     -11.391  14.742  66.131  1.00  0.00    -0.330 C  
ATOM      9  O   PRO A   2     -12.062  11.604  67.390  1.00  0.00    -0.605 OA 
ATOM     10  CD  PRO A   2     -12.230  13.330  64.387  1.00  0.00    -0.390 C  
ATOM     11  OXT PRO A   2     -11.059  13.139  68.707  1.00  0.00    -0.250 OA 
ATOM     12  CG  PRO A   2     -11.922  14.781  64.701  1.00  0.00    -0.448 C  
ENDBRANCH   1   3
BRANCH   1  13
HETATM   13  N   UNK A   1      -8.629  11.937  66.011  1.00  0.00    -0.393 NA 
HETATM   14  H   UNK A   1      -9.287  12.568  66.470  1.00  0.00     0.000 HD 
BRANCH  13  15
HETATM   15  C   UNK A   1      -7.601  11.464  66.994  1.00  0.00    -0.151 C  
HETATM   16  O   UNK A   1      -6.628  12.609  68.948  1.00  0.00    -0.084 OA 
HETATM   17  O   UNK A   1      -7.708  13.849  67.395  1.00  0.00    -0.171 OA 
HETATM   18  C   UNK A   1      -7.245  12.673  67.896  1.00  0.00    -0.116 C  
BRANCH  15  19
HETATM   19  C   UNK A   1      -6.322  10.901  66.334  1.00  0.00    -0.132 C  
BRANCH  19  20
HETATM   20  C   UNK A   1      -6.275   9.363  66.318  1.00  0.00    -0.064 C  
BRANCH  20  21
HETATM   21  C   UNK A   1      -6.251   8.761  64.933  1.00  0.00    -0.065 A  
HETATM   22  C   UNK A   1      -6.308   7.702  62.331  1.00  0.00    -0.072 A  
HETATM   23  C   UNK A   1      -7.197   7.792  64.576  1.00  0.00    -0.073 A  
HETATM   24  C   UNK A   1      -7.228   7.266  63.282  1.00  0.00    -0.075 A  
HETATM   25  C   UNK A   1      -5.358   8.660  62.674  1.00  0.00    -0.070 A  
HETATM   26  C   UNK A   1      -5.326   9.191  63.967  1.00  0.00    -0.060 A  
ENDBRANCH  20  21
ENDBRANCH  19  20
ENDBRANCH  15  19
ENDBRANCH  13  15
ENDBRANCH   1  13
TORSDOF 6
ENDMDL
MODEL      238
REMARK 921   NORMALIZED FREE ENERGY PREDICTED BY IDOCK:   -2.65 KCAL/MOL
REMARK 922        TOTAL FREE ENERGY PREDICTED BY IDOCK:   -5.29 KCAL/MOL
REMARK 923 INTER-LIGAND FREE ENERGY PREDICTED BY IDOCK:   -7.14 KCAL/MOL
REMARK 924 INTRA-LIGAND FREE ENERGY PREDICTED BY IDOCK:    1.85 KCAL/MOL
REMARK 927      BINDING AFFINITY PREDICTED BY RF-SCORE:    0.00 PKD
ROOT
HETATM    1  C   UNK A   1      -9.381  13.015  66.290  1.00  0.00    -0.140 C  
HETATM    2  C   UNK A   1      -8.619  13.336  67.573  1.00  0.00    -0.200 C  
ENDROOT
BRANCH   1   3
HETATM    3  C   UNK A   1     -10.164  11.686  66.479  1.00  0.00    -0.214 C  
ATOM      4  CA  PRO A   2      -7.983  10.341  66.471  1.00  0.00    -0.118 C  
ATOM      5  N   PRO A   2      -9.450  10.497  66.426  1.00  0.00    -0.167 N  
ATOM      6  C   PRO A   2      -7.345  10.413  65.076  1.00  0.00    -0.070 C  
HETATM    7  O   UNK A   1     -11.389  11.692  66.636  1.00  0.00    -0.324 OA 
ATOM      8  CB  PRO A   2      -7.752   8.949  67.073  1.00  0.00    -0.098 C  
ATOM      9  O   PRO A   2      -8.238  10.572  64.072  1.00  0.00    -0.144 OA 
ATOM     10  CD  PRO A   2     -10.097   9.217  66.666  1.00  0.00    -0.273 C  
ATOM     11  OXT PRO A   2      -6.143  10.333  64.880  1.00  0.00    -0.117 OA 
ATOM     12  CG  PRO A   2      -9.120   8.489  67.568  1.00  0.00    -0.146 C  
ENDBRANCH   1   3
BRANCH   1  13
HETATM   13  N   UNK A   1     -10.363  14.068  65.930  1.00  0.00    -0.308 NA 
HETATM   14  H   UNK A   1     -11.068  13.687  65.299  1.00  0.00     0.000 HD 
BRANCH  13  15
HETATM   15  C   UNK A   1     -11.025  14.754  67.087  1.00  0.00    -0.320 C  
HETATM   16  O   UNK A   1     -11.009  17.129  67.745  1.00  0.00    -0.315 OA 
HETATM   17  O   UNK A   1      -9.439  16.399  66.290  1.00  0.00    -0.276 OA 
HETATM   18  C   UNK A   1     -10.515  16.217  67.099  1.00  0.00    -0.297 C  
BRANCH  15  19
HETATM   19  C   UNK A   1     -10.744  14.083  68.452  1.00  0.00    -0.261 C  
BRANCH  19  20
HETATM   20  C   UNK A   1     -12.006  13.506  69.114  1.00  0.00    -0.378 C  
BRANCH  20  21
HETATM   21  C   UNK A   1     -12.224  13.970  70.536  1.00  0.00    -0.435 A  
HETATM   22  C   UNK A   1     -12.695  14.926  73.136  1.00  0.00    -0.596 A  
HETATM   23  C   UNK A   1     -11.594  15.133  70.995  1.00  0.00    -0.390 A  
HETATM   24  C   UNK A   1     -11.828  15.610  72.287  1.00  0.00    -0.578 A  
HETATM   25  C   UNK A   1     -13.324  13.764  72.694  1.00  0.00    -0.618 A  
HETATM   26  C   UNK A   1     -13.095  13.286  71.401  1.00  0.00    -0.361 A  
ENDBRANCH  20  21
ENDBRANCH  19  20
ENDBRANCH  15  19
ENDBRANCH  13  15
ENDBRANCH   1  13
TORSDOF 6
ENDMDL
MODEL      239
REMARK 921   NORMALIZED FREE ENERGY PREDICTED BY IDOCK:   -2.64 KCAL/MOL
REMARK 922        TOTAL FREE ENERGY PREDICTED BY IDOCK:   -5.28 KCAL/MOL
REMARK 923 INTER-LIGAND FREE ENERGY PREDICTED BY IDOCK:   -6.17 KCAL/MOL
REMARK 924 INTRA-LIGAND FREE ENERGY PREDICTED BY IDOCK:    0.90 KCAL/MOL
REMARK 927      BINDING AFFINITY PREDICTED BY RF-SCORE:    0.00 PKD
ROOT
HETATM    1  C   UNK A   1      -9.666  15.377  68.636  1.00  0.00    -0.210 C  
HETATM    2  C   UNK A   1      -9.842  15.529  67.128  1.00  0.00    -0.236 C  
ENDROOT
BRANCH   1   3
HETATM    3  C   UNK A   1     -10.777  14.441  69.189  1.00  0.00    -0.238 C  
ATOM      4  CA  PRO A   2      -9.766  12.432  67.961  1.00  0.00    -0.210 C  
ATOM      5  N   PRO A   2     -10.815  13.133  68.726  1.00  0.00    -0.255 N  
ATOM      6  C   PRO A   2      -9.916  12.633  66.445  1.00  0.00    -0.255 C  
HETATM    7  O   UNK A   1     -11.618  14.863  69.989  1.00  0.00    -0.259 OA 
ATOM      8  CB  PRO A   2      -9.950  10.948  68.305  1.00  0.00    -0.187 C  
ATOM      9  O   PRO A   2     -10.988  13.381  66.095  1.00  0.00    -0.276 OA 
ATOM     10  CD  PRO A   2     -11.778  12.175  69.249  1.00  0.00    -0.328 C  
ATOM     11  OXT PRO A   2      -9.145  12.164  65.624  1.00  0.00    -0.043 OA 
ATOM     12  CG  PRO A   2     -10.954  10.920  69.454  1.00  0.00    -0.304 C  
ENDBRANCH   1   3
BRANCH   1  13
HETATM   13  N   UNK A   1      -8.356  14.784  69.002  1.00  0.00    -0.248 NA 
HETATM   14  H   UNK A   1      -8.452  13.777  69.132  1.00  0.00     0.000 HD 
BRANCH  13  15
HETATM   15  C   UNK A   1      -7.231  15.073  68.053  1.00  0.00    -0.131 C  
HETATM   16  O   UNK A   1      -5.515  13.569  67.122  1.00  0.00    -0.289 OA 
HETATM   17  O   UNK A   1      -6.672  12.892  68.943  1.00  0.00    -0.089 OA 
HETATM   18  C   UNK A   1      -6.370  13.787  67.966  1.00  0.00    -0.141 C  
BRANCH  15  19
HETATM   19  C   UNK A   1      -6.352  16.272  68.478  1.00  0.00    -0.121 C  
BRANCH  19  20
HETATM   20  C   UNK A   1      -7.143  17.378  69.198  1.00  0.00    -0.196 C  
BRANCH  20  21
HETATM   21  C   UNK A   1      -7.787  18.379  68.269  1.00  0.00    -0.314 A  
HETATM   22  C   UNK A   1      -9.029  20.150  66.475  1.00  0.00    -0.392 A  
HETATM   23  C   UNK A   1      -7.273  18.569  66.981  1.00  0.00    -0.216 A  
HETATM   24  C   UNK A   1      -7.890  19.449  66.087  1.00  0.00    -0.317 A  
HETATM   25  C   UNK A   1      -9.548  19.975  67.755  1.00  0.00    -0.509 A  
HETATM   26  C   UNK A   1      -8.936  19.094  68.651  1.00  0.00    -0.411 A  
ENDBRANCH  20  21
ENDBRANCH  19  20
ENDBRANCH  15  19
ENDBRANCH  13  15
ENDBRANCH   1  13
TORSDOF 6
ENDMDL
MODEL      240
REMARK 921   NORMALIZED FREE ENERGY PREDICTED BY IDOCK:   -2.63 KCAL/MOL
REMARK 922        TOTAL FREE ENERGY PREDICTED BY IDOCK:   -5.27 KCAL/MOL
REMARK 923 INTER-LIGAND FREE ENERGY PREDICTED BY IDOCK:   -4.28 KCAL/MOL
REMARK 924 INTRA-LIGAND FREE ENERGY PREDICTED BY IDOCK:   -0.98 KCAL/MOL
REMARK 927      BINDING AFFINITY PREDICTED BY RF-SCORE:    0.00 PKD
ROOT
HETATM    1  C   UNK A   1      -8.091   9.019  68.939  1.00  0.00    -0.104 C  
HETATM    2  C   UNK A   1      -6.756   9.735  69.128  1.00  0.00    -0.053 C  
ENDROOT
BRANCH   1   3
HETATM    3  C   UNK A   1      -8.018   8.127  67.669  1.00  0.00    -0.122 C  
ATOM      4  CA  PRO A   2      -8.805  10.070  66.196  1.00  0.00    -0.148 C  
ATOM      5  N   PRO A   2      -8.483   8.657  66.474  1.00  0.00    -0.111 N  
ATOM      6  C   PRO A   2     -10.260  10.416  66.545  1.00  0.00    -0.229 C  
HETATM    7  O   UNK A   1      -7.590   6.970  67.734  1.00  0.00    -0.105 OA 
ATOM      8  CB  PRO A   2      -8.582  10.237  64.687  1.00  0.00    -0.194 C  
ATOM      9  O   PRO A   2     -10.979   9.367  67.007  1.00  0.00    -0.118 OA 
ATOM     10  CD  PRO A   2      -8.382   7.912  65.228  1.00  0.00    -0.133 C  
ATOM     11  OXT PRO A   2     -10.735  11.534  66.419  1.00  0.00    -0.254 OA 
ATOM     12  CG  PRO A   2      -7.901   8.950  64.233  1.00  0.00    -0.134 C  
ENDBRANCH   1   3
BRANCH   1  13
HETATM   13  N   UNK A   1      -8.436   8.143  70.086  1.00  0.00    -0.125 NA 
HETATM   14  H   UNK A   1      -7.954   8.461  70.926  1.00  0.00     0.000 HD 
BRANCH  13  15
HETATM   15  C   UNK A   1      -9.902   7.988  70.361  1.00  0.00    -0.183 C  
HETATM   16  O   UNK A   1     -11.275   8.897  72.194  1.00  0.00    -0.360 OA 
HETATM   17  O   UNK A   1      -9.028   8.872  72.438  1.00  0.00    -0.383 OA 
HETATM   18  C   UNK A   1     -10.172   8.626  71.748  1.00  0.00    -0.308 C  
BRANCH  15  19
HETATM   19  C   UNK A   1     -10.386   6.520  70.349  1.00  0.00    -0.237 C  
BRANCH  19  20
HETATM   20  C   UNK A   1      -9.232   5.503  70.342  1.00  0.00    -0.182 C  
BRANCH  20  21
HETATM   21  C   UNK A   1      -9.207   4.592  71.547  1.00  0.00    -0.186 A  
HETATM   22  C   UNK A   1      -9.184   2.805  73.716  1.00  0.00    -0.091 A  
HETATM   23  C   UNK A   1     -10.400   4.048  72.038  1.00  0.00    -0.121 A  
HETATM   24  C   UNK A   1     -10.390   3.158  73.115  1.00  0.00    -0.243 A  
HETATM   25  C   UNK A   1      -7.990   3.344  73.242  1.00  0.00    -0.070 A  
HETATM   26  C   UNK A   1      -7.996   4.231  72.162  1.00  0.00    -0.090 A  
ENDBRANCH  20  21
ENDBRANCH  19  20
ENDBRANCH  15  19
ENDBRANCH  13  15
ENDBRANCH   1  13
TORSDOF 6
ENDMDL
MODEL      241
REMARK 921   NORMALIZED FREE ENERGY PREDICTED BY IDOCK:   -2.61 KCAL/MOL
REMARK 922        TOTAL FREE ENERGY PREDICTED BY IDOCK:   -5.24 KCAL/MOL
REMARK 923 INTER-LIGAND FREE ENERGY PREDICTED BY IDOCK:   -6.10 KCAL/MOL
REMARK 924 INTRA-LIGAND FREE ENERGY PREDICTED BY IDOCK:    0.86 KCAL/MOL
REMARK 927      BINDING AFFINITY PREDICTED BY RF-SCORE:    0.00 PKD
ROOT
HETATM    1  C   UNK A   1     -10.363   9.691  69.548  1.00  0.00    -0.221 C  
HETATM    2  C   UNK A   1     -11.383  10.799  69.792  1.00  0.00    -0.372 C  
ENDROOT
BRANCH   1   3
HETATM    3  C   UNK A   1      -9.801   9.202  70.913  1.00  0.00    -0.291 C  
ATOM      4  CA  PRO A   2     -11.850   7.707  71.279  1.00  0.00    -0.292 C  
ATOM      5  N   PRO A   2     -10.609   8.389  71.695  1.00  0.00    -0.239 N  
ATOM      6  C   PRO A   2     -13.094   8.587  71.475  1.00  0.00    -0.299 C  
HETATM    7  O   UNK A   1      -8.684   9.558  71.300  1.00  0.00    -0.241 OA 
ATOM      8  CB  PRO A   2     -11.944   6.470  72.182  1.00  0.00    -0.334 C  
ATOM      9  O   PRO A   2     -12.829   9.798  72.018  1.00  0.00    -0.395 OA 
ATOM     10  CD  PRO A   2     -10.129   7.832  72.950  1.00  0.00    -0.301 C  
ATOM     11  OXT PRO A   2     -14.223   8.234  71.174  1.00  0.00    -0.260 OA 
ATOM     12  CG  PRO A   2     -10.602   6.392  72.903  1.00  0.00    -0.260 C  
ENDBRANCH   1   3
BRANCH   1  13
HETATM   13  N   UNK A   1     -10.949   8.516  68.857  1.00  0.00    -0.429 NA 
HETATM   14  H   UNK A   1     -11.965   8.601  68.826  1.00  0.00     0.000 HD 
BRANCH  13  15
HETATM   15  C   UNK A   1     -10.414   8.243  67.483  1.00  0.00    -0.255 C  
HETATM   16  O   UNK A   1      -8.979   6.410  66.676  1.00  0.00    -0.130 OA 
HETATM   17  O   UNK A   1      -9.095   6.791  68.902  1.00  0.00    -0.134 OA 
HETATM   18  C   UNK A   1      -9.424   7.057  67.611  1.00  0.00    -0.121 C  
BRANCH  15  19
HETATM   19  C   UNK A   1      -9.707   9.458  66.839  1.00  0.00    -0.242 C  
BRANCH  19  20
HETATM   20  C   UNK A   1     -10.308   9.858  65.481  1.00  0.00    -0.060 C  
BRANCH  20  21
HETATM   21  C   UNK A   1      -9.282  10.106  64.401  1.00  0.00    -0.306 A  
HETATM   22  C   UNK A   1      -7.414  10.470  62.333  1.00  0.00    -0.168 A  
HETATM   23  C   UNK A   1      -8.179   9.252  64.275  1.00  0.00    -0.153 A  
HETATM   24  C   UNK A   1      -7.250   9.431  63.247  1.00  0.00    -0.097 A  
HETATM   25  C   UNK A   1      -8.502  11.331  62.450  1.00  0.00    -0.201 A  
HETATM   26  C   UNK A   1      -9.436  11.152  63.475  1.00  0.00    -0.295 A  
ENDBRANCH  20  21
ENDBRANCH  19  20
ENDBRANCH  15  19
ENDBRANCH  13  15
ENDBRANCH   1  13
TORSDOF 6
ENDMDL
MODEL      242
REMARK 921   NORMALIZED FREE ENERGY PREDICTED BY IDOCK:   -2.42 KCAL/MOL
REMARK 922        TOTAL FREE ENERGY PREDICTED BY IDOCK:   -4.98 KCAL/MOL
REMARK 923 INTER-LIGAND FREE ENERGY PREDICTED BY IDOCK:   -5.14 KCAL/MOL
REMARK 924 INTRA-LIGAND FREE ENERGY PREDICTED BY IDOCK:    0.16 KCAL/MOL
REMARK 927      BINDING AFFINITY PREDICTED BY RF-SCORE:    0.00 PKD
ROOT
HETATM    1  C   UNK A   1     -10.349   6.736  72.310  1.00  0.00    -0.196 C  
HETATM    2  C   UNK A   1     -10.386   5.212  72.393  1.00  0.00    -0.257 C  
ENDROOT
BRANCH   1   3
HETATM    3  C   UNK A   1      -8.885   7.199  72.074  1.00  0.00    -0.126 C  
ATOM      4  CA  PRO A   2      -9.129   6.855  69.547  1.00  0.00    -0.142 C  
ATOM      5  N   PRO A   2      -8.371   7.103  70.788  1.00  0.00    -0.127 N  
ATOM      6  C   PRO A   2      -9.289   5.356  69.250  1.00  0.00    -0.120 C  
HETATM    7  O   UNK A   1      -8.193   7.608  73.011  1.00  0.00    -0.108 OA 
ATOM      8  CB  PRO A   2      -8.300   7.515  68.437  1.00  0.00    -0.125 C  
ATOM      9  O   PRO A   2      -8.685   4.550  70.154  1.00  0.00    -0.075 OA 
ATOM     10  CD  PRO A   2      -7.035   7.584  70.471  1.00  0.00    -0.052 C  
ATOM     11  OXT PRO A   2      -9.902   4.921  68.288  1.00  0.00    -0.151 OA 
ATOM     12  CG  PRO A   2      -7.226   8.322  69.161  1.00  0.00    -0.072 C  
ENDBRANCH   1   3
BRANCH   1  13
HETATM   13  N   UNK A   1     -11.175   7.268  71.198  1.00  0.00    -0.253 NA 
HETATM   14  H   UNK A   1     -11.878   6.581  70.925  1.00  0.00     0.000 HD 
BRANCH  13  15
HETATM   15  C   UNK A   1     -11.825   8.594  71.455  1.00  0.00    -0.297 C  
HETATM   16  O   UNK A   1     -14.043   9.117  72.392  1.00  0.00    -0.465 OA 
HETATM   17  O   UNK A   1     -13.658   7.023  71.631  1.00  0.00    -0.358 OA 
HETATM   18  C   UNK A   1     -13.287   8.306  71.880  1.00  0.00    -0.342 C  
BRANCH  15  19
HETATM   19  C   UNK A   1     -11.804   9.544  70.235  1.00  0.00    -0.109 C  
BRANCH  19  20
HETATM   20  C   UNK A   1     -10.425  10.178  69.986  1.00  0.00    -0.325 C  
BRANCH  20  21
HETATM   21  C   UNK A   1     -10.328  10.952  68.691  1.00  0.00    -0.206 A  
HETATM   22  C   UNK A   1     -10.260  12.357  66.259  1.00  0.00    -0.258 A  
HETATM   23  C   UNK A   1     -10.237  10.268  67.474  1.00  0.00    -0.254 A  
HETATM   24  C   UNK A   1     -10.204  10.965  66.263  1.00  0.00    -0.300 A  
HETATM   25  C   UNK A   1     -10.345  13.050  67.463  1.00  0.00    -0.224 A  
HETATM   26  C   UNK A   1     -10.381  12.357  68.676  1.00  0.00    -0.198 A  
ENDBRANCH  20  21
ENDBRANCH  19  20
ENDBRANCH  15  19
ENDBRANCH  13  15
ENDBRANCH   1  13
TORSDOF 6
ENDMDL
MODEL      243
REMARK 921   NORMALIZED FREE ENERGY PREDICTED BY IDOCK:   -2.41 KCAL/MOL
REMARK 922        TOTAL FREE ENERGY PREDICTED BY IDOCK:   -4.97 KCAL/MOL
REMARK 923 INTER-LIGAND FREE ENERGY PREDICTED BY IDOCK:   -4.48 KCAL/MOL
REMARK 924 INTRA-LIGAND FREE ENERGY PREDICTED BY IDOCK:   -0.49 KCAL/MOL
REMARK 927      BINDING AFFINITY PREDICTED BY RF-SCORE:    0.00 PKD
ROOT
HETATM    1  C   UNK A   1      -7.447   6.973  68.590  1.00  0.00    -0.102 C  
HETATM    2  C   UNK A   1      -6.407   5.888  68.857  1.00  0.00    -0.041 C  
ENDROOT
BRANCH   1   3
HETATM    3  C   UNK A   1      -8.231   6.621  67.295  1.00  0.00    -0.121 C  
ATOM      4  CA  PRO A   2      -6.843   8.293  65.938  1.00  0.00    -0.064 C  
ATOM      5  N   PRO A   2      -7.971   7.366  66.154  1.00  0.00    -0.107 N  
ATOM      6  C   PRO A   2      -7.163   9.720  66.408  1.00  0.00    -0.095 C  
HETATM    7  O   UNK A   1      -9.084   5.728  67.296  1.00  0.00    -0.113 OA 
ATOM      8  CB  PRO A   2      -6.611   8.289  64.421  1.00  0.00    -0.066 C  
ATOM      9  O   PRO A   2      -8.416   9.869  66.897  1.00  0.00    -0.124 OA 
ATOM     10  CD  PRO A   2      -8.609   7.051  64.885  1.00  0.00     0.171 C  
ATOM     11  OXT PRO A   2      -6.367  10.644  66.348  1.00  0.00    -0.089 OA 
ATOM     12  CG  PRO A   2      -7.477   7.153  63.882  1.00  0.00    -0.103 C  
ENDBRANCH   1   3
BRANCH   1  13
HETATM   13  N   UNK A   1      -8.433   7.103  69.691  1.00  0.00    -0.133 NA 
HETATM   14  H   UNK A   1      -8.302   6.350  70.367  1.00  0.00     0.000 HD 
BRANCH  13  15
HETATM   15  C   UNK A   1      -8.443   8.428  70.393  1.00  0.00    -0.130 C  
HETATM   16  O   UNK A   1      -8.197   8.956  72.787  1.00  0.00    -0.387 OA 
HETATM   17  O   UNK A   1      -8.700   6.832  72.196  1.00  0.00    -0.132 OA 
HETATM   18  C   UNK A   1      -8.430   8.134  71.915  1.00  0.00    -0.150 C  
BRANCH  15  19
HETATM   19  C   UNK A   1      -9.660   9.312  70.034  1.00  0.00    -0.235 C  
BRANCH  19  20
HETATM   20  C   UNK A   1     -10.498   9.714  71.260  1.00  0.00    -0.216 C  
BRANCH  20  21
HETATM   21  C   UNK A   1     -11.853   9.049  71.325  1.00  0.00    -0.379 A  
HETATM   22  C   UNK A   1     -14.358   7.797  71.565  1.00  0.00    -0.574 A  
HETATM   23  C   UNK A   1     -11.944   7.668  71.541  1.00  0.00    -0.331 A  
HETATM   24  C   UNK A   1     -13.189   7.045  71.662  1.00  0.00    -0.368 A  
HETATM   25  C   UNK A   1     -14.281   9.169  71.344  1.00  0.00    -0.129 A  
HETATM   26  C   UNK A   1     -13.038   9.798  71.226  1.00  0.00    -0.465 A  
ENDBRANCH  20  21
ENDBRANCH  19  20
ENDBRANCH  15  19
ENDBRANCH  13  15
ENDBRANCH   1  13
TORSDOF 6
ENDMDL
MODEL      244
REMARK 921   NORMALIZED FREE ENERGY PREDICTED BY IDOCK:   -2.40 KCAL/MOL
REMARK 922        TOTAL FREE ENERGY PREDICTED BY IDOCK:   -4.96 KCAL/MOL
REMARK 923 INTER-LIGAND FREE ENERGY PREDICTED BY IDOCK:   -5.92 KCAL/MOL
REMARK 924 INTRA-LIGAND FREE ENERGY PREDICTED BY IDOCK:    0.96 KCAL/MOL
REMARK 927      BINDING AFFINITY PREDICTED BY RF-SCORE:    0.00 PKD
ROOT
HETATM    1  C   UNK A   1      -9.463  13.450  68.369  1.00  0.00    -0.176 C  
HETATM    2  C   UNK A   1      -9.176  14.880  68.821  1.00  0.00    -0.193 C  
ENDROOT
BRANCH   1   3
HETATM    3  C   UNK A   1     -10.940  13.351  67.895  1.00  0.00    -0.256 C  
ATOM      4  CA  PRO A   2     -10.404  14.687  65.776  1.00  0.00    -0.332 C  
ATOM      5  N   PRO A   2     -11.307  14.054  66.756  1.00  0.00    -0.322 N  
ATOM      6  C   PRO A   2     -10.043  16.130  66.162  1.00  0.00    -0.338 C  
HETATM    7  O   UNK A   1     -11.766  12.692  68.535  1.00  0.00    -0.295 OA 
ATOM      8  CB  PRO A   2     -11.188  14.686  64.457  1.00  0.00    -0.290 C  
ATOM      9  O   PRO A   2     -10.638  16.560  67.298  1.00  0.00    -0.315 OA 
ATOM     10  CD  PRO A   2     -12.650  13.954  66.207  1.00  0.00    -0.330 C  
ATOM     11  OXT PRO A   2      -9.290  16.834  65.507  1.00  0.00    -0.470 OA 
ATOM     12  CG  PRO A   2     -12.415  13.817  64.716  1.00  0.00    -0.386 C  
ENDBRANCH   1   3
BRANCH   1  13
HETATM   13  N   UNK A   1      -8.599  13.024  67.241  1.00  0.00    -0.199 NA 
HETATM   14  H   UNK A   1      -7.843  13.695  67.107  1.00  0.00     0.000 HD 
BRANCH  13  15
HETATM   15  C   UNK A   1      -8.041  11.636  67.347  1.00  0.00    -0.153 C  
HETATM   16  O   UNK A   1      -7.801   9.888  65.626  1.00  0.00    -0.117 OA 
HETATM   17  O   UNK A   1      -9.201  11.618  65.222  1.00  0.00    -0.155 OA 
HETATM   18  C   UNK A   1      -8.315  10.934  65.992  1.00  0.00    -0.165 C  
BRANCH  15  19
HETATM   19  C   UNK A   1      -8.645  10.809  68.505  1.00  0.00    -0.148 C  
BRANCH  19  20
HETATM   20  C   UNK A   1      -7.636   9.844  69.149  1.00  0.00    -0.090 C  
BRANCH  20  21
HETATM   21  C   UNK A   1      -8.223   8.973  70.236  1.00  0.00    -0.150 A  
HETATM   22  C   UNK A   1      -9.234   7.399  72.333  1.00  0.00    -0.173 A  
HETATM   23  C   UNK A   1      -7.505   7.868  70.710  1.00  0.00    -0.072 A  
HETATM   24  C   UNK A   1      -8.006   7.086  71.754  1.00  0.00    -0.099 A  
HETATM   25  C   UNK A   1      -9.961   8.491  71.866  1.00  0.00    -0.365 A  
HETATM   26  C   UNK A   1      -9.462   9.279  70.825  1.00  0.00    -0.336 A  
ENDBRANCH  20  21
ENDBRANCH  19  20
ENDBRANCH  15  19
ENDBRANCH  13  15
ENDBRANCH   1  13
TORSDOF 6
ENDMDL
MODEL      245
REMARK 921   NORMALIZED FREE ENERGY PREDICTED BY IDOCK:   -2.37 KCAL/MOL
REMARK 922        TOTAL FREE ENERGY PREDICTED BY IDOCK:   -4.92 KCAL/MOL
REMARK 923 INTER-LIGAND FREE ENERGY PREDICTED BY IDOCK:   -4.29 KCAL/MOL
REMARK 924 INTRA-LIGAND FREE ENERGY PREDICTED BY IDOCK:   -0.63 KCAL/MOL
REMARK 927      BINDING AFFINITY PREDICTED BY RF-SCORE:    0.00 PKD
ROOT
HETATM    1  C   UNK A   1     -10.329   7.997  67.720  1.00  0.00    -0.231 C  
HETATM    2  C   UNK A   1     -11.138   6.758  67.348  1.00  0.00    -0.366 C  
ENDROOT
BRANCH   1   3
HETATM    3  C   UNK A   1      -9.811   8.679  66.422  1.00  0.00    -0.270 C  
ATOM      4  CA  PRO A   2      -7.985   6.901  66.157  1.00  0.00    -0.110 C  
ATOM      5  N   PRO A   2      -8.654   8.178  65.842  1.00  0.00    -0.144 N  
ATOM      6  C   PRO A   2      -6.968   7.042  67.300  1.00  0.00    -0.078 C  
HETATM    7  O   UNK A   1     -10.395   9.657  65.946  1.00  0.00    -0.207 OA 
ATOM      8  CB  PRO A   2      -7.258   6.505  64.865  1.00  0.00    -0.067 C  
ATOM      9  O   PRO A   2      -6.851   8.302  67.779  1.00  0.00    -0.067 OA 
ATOM     10  CD  PRO A   2      -8.146   8.713  64.588  1.00  0.00    -0.156 C  
ATOM     11  OXT PRO A   2      -6.317   6.108  67.741  1.00  0.00    -0.037 OA 
ATOM     12  CG  PRO A   2      -7.767   7.474  63.801  1.00  0.00    -0.126 C  
ENDBRANCH   1   3
BRANCH   1  13
HETATM   13  N   UNK A   1     -11.131   9.000  68.465  1.00  0.00    -0.450 NA 
HETATM   14  H   UNK A   1     -11.961   9.251  67.928  1.00  0.00     0.000 HD 
BRANCH  13  15
HETATM   15  C   UNK A   1     -11.519   8.607  69.859  1.00  0.00     0.152 C  
HETATM   16  O   UNK A   1     -12.250  10.003  71.753  1.00  0.00    -0.384 OA 
HETATM   17  O   UNK A   1     -11.212  11.004  70.012  1.00  0.00    -0.273 OA 
HETATM   18  C   UNK A   1     -11.710   9.920  70.662  1.00  0.00    -0.323 C  
BRANCH  15  19
HETATM   19  C   UNK A   1     -10.482   7.701  70.561  1.00  0.00    -0.221 C  
BRANCH  19  20
HETATM   20  C   UNK A   1      -9.297   8.484  71.152  1.00  0.00    -0.249 C  
BRANCH  20  21
HETATM   21  C   UNK A   1      -8.323   7.631  71.932  1.00  0.00    -0.125 A  
HETATM   22  C   UNK A   1      -6.601   6.019  73.459  1.00  0.00    -0.074 A  
HETATM   23  C   UNK A   1      -7.870   8.058  73.186  1.00  0.00    -0.206 A  
HETATM   24  C   UNK A   1      -7.015   7.256  73.947  1.00  0.00    -0.086 A  
HETATM   25  C   UNK A   1      -7.038   5.586  72.210  1.00  0.00    -0.087 A  
HETATM   26  C   UNK A   1      -7.897   6.383  71.447  1.00  0.00    -0.104 A  
ENDBRANCH  20  21
ENDBRANCH  19  20
ENDBRANCH  15  19
ENDBRANCH  13  15
ENDBRANCH   1  13
TORSDOF 6
ENDMDL
MODEL      246
REMARK 921   NORMALIZED FREE ENERGY PREDICTED BY IDOCK:   -2.30 KCAL/MOL
REMARK 922        TOTAL FREE ENERGY PREDICTED BY IDOCK:   -4.83 KCAL/MOL
REMARK 923 INTER-LIGAND FREE ENERGY PREDICTED BY IDOCK:   -7.36 KCAL/MOL
REMARK 924 INTRA-LIGAND FREE ENERGY PREDICTED BY IDOCK:    2.53 KCAL/MOL
REMARK 927      BINDING AFFINITY PREDICTED BY RF-SCORE:    0.00 PKD
ROOT
HETATM    1  C   UNK A   1     -10.475   9.134  71.574  1.00  0.00    -0.352 C  
HETATM    2  C   UNK A   1     -11.062   8.222  72.647  1.00  0.00    -0.400 C  
ENDROOT
BRANCH   1   3
HETATM    3  C   UNK A   1      -9.253   8.432  70.918  1.00  0.00    -0.160 C  
ATOM      4  CA  PRO A   2     -10.493   6.190  70.886  1.00  0.00    -0.228 C  
ATOM      5  N   PRO A   2      -9.305   7.056  70.752  1.00  0.00    -0.161 N  
ATOM      6  C   PRO A   2     -10.702   5.704  72.328  1.00  0.00    -0.230 C  
HETATM    7  O   UNK A   1      -8.256   9.080  70.587  1.00  0.00    -0.144 OA 
ATOM      8  CB  PRO A   2     -10.214   4.990  69.971  1.00  0.00    -0.339 C  
ATOM      9  O   PRO A   2      -9.751   6.126  73.193  1.00  0.00    -0.156 OA 
ATOM     10  CD  PRO A   2      -8.234   6.335  70.081  1.00  0.00    -0.121 C  
ATOM     11  OXT PRO A   2     -11.637   4.997  72.672  1.00  0.00    -0.161 OA 
ATOM     12  CG  PRO A   2      -8.971   5.371  69.172  1.00  0.00    -0.120 C  
ENDBRANCH   1   3
BRANCH   1  13
HETATM   13  N   UNK A   1     -11.446   9.446  70.496  1.00  0.00    -0.288 NA 
HETATM   14  H   UNK A   1     -12.397   9.265  70.820  1.00  0.00     0.000 HD 
BRANCH  13  15
HETATM   15  C   UNK A   1     -11.353  10.830  69.925  1.00  0.00    -0.311 C  
HETATM   16  O   UNK A   1     -12.389  12.932  70.686  1.00  0.00    -0.358 OA 
HETATM   17  O   UNK A   1     -13.221  10.976  71.459  1.00  0.00    -0.388 OA 
HETATM   18  C   UNK A   1     -12.358  11.712  70.710  1.00  0.00    -0.358 C  
BRANCH  15  19
HETATM   19  C   UNK A   1     -11.657  10.899  68.411  1.00  0.00    -0.346 C  
BRANCH  19  20
HETATM   20  C   UNK A   1     -10.395  11.069  67.548  1.00  0.00    -0.233 C  
BRANCH  20  21
HETATM   21  C   UNK A   1     -10.668  11.557  66.144  1.00  0.00    -0.324 A  
HETATM   22  C   UNK A   1     -11.254  12.372  63.520  1.00  0.00    -0.540 A  
HETATM   23  C   UNK A   1     -10.175  10.841  65.047  1.00  0.00    -0.373 A  
HETATM   24  C   UNK A   1     -10.467  11.244  63.741  1.00  0.00    -0.459 A  
HETATM   25  C   UNK A   1     -11.746  13.097  64.602  1.00  0.00    -0.404 A  
HETATM   26  C   UNK A   1     -11.459  12.695  65.910  1.00  0.00    -0.407 A  
ENDBRANCH  20  21
ENDBRANCH  19  20
ENDBRANCH  15  19
ENDBRANCH  13  15
ENDBRANCH   1  13
TORSDOF 6
ENDMDL
MODEL      247
REMARK 921   NORMALIZED FREE ENERGY PREDICTED BY IDOCK:   -2.30 KCAL/MOL
REMARK 922        TOTAL FREE ENERGY PREDICTED BY IDOCK:   -4.82 KCAL/MOL
REMARK 923 INTER-LIGAND FREE ENERGY PREDICTED BY IDOCK:   -4.86 KCAL/MOL
REMARK 924 INTRA-LIGAND FREE ENERGY PREDICTED BY IDOCK:    0.04 KCAL/MOL
REMARK 927      BINDING AFFINITY PREDICTED BY RF-SCORE:    0.00 PKD
ROOT
HETATM    1  C   UNK A   1      -9.948   8.557  72.085  1.00  0.00    -0.317 C  
HETATM    2  C   UNK A   1     -11.306   9.160  71.736  1.00  0.00    -0.451 C  
ENDROOT
BRANCH   1   3
HETATM    3  C   UNK A   1     -10.163   7.219  72.845  1.00  0.00    -0.244 C  
ATOM      4  CA  PRO A   2     -10.098   5.901  70.649  1.00  0.00    -0.197 C  
ATOM      5  N   PRO A   2     -10.343   6.066  72.095  1.00  0.00    -0.193 N  
ATOM      6  C   PRO A   2     -11.328   6.260  69.803  1.00  0.00    -0.436 C  
HETATM    7  O   UNK A   1     -10.205   7.194  74.079  1.00  0.00    -0.342 OA 
ATOM      8  CB  PRO A   2      -9.765   4.414  70.471  1.00  0.00    -0.287 C  
ATOM      9  O   PRO A   2     -12.408   6.626  70.532  1.00  0.00    -0.314 OA 
ATOM     10  CD  PRO A   2     -10.478   4.764  72.731  1.00  0.00    -0.202 C  
ATOM     11  OXT PRO A   2     -11.342   6.220  68.583  1.00  0.00    -0.337 OA 
ATOM     12  CG  PRO A   2      -9.600   3.864  71.885  1.00  0.00    -0.217 C  
ENDBRANCH   1   3
BRANCH   1  13
HETATM   13  N   UNK A   1      -9.127   8.265  70.884  1.00  0.00    -0.145 NA 
HETATM   14  H   UNK A   1      -9.731   8.095  70.081  1.00  0.00     0.000 HD 
BRANCH  13  15
HETATM   15  C   UNK A   1      -8.096   9.299  70.541  1.00  0.00    -0.174 C  
HETATM   16  O   UNK A   1      -8.152  11.094  68.854  1.00  0.00    -0.144 OA 
HETATM   17  O   UNK A   1      -9.639   9.400  68.678  1.00  0.00    -0.145 OA 
HETATM   18  C   UNK A   1      -8.604  10.043  69.279  1.00  0.00    -0.168 C  
BRANCH  15  19
HETATM   19  C   UNK A   1      -6.690   8.713  70.281  1.00  0.00    -0.040 C  
BRANCH  19  20
HETATM   20  C   UNK A   1      -6.723   7.260  69.780  1.00  0.00    -0.044 C  
BRANCH  20  21
HETATM   21  C   UNK A   1      -6.935   7.126  68.290  1.00  0.00    -0.076 A  
HETATM   22  C   UNK A   1      -7.227   6.813  65.512  1.00  0.00    -0.077 A  
HETATM   23  C   UNK A   1      -6.115   7.832  67.401  1.00  0.00    -0.049 A  
HETATM   24  C   UNK A   1      -6.258   7.676  66.020  1.00  0.00    -0.042 A  
HETATM   25  C   UNK A   1      -8.053   6.110  66.385  1.00  0.00    -0.111 A  
HETATM   26  C   UNK A   1      -7.911   6.260  67.768  1.00  0.00    -0.106 A  
ENDBRANCH  20  21
ENDBRANCH  19  20
ENDBRANCH  15  19
ENDBRANCH  13  15
ENDBRANCH   1  13
TORSDOF 6
ENDMDL
MODEL      248
REMARK 921   NORMALIZED FREE ENERGY PREDICTED BY IDOCK:   -2.29 KCAL/MOL
REMARK 922        TOTAL FREE ENERGY PREDICTED BY IDOCK:   -4.81 KCAL/MOL
REMARK 923 INTER-LIGAND FREE ENERGY PREDICTED BY IDOCK:   -5.36 KCAL/MOL
REMARK 924 INTRA-LIGAND FREE ENERGY PREDICTED BY IDOCK:    0.55 KCAL/MOL
REMARK 927      BINDING AFFINITY PREDICTED BY RF-SCORE:    0.00 PKD
ROOT
HETATM    1  C   UNK A   1     -10.044  10.349  68.005  1.00  0.00    -0.163 C  
HETATM    2  C   UNK A   1     -10.763   9.091  67.524  1.00  0.00    -0.239 C  
ENDROOT
BRANCH   1   3
HETATM    3  C   UNK A   1      -8.567   9.999  68.336  1.00  0.00    -0.113 C  
ATOM      4  CA  PRO A   2      -7.854  10.497  65.926  1.00  0.00    -0.151 C  
ATOM      5  N   PRO A   2      -7.654   9.974  67.292  1.00  0.00    -0.095 N  
ATOM      6  C   PRO A   2      -8.473   9.451  64.986  1.00  0.00    -0.159 C  
HETATM    7  O   UNK A   1      -8.228   9.718  69.490  1.00  0.00    -0.114 OA 
ATOM      8  CB  PRO A   2      -6.449  10.867  65.433  1.00  0.00     0.121 C  
ATOM      9  O   PRO A   2      -8.687   8.249  65.568  1.00  0.00    -0.166 OA 
ATOM     10  CD  PRO A   2      -6.240   9.727  67.530  1.00  0.00    -0.059 C  
ATOM     11  OXT PRO A   2      -8.747   9.674  63.818  1.00  0.00    -0.195 OA 
ATOM     12  CG  PRO A   2      -5.548  10.758  66.660  1.00  0.00    -0.075 C  
ENDBRANCH   1   3
BRANCH   1  13
HETATM   13  N   UNK A   1     -10.033  11.426  66.984  1.00  0.00    -0.198 NA 
HETATM   14  H   UNK A   1     -10.637  11.171  66.202  1.00  0.00     0.000 HD 
BRANCH  13  15
HETATM   15  C   UNK A   1     -10.391  12.793  67.485  1.00  0.00    -0.219 C  
HETATM   16  O   UNK A   1     -12.509  14.040  67.314  1.00  0.00    -0.260 OA 
HETATM   17  O   UNK A   1     -12.186  12.268  65.947  1.00  0.00    -0.634 OA 
HETATM   18  C   UNK A   1     -11.799  13.125  66.929  1.00  0.00    -0.386 C  
BRANCH  15  19
HETATM   19  C   UNK A   1      -9.384  13.890  67.071  1.00  0.00    -0.255 C  
BRANCH  19  20
HETATM   20  C   UNK A   1      -8.934  14.774  68.247  1.00  0.00    -0.181 C  
BRANCH  20  21
HETATM   21  C   UNK A   1      -9.189  16.249  68.043  1.00  0.00    -0.196 A  
HETATM   22  C   UNK A   1      -9.572  18.995  67.586  1.00  0.00    -0.362 A  
HETATM   23  C   UNK A   1      -8.289  17.191  68.556  1.00  0.00    -0.262 A  
HETATM   24  C   UNK A   1      -8.478  18.557  68.328  1.00  0.00    -0.341 A  
HETATM   25  C   UNK A   1     -10.478  18.069  67.075  1.00  0.00    -0.361 A  
HETATM   26  C   UNK A   1     -10.291  16.701  67.297  1.00  0.00    -0.298 A  
ENDBRANCH  20  21
ENDBRANCH  19  20
ENDBRANCH  15  19
ENDBRANCH  13  15
ENDBRANCH   1  13
TORSDOF 6
ENDMDL
MODEL      249
REMARK 921   NORMALIZED FREE ENERGY PREDICTED BY IDOCK:   -2.25 KCAL/MOL
REMARK 922        TOTAL FREE ENERGY PREDICTED BY IDOCK:   -4.75 KCAL/MOL
REMARK 923 INTER-LIGAND FREE ENERGY PREDICTED BY IDOCK:   -6.30 KCAL/MOL
REMARK 924 INTRA-LIGAND FREE ENERGY PREDICTED BY IDOCK:    1.55 KCAL/MOL
REMARK 927      BINDING AFFINITY PREDICTED BY RF-SCORE:    0.00 PKD
ROOT
HETATM    1  C   UNK A   1     -10.158   8.766  71.897  1.00  0.00    -0.339 C  
HETATM    2  C   UNK A   1     -11.556   9.007  71.334  1.00  0.00    -0.396 C  
ENDROOT
BRANCH   1   3
HETATM    3  C   UNK A   1     -10.142   7.417  72.668  1.00  0.00    -0.208 C  
ATOM      4  CA  PRO A   2      -9.966   6.106  70.474  1.00  0.00    -0.181 C  
ATOM      5  N   PRO A   2     -10.177   6.244  71.928  1.00  0.00    -0.199 N  
ATOM      6  C   PRO A   2     -11.268   6.271  69.676  1.00  0.00    -0.437 C  
HETATM    7  O   UNK A   1     -10.132   7.396  73.903  1.00  0.00    -0.313 OA 
ATOM      8  CB  PRO A   2      -9.422   4.683  70.286  1.00  0.00    -0.240 C  
ATOM      9  O   PRO A   2     -12.361   6.478  70.447  1.00  0.00    -0.222 OA 
ATOM     10  CD  PRO A   2     -10.092   4.942  72.572  1.00  0.00    -0.182 C  
ATOM     11  OXT PRO A   2     -11.323   6.220  68.458  1.00  0.00    -0.324 OA 
ATOM     12  CG  PRO A   2      -9.123   4.175  71.694  1.00  0.00    -0.172 C  
ENDBRANCH   1   3
BRANCH   1  13
HETATM   13  N   UNK A   1      -9.121   8.692  70.838  1.00  0.00    -0.170 NA 
HETATM   14  H   UNK A   1      -8.706   7.760  70.822  1.00  0.00     0.000 HD 
BRANCH  13  15
HETATM   15  C   UNK A   1      -9.576   9.076  69.463  1.00  0.00    -0.165 C  
HETATM   16  O   UNK A   1      -8.787   8.306  67.258  1.00  0.00    -0.128 OA 
HETATM   17  O   UNK A   1      -7.478   7.934  69.065  1.00  0.00    -0.092 OA 
HETATM   18  C   UNK A   1      -8.598   8.412  68.460  1.00  0.00    -0.136 C  
BRANCH  15  19
HETATM   19  C   UNK A   1      -9.621  10.603  69.227  1.00  0.00    -0.164 C  
BRANCH  19  20
HETATM   20  C   UNK A   1     -10.815  11.048  68.364  1.00  0.00    -0.264 C  
BRANCH  20  21
HETATM   21  C   UNK A   1     -11.132  12.522  68.462  1.00  0.00    -0.297 A  
HETATM   22  C   UNK A   1     -11.818  15.244  68.576  1.00  0.00    -0.305 A  
HETATM   23  C   UNK A   1     -10.958  13.349  67.347  1.00  0.00    -0.287 A  
HETATM   24  C   UNK A   1     -11.300  14.703  67.401  1.00  0.00    -0.368 A  
HETATM   25  C   UNK A   1     -11.990  14.434  69.694  1.00  0.00    -0.385 A  
HETATM   26  C   UNK A   1     -11.653  13.078  69.643  1.00  0.00    -0.322 A  
ENDBRANCH  20  21
ENDBRANCH  19  20
ENDBRANCH  15  19
ENDBRANCH  13  15
ENDBRANCH   1  13
TORSDOF 6
ENDMDL
MODEL      250
REMARK 921   NORMALIZED FREE ENERGY PREDICTED BY IDOCK:   -2.23 KCAL/MOL
REMARK 922        TOTAL FREE ENERGY PREDICTED BY IDOCK:   -4.73 KCAL/MOL
REMARK 923 INTER-LIGAND FREE ENERGY PREDICTED BY IDOCK:   -5.55 KCAL/MOL
REMARK 924 INTRA-LIGAND FREE ENERGY PREDICTED BY IDOCK:    0.82 KCAL/MOL
REMARK 927      BINDING AFFINITY PREDICTED BY RF-SCORE:    0.00 PKD
ROOT
HETATM    1  C   UNK A   1      -9.791  11.670  65.393  1.00  0.00    -0.238 C  
HETATM    2  C   UNK A   1     -10.708  10.913  66.349  1.00  0.00    -0.257 C  
ENDROOT
BRANCH   1   3
HETATM    3  C   UNK A   1     -10.640  12.660  64.547  1.00  0.00    -0.346 C  
ATOM      4  CA  PRO A   2     -10.400  14.477  66.337  1.00  0.00    -0.293 C  
ATOM      5  N   PRO A   2     -10.972  13.882  65.114  1.00  0.00    -0.332 N  
ATOM      6  C   PRO A   2     -11.153  14.045  67.604  1.00  0.00    -0.282 C  
HETATM    7  O   UNK A   1     -11.032  12.350  63.418  1.00  0.00    -0.456 OA 
ATOM      8  CB  PRO A   2     -10.541  15.993  66.144  1.00  0.00    -0.302 C  
ATOM      9  O   PRO A   2     -12.210  13.235  67.365  1.00  0.00    -0.312 OA 
ATOM     10  CD  PRO A   2     -11.701  14.891  64.361  1.00  0.00    -0.328 C  
ATOM     11  OXT PRO A   2     -10.837  14.398  68.730  1.00  0.00    -0.236 OA 
ATOM     12  CG  PRO A   2     -10.970  16.177  64.691  1.00  0.00    -0.263 C  
ENDBRANCH   1   3
BRANCH   1  13
HETATM   13  N   UNK A   1      -8.753  12.460  66.101  1.00  0.00    -0.408 NA 
HETATM   14  H   UNK A   1      -9.138  13.357  66.396  1.00  0.00     0.000 HD 
BRANCH  13  15
HETATM   15  C   UNK A   1      -8.102  11.772  67.264  1.00  0.00    -0.164 C  
HETATM   16  O   UNK A   1      -6.917  12.720  69.205  1.00  0.00    -0.064 OA 
HETATM   17  O   UNK A   1      -7.248  14.034  67.395  1.00  0.00    -0.178 OA 
HETATM   18  C   UNK A   1      -7.358  12.863  68.076  1.00  0.00    -0.120 C  
BRANCH  15  19
HETATM   19  C   UNK A   1      -7.118  10.653  66.853  1.00  0.00    -0.109 C  
BRANCH  19  20
HETATM   20  C   UNK A   1      -7.712   9.241  67.000  1.00  0.00    -0.095 C  
BRANCH  20  21
HETATM   21  C   UNK A   1      -7.998   8.838  68.428  1.00  0.00    -0.109 A  
HETATM   22  C   UNK A   1      -8.455   7.994  71.069  1.00  0.00    -0.134 A  
HETATM   23  C   UNK A   1      -8.785   7.711  68.691  1.00  0.00    -0.128 A  
HETATM   24  C   UNK A   1      -9.012   7.289  70.004  1.00  0.00    -0.142 A  
HETATM   25  C   UNK A   1      -7.675   9.120  70.821  1.00  0.00    -0.162 A  
HETATM   26  C   UNK A   1      -7.442   9.543  69.509  1.00  0.00    -0.092 A  
ENDBRANCH  20  21
ENDBRANCH  19  20
ENDBRANCH  15  19
ENDBRANCH  13  15
ENDBRANCH   1  13
TORSDOF 6
ENDMDL
MODEL      251
REMARK 921   NORMALIZED FREE ENERGY PREDICTED BY IDOCK:   -2.16 KCAL/MOL
REMARK 922        TOTAL FREE ENERGY PREDICTED BY IDOCK:   -4.63 KCAL/MOL
REMARK 923 INTER-LIGAND FREE ENERGY PREDICTED BY IDOCK:   -3.21 KCAL/MOL
REMARK 924 INTRA-LIGAND FREE ENERGY PREDICTED BY IDOCK:   -1.42 KCAL/MOL
REMARK 927      BINDING AFFINITY PREDICTED BY RF-SCORE:    0.00 PKD
ROOT
HETATM    1  C   UNK A   1      -9.725   9.033  67.349  1.00  0.00    -0.168 C  
HETATM    2  C   UNK A   1     -10.624   8.263  66.386  1.00  0.00     0.353 C  
ENDROOT
BRANCH   1   3
HETATM    3  C   UNK A   1     -10.307  10.459  67.562  1.00  0.00    -0.224 C  
ATOM      4  CA  PRO A   2      -7.952  11.462  67.662  1.00  0.00    -0.123 C  
ATOM      5  N   PRO A   2      -9.419  11.493  67.819  1.00  0.00    -0.164 N  
ATOM      6  C   PRO A   2      -7.239  10.961  68.927  1.00  0.00    -0.095 C  
HETATM    7  O   UNK A   1     -11.526  10.654  67.534  1.00  0.00    -0.460 OA 
ATOM      8  CB  PRO A   2      -7.552  12.917  67.385  1.00  0.00    -0.150 C  
ATOM      9  O   PRO A   2      -8.075  10.676  69.952  1.00  0.00     0.008 OA 
ATOM     10  CD  PRO A   2      -9.878  12.866  67.957  1.00  0.00    -0.223 C  
ATOM     11  OXT PRO A   2      -6.028  10.832  69.011  1.00  0.00    -0.041 OA 
ATOM     12  CG  PRO A   2      -8.865  13.661  67.157  1.00  0.00    -0.237 C  
ENDBRANCH   1   3
BRANCH   1  13
HETATM   13  N   UNK A   1      -9.627   8.385  68.680  1.00  0.00    -0.148 NA 
HETATM   14  H   UNK A   1      -9.601   9.095  69.413  1.00  0.00     0.000 HD 
BRANCH  13  15
HETATM   15  C   UNK A   1     -10.689   7.372  68.984  1.00  0.00    -0.148 C  
HETATM   16  O   UNK A   1     -12.368   7.325  70.788  1.00  0.00    -0.278 OA 
HETATM   17  O   UNK A   1     -10.590   8.706  71.001  1.00  0.00    -0.203 OA 
HETATM   18  C   UNK A   1     -11.323   7.773  70.340  1.00  0.00    -0.207 C  
BRANCH  15  19
HETATM   19  C   UNK A   1     -10.163   5.920  69.053  1.00  0.00    -0.261 C  
BRANCH  19  20
HETATM   20  C   UNK A   1      -8.718   5.825  69.572  1.00  0.00    -0.111 C  
BRANCH  20  21
HETATM   21  C   UNK A   1      -7.671   5.825  68.483  1.00  0.00    -0.093 A  
HETATM   22  C   UNK A   1      -5.791   5.903  66.395  1.00  0.00    -0.017 A  
HETATM   23  C   UNK A   1      -7.936   5.201  67.258  1.00  0.00    -0.100 A  
HETATM   24  C   UNK A   1      -7.003   5.240  66.218  1.00  0.00    -0.067 A  
HETATM   25  C   UNK A   1      -5.511   6.522  67.611  1.00  0.00    -0.005 A  
HETATM   26  C   UNK A   1      -6.443   6.489  68.652  1.00  0.00    -0.049 A  
ENDBRANCH  20  21
ENDBRANCH  19  20
ENDBRANCH  15  19
ENDBRANCH  13  15
ENDBRANCH   1  13
TORSDOF 6
ENDMDL
MODEL      252
REMARK 921   NORMALIZED FREE ENERGY PREDICTED BY IDOCK:   -2.14 KCAL/MOL
REMARK 922        TOTAL FREE ENERGY PREDICTED BY IDOCK:   -4.60 KCAL/MOL
REMARK 923 INTER-LIGAND FREE ENERGY PREDICTED BY IDOCK:   -4.43 KCAL/MOL
REMARK 924 INTRA-LIGAND FREE ENERGY PREDICTED BY IDOCK:   -0.17 KCAL/MOL
REMARK 927      BINDING AFFINITY PREDICTED BY RF-SCORE:    0.00 PKD
ROOT
HETATM    1  C   UNK A   1     -10.172   8.492  72.200  1.00  0.00    -0.333 C  
HETATM    2  C   UNK A   1     -11.510   9.144  71.864  1.00  0.00    -0.423 C  
ENDROOT
BRANCH   1   3
HETATM    3  C   UNK A   1     -10.430   7.150  72.942  1.00  0.00    -0.266 C  
ATOM      4  CA  PRO A   2     -10.318   5.850  70.737  1.00  0.00    -0.232 C  
ATOM      5  N   PRO A   2     -10.605   6.006  72.176  1.00  0.00    -0.206 N  
ATOM      6  C   PRO A   2     -11.518   6.235  69.858  1.00  0.00    -0.389 C  
HETATM    7  O   UNK A   1     -10.509   7.115  74.174  1.00  0.00    -0.291 OA 
ATOM      8  CB  PRO A   2     -10.002   4.359  70.556  1.00  0.00    -0.256 C  
ATOM      9  O   PRO A   2     -12.613   6.610  70.558  1.00  0.00    -0.171 OA 
ATOM     10  CD  PRO A   2     -10.777   4.701  72.796  1.00  0.00    -0.204 C  
ATOM     11  OXT PRO A   2     -11.496   6.205  68.638  1.00  0.00    -0.223 OA 
ATOM     12  CG  PRO A   2      -9.888   3.795  71.969  1.00  0.00    -0.243 C  
ENDBRANCH   1   3
BRANCH   1  13
HETATM   13  N   UNK A   1      -9.364   8.190  70.993  1.00  0.00    -0.148 NA 
HETATM   14  H   UNK A   1      -9.968   8.142  70.172  1.00  0.00     0.000 HD 
BRANCH  13  15
HETATM   15  C   UNK A   1      -8.219   9.123  70.735  1.00  0.00    -0.190 C  
HETATM   16  O   UNK A   1      -7.722  10.516  68.765  1.00  0.00    -0.093 OA 
HETATM   17  O   UNK A   1      -9.212   8.829  68.547  1.00  0.00    -0.141 OA 
HETATM   18  C   UNK A   1      -8.333   9.582  69.259  1.00  0.00    -0.129 C  
BRANCH  15  19
HETATM   19  C   UNK A   1      -6.831   8.489  70.988  1.00  0.00    -0.059 C  
BRANCH  19  20
HETATM   20  C   UNK A   1      -6.542   8.241  72.478  1.00  0.00    -0.093 C  
BRANCH  20  21
HETATM   21  C   UNK A   1      -6.564   6.784  72.876  1.00  0.00    -0.066 A  
HETATM   22  C   UNK A   1      -6.727   4.080  73.624  1.00  0.00    -0.049 A  
HETATM   23  C   UNK A   1      -6.876   6.424  74.193  1.00  0.00    -0.078 A  
HETATM   24  C   UNK A   1      -6.959   5.080  74.566  1.00  0.00    -0.077 A  
HETATM   25  C   UNK A   1      -6.410   4.424  72.313  1.00  0.00    -0.022 A  
HETATM   26  C   UNK A   1      -6.330   5.767  71.935  1.00  0.00    -0.045 A  
ENDBRANCH  20  21
ENDBRANCH  19  20
ENDBRANCH  15  19
ENDBRANCH  13  15
ENDBRANCH   1  13
TORSDOF 6
ENDMDL
MODEL      253
REMARK 921   NORMALIZED FREE ENERGY PREDICTED BY IDOCK:   -2.12 KCAL/MOL
REMARK 922        TOTAL FREE ENERGY PREDICTED BY IDOCK:   -4.58 KCAL/MOL
REMARK 923 INTER-LIGAND FREE ENERGY PREDICTED BY IDOCK:   -5.24 KCAL/MOL
REMARK 924 INTRA-LIGAND FREE ENERGY PREDICTED BY IDOCK:    0.65 KCAL/MOL
REMARK 927      BINDING AFFINITY PREDICTED BY RF-SCORE:    0.00 PKD
ROOT
HETATM    1  C   UNK A   1     -10.269  10.763  68.879  1.00  0.00    -0.203 C  
HETATM    2  C   UNK A   1     -11.230  11.156  69.997  1.00  0.00    -0.261 C  
ENDROOT
BRANCH   1   3
HETATM    3  C   UNK A   1     -10.926  11.076  67.505  1.00  0.00    -0.281 C  
ATOM      4  CA  PRO A   2     -10.158  13.517  67.637  1.00  0.00    -0.229 C  
ATOM      5  N   PRO A   2     -10.933  12.395  67.073  1.00  0.00    -0.250 N  
ATOM      6  C   PRO A   2     -10.902  14.224  68.780  1.00  0.00    -0.253 C  
HETATM    7  O   UNK A   1     -11.455  10.181  66.839  1.00  0.00     0.052 OA 
ATOM      8  CB  PRO A   2      -9.963  14.491  66.467  1.00  0.00    -0.290 C  
ATOM      9  O   PRO A   2     -12.129  13.714  69.034  1.00  0.00    -0.344 OA 
ATOM     10  CD  PRO A   2     -11.463  12.759  65.768  1.00  0.00    -0.348 C  
ATOM     11  OXT PRO A   2     -10.437  15.163  69.406  1.00  0.00    -0.236 OA 
ATOM     12  CG  PRO A   2     -10.438  13.736  65.228  1.00  0.00    -0.376 C  
ENDBRANCH   1   3
BRANCH   1  13
HETATM   13  N   UNK A   1      -8.985  11.504  68.942  1.00  0.00    -0.381 NA 
HETATM   14  H   UNK A   1      -9.081  12.318  69.549  1.00  0.00     0.000 HD 
BRANCH  13  15
HETATM   15  C   UNK A   1      -7.793  10.693  69.356  1.00  0.00    -0.121 C  
HETATM   16  O   UNK A   1      -5.654  10.313  68.193  1.00  0.00    -0.038 OA 
HETATM   17  O   UNK A   1      -7.403  11.112  67.003  1.00  0.00    -0.113 OA 
HETATM   18  C   UNK A   1      -6.820  10.671  68.149  1.00  0.00    -0.068 C  
BRANCH  15  19
HETATM   19  C   UNK A   1      -8.142   9.248  69.782  1.00  0.00    -0.120 C  
BRANCH  19  20
HETATM   20  C   UNK A   1      -7.644   8.187  68.786  1.00  0.00    -0.105 C  
BRANCH  20  21
HETATM   21  C   UNK A   1      -8.747   7.372  68.152  1.00  0.00    -0.122 A  
HETATM   22  C   UNK A   1     -10.869   5.955  66.974  1.00  0.00    -0.379 A  
HETATM   23  C   UNK A   1      -9.869   7.007  68.906  1.00  0.00    -0.150 A  
HETATM   24  C   UNK A   1     -10.925   6.303  68.321  1.00  0.00    -0.408 A  
HETATM   25  C   UNK A   1      -9.756   6.306  66.213  1.00  0.00    -0.090 A  
HETATM   26  C   UNK A   1      -8.699   7.013  66.794  1.00  0.00    -0.124 A  
ENDBRANCH  20  21
ENDBRANCH  19  20
ENDBRANCH  15  19
ENDBRANCH  13  15
ENDBRANCH   1  13
TORSDOF 6
ENDMDL
MODEL      254
REMARK 921   NORMALIZED FREE ENERGY PREDICTED BY IDOCK:   -2.10 KCAL/MOL
REMARK 922        TOTAL FREE ENERGY PREDICTED BY IDOCK:   -4.55 KCAL/MOL
REMARK 923 INTER-LIGAND FREE ENERGY PREDICTED BY IDOCK:   -4.62 KCAL/MOL
REMARK 924 INTRA-LIGAND FREE ENERGY PREDICTED BY IDOCK:    0.07 KCAL/MOL
REMARK 927      BINDING AFFINITY PREDICTED BY RF-SCORE:    0.00 PKD
ROOT
HETATM    1  C   UNK A   1     -10.170   9.331  69.440  1.00  0.00    -0.210 C  
HETATM    2  C   UNK A   1     -11.040  10.026  70.484  1.00  0.00    -0.400 C  
ENDROOT
BRANCH   1   3
HETATM    3  C   UNK A   1      -9.313   8.237  70.136  1.00  0.00    -0.159 C  
ATOM      4  CA  PRO A   2      -7.315   9.832  70.298  1.00  0.00    -0.158 C  
ATOM      5  N   PRO A   2      -7.976   8.516  70.380  1.00  0.00    -0.093 N  
ATOM      6  C   PRO A   2      -6.788  10.134  68.887  1.00  0.00    -0.054 C  
HETATM    7  O   UNK A   1      -9.803   7.142  70.428  1.00  0.00    -0.176 OA 
ATOM      8  CB  PRO A   2      -6.139   9.748  71.280  1.00  0.00    -0.003 C  
ATOM      9  O   PRO A   2      -6.996   9.135  67.998  1.00  0.00    -0.075 OA 
ATOM     10  CD  PRO A   2      -7.126   7.573  71.092  1.00  0.00    -0.058 C  
ATOM     11  OXT PRO A   2      -6.229  11.176  68.585  1.00  0.00    -0.043 OA 
ATOM     12  CG  PRO A   2      -6.352   8.450  72.055  1.00  0.00    -0.067 C  
ENDBRANCH   1   3
BRANCH   1  13
HETATM   13  N   UNK A   1     -10.970   8.670  68.380  1.00  0.00    -0.445 NA 
HETATM   14  H   UNK A   1     -11.549   9.358  67.898  1.00  0.00     0.000 HD 
BRANCH  13  15
HETATM   15  C   UNK A   1     -10.183   7.873  67.383  1.00  0.00    -0.251 C  
HETATM   16  O   UNK A   1      -9.007   8.602  65.343  1.00  0.00    -0.189 OA 
HETATM   17  O   UNK A   1     -10.544   9.986  66.258  1.00  0.00    -0.156 OA 
HETATM   18  C   UNK A   1      -9.832   8.830  66.214  1.00  0.00    -0.272 C  
BRANCH  15  19
HETATM   19  C   UNK A   1     -10.934   6.633  66.846  1.00  0.00    -0.396 C  
BRANCH  19  20
HETATM   20  C   UNK A   1      -9.992   5.514  66.370  1.00  0.00    -0.203 C  
BRANCH  20  21
HETATM   21  C   UNK A   1      -9.587   4.546  67.456  1.00  0.00    -0.211 A  
HETATM   22  C   UNK A   1      -8.949   2.734  69.508  1.00  0.00    -0.170 A  
HETATM   23  C   UNK A   1      -9.655   4.934  68.800  1.00  0.00    -0.219 A  
HETATM   24  C   UNK A   1      -9.339   4.034  69.821  1.00  0.00    -0.242 A  
HETATM   25  C   UNK A   1      -8.871   2.336  68.175  1.00  0.00    -0.152 A  
HETATM   26  C   UNK A   1      -9.190   3.232  67.151  1.00  0.00    -0.214 A  
ENDBRANCH  20  21
ENDBRANCH  19  20
ENDBRANCH  15  19
ENDBRANCH  13  15
ENDBRANCH   1  13
TORSDOF 6
ENDMDL
MODEL      255
REMARK 921   NORMALIZED FREE ENERGY PREDICTED BY IDOCK:   -1.98 KCAL/MOL
REMARK 922        TOTAL FREE ENERGY PREDICTED BY IDOCK:   -4.39 KCAL/MOL
REMARK 923 INTER-LIGAND FREE ENERGY PREDICTED BY IDOCK:   -4.24 KCAL/MOL
REMARK 924 INTRA-LIGAND FREE ENERGY PREDICTED BY IDOCK:   -0.15 KCAL/MOL
REMARK 927      BINDING AFFINITY PREDICTED BY RF-SCORE:    0.00 PKD
ROOT
HETATM    1  C   UNK A   1      -8.901  10.145  68.343  1.00  0.00    -0.123 C  
HETATM    2  C   UNK A   1     -10.229  10.664  68.887  1.00  0.00    -0.216 C  
ENDROOT
BRANCH   1   3
HETATM    3  C   UNK A   1      -8.975   8.599  68.204  1.00  0.00    -0.141 C  
ATOM      4  CA  PRO A   2      -8.766   8.309  70.741  1.00  0.00    -0.140 C  
ATOM      5  N   PRO A   2      -8.780   7.833  69.344  1.00  0.00    -0.135 N  
ATOM      6  C   PRO A   2      -7.367   8.757  71.191  1.00  0.00    -0.097 C  
HETATM    7  O   UNK A   1      -9.168   8.072  67.104  1.00  0.00    -0.134 OA 
ATOM      8  CB  PRO A   2      -9.214   7.102  71.576  1.00  0.00    -0.148 C  
ATOM      9  O   PRO A   2      -6.411   8.604  70.246  1.00  0.00    -0.037 OA 
ATOM     10  CD  PRO A   2      -8.905   6.384  69.311  1.00  0.00    -0.128 C  
ATOM     11  OXT PRO A   2      -7.129   9.210  72.299  1.00  0.00    -0.322 OA 
ATOM     12  CG  PRO A   2      -9.699   6.068  70.564  1.00  0.00    -0.210 C  
ENDBRANCH   1   3
BRANCH   1  13
HETATM   13  N   UNK A   1      -8.575  10.701  67.007  1.00  0.00    -0.128 NA 
HETATM   14  H   UNK A   1      -9.431  10.855  66.474  1.00  0.00     0.000 HD 
BRANCH  13  15
HETATM   15  C   UNK A   1      -7.743  11.949  67.014  1.00  0.00    -0.146 C  
HETATM   16  O   UNK A   1      -5.319  12.240  66.676  1.00  0.00    -0.333 OA 
HETATM   17  O   UNK A   1      -6.102  10.175  67.162  1.00  0.00    -0.051 OA 
HETATM   18  C   UNK A   1      -6.260  11.504  66.930  1.00  0.00    -0.143 C  
BRANCH  15  19
HETATM   19  C   UNK A   1      -7.961  12.835  68.262  1.00  0.00    -0.151 C  
BRANCH  19  20
HETATM   20  C   UNK A   1      -9.020  13.929  68.050  1.00  0.00    -0.184 C  
BRANCH  20  21
HETATM   21  C   UNK A   1      -8.455  15.328  67.974  1.00  0.00    -0.147 A  
HETATM   22  C   UNK A   1      -7.508  17.972  67.875  1.00  0.00    -0.222 A  
HETATM   23  C   UNK A   1      -8.903  16.211  66.985  1.00  0.00    -0.231 A  
HETATM   24  C   UNK A   1      -8.434  17.527  66.935  1.00  0.00    -0.261 A  
HETATM   25  C   UNK A   1      -7.049  17.103  68.861  1.00  0.00    -0.242 A  
HETATM   26  C   UNK A   1      -7.518  15.787  68.917  1.00  0.00    -0.173 A  
ENDBRANCH  20  21
ENDBRANCH  19  20
ENDBRANCH  15  19
ENDBRANCH  13  15
ENDBRANCH   1  13
TORSDOF 6
ENDMDL
MODEL      256
REMARK 921   NORMALIZED FREE ENERGY PREDICTED BY IDOCK:   -1.63 KCAL/MOL
REMARK 922        TOTAL FREE ENERGY PREDICTED BY IDOCK:   -3.91 KCAL/MOL
REMARK 923 INTER-LIGAND FREE ENERGY PREDICTED BY IDOCK:   -5.05 KCAL/MOL
REMARK 924 INTRA-LIGAND FREE ENERGY PREDICTED BY IDOCK:    1.14 KCAL/MOL
REMARK 927      BINDING AFFINITY PREDICTED BY RF-SCORE:    0.00 PKD
ROOT
HETATM    1  C   UNK A   1      -9.507   5.034  71.117  1.00  0.00    -0.155 C  
HETATM    2  C   UNK A   1      -9.785   3.723  70.387  1.00  0.00    -0.225 C  
ENDROOT
BRANCH   1   3
HETATM    3  C   UNK A   1      -7.995   5.374  71.001  1.00  0.00    -0.105 C  
ATOM      4  CA  PRO A   2      -8.335   6.320  68.645  1.00  0.00    -0.112 C  
ATOM      5  N   PRO A   2      -7.526   5.847  69.784  1.00  0.00    -0.078 N  
ATOM      6  C   PRO A   2      -8.721   5.181  67.689  1.00  0.00    -0.103 C  
HETATM    7  O   UNK A   1      -7.233   5.194  71.956  1.00  0.00    -0.079 OA 
ATOM      8  CB  PRO A   2      -7.438   7.327  67.912  1.00  0.00    -0.102 C  
ATOM      9  O   PRO A   2      -8.226   3.973  68.047  1.00  0.00    -0.091 OA 
ATOM     10  CD  PRO A   2      -6.139   6.255  69.617  1.00  0.00    -0.026 C  
ATOM     11  OXT PRO A   2      -9.409   5.340  66.694  1.00  0.00    -0.128 OA 
ATOM     12  CG  PRO A   2      -6.243   7.550  68.835  1.00  0.00    -0.035 C  
ENDBRANCH   1   3
BRANCH   1  13
HETATM   13  N   UNK A   1     -10.269   6.176  70.552  1.00  0.00    -0.191 NA 
HETATM   14  H   UNK A   1     -11.230   5.893  70.361  1.00  0.00     0.000 HD 
BRANCH  13  15
HETATM   15  C   UNK A   1     -10.255   7.429  71.374  1.00  0.00    -0.187 C  
HETATM   16  O   UNK A   1     -11.768   8.162  73.175  1.00  0.00    -0.245 OA 
HETATM   17  O   UNK A   1     -12.448   6.498  71.802  1.00  0.00    -0.345 OA 
HETATM   18  C   UNK A   1     -11.551   7.428  72.224  1.00  0.00    -0.292 C  
BRANCH  15  19
HETATM   19  C   UNK A   1     -10.173   8.724  70.533  1.00  0.00    -0.240 C  
BRANCH  19  20
HETATM   20  C   UNK A   1     -11.417   9.617  70.674  1.00  0.00    -0.376 C  
BRANCH  20  21
HETATM   21  C   UNK A   1     -11.317  10.934  69.940  1.00  0.00    -0.381 A  
HETATM   22  C   UNK A   1     -11.072  13.428  68.670  1.00  0.00    -0.295 A  
HETATM   23  C   UNK A   1     -12.078  12.030  70.365  1.00  0.00    -0.407 A  
HETATM   24  C   UNK A   1     -11.956  13.271  69.735  1.00  0.00    -0.391 A  
HETATM   25  C   UNK A   1     -10.314  12.345  68.233  1.00  0.00    -0.232 A  
HETATM   26  C   UNK A   1     -10.431  11.102  68.863  1.00  0.00    -0.233 A  
ENDBRANCH  20  21
ENDBRANCH  19  20
ENDBRANCH  15  19
ENDBRANCH  13  15
ENDBRANCH   1  13
TORSDOF 6
ENDMDL
MODEL      257
REMARK 921   NORMALIZED FREE ENERGY PREDICTED BY IDOCK:   -1.29 KCAL/MOL
REMARK 922        TOTAL FREE ENERGY PREDICTED BY IDOCK:   -3.46 KCAL/MOL
REMARK 923 INTER-LIGAND FREE ENERGY PREDICTED BY IDOCK:   -4.34 KCAL/MOL
REMARK 924 INTRA-LIGAND FREE ENERGY PREDICTED BY IDOCK:    0.88 KCAL/MOL
REMARK 927      BINDING AFFINITY PREDICTED BY RF-SCORE:    0.00 PKD
ROOT
HETATM    1  C   UNK A   1     -10.433   8.976  68.783  1.00  0.00    -0.206 C  
HETATM    2  C   UNK A   1     -10.160  10.406  68.323  1.00  0.00    -0.174 C  
ENDROOT
BRANCH   1   3
HETATM    3  C   UNK A   1     -10.201   8.004  67.593  1.00  0.00    -0.228 C  
ATOM      4  CA  PRO A   2      -7.669   8.047  67.982  1.00  0.00    -0.118 C  
ATOM      5  N   PRO A   2      -8.893   7.731  67.220  1.00  0.00    -0.127 N  
ATOM      6  C   PRO A   2      -7.130   9.450  67.663  1.00  0.00    -0.082 C  
HETATM    7  O   UNK A   1     -11.157   7.518  66.979  1.00  0.00    -0.224 OA 
ATOM      8  CB  PRO A   2      -6.647   6.989  67.547  1.00  0.00    -0.055 C  
ATOM      9  O   PRO A   2      -7.848  10.115  66.729  1.00  0.00    -0.106 OA 
ATOM     10  CD  PRO A   2      -8.592   6.776  66.165  1.00  0.00    -0.143 C  
ATOM     11  OXT PRO A   2      -6.141   9.928  68.196  1.00  0.00    -0.049 OA 
ATOM     12  CG  PRO A   2      -7.440   5.971  66.733  1.00  0.00    -0.087 C  
ENDBRANCH   1   3
BRANCH   1  13
HETATM   13  N   UNK A   1      -9.541   8.552  69.890  1.00  0.00    -0.170 NA 
HETATM   14  H   UNK A   1      -8.716   9.152  69.923  1.00  0.00     0.000 HD 
BRANCH  13  15
HETATM   15  C   UNK A   1     -10.182   8.484  71.244  1.00  0.00    -0.223 C  
HETATM   16  O   UNK A   1      -9.183   8.711  73.485  1.00  0.00    -0.086 OA 
HETATM   17  O   UNK A   1      -7.817   8.301  71.729  1.00  0.00    -0.099 OA 
HETATM   18  C   UNK A   1      -9.037   8.513  72.289  1.00  0.00    -0.248 C  
BRANCH  15  19
HETATM   19  C   UNK A   1     -11.060   7.229  71.453  1.00  0.00    -0.268 C  
BRANCH  19  20
HETATM   20  C   UNK A   1     -10.499   6.269  72.516  1.00  0.00    -0.228 C  
BRANCH  20  21
HETATM   21  C   UNK A   1     -10.141   4.901  71.983  1.00  0.00    -0.256 A  
HETATM   22  C   UNK A   1      -9.358   2.391  70.991  1.00  0.00    -0.212 A  
HETATM   23  C   UNK A   1      -9.719   4.757  70.655  1.00  0.00    -0.271 A  
HETATM   24  C   UNK A   1      -9.328   3.510  70.161  1.00  0.00    -0.244 A  
HETATM   25  C   UNK A   1      -9.780   2.519  72.311  1.00  0.00    -0.205 A  
HETATM   26  C   UNK A   1     -10.169   3.766  72.811  1.00  0.00    -0.236 A  
ENDBRANCH  20  21
ENDBRANCH  19  20
ENDBRANCH  15  19
ENDBRANCH  13  15
ENDBRANCH   1  13
TORSDOF 6
ENDMDL
MODEL      258
REMARK 921   NORMALIZED FREE ENERGY PREDICTED BY IDOCK:   -1.11 KCAL/MOL
REMARK 922        TOTAL FREE ENERGY PREDICTED BY IDOCK:   -3.21 KCAL/MOL
REMARK 923 INTER-LIGAND FREE ENERGY PREDICTED BY IDOCK:   -4.72 KCAL/MOL
REMARK 924 INTRA-LIGAND FREE ENERGY PREDICTED BY IDOCK:    1.51 KCAL/MOL
REMARK 927      BINDING AFFINITY PREDICTED BY RF-SCORE:    0.00 PKD
ROOT
HETATM    1  C   UNK A   1      -8.427  10.707  68.610  1.00  0.00    -0.142 C  
HETATM    2  C   UNK A   1      -9.915  10.972  68.827  1.00  0.00    -0.215 C  
ENDROOT
BRANCH   1   3
HETATM    3  C   UNK A   1      -8.164   9.177  68.693  1.00  0.00    -0.114 C  
ATOM      4  CA  PRO A   2      -7.959   9.022  66.144  1.00  0.00    -0.103 C  
ATOM      5  N   PRO A   2      -8.084   8.465  67.505  1.00  0.00    -0.109 N  
ATOM      6  C   PRO A   2      -9.325   9.313  65.505  1.00  0.00    -0.238 C  
HETATM    7  O   UNK A   1      -8.063   8.612  69.787  1.00  0.00    -0.108 OA 
ATOM      8  CB  PRO A   2      -7.233   7.937  65.337  1.00  0.00    -0.064 C  
ATOM      9  O   PRO A   2     -10.379   8.980  66.285  1.00  0.00    -0.247 OA 
ATOM     10  CD  PRO A   2      -7.768   7.045  67.495  1.00  0.00    -0.111 C  
ATOM     11  OXT PRO A   2      -9.459   9.800  64.393  1.00  0.00    -0.274 OA 
ATOM     12  CG  PRO A   2      -6.764   6.912  66.367  1.00  0.00    -0.052 C  
ENDBRANCH   1   3
BRANCH   1  13
HETATM   13  N   UNK A   1      -7.951  11.174  67.285  1.00  0.00    -0.131 NA 
HETATM   14  H   UNK A   1      -8.652  10.972  66.571  1.00  0.00     0.000 HD 
BRANCH  13  15
HETATM   15  C   UNK A   1      -7.548  12.616  67.217  1.00  0.00    -0.120 C  
HETATM   16  O   UNK A   1      -5.319  13.651  67.401  1.00  0.00    -0.344 OA 
HETATM   17  O   UNK A   1      -5.587  11.525  68.124  1.00  0.00    -0.043 OA 
HETATM   18  C   UNK A   1      -6.043  12.683  67.580  1.00  0.00    -0.157 C  
BRANCH  15  19
HETATM   19  C   UNK A   1      -8.362  13.534  68.158  1.00  0.00    -0.167 C  
BRANCH  19  20
HETATM   20  C   UNK A   1      -9.449  14.340  67.426  1.00  0.00    -0.211 C  
BRANCH  20  21
HETATM   21  C   UNK A   1      -9.470  15.809  67.779  1.00  0.00    -0.212 A  
HETATM   22  C   UNK A   1      -9.445  18.563  68.337  1.00  0.00    -0.368 A  
HETATM   23  C   UNK A   1      -8.303  16.435  68.234  1.00  0.00    -0.189 A  
HETATM   24  C   UNK A   1      -8.289  17.805  68.510  1.00  0.00    -0.298 A  
HETATM   25  C   UNK A   1     -10.614  17.952  67.892  1.00  0.00    -0.387 A  
HETATM   26  C   UNK A   1     -10.631  16.582  67.611  1.00  0.00    -0.321 A  
ENDBRANCH  20  21
ENDBRANCH  19  20
ENDBRANCH  15  19
ENDBRANCH  13  15
ENDBRANCH   1  13
TORSDOF 6
ENDMDL
MODEL      259
REMARK 921   NORMALIZED FREE ENERGY PREDICTED BY IDOCK:   -1.06 KCAL/MOL
REMARK 922        TOTAL FREE ENERGY PREDICTED BY IDOCK:   -3.15 KCAL/MOL
REMARK 923 INTER-LIGAND FREE ENERGY PREDICTED BY IDOCK:   -4.23 KCAL/MOL
REMARK 924 INTRA-LIGAND FREE ENERGY PREDICTED BY IDOCK:    1.08 KCAL/MOL
REMARK 927      BINDING AFFINITY PREDICTED BY RF-SCORE:    0.00 PKD
ROOT
HETATM    1  C   UNK A   1     -10.803  15.584  65.889  1.00  0.00    -0.313 C  
HETATM    2  C   UNK A   1     -10.135  16.946  65.719  1.00  0.00    -0.251 C  
ENDROOT
BRANCH   1   3
HETATM    3  C   UNK A   1      -9.773  14.466  65.563  1.00  0.00    -0.179 C  
ATOM      4  CA  PRO A   2     -11.524  13.178  64.206  1.00  0.00    -0.384 C  
ATOM      5  N   PRO A   2     -10.226  13.340  64.890  1.00  0.00    -0.318 N  
ATOM      6  C   PRO A   2     -12.621  12.662  65.149  1.00  0.00    -0.386 C  
HETATM    7  O   UNK A   1      -8.597  14.566  65.924  1.00  0.00     0.512 OA 
ATOM      8  CB  PRO A   2     -11.264  12.144  63.102  1.00  0.00    -0.258 C  
ATOM      9  O   PRO A   2     -12.192  12.423  66.410  1.00  0.00    -0.604 OA 
ATOM     10  CD  PRO A   2      -9.312  12.284  64.484  1.00  0.00     0.407 C  
ATOM     11  OXT PRO A   2     -13.777  12.478  64.802  1.00  0.00    -0.077 OA 
ATOM     12  CG  PRO A   2      -9.749  11.960  63.069  1.00  0.00    -0.102 C  
ENDBRANCH   1   3
BRANCH   1  13
HETATM   13  N   UNK A   1     -11.291  15.356  67.271  1.00  0.00    -0.273 NA 
HETATM   14  H   UNK A   1     -11.447  14.359  67.426  1.00  0.00     0.000 HD 
BRANCH  13  15
HETATM   15  C   UNK A   1     -10.428  15.917  68.360  1.00  0.00    -0.254 C  
HETATM   16  O   UNK A   1     -10.914  16.258  70.752  1.00  0.00    -0.259 OA 
HETATM   17  O   UNK A   1     -12.644  15.930  69.334  1.00  0.00    -0.001 OA 
HETATM   18  C   UNK A   1     -11.322  16.060  69.618  1.00  0.00    -0.332 C  
BRANCH  15  19
HETATM   19  C   UNK A   1      -9.788  17.280  68.007  1.00  0.00    -0.284 C  
BRANCH  19  20
HETATM   20  C   UNK A   1      -8.434  17.510  68.699  1.00  0.00    -0.258 C  
BRANCH  20  21
HETATM   21  C   UNK A   1      -7.533  16.297  68.711  1.00  0.00    -0.195 A  
HETATM   22  C   UNK A   1      -5.763  14.114  68.733  1.00  0.00    -0.082 A  
HETATM   23  C   UNK A   1      -6.805  15.956  67.565  1.00  0.00    -0.213 A  
HETATM   24  C   UNK A   1      -5.923  14.872  67.575  1.00  0.00     0.031 A  
HETATM   25  C   UNK A   1      -6.486  14.439  69.878  1.00  0.00    -0.152 A  
HETATM   26  C   UNK A   1      -7.366  15.525  69.874  1.00  0.00    -0.008 A  
ENDBRANCH  20  21
ENDBRANCH  19  20
ENDBRANCH  15  19
ENDBRANCH  13  15
ENDBRANCH   1  13
TORSDOF 6
ENDMDL
MODEL      260
REMARK 921   NORMALIZED FREE ENERGY PREDICTED BY IDOCK:   -1.00 KCAL/MOL
REMARK 922        TOTAL FREE ENERGY PREDICTED BY IDOCK:   -3.06 KCAL/MOL
REMARK 923 INTER-LIGAND FREE ENERGY PREDICTED BY IDOCK:   -5.13 KCAL/MOL
REMARK 924 INTRA-LIGAND FREE ENERGY PREDICTED BY IDOCK:    2.07 KCAL/MOL
REMARK 927      BINDING AFFINITY PREDICTED BY RF-SCORE:    0.00 PKD
ROOT
HETATM    1  C   UNK A   1      -6.319  12.063  68.360  1.00  0.00    -0.053 C  
HETATM    2  C   UNK A   1      -5.740  11.077  69.371  1.00  0.00    -0.043 C  
ENDROOT
BRANCH   1   3
HETATM    3  C   UNK A   1      -7.294  11.309  67.412  1.00  0.00    -0.115 C  
ATOM      4  CA  PRO A   2      -8.702  10.520  69.402  1.00  0.00    -0.078 C  
ATOM      5  N   PRO A   2      -8.285  10.527  67.986  1.00  0.00    -0.111 N  
ATOM      6  C   PRO A   2      -7.881   9.535  70.247  1.00  0.00    -0.168 C  
HETATM    7  O   UNK A   1      -7.164  11.382  66.186  1.00  0.00    -0.010 OA 
ATOM      8  CB  PRO A   2     -10.172  10.082  69.380  1.00  0.00    -0.239 C  
ATOM      9  O   PRO A   2      -6.961   8.839  69.541  1.00  0.00    -0.053 OA 
ATOM     10  CD  PRO A   2      -9.280   9.849  67.169  1.00  0.00    -0.138 C  
ATOM     11  OXT PRO A   2      -8.039   9.384  71.449  1.00  0.00    -0.306 OA 
ATOM     12  CG  PRO A   2     -10.579  10.101  67.910  1.00  0.00    -0.294 C  
ENDBRANCH   1   3
BRANCH   1  13
HETATM   13  N   UNK A   1      -7.079  13.162  69.005  1.00  0.00    -0.226 NA 
HETATM   14  H   UNK A   1      -6.550  13.537  69.792  1.00  0.00     0.000 HD 
BRANCH  13  15
HETATM   15  C   UNK A   1      -7.501  14.275  68.093  1.00  0.00    -0.131 C  
HETATM   16  O   UNK A   1      -6.140  15.801  66.718  1.00  0.00    -0.185 OA 
HETATM   17  O   UNK A   1      -5.127  14.650  68.380  1.00  0.00    -0.094 OA 
HETATM   18  C   UNK A   1      -6.210  15.002  67.639  1.00  0.00    -0.110 C  
BRANCH  15  19
HETATM   19  C   UNK A   1      -8.475  15.281  68.748  1.00  0.00    -0.181 C  
BRANCH  19  20
HETATM   20  C   UNK A   1      -9.617  15.715  67.814  1.00  0.00    -0.209 C  
BRANCH  20  21
HETATM   21  C   UNK A   1      -9.716  17.209  67.613  1.00  0.00    -0.263 A  
HETATM   22  C   UNK A   1     -10.015  19.982  67.275  1.00  0.00    -0.574 A  
HETATM   23  C   UNK A   1     -10.449  17.722  66.537  1.00  0.00    -0.297 A  
HETATM   24  C   UNK A   1     -10.600  19.101  66.369  1.00  0.00    -0.522 A  
HETATM   25  C   UNK A   1      -9.278  19.485  68.347  1.00  0.00    -0.412 A  
HETATM   26  C   UNK A   1      -9.128  18.106  68.521  1.00  0.00    -0.318 A  
ENDBRANCH  20  21
ENDBRANCH  19  20
ENDBRANCH  15  19
ENDBRANCH  13  15
ENDBRANCH   1  13
TORSDOF 6
ENDMDL
MODEL      261
REMARK 921   NORMALIZED FREE ENERGY PREDICTED BY IDOCK:   -0.79 KCAL/MOL
REMARK 922        TOTAL FREE ENERGY PREDICTED BY IDOCK:   -2.79 KCAL/MOL
REMARK 923 INTER-LIGAND FREE ENERGY PREDICTED BY IDOCK:   -4.98 KCAL/MOL
REMARK 924 INTRA-LIGAND FREE ENERGY PREDICTED BY IDOCK:    2.20 KCAL/MOL
REMARK 927      BINDING AFFINITY PREDICTED BY RF-SCORE:    0.00 PKD
ROOT
HETATM    1  C   UNK A   1      -9.454  17.471  69.135  1.00  0.00    -0.021 C  
HETATM    2  C   UNK A   1      -9.092  16.260  68.280  1.00  0.00    -0.197 C  
ENDROOT
BRANCH   1   3
HETATM    3  C   UNK A   1      -9.707  18.694  68.209  1.00  0.00    -0.357 C  
ATOM      4  CA  PRO A   2      -7.227  19.333  68.290  1.00  0.00    -0.281 C  
ATOM      5  N   PRO A   2      -8.651  19.562  67.975  1.00  0.00    -0.318 N  
ATOM      6  C   PRO A   2      -6.864  19.784  69.712  1.00  0.00    -0.228 C  
HETATM    7  O   UNK A   1     -10.824  18.899  67.726  1.00  0.00    -0.387 OA 
ATOM      8  CB  PRO A   2      -6.454  20.178  67.268  1.00  0.00    -0.239 C  
ATOM      9  O   PRO A   2      -7.895  20.331  70.395  1.00  0.00     0.657 OA 
ATOM     10  CD  PRO A   2      -8.786  20.688  67.063  1.00  0.00    -0.167 C  
ATOM     11  OXT PRO A   2      -5.747  19.665  70.192  1.00  0.00    -0.234 OA 
ATOM     12  CG  PRO A   2      -7.500  20.653  66.262  1.00  0.00    -0.081 C  
ENDBRANCH   1   3
BRANCH   1  13
HETATM   13  N   UNK A   1     -10.681  17.256  69.940  1.00  0.00    -0.198 NA 
HETATM   14  H   UNK A   1     -11.224  18.119  69.987  1.00  0.00     0.000 HD 
BRANCH  13  15
HETATM   15  C   UNK A   1     -11.555  16.123  69.492  1.00  0.00    -0.254 C  
HETATM   16  O   UNK A   1     -12.771  14.438  70.818  1.00  0.00    -0.331 OA 
HETATM   17  O   UNK A   1     -11.118  15.614  71.819  1.00  0.00    -0.302 OA 
HETATM   18  C   UNK A   1     -11.898  15.290  70.754  1.00  0.00    -0.338 C  
BRANCH  15  19
HETATM   19  C   UNK A   1     -10.901  15.219  68.422  1.00  0.00    -0.257 C  
BRANCH  19  20
HETATM   20  C   UNK A   1     -11.140  13.720  68.668  1.00  0.00    -0.293 C  
BRANCH  20  21
HETATM   21  C   UNK A   1     -10.739  12.833  67.512  1.00  0.00    -0.247 A  
HETATM   22  C   UNK A   1     -10.049  11.261  65.288  1.00  0.00    -0.318 A  
HETATM   23  C   UNK A   1     -11.703  12.056  66.860  1.00  0.00    -0.342 A  
HETATM   24  C   UNK A   1     -11.362  11.274  65.753  1.00  0.00     0.022 A  
HETATM   25  C   UNK A   1      -9.078  12.025  65.930  1.00  0.00    -0.042 A  
HETATM   26  C   UNK A   1      -9.416  12.811  67.036  1.00  0.00    -0.233 A  
ENDBRANCH  20  21
ENDBRANCH  19  20
ENDBRANCH  15  19
ENDBRANCH  13  15
ENDBRANCH   1  13
TORSDOF 6
ENDMDL
MODEL      262
REMARK 921   NORMALIZED FREE ENERGY PREDICTED BY IDOCK:   -0.53 KCAL/MOL
REMARK 922        TOTAL FREE ENERGY PREDICTED BY IDOCK:   -2.43 KCAL/MOL
REMARK 923 INTER-LIGAND FREE ENERGY PREDICTED BY IDOCK:   -3.18 KCAL/MOL
REMARK 924 INTRA-LIGAND FREE ENERGY PREDICTED BY IDOCK:    0.75 KCAL/MOL
REMARK 927      BINDING AFFINITY PREDICTED BY RF-SCORE:    0.00 PKD
ROOT
HETATM    1  C   UNK A   1     -10.909   8.550  69.380  1.00  0.00    -0.091 C  
HETATM    2  C   UNK A   1     -10.467   8.375  70.831  1.00  0.00    -0.235 C  
ENDROOT
BRANCH   1   3
HETATM    3  C   UNK A   1     -10.627  10.012  68.933  1.00  0.00    -0.218 C  
ATOM      4  CA  PRO A   2      -8.361   9.330  67.951  1.00  0.00    -0.116 C  
ATOM      5  N   PRO A   2      -9.381  10.300  68.396  1.00  0.00    -0.139 N  
ATOM      6  C   PRO A   2      -7.419   8.909  69.089  1.00  0.00    -0.073 C  
HETATM    7  O   UNK A   1     -11.479  10.893  69.084  1.00  0.00    -0.254 OA 
ATOM      8  CB  PRO A   2      -7.563  10.065  66.865  1.00  0.00    -0.096 C  
ATOM      9  O   PRO A   2      -7.674   9.522  70.267  1.00  0.00    -0.126 OA 
ATOM     10  CD  PRO A   2      -9.065  11.626  67.887  1.00  0.00    -0.171 C  
ATOM     11  OXT PRO A   2      -6.518   8.098  68.951  1.00  0.00    -0.046 OA 
ATOM     12  CG  PRO A   2      -8.346  11.344  66.583  1.00  0.00    -0.172 C  
ENDBRANCH   1   3
BRANCH   1  13
HETATM   13  N   UNK A   1     -10.185   7.648  68.450  1.00  0.00    -0.194 NA 
HETATM   14  H   UNK A   1      -9.216   7.541  68.751  1.00  0.00     0.000 HD 
BRANCH  13  15
HETATM   15  C   UNK A   1     -10.811   6.302  68.241  1.00  0.00    -0.319 C  
HETATM   16  O   UNK A   1     -10.187   4.103  69.164  1.00  0.00     0.096 OA 
HETATM   17  O   UNK A   1      -8.672   5.781  69.250  1.00  0.00    -0.112 OA 
HETATM   18  C   UNK A   1      -9.885   5.262  68.924  1.00  0.00    -0.164 C  
BRANCH  15  19
HETATM   19  C   UNK A   1     -11.014   5.934  66.754  1.00  0.00    -0.280 C  
BRANCH  19  20
HETATM   20  C   UNK A   1      -9.874   5.074  66.181  1.00  0.00    -0.214 C  
BRANCH  20  21
HETATM   21  C   UNK A   1      -8.968   5.810  65.222  1.00  0.00    -0.001 A  
HETATM   22  C   UNK A   1      -7.365   7.161  63.351  1.00  0.00    -0.082 A  
HETATM   23  C   UNK A   1      -8.284   5.104  64.226  1.00  0.00    -0.131 A  
HETATM   24  C   UNK A   1      -7.487   5.775  63.294  1.00  0.00    -0.067 A  
HETATM   25  C   UNK A   1      -8.035   7.875  64.341  1.00  0.00    -0.132 A  
HETATM   26  C   UNK A   1      -8.836   7.209  65.273  1.00  0.00     0.156 A  
ENDBRANCH  20  21
ENDBRANCH  19  20
ENDBRANCH  15  19
ENDBRANCH  13  15
ENDBRANCH   1  13
TORSDOF 6
ENDMDL
MODEL      263
REMARK 921   NORMALIZED FREE ENERGY PREDICTED BY IDOCK:   -0.23 KCAL/MOL
REMARK 922        TOTAL FREE ENERGY PREDICTED BY IDOCK:   -2.02 KCAL/MOL
REMARK 923 INTER-LIGAND FREE ENERGY PREDICTED BY IDOCK:   -3.13 KCAL/MOL
REMARK 924 INTRA-LIGAND FREE ENERGY PREDICTED BY IDOCK:    1.11 KCAL/MOL
REMARK 927      BINDING AFFINITY PREDICTED BY RF-SCORE:    0.00 PKD
ROOT
HETATM    1  C   UNK A   1      -9.607   8.533  70.853  1.00  0.00    -0.185 C  
HETATM    2  C   UNK A   1     -10.985   7.902  70.674  1.00  0.00    -0.248 C  
ENDROOT
BRANCH   1   3
HETATM    3  C   UNK A   1      -8.825   7.751  71.945  1.00  0.00    -0.121 C  
ATOM      4  CA  PRO A   2      -8.501   5.763  70.361  1.00  0.00    -0.129 C  
ATOM      5  N   PRO A   2      -8.463   6.440  71.672  1.00  0.00    -0.128 N  
ATOM      6  C   PRO A   2      -9.862   5.109  70.081  1.00  0.00    -0.230 C  
HETATM    7  O   UNK A   1      -8.565   8.275  73.032  1.00  0.00    -0.200 OA 
ATOM      8  CB  PRO A   2      -7.415   4.682  70.441  1.00  0.00    -0.050 C  
ATOM      9  O   PRO A   2     -10.754   5.243  71.089  1.00  0.00    -0.206 OA 
ATOM     10  CD  PRO A   2      -7.667   5.665  72.612  1.00  0.00    -0.102 C  
ATOM     11  OXT PRO A   2     -10.124   4.517  69.046  1.00  0.00    -0.129 OA 
ATOM     12  CG  PRO A   2      -6.647   4.975  71.728  1.00  0.00    -0.036 C  
ENDBRANCH   1   3
BRANCH   1  13
HETATM   13  N   UNK A   1      -8.798   8.502  69.610  1.00  0.00    -0.136 NA 
HETATM   14  H   UNK A   1      -9.360   8.819  68.820  1.00  0.00     0.000 HD 
BRANCH  13  15
HETATM   15  C   UNK A   1      -7.507   9.262  69.662  1.00  0.00    -0.078 C  
HETATM   16  O   UNK A   1      -7.063  11.659  69.297  1.00  0.00    -0.109 OA 
HETATM   17  O   UNK A   1      -9.026  10.801  68.572  1.00  0.00    -0.145 OA 
HETATM   18  C   UNK A   1      -7.810  10.701  69.169  1.00  0.00    -0.142 C  
BRANCH  15  19
HETATM   19  C   UNK A   1      -6.381   8.635  68.808  1.00  0.00    -0.049 C  
BRANCH  19  20
HETATM   20  C   UNK A   1      -6.046   9.455  67.551  1.00  0.00    -0.053 C  
BRANCH  20  21
HETATM   21  C   UNK A   1      -6.806   9.029  66.316  1.00  0.00    -0.078 A  
HETATM   22  C   UNK A   1      -8.123   8.266  63.955  1.00  0.00    -0.124 A  
HETATM   23  C   UNK A   1      -7.257   9.993  65.406  1.00  0.00    -0.139 A  
HETATM   24  C   UNK A   1      -7.911   9.614  64.230  1.00  0.00    -0.130 A  
HETATM   25  C   UNK A   1      -7.686   7.297  64.855  1.00  0.00    -0.117 A  
HETATM   26  C   UNK A   1      -7.028   7.672  66.030  1.00  0.00    -0.065 A  
ENDBRANCH  20  21
ENDBRANCH  19  20
ENDBRANCH  15  19
ENDBRANCH  13  15
ENDBRANCH   1  13
TORSDOF 6
ENDMDL
MODEL      264
REMARK 921   NORMALIZED FREE ENERGY PREDICTED BY IDOCK:    0.94 KCAL/MOL
REMARK 922        TOTAL FREE ENERGY PREDICTED BY IDOCK:   -0.44 KCAL/MOL
REMARK 923 INTER-LIGAND FREE ENERGY PREDICTED BY IDOCK:    0.01 KCAL/MOL
REMARK 924 INTRA-LIGAND FREE ENERGY PREDICTED BY IDOCK:   -0.46 KCAL/MOL
REMARK 927      BINDING AFFINITY PREDICTED BY RF-SCORE:    0.00 PKD
ROOT
HETATM    1  C   UNK A   1      -8.349  15.254  67.007  1.00  0.00    -0.234 C  
HETATM    2  C   UNK A   1      -6.857  15.134  66.714  1.00  0.00     0.919 C  
ENDROOT
BRANCH   1   3
HETATM    3  C   UNK A   1      -8.973  16.314  66.057  1.00  0.00    -0.290 C  
ATOM      4  CA  PRO A   2      -8.568  18.170  67.776  1.00  0.00    -0.255 C  
ATOM      5  N   PRO A   2      -9.145  17.602  66.542  1.00  0.00    -0.267 N  
ATOM      6  C   PRO A   2      -9.462  17.932  69.002  1.00  0.00    -0.092 C  
HETATM    7  O   UNK A   1      -9.334  16.005  64.917  1.00  0.00     0.331 OA 
ATOM      8  CB  PRO A   2      -8.454  19.676  67.504  1.00  0.00    -0.346 C  
ATOM      9  O   PRO A   2     -10.616  17.283  68.723  1.00  0.00    -0.338 OA 
ATOM     10  CD  PRO A   2      -9.654  18.668  65.692  1.00  0.00     0.577 C  
ATOM     11  OXT PRO A   2      -9.169  18.295  70.131  1.00  0.00     1.512 OA 
ATOM     12  CG  PRO A   2      -8.752  19.842  66.017  1.00  0.00    -0.284 C  
ENDBRANCH   1   3
BRANCH   1  13
HETATM   13  N   UNK A   1      -9.078  13.979  66.798  1.00  0.00    -0.325 NA 
HETATM   14  H   UNK A   1      -8.636  13.443  66.050  1.00  0.00     0.000 HD 
BRANCH  13  15
HETATM   15  C   UNK A   1      -9.239  13.121  68.017  1.00  0.00    -0.211 C  
HETATM   16  O   UNK A   1      -7.779  11.351  68.916  1.00  0.00    -0.134 OA 
HETATM   17  O   UNK A   1      -7.488  12.006  66.771  1.00  0.00    -0.092 OA 
HETATM   18  C   UNK A   1      -8.107  12.063  67.979  1.00  0.00    -0.153 C  
BRANCH  15  19
HETATM   19  C   UNK A   1     -10.616  12.423  68.109  1.00  0.00    -0.232 C  
BRANCH  19  20
HETATM   20  C   UNK A   1     -11.097  12.221  69.556  1.00  0.00    -0.101 C  
BRANCH  20  21
HETATM   21  C   UNK A   1     -11.320  10.776  69.936  1.00  0.00    -0.385 A  
HETATM   22  C   UNK A   1     -11.725   8.120  70.758  1.00  0.00    -0.211 A  
HETATM   23  C   UNK A   1     -10.259  10.016  70.444  1.00  0.00    -0.218 A  
HETATM   24  C   UNK A   1     -10.460   8.695  70.855  1.00  0.00    -0.265 A  
HETATM   25  C   UNK A   1     -12.787   8.863  70.249  1.00  0.00     0.985 A  
HETATM   26  C   UNK A   1     -12.591  10.185  69.840  1.00  0.00     0.122 A  
ENDBRANCH  20  21
ENDBRANCH  19  20
ENDBRANCH  15  19
ENDBRANCH  13  15
ENDBRANCH   1  13
TORSDOF 6
ENDMDL
MODEL      265
REMARK 921   NORMALIZED FREE ENERGY PREDICTED BY IDOCK:    1.31 KCAL/MOL
REMARK 922        TOTAL FREE ENERGY PREDICTED BY IDOCK:    0.05 KCAL/MOL
REMARK 923 INTER-LIGAND FREE ENERGY PREDICTED BY IDOCK:   -1.28 KCAL/MOL
REMARK 924 INTRA-LIGAND FREE ENERGY PREDICTED BY IDOCK:    1.34 KCAL/MOL
REMARK 927      BINDING AFFINITY PREDICTED BY RF-SCORE:    0.00 PKD
ROOT
HETATM    1  C   UNK A   1      -6.191  16.742  67.220  1.00  0.00    -0.174 C  
HETATM    2  C   UNK A   1      -5.562  15.449  66.707  1.00  0.00     1.360 C  
ENDROOT
BRANCH   1   3
HETATM    3  C   UNK A   1      -5.975  17.867  66.169  1.00  0.00    -0.213 C  
ATOM      4  CA  PRO A   2      -6.654  19.658  67.871  1.00  0.00    -0.237 C  
ATOM      5  N   PRO A   2      -6.332  19.161  66.519  1.00  0.00    -0.185 N  
ATOM      6  C   PRO A   2      -8.143  19.498  68.212  1.00  0.00    -0.334 C  
HETATM    7  O   UNK A   1      -5.532  17.606  65.046  1.00  0.00     0.061 OA 
ATOM      8  CB  PRO A   2      -6.288  21.148  67.844  1.00  0.00    -0.364 C  
ATOM      9  O   PRO A   2      -8.882  18.968  67.210  1.00  0.00    -0.277 OA 
ATOM     10  CD  PRO A   2      -6.094  20.280  65.619  1.00  0.00    -0.208 C  
ATOM     11  OXT PRO A   2      -8.627  19.819  69.286  1.00  0.00    -0.133 OA 
ATOM     12  CG  PRO A   2      -5.539  21.357  66.530  1.00  0.00    -0.341 C  
ENDBRANCH   1   3
BRANCH   1  13
HETATM   13  N   UNK A   1      -7.651  16.615  67.449  1.00  0.00    -0.156 NA 
HETATM   14  H   UNK A   1      -8.164  17.082  66.701  1.00  0.00     0.000 HD 
BRANCH  13  15
HETATM   15  C   UNK A   1      -8.156  15.214  67.622  1.00  0.00    -0.162 C  
HETATM   16  O   UNK A   1      -8.901  13.577  65.938  1.00  0.00     0.376 OA 
HETATM   17  O   UNK A   1      -8.761  15.754  65.341  1.00  0.00     0.359 OA 
HETATM   18  C   UNK A   1      -8.647  14.735  66.232  1.00  0.00     0.232 C  
BRANCH  15  19
HETATM   19  C   UNK A   1      -9.296  15.088  68.659  1.00  0.00    -0.202 C  
BRANCH  19  20
HETATM   20  C   UNK A   1     -10.690  14.979  68.017  1.00  0.00    -0.262 C  
BRANCH  20  21
HETATM   21  C   UNK A   1     -11.176  13.560  67.836  1.00  0.00    -0.302 A  
HETATM   22  C   UNK A   1     -11.982  10.898  67.436  1.00  0.00     0.774 A  
HETATM   23  C   UNK A   1     -11.627  13.131  66.582  1.00  0.00    -0.403 A  
HETATM   24  C   UNK A   1     -12.027  11.807  66.382  1.00  0.00     0.201 A  
HETATM   25  C   UNK A   1     -11.541  11.314  68.690  1.00  0.00    -0.384 A  
HETATM   26  C   UNK A   1     -11.137  12.636  68.894  1.00  0.00    -0.307 A  
ENDBRANCH  20  21
ENDBRANCH  19  20
ENDBRANCH  15  19
ENDBRANCH  13  15
ENDBRANCH   1  13
TORSDOF 6
ENDMDL
MODEL      266
REMARK 921   NORMALIZED FREE ENERGY PREDICTED BY IDOCK:    5.45 KCAL/MOL
REMARK 922        TOTAL FREE ENERGY PREDICTED BY IDOCK:    5.64 KCAL/MOL
REMARK 923 INTER-LIGAND FREE ENERGY PREDICTED BY IDOCK:    5.34 KCAL/MOL
REMARK 924 INTRA-LIGAND FREE ENERGY PREDICTED BY IDOCK:    0.30 KCAL/MOL
REMARK 927      BINDING AFFINITY PREDICTED BY RF-SCORE:    0.00 PKD
ROOT
HETATM    1  C   UNK A   1      -8.825  14.904  66.267  1.00  0.00    -0.073 C  
HETATM    2  C   UNK A   1      -7.300  14.938  66.213  1.00  0.00     2.365 C  
ENDROOT
BRANCH   1   3
HETATM    3  C   UNK A   1      -9.330  13.582  65.624  1.00  0.00     0.268 C  
ATOM      4  CA  PRO A   2     -11.764  14.358  65.816  1.00  0.00    -0.362 C  
ATOM      5  N   PRO A   2     -10.700  13.367  65.570  1.00  0.00    -0.288 N  
ATOM      6  C   PRO A   2     -12.158  14.437  67.298  1.00  0.00    -0.323 C  
HETATM    7  O   UNK A   1      -8.531  12.738  65.206  1.00  0.00     1.572 OA 
ATOM      8  CB  PRO A   2     -12.961  13.869  64.989  1.00  0.00    -0.201 C  
ATOM      9  O   PRO A   2     -11.487  13.570  68.091  1.00  0.00    -0.266 OA 
ATOM     10  CD  PRO A   2     -11.254  12.189  64.919  1.00  0.00    -0.323 C  
ATOM     11  OXT PRO A   2     -13.000  15.208  67.732  1.00  0.00     1.476 OA 
ATOM     12  CG  PRO A   2     -12.416  12.741  64.117  1.00  0.00    -0.450 C  
ENDBRANCH   1   3
BRANCH   1  13
HETATM   13  N   UNK A   1      -9.349  14.958  67.654  1.00  0.00    -0.190 NA 
HETATM   14  H   UNK A   1      -9.851  14.097  67.871  1.00  0.00     0.000 HD 
BRANCH  13  15
HETATM   15  C   UNK A   1      -8.330  15.241  68.717  1.00  0.00    -0.179 C  
HETATM   16  O   UNK A   1      -7.424  13.771  70.476  1.00  0.00     1.258 OA 
HETATM   17  O   UNK A   1      -9.342  13.164  69.442  1.00  0.00     0.705 OA 
HETATM   18  C   UNK A   1      -8.292  14.001  69.648  1.00  0.00     0.871 C  
BRANCH  15  19
HETATM   19  C   UNK A   1      -8.628  16.514  69.542  1.00  0.00     0.270 C  
BRANCH  19  20
HETATM   20  C   UNK A   1      -7.436  17.483  69.611  1.00  0.00     0.516 C  
BRANCH  20  21
HETATM   21  C   UNK A   1      -6.908  17.908  68.260  1.00  0.00    -0.212 A  
HETATM   22  C   UNK A   1      -5.954  18.589  65.706  1.00  0.00    -0.245 A  
HETATM   23  C   UNK A   1      -5.700  17.384  67.786  1.00  0.00    -0.140 A  
HETATM   24  C   UNK A   1      -5.225  17.720  66.515  1.00  0.00    -0.200 A  
HETATM   25  C   UNK A   1      -7.154  19.123  66.169  1.00  0.00    -0.273 A  
HETATM   26  C   UNK A   1      -7.634  18.786  67.437  1.00  0.00    -0.239 A  
ENDBRANCH  20  21
ENDBRANCH  19  20
ENDBRANCH  15  19
ENDBRANCH  13  15
ENDBRANCH   1  13
TORSDOF 6
ENDMDL
MODEL      267
REMARK 921   NORMALIZED FREE ENERGY PREDICTED BY IDOCK:   27.50 KCAL/MOL
REMARK 922        TOTAL FREE ENERGY PREDICTED BY IDOCK:   35.44 KCAL/MOL
REMARK 923 INTER-LIGAND FREE ENERGY PREDICTED BY IDOCK:   12.93 KCAL/MOL
REMARK 924 INTRA-LIGAND FREE ENERGY PREDICTED BY IDOCK:   22.50 KCAL/MOL
REMARK 927      BINDING AFFINITY PREDICTED BY RF-SCORE:    0.00 PKD
ROOT
HETATM    1  C   UNK A   1     -11.144  14.513  68.473  1.00  0.00    -0.256 C  
HETATM    2  C   UNK A   1     -12.655  14.350  68.621  1.00  0.00     0.391 C  
ENDROOT
BRANCH   1   3
HETATM    3  C   UNK A   1     -10.588  15.271  69.710  1.00  0.00    -0.282 C  
ATOM      4  CA  PRO A   2     -12.005  13.836  71.291  1.00  0.00     0.050 C  
ATOM      5  N   PRO A   2     -11.132  14.977  70.952  1.00  0.00    -0.235 N  
ATOM      6  C   PRO A   2     -13.492  14.153  71.071  1.00  0.00    -0.172 C  
HETATM    7  O   UNK A   1      -9.712  16.132  69.582  1.00  0.00    -0.228 OA 
ATOM      8  CB  PRO A   2     -11.749  13.569  72.780  1.00  0.00     2.701 C  
ATOM      9  O   PRO A   2     -13.727  15.415  70.643  1.00  0.00    -0.326 OA 
ATOM     10  CD  PRO A   2     -10.616  15.590  72.167  1.00  0.00     1.252 C  
ATOM     11  OXT PRO A   2     -14.388  13.347  71.263  1.00  0.00     0.639 OA 
ATOM     12  CG  PRO A   2     -10.545  14.434  73.144  1.00  0.00     4.172 C  
ENDBRANCH   1   3
BRANCH   1  13
HETATM   13  N   UNK A   1     -10.435  13.213  68.386  1.00  0.00    -0.249 NA 
HETATM   14  H   UNK A   1      -9.747  13.140  69.135  1.00  0.00     0.000 HD 
BRANCH  13  15
HETATM   15  C   UNK A   1     -11.315  11.999  68.375  1.00  0.00    -0.279 C  
HETATM   16  O   UNK A   1     -13.220  11.409  69.823  1.00  0.00     0.432 OA 
HETATM   17  O   UNK A   1     -11.803  13.031  70.510  1.00  0.00    -0.255 OA 
HETATM   18  C   UNK A   1     -12.225  12.089  69.627  1.00  0.00    -0.139 C  
BRANCH  15  19
HETATM   19  C   UNK A   1     -10.534  10.665  68.382  1.00  0.00    -0.212 C  
BRANCH  19  20
HETATM   20  C   UNK A   1      -9.355  10.649  67.394  1.00  0.00    -0.157 C  
BRANCH  20  21
HETATM   21  C   UNK A   1      -9.356  11.799  66.414  1.00  0.00    -0.229 A  
HETATM   22  C   UNK A   1      -9.272  13.881  64.529  1.00  0.00     2.539 A  
HETATM   23  C   UNK A   1      -8.280  12.694  66.386  1.00  0.00     0.402 A  
HETATM   24  C   UNK A   1      -8.236  13.729  65.448  1.00  0.00     4.060 A  
HETATM   25  C   UNK A   1     -10.352  13.002  64.551  1.00  0.00    -0.386 A  
HETATM   26  C   UNK A   1     -10.397  11.963  65.485  1.00  0.00    -0.303 A  
ENDBRANCH  20  21
ENDBRANCH  19  20
ENDBRANCH  15  19
ENDBRANCH  13  15
ENDBRANCH   1  13
TORSDOF 6
ENDMDL
