MODEL        1
REMARK 921   NORMALIZED FREE ENERGY PREDICTED BY IDOCK:   -9.36 KCAL/MOL
REMARK 922        TOTAL FREE ENERGY PREDICTED BY IDOCK:  -13.26 KCAL/MOL
REMARK 923 INTER-LIGAND FREE ENERGY PREDICTED BY IDOCK:  -12.10 KCAL/MOL
REMARK 924 INTRA-LIGAND FREE ENERGY PREDICTED BY IDOCK:   -1.16 KCAL/MOL
REMARK 927      BINDING AFFINITY PREDICTED BY RF-SCORE:    0.00 PKD
ROOT
HETATM    1  C   UNL     1     -12.609  11.896  63.213  1.00  0.00    -0.473 C  
HETATM    2  C   UNL     1     -11.344  12.283  63.986  1.00  0.00    -0.399 C  
HETATM    3  C   UNL     1     -10.102  11.823  63.214  1.00  0.00    -0.448 C  
HETATM    4  O   UNL     1     -11.297  13.714  64.089  1.00  0.00    -0.504 OA 
HETATM    5  C   UNL     1     -11.405  11.688  65.419  1.00  0.00    -0.153 C  
HETATM    6  H   UNL     1     -10.512  13.954  64.569  1.00  0.00     0.000 HD 
ENDROOT
BRANCH   5   7
HETATM    7  N   UNL     1     -10.153  11.935  66.120  1.00  0.00    -0.221 NA 
HETATM    8  H   UNL     1      -9.293  11.461  65.843  1.00  0.00     0.000 HD 
BRANCH   7   9
HETATM    9  C   UNL     1     -10.162  12.829  67.173  1.00  0.00    -0.233 A  
HETATM   10  N   UNL     1     -10.984  12.662  68.196  1.00  0.00    -0.225 NA 
HETATM   11  C   UNL     1     -10.918  13.590  69.151  1.00  0.00    -0.177 A  
HETATM   12  N   UNL     1      -9.279  13.816  67.085  1.00  0.00    -0.234 NA 
HETATM   13  N   UNL     1     -10.071  14.620  69.133  1.00  0.00    -0.207 NA 
HETATM   14  C   UNL     1      -9.247  14.671  68.095  1.00  0.00    -0.192 A  
BRANCH  11  15
HETATM   15  C   UNL     1     -11.827  13.478  70.324  1.00  0.00    -0.257 A  
HETATM   16  C   UNL     1     -12.786  14.507  72.212  1.00  0.00    -0.349 A  
HETATM   17  F   UNL     1     -12.596  15.509  74.389  1.00  0.00    -0.607 F  
HETATM   18  N   UNL     1     -11.963  14.572  71.126  1.00  0.00    -0.343 NA 
HETATM   19  C   UNL     1     -13.485  13.345  72.538  1.00  0.00    -0.640 A  
HETATM   20  C   UNL     1     -12.968  15.736  73.095  1.00  0.00    -0.544 C  
HETATM   21  C   UNL     1     -12.524  12.298  70.605  1.00  0.00    -0.323 A  
HETATM   22  C   UNL     1     -13.353  12.231  71.721  1.00  0.00    -0.353 A  
HETATM   23  F   UNL     1     -12.265  16.832  72.693  1.00  0.00    -0.464 F  
HETATM   24  F   UNL     1     -14.272  16.137  73.160  1.00  0.00    -0.673 F  
ENDBRANCH  11  15
BRANCH  14  25
HETATM   25  N   UNL     1      -8.221  15.618  68.075  1.00  0.00    -0.142 NA 
HETATM   26  H   UNL     1      -7.421  15.401  68.669  1.00  0.00     0.000 HD 
BRANCH  25  27
HETATM   27  C   UNL     1      -8.121  16.818  67.365  1.00  0.00    -0.170 A  
HETATM   28  C   UNL     1      -9.116  18.872  66.566  1.00  0.00    -0.327 A  
HETATM   29  C   UNL     1      -9.187  17.720  67.359  1.00  0.00    -0.248 A  
HETATM   30  N   UNL     1      -8.012  19.160  65.818  1.00  0.00    -0.441 NA 
HETATM   31  C   UNL     1     -10.305  19.819  66.489  1.00  0.00    -0.506 C  
HETATM   32  C   UNL     1      -6.994  18.281  65.840  1.00  0.00    -0.277 A  
HETATM   33  F   UNL     1     -10.797  19.955  65.224  1.00  0.00    -0.587 F  
HETATM   34  F   UNL     1     -11.370  19.415  67.247  1.00  0.00    -0.542 F  
HETATM   35  F   UNL     1     -10.016  21.082  66.918  1.00  0.00    -0.540 F  
HETATM   36  C   UNL     1      -7.013  17.107  66.568  1.00  0.00    -0.296 A  
ENDBRANCH  25  27
ENDBRANCH  14  25
ENDBRANCH   7   9
ENDBRANCH   5   7
TORSDOF 5
ENDMDL
MODEL        2
REMARK 921   NORMALIZED FREE ENERGY PREDICTED BY IDOCK:   -9.08 KCAL/MOL
REMARK 922        TOTAL FREE ENERGY PREDICTED BY IDOCK:  -12.89 KCAL/MOL
REMARK 923 INTER-LIGAND FREE ENERGY PREDICTED BY IDOCK:  -11.72 KCAL/MOL
REMARK 924 INTRA-LIGAND FREE ENERGY PREDICTED BY IDOCK:   -1.17 KCAL/MOL
REMARK 927      BINDING AFFINITY PREDICTED BY RF-SCORE:    0.00 PKD
ROOT
HETATM    1  C   UNL     1      -7.432  20.097  66.925  1.00  0.00    -0.320 C  
HETATM    2  C   UNL     1      -8.857  19.627  67.230  1.00  0.00    -0.318 C  
HETATM    3  C   UNL     1      -9.775  20.839  67.422  1.00  0.00    -0.473 C  
HETATM    4  O   UNL     1      -9.339  18.882  66.100  1.00  0.00    -0.426 OA 
HETATM    5  C   UNL     1      -8.846  18.691  68.468  1.00  0.00    -0.331 C  
HETATM    6  H   UNL     1     -10.223  18.590  66.290  1.00  0.00     0.000 HD 
ENDROOT
BRANCH   5   7
HETATM    7  N   UNL     1     -10.207  18.341  68.849  1.00  0.00    -0.442 NA 
HETATM    8  H   UNL     1     -10.820  19.026  69.292  1.00  0.00     0.000 HD 
BRANCH   7   9
HETATM    9  C   UNL     1     -10.647  17.057  68.594  1.00  0.00    -0.362 A  
HETATM   10  N   UNL     1     -11.189  16.325  69.553  1.00  0.00    -0.324 NA 
HETATM   11  C   UNL     1     -11.567  15.096  69.201  1.00  0.00    -0.323 A  
HETATM   12  N   UNL     1     -10.511  16.651  67.338  1.00  0.00    -0.315 NA 
HETATM   13  N   UNL     1     -11.454  14.605  67.966  1.00  0.00    -0.310 NA 
HETATM   14  C   UNL     1     -10.951  15.433  67.060  1.00  0.00    -0.306 A  
BRANCH  11  15
HETATM   15  C   UNL     1     -12.169  14.208  70.232  1.00  0.00    -0.349 A  
HETATM   16  C   UNL     1     -12.553  12.015  71.001  1.00  0.00    -0.273 A  
HETATM   17  F   UNL     1     -13.539   9.837  70.749  1.00  0.00    -0.393 F  
HETATM   18  N   UNL     1     -12.014  12.862  70.077  1.00  0.00    -0.340 NA 
HETATM   19  C   UNL     1     -13.275  12.486  72.098  1.00  0.00    -0.508 A  
HETATM   20  C   UNL     1     -12.356  10.512  70.851  1.00  0.00    -0.390 C  
HETATM   21  C   UNL     1     -12.871  14.722  71.327  1.00  0.00    -0.408 A  
HETATM   22  C   UNL     1     -13.431  13.855  72.261  1.00  0.00    -0.623 A  
HETATM   23  F   UNL     1     -11.623  10.141  69.764  1.00  0.00    -0.258 F  
HETATM   24  F   UNL     1     -11.721   9.963  71.930  1.00  0.00    -0.439 F  
ENDBRANCH  11  15
BRANCH  14  25
HETATM   25  N   UNL     1     -10.945  15.063  65.714  1.00  0.00    -0.342 NA 
HETATM   26  H   UNL     1     -10.744  15.819  65.060  1.00  0.00     0.000 HD 
BRANCH  25  27
HETATM   27  C   UNL     1     -11.173  13.817  65.124  1.00  0.00    -0.316 A  
HETATM   28  C   UNL     1     -10.509  11.523  64.742  1.00  0.00    -0.299 A  
HETATM   29  C   UNL     1     -10.332  12.740  65.413  1.00  0.00    -0.310 A  
HETATM   30  N   UNL     1     -11.509  11.346  63.831  1.00  0.00    -0.266 NA 
HETATM   31  C   UNL     1      -9.547  10.371  64.990  1.00  0.00    -0.280 C  
HETATM   32  C   UNL     1     -12.311  12.394  63.570  1.00  0.00    -0.546 A  
HETATM   33  F   UNL     1      -8.890   9.972  63.862  1.00  0.00    -0.161 F  
HETATM   34  F   UNL     1      -8.562  10.670  65.891  1.00  0.00    -0.148 F  
HETATM   35  F   UNL     1     -10.159   9.255  65.483  1.00  0.00    -0.370 F  
HETATM   36  C   UNL     1     -12.169  13.633  64.165  1.00  0.00    -0.450 A  
ENDBRANCH  25  27
ENDBRANCH  14  25
ENDBRANCH   7   9
ENDBRANCH   5   7
TORSDOF 5
ENDMDL
MODEL        3
REMARK 921   NORMALIZED FREE ENERGY PREDICTED BY IDOCK:   -9.04 KCAL/MOL
REMARK 922        TOTAL FREE ENERGY PREDICTED BY IDOCK:  -12.85 KCAL/MOL
REMARK 923 INTER-LIGAND FREE ENERGY PREDICTED BY IDOCK:  -11.52 KCAL/MOL
REMARK 924 INTRA-LIGAND FREE ENERGY PREDICTED BY IDOCK:   -1.33 KCAL/MOL
REMARK 927      BINDING AFFINITY PREDICTED BY RF-SCORE:    0.00 PKD
ROOT
HETATM    1  C   UNL     1     -12.412  15.046  73.854  1.00  0.00    -0.660 C  
HETATM    2  C   UNL     1     -12.767  15.243  72.377  1.00  0.00    -0.363 C  
HETATM    3  C   UNL     1     -14.268  15.518  72.234  1.00  0.00    -0.617 C  
HETATM    4  O   UNL     1     -12.058  16.394  71.892  1.00  0.00    -0.613 OA 
HETATM    5  C   UNL     1     -12.312  14.004  71.559  1.00  0.00    -0.284 C  
HETATM    6  H   UNL     1     -12.278  16.516  70.975  1.00  0.00     0.000 HD 
ENDROOT
BRANCH   5   7
HETATM    7  N   UNL     1     -12.758  14.119  70.179  1.00  0.00    -0.407 NA 
HETATM    8  H   UNL     1     -13.751  14.188  69.952  1.00  0.00     0.000 HD 
BRANCH   7   9
HETATM    9  C   UNL     1     -11.801  14.133  69.183  1.00  0.00    -0.341 A  
HETATM   10  N   UNL     1     -12.024  13.535  68.023  1.00  0.00    -0.356 NA 
HETATM   11  C   UNL     1     -11.028  13.599  67.138  1.00  0.00    -0.288 A  
HETATM   12  N   UNL     1     -10.694  14.805  69.470  1.00  0.00    -0.237 NA 
HETATM   13  N   UNL     1      -9.878  14.241  67.352  1.00  0.00    -0.232 NA 
HETATM   14  C   UNL     1      -9.772  14.858  68.522  1.00  0.00    -0.215 A  
BRANCH  11  15
HETATM   15  C   UNL     1     -11.199  12.933  65.819  1.00  0.00    -0.294 A  
HETATM   16  C   UNL     1     -10.251  11.624  64.105  1.00  0.00    -0.326 A  
HETATM   17  F   UNL     1      -8.649  11.304  62.341  1.00  0.00    -0.298 F  
HETATM   18  N   UNL     1     -10.134  12.247  65.314  1.00  0.00    -0.276 NA 
HETATM   19  C   UNL     1     -11.428  11.680  63.360  1.00  0.00    -0.360 A  
HETATM   20  C   UNL     1      -9.076  10.830  63.550  1.00  0.00    -0.226 C  
HETATM   21  C   UNL     1     -12.404  12.999  65.111  1.00  0.00    -0.536 A  
HETATM   22  C   UNL     1     -12.516  12.373  63.872  1.00  0.00    -0.573 A  
HETATM   23  F   UNL     1      -7.974  10.812  64.351  1.00  0.00    -0.105 F  
HETATM   24  F   UNL     1      -9.395   9.520  63.330  1.00  0.00    -0.278 F  
ENDBRANCH  11  15
BRANCH  14  25
HETATM   25  N   UNL     1      -8.675  15.686  68.767  1.00  0.00    -0.182 NA 
HETATM   26  H   UNL     1      -8.020  15.338  69.467  1.00  0.00     0.000 HD 
BRANCH  25  27
HETATM   27  C   UNL     1      -8.336  16.918  68.202  1.00  0.00    -0.212 A  
HETATM   28  C   UNL     1      -8.994  19.040  67.245  1.00  0.00    -0.284 A  
HETATM   29  C   UNL     1      -9.333  17.850  67.901  1.00  0.00    -0.271 A  
HETATM   30  N   UNL     1      -7.702  19.335  66.918  1.00  0.00    -0.240 NA 
HETATM   31  C   UNL     1     -10.082  20.023  66.840  1.00  0.00    -0.467 C  
HETATM   32  C   UNL     1      -6.756  18.427  67.219  1.00  0.00    -0.196 A  
HETATM   33  F   UNL     1     -10.131  20.240  65.494  1.00  0.00    -0.520 F  
HETATM   34  F   UNL     1     -11.341  19.610  67.183  1.00  0.00    -0.523 F  
HETATM   35  F   UNL     1      -9.938  21.252  67.415  1.00  0.00    -0.576 F  
HETATM   36  C   UNL     1      -7.025  17.217  67.830  1.00  0.00    -0.161 A  
ENDBRANCH  25  27
ENDBRANCH  14  25
ENDBRANCH   7   9
ENDBRANCH   5   7
TORSDOF 5
ENDMDL
MODEL        4
REMARK 921   NORMALIZED FREE ENERGY PREDICTED BY IDOCK:   -9.04 KCAL/MOL
REMARK 922        TOTAL FREE ENERGY PREDICTED BY IDOCK:  -12.84 KCAL/MOL
REMARK 923 INTER-LIGAND FREE ENERGY PREDICTED BY IDOCK:  -11.92 KCAL/MOL
REMARK 924 INTRA-LIGAND FREE ENERGY PREDICTED BY IDOCK:   -0.92 KCAL/MOL
REMARK 927      BINDING AFFINITY PREDICTED BY RF-SCORE:    0.00 PKD
ROOT
HETATM    1  C   UNL     1     -12.888  11.722  63.580  1.00  0.00    -0.347 C  
HETATM    2  C   UNL     1     -12.074  12.972  63.928  1.00  0.00    -0.471 C  
HETATM    3  C   UNL     1     -10.576  12.665  63.813  1.00  0.00    -0.432 C  
HETATM    4  O   UNL     1     -12.390  13.998  62.974  1.00  0.00    -1.101 OA 
HETATM    5  C   UNL     1     -12.468  13.476  65.342  1.00  0.00    -0.497 C  
HETATM    6  H   UNL     1     -11.885  14.773  63.190  1.00  0.00     0.000 HD 
ENDROOT
BRANCH   5   7
HETATM    7  N   UNL     1     -11.611  14.584  65.740  1.00  0.00    -0.350 NA 
HETATM    8  H   UNL     1     -11.082  15.113  65.046  1.00  0.00     0.000 HD 
BRANCH   7   9
HETATM    9  C   UNL     1     -11.533  14.899  67.082  1.00  0.00    -0.335 A  
HETATM   10  N   UNL     1     -12.015  14.075  67.999  1.00  0.00    -0.369 NA 
HETATM   11  C   UNL     1     -11.898  14.483  69.263  1.00  0.00    -0.323 A  
HETATM   12  N   UNL     1     -10.923  16.043  67.361  1.00  0.00    -0.284 NA 
HETATM   13  N   UNL     1     -11.313  15.625  69.628  1.00  0.00    -0.302 NA 
HETATM   14  C   UNL     1     -10.809  16.355  68.642  1.00  0.00    -0.331 A  
BRANCH  11  15
HETATM   15  C   UNL     1     -12.435  13.618  70.348  1.00  0.00    -0.294 A  
HETATM   16  C   UNL     1     -12.719  11.445  71.213  1.00  0.00    -0.393 A  
HETATM   17  F   UNL     1     -13.640   9.229  71.078  1.00  0.00    -0.351 F  
HETATM   18  N   UNL     1     -12.240  12.272  70.238  1.00  0.00    -0.301 NA 
HETATM   19  C   UNL     1     -13.419  11.935  72.315  1.00  0.00    -0.187 A  
HETATM   20  C   UNL     1     -12.477   9.944  71.113  1.00  0.00    -0.368 C  
HETATM   21  C   UNL     1     -13.116  14.151  71.447  1.00  0.00    -0.428 A  
HETATM   22  C   UNL     1     -13.615  13.304  72.432  1.00  0.00    -0.694 A  
HETATM   23  F   UNL     1     -11.769   9.555  70.016  1.00  0.00    -0.239 F  
HETATM   24  F   UNL     1     -11.788   9.459  72.189  1.00  0.00    -0.424 F  
ENDBRANCH  11  15
BRANCH  14  25
HETATM   25  N   UNL     1     -10.039  17.481  68.941  1.00  0.00    -0.352 NA 
HETATM   26  H   UNL     1      -9.776  17.575  69.922  1.00  0.00     0.000 HD 
BRANCH  25  27
HETATM   27  C   UNL     1      -9.572  18.498  68.104  1.00  0.00    -0.327 A  
HETATM   28  C   UNL     1      -7.850  19.413  66.675  1.00  0.00    -0.277 A  
HETATM   29  C   UNL     1      -8.356  18.350  67.432  1.00  0.00    -0.256 A  
HETATM   30  N   UNL     1      -8.530  20.589  66.544  1.00  0.00    -0.082 NA 
HETATM   31  C   UNL     1      -6.488  19.291  66.006  1.00  0.00    -0.206 C  
HETATM   32  C   UNL     1      -9.701  20.710  67.196  1.00  0.00    -0.390 A  
HETATM   33  F   UNL     1      -5.597  20.230  66.436  1.00  0.00    -0.178 F  
HETATM   34  F   UNL     1      -5.878  18.088  66.234  1.00  0.00    -0.159 F  
HETATM   35  F   UNL     1      -6.542  19.417  64.648  1.00  0.00    -0.294 F  
HETATM   36  C   UNL     1     -10.240  19.717  67.991  1.00  0.00    -0.579 A  
ENDBRANCH  25  27
ENDBRANCH  14  25
ENDBRANCH   7   9
ENDBRANCH   5   7
TORSDOF 5
ENDMDL
MODEL        5
REMARK 921   NORMALIZED FREE ENERGY PREDICTED BY IDOCK:   -8.85 KCAL/MOL
REMARK 922        TOTAL FREE ENERGY PREDICTED BY IDOCK:  -12.60 KCAL/MOL
REMARK 923 INTER-LIGAND FREE ENERGY PREDICTED BY IDOCK:  -11.57 KCAL/MOL
REMARK 924 INTRA-LIGAND FREE ENERGY PREDICTED BY IDOCK:   -1.03 KCAL/MOL
REMARK 927      BINDING AFFINITY PREDICTED BY RF-SCORE:    0.00 PKD
ROOT
HETATM    1  C   UNL     1      -7.693  10.100  63.378  1.00  0.00    -0.153 C  
HETATM    2  C   UNL     1      -8.921  10.468  64.217  1.00  0.00    -0.216 C  
HETATM    3  C   UNL     1      -9.371   9.254  65.040  1.00  0.00    -0.196 C  
HETATM    4  O   UNL     1      -8.548  11.509  65.133  1.00  0.00    -0.375 OA 
HETATM    5  C   UNL     1     -10.045  11.006  63.292  1.00  0.00    -0.348 C  
HETATM    6  H   UNL     1      -9.310  11.737  65.653  1.00  0.00     0.000 HD 
ENDROOT
BRANCH   5   7
HETATM    7  N   UNL     1     -11.262  11.235  64.057  1.00  0.00    -0.427 NA 
HETATM    8  H   UNL     1     -12.114  10.711  63.857  1.00  0.00     0.000 HD 
BRANCH   7   9
HETATM    9  C   UNL     1     -11.232  12.182  65.062  1.00  0.00    -0.322 A  
HETATM   10  N   UNL     1     -11.567  11.863  66.302  1.00  0.00    -0.491 NA 
HETATM   11  C   UNL     1     -11.515  12.856  67.190  1.00  0.00    -0.336 A  
HETATM   12  N   UNL     1     -10.820  13.388  64.692  1.00  0.00    -0.371 NA 
HETATM   13  N   UNL     1     -11.126  14.098  66.899  1.00  0.00    -0.301 NA 
HETATM   14  C   UNL     1     -10.755  14.307  65.643  1.00  0.00    -0.316 A  
BRANCH  11  15
HETATM   15  C   UNL     1     -11.896  12.576  68.601  1.00  0.00    -0.297 A  
HETATM   16  C   UNL     1     -12.652  13.414  70.668  1.00  0.00    -0.253 A  
HETATM   17  F   UNL     1     -12.350  14.775  72.627  1.00  0.00    -0.382 F  
HETATM   18  N   UNL     1     -12.296  13.630  69.369  1.00  0.00    -0.244 NA 
HETATM   19  C   UNL     1     -12.604  12.144  71.243  1.00  0.00    -0.341 A  
HETATM   20  C   UNL     1     -13.131  14.580  71.523  1.00  0.00    -0.343 C  
HETATM   21  C   UNL     1     -11.850  11.284  69.133  1.00  0.00    -0.423 A  
HETATM   22  C   UNL     1     -12.201  11.068  70.463  1.00  0.00    -0.472 A  
HETATM   23  F   UNL     1     -13.166  15.780  70.877  1.00  0.00    -0.526 F  
HETATM   24  F   UNL     1     -14.394  14.384  72.005  1.00  0.00    -0.482 F  
ENDBRANCH  11  15
BRANCH  14  25
HETATM   25  N   UNL     1     -10.181  15.529  65.286  1.00  0.00    -0.362 NA 
HETATM   26  H   UNL     1     -10.274  15.778  64.302  1.00  0.00     0.000 HD 
BRANCH  25  27
HETATM   27  C   UNL     1      -9.500  16.464  66.070  1.00  0.00    -0.310 A  
HETATM   28  C   UNL     1      -9.442  18.585  67.231  1.00  0.00    -0.288 A  
HETATM   29  C   UNL     1     -10.158  17.607  66.530  1.00  0.00    -0.350 A  
HETATM   30  N   UNL     1      -8.114  18.438  67.511  1.00  0.00    -0.245 NA 
HETATM   31  C   UNL     1     -10.131  19.870  67.663  1.00  0.00    -0.427 C  
HETATM   32  C   UNL     1      -7.499  17.329  67.063  1.00  0.00    -0.190 A  
HETATM   33  F   UNL     1      -9.562  20.988  67.126  1.00  0.00    -0.567 F  
HETATM   34  F   UNL     1     -11.449  19.929  67.299  1.00  0.00    -0.364 F  
HETATM   35  F   UNL     1     -10.124  20.056  69.015  1.00  0.00    -0.492 F  
HETATM   36  C   UNL     1      -8.135  16.343  66.333  1.00  0.00    -0.357 A  
ENDBRANCH  25  27
ENDBRANCH  14  25
ENDBRANCH   7   9
ENDBRANCH   5   7
TORSDOF 5
ENDMDL
MODEL        6
REMARK 921   NORMALIZED FREE ENERGY PREDICTED BY IDOCK:   -8.82 KCAL/MOL
REMARK 922        TOTAL FREE ENERGY PREDICTED BY IDOCK:  -12.56 KCAL/MOL
REMARK 923 INTER-LIGAND FREE ENERGY PREDICTED BY IDOCK:  -11.34 KCAL/MOL
REMARK 924 INTRA-LIGAND FREE ENERGY PREDICTED BY IDOCK:   -1.22 KCAL/MOL
REMARK 927      BINDING AFFINITY PREDICTED BY RF-SCORE:    0.00 PKD
ROOT
HETATM    1  C   UNL     1     -10.297  10.805  64.072  1.00  0.00    -0.357 C  
HETATM    2  C   UNL     1     -11.162  12.012  64.449  1.00  0.00    -0.344 C  
HETATM    3  C   UNL     1     -12.355  12.116  63.493  1.00  0.00    -0.682 C  
HETATM    4  O   UNL     1     -11.674  11.805  65.775  1.00  0.00    -0.359 OA 
HETATM    5  C   UNL     1     -10.292  13.297  64.453  1.00  0.00    -0.351 C  
HETATM    6  H   UNL     1     -12.210  12.554  66.009  1.00  0.00     0.000 HD 
ENDROOT
BRANCH   5   7
HETATM    7  N   UNL     1     -11.125  14.469  64.681  1.00  0.00    -0.550 NA 
HETATM    8  H   UNL     1     -11.730  14.834  63.944  1.00  0.00     0.000 HD 
BRANCH   7   9
HETATM    9  C   UNL     1     -11.074  15.075  65.921  1.00  0.00    -0.334 A  
HETATM   10  N   UNL     1     -11.449  14.422  67.008  1.00  0.00    -0.346 NA 
HETATM   11  C   UNL     1     -11.371  15.106  68.151  1.00  0.00    -0.335 A  
HETATM   12  N   UNL     1     -10.601  16.315  65.926  1.00  0.00    -0.321 NA 
HETATM   13  N   UNL     1     -10.921  16.358  68.242  1.00  0.00    -0.350 NA 
HETATM   14  C   UNL     1     -10.515  16.909  67.106  1.00  0.00    -0.296 A  
BRANCH  11  15
HETATM   15  C   UNL     1     -11.794  14.441  69.413  1.00  0.00    -0.325 A  
HETATM   16  C   UNL     1     -12.304  14.647  71.704  1.00  0.00    -0.351 A  
HETATM   17  F   UNL     1     -11.662  15.131  73.969  1.00  0.00    -0.556 F  
HETATM   18  N   UNL     1     -11.920  15.220  70.526  1.00  0.00    -0.315 NA 
HETATM   19  C   UNL     1     -12.559  13.280  71.808  1.00  0.00    -0.195 A  
HETATM   20  C   UNL     1     -12.478  15.515  72.943  1.00  0.00    -0.424 C  
HETATM   21  C   UNL     1     -12.057  13.069  69.471  1.00  0.00    -0.289 A  
HETATM   22  C   UNL     1     -12.436  12.485  70.677  1.00  0.00    -0.323 A  
HETATM   23  F   UNL     1     -12.229  16.840  72.747  1.00  0.00    -0.472 F  
HETATM   24  F   UNL     1     -13.746  15.449  73.447  1.00  0.00    -0.499 F  
ENDBRANCH  11  15
BRANCH  14  25
HETATM   25  N   UNL     1      -9.880  18.152  67.131  1.00  0.00    -0.304 NA 
HETATM   26  H   UNL     1     -10.500  18.955  67.029  1.00  0.00     0.000 HD 
BRANCH  25  27
HETATM   27  C   UNL     1      -8.525  18.466  67.274  1.00  0.00    -0.254 A  
HETATM   28  C   UNL     1      -6.713  19.389  68.582  1.00  0.00    -0.294 A  
HETATM   29  C   UNL     1      -8.049  18.985  68.481  1.00  0.00    -0.385 A  
HETATM   30  N   UNL     1      -5.843  19.257  67.539  1.00  0.00    -0.185 NA 
HETATM   31  C   UNL     1      -6.206  20.032  69.865  1.00  0.00    -0.361 C  
HETATM   32  C   UNL     1      -6.319  18.751  66.387  1.00  0.00    -0.192 A  
HETATM   33  F   UNL     1      -5.733  21.297  69.677  1.00  0.00    -0.392 F  
HETATM   34  F   UNL     1      -7.170  20.149  70.830  1.00  0.00    -0.130 F  
HETATM   35  F   UNL     1      -5.192  19.334  70.453  1.00  0.00    -0.180 F  
HETATM   36  C   UNL     1      -7.635  18.370  66.205  1.00  0.00    -0.289 A  
ENDBRANCH  25  27
ENDBRANCH  14  25
ENDBRANCH   7   9
ENDBRANCH   5   7
TORSDOF 5
ENDMDL
MODEL        7
REMARK 921   NORMALIZED FREE ENERGY PREDICTED BY IDOCK:   -8.80 KCAL/MOL
REMARK 922        TOTAL FREE ENERGY PREDICTED BY IDOCK:  -12.54 KCAL/MOL
REMARK 923 INTER-LIGAND FREE ENERGY PREDICTED BY IDOCK:  -11.46 KCAL/MOL
REMARK 924 INTRA-LIGAND FREE ENERGY PREDICTED BY IDOCK:   -1.08 KCAL/MOL
REMARK 927      BINDING AFFINITY PREDICTED BY RF-SCORE:    0.00 PKD
ROOT
HETATM    1  C   UNL     1     -12.289  15.493  74.419  1.00  0.00    -0.798 C  
HETATM    2  C   UNL     1     -13.024  15.488  73.075  1.00  0.00    -0.499 C  
HETATM    3  C   UNL     1     -13.497  14.068  72.746  1.00  0.00    -0.576 C  
HETATM    4  O   UNL     1     -14.184  16.326  73.191  1.00  0.00    -0.534 OA 
HETATM    5  C   UNL     1     -12.101  16.075  71.973  1.00  0.00    -0.525 C  
HETATM    6  H   UNL     1     -14.640  16.323  72.357  1.00  0.00     0.000 HD 
ENDROOT
BRANCH   5   7
HETATM    7  N   UNL     1     -12.736  15.955  70.668  1.00  0.00    -0.540 NA 
HETATM    8  H   UNL     1     -13.725  16.173  70.544  1.00  0.00     0.000 HD 
BRANCH   7   9
HETATM    9  C   UNL     1     -11.963  15.540  69.602  1.00  0.00    -0.359 A  
HETATM   10  N   UNL     1     -10.919  16.250  69.206  1.00  0.00    -0.301 NA 
HETATM   11  C   UNL     1     -10.251  15.764  68.160  1.00  0.00    -0.230 A  
HETATM   12  N   UNL     1     -12.328  14.389  69.052  1.00  0.00    -0.183 NA 
HETATM   13  N   UNL     1     -10.559  14.624  67.540  1.00  0.00    -0.255 NA 
HETATM   14  C   UNL     1     -11.587  13.954  68.045  1.00  0.00    -0.333 A  
BRANCH  11  15
HETATM   15  C   UNL     1      -9.076  16.519  67.646  1.00  0.00    -0.199 A  
HETATM   16  C   UNL     1      -8.178  18.581  66.946  1.00  0.00    -0.258 A  
HETATM   17  F   UNL     1      -8.108  20.439  65.422  1.00  0.00    -0.196 F  
HETATM   18  N   UNL     1      -9.233  17.855  67.419  1.00  0.00    -0.251 NA 
HETATM   19  C   UNL     1      -6.943  17.994  66.674  1.00  0.00    -0.245 A  
HETATM   20  C   UNL     1      -8.336  20.080  66.720  1.00  0.00    -0.323 C  
HETATM   21  C   UNL     1      -7.848  15.895  67.402  1.00  0.00    -0.195 A  
HETATM   22  C   UNL     1      -6.778  16.636  66.908  1.00  0.00    -0.247 A  
HETATM   23  F   UNL     1      -9.568  20.573  67.031  1.00  0.00    -0.507 F  
HETATM   24  F   UNL     1      -7.448  20.810  67.457  1.00  0.00    -0.339 F  
ENDBRANCH  11  15
BRANCH  14  25
HETATM   25  N   UNL     1     -11.879  12.675  67.566  1.00  0.00    -0.389 NA 
HETATM   26  H   UNL     1     -12.412  12.652  66.697  1.00  0.00     0.000 HD 
BRANCH  25  27
HETATM   27  C   UNL     1     -11.554  11.422  68.093  1.00  0.00    -0.294 A  
HETATM   28  C   UNL     1     -11.559   9.856  69.935  1.00  0.00    -0.127 A  
HETATM   29  C   UNL     1     -11.973  11.072  69.379  1.00  0.00    -0.408 A  
HETATM   30  N   UNL     1     -10.780   8.978  69.240  1.00  0.00    -0.210 NA 
HETATM   31  C   UNL     1     -11.942   9.503  71.365  1.00  0.00    -0.386 C  
HETATM   32  C   UNL     1     -10.390   9.331  68.002  1.00  0.00    -0.221 A  
HETATM   33  F   UNL     1     -10.861   9.317  72.177  1.00  0.00    -0.414 F  
HETATM   34  F   UNL     1     -12.690  10.469  71.981  1.00  0.00    -0.486 F  
HETATM   35  F   UNL     1     -12.683   8.360  71.458  1.00  0.00    -0.300 F  
HETATM   36  C   UNL     1     -10.729  10.532  67.407  1.00  0.00    -0.334 A  
ENDBRANCH  25  27
ENDBRANCH  14  25
ENDBRANCH   7   9
ENDBRANCH   5   7
TORSDOF 5
ENDMDL
MODEL        8
REMARK 921   NORMALIZED FREE ENERGY PREDICTED BY IDOCK:   -8.72 KCAL/MOL
REMARK 922        TOTAL FREE ENERGY PREDICTED BY IDOCK:  -12.44 KCAL/MOL
REMARK 923 INTER-LIGAND FREE ENERGY PREDICTED BY IDOCK:  -11.25 KCAL/MOL
REMARK 924 INTRA-LIGAND FREE ENERGY PREDICTED BY IDOCK:   -1.18 KCAL/MOL
REMARK 927      BINDING AFFINITY PREDICTED BY RF-SCORE:    0.00 PKD
ROOT
HETATM    1  C   UNL     1     -10.317  10.237  66.136  1.00  0.00    -0.253 C  
HETATM    2  C   UNL     1     -10.767  11.622  65.662  1.00  0.00    -0.278 C  
HETATM    3  C   UNL     1     -11.092  11.580  64.164  1.00  0.00    -0.417 C  
HETATM    4  O   UNL     1     -11.970  11.973  66.366  1.00  0.00    -0.611 OA 
HETATM    5  C   UNL     1      -9.675  12.672  66.001  1.00  0.00    -0.229 C  
HETATM    6  H   UNL     1     -12.248  12.832  66.072  1.00  0.00     0.000 HD 
ENDROOT
BRANCH   5   7
HETATM    7  N   UNL     1     -10.029  13.968  65.441  1.00  0.00    -0.514 NA 
HETATM    8  H   UNL     1     -10.101  14.101  64.432  1.00  0.00     0.000 HD 
BRANCH   7   9
HETATM    9  C   UNL     1     -10.265  15.013  66.313  1.00  0.00    -0.294 A  
HETATM   10  N   UNL     1      -9.633  16.167  66.172  1.00  0.00    -0.304 NA 
HETATM   11  C   UNL     1      -9.927  17.102  67.076  1.00  0.00    -0.287 A  
HETATM   12  N   UNL     1     -11.174  14.775  67.250  1.00  0.00    -0.336 NA 
HETATM   13  N   UNL     1     -10.816  16.940  68.056  1.00  0.00    -0.362 NA 
HETATM   14  C   UNL     1     -11.440  15.770  68.081  1.00  0.00    -0.302 A  
BRANCH  11  15
HETATM   15  C   UNL     1      -9.240  18.420  66.992  1.00  0.00    -0.274 A  
HETATM   16  C   UNL     1      -7.550  19.732  66.006  1.00  0.00    -0.330 A  
HETATM   17  F   UNL     1      -5.232  20.218  65.597  1.00  0.00    -0.173 F  
HETATM   18  N   UNL     1      -8.206  18.539  66.111  1.00  0.00    -0.460 NA 
HETATM   19  C   UNL     1      -7.898  20.834  66.788  1.00  0.00    -0.128 A  
HETATM   20  C   UNL     1      -6.415  19.882  65.002  1.00  0.00    -0.284 C  
HETATM   21  C   UNL     1      -9.632  19.506  67.782  1.00  0.00    -0.443 A  
HETATM   22  C   UNL     1      -8.953  20.717  67.682  1.00  0.00    -0.253 A  
HETATM   23  F   UNL     1      -6.156  18.764  64.268  1.00  0.00    -0.310 F  
HETATM   24  F   UNL     1      -6.656  20.874  64.093  1.00  0.00    -0.349 F  
ENDBRANCH  11  15
BRANCH  14  25
HETATM   25  N   UNL     1     -12.499  15.572  68.969  1.00  0.00    -0.567 NA 
HETATM   26  H   UNL     1     -13.298  16.191  68.833  1.00  0.00     0.000 HD 
BRANCH  25  27
HETATM   27  C   UNL     1     -12.635  14.655  70.015  1.00  0.00    -0.230 A  
HETATM   28  C   UNL     1     -12.626  12.375  70.820  1.00  0.00    -0.211 A  
HETATM   29  C   UNL     1     -12.392  13.297  69.793  1.00  0.00    -0.189 A  
HETATM   30  N   UNL     1     -13.055  12.769  72.054  1.00  0.00    -0.395 NA 
HETATM   31  C   UNL     1     -12.443  10.886  70.564  1.00  0.00    -0.351 C  
HETATM   32  C   UNL     1     -13.279  14.081  72.249  1.00  0.00    -0.464 A  
HETATM   33  F   UNL     1     -13.587  10.167  70.753  1.00  0.00    -0.432 F  
HETATM   34  F   UNL     1     -12.048  10.600  69.285  1.00  0.00    -0.338 F  
HETATM   35  F   UNL     1     -11.501  10.313  71.368  1.00  0.00    -0.413 F  
HETATM   36  C   UNL     1     -13.107  15.040  71.269  1.00  0.00    -0.472 A  
ENDBRANCH  25  27
ENDBRANCH  14  25
ENDBRANCH   7   9
ENDBRANCH   5   7
TORSDOF 5
ENDMDL
MODEL        9
REMARK 921   NORMALIZED FREE ENERGY PREDICTED BY IDOCK:   -8.72 KCAL/MOL
REMARK 922        TOTAL FREE ENERGY PREDICTED BY IDOCK:  -12.43 KCAL/MOL
REMARK 923 INTER-LIGAND FREE ENERGY PREDICTED BY IDOCK:  -11.28 KCAL/MOL
REMARK 924 INTRA-LIGAND FREE ENERGY PREDICTED BY IDOCK:   -1.15 KCAL/MOL
REMARK 927      BINDING AFFINITY PREDICTED BY RF-SCORE:    0.00 PKD
ROOT
HETATM    1  C   UNL     1      -9.989   5.554  68.676  1.00  0.00    -0.222 C  
HETATM    2  C   UNL     1     -10.091   6.650  67.611  1.00  0.00    -0.155 C  
HETATM    3  C   UNL     1      -9.316   6.230  66.357  1.00  0.00    -0.176 C  
HETATM    4  O   UNL     1     -11.473   6.800  67.247  1.00  0.00    -0.752 OA 
HETATM    5  C   UNL     1      -9.587   7.997  68.195  1.00  0.00    -0.153 C  
HETATM    6  H   UNL     1     -11.536   7.481  66.586  1.00  0.00     0.000 HD 
ENDROOT
BRANCH   5   7
HETATM    7  N   UNL     1      -9.555   9.017  67.157  1.00  0.00    -0.158 NA 
HETATM    8  H   UNL     1      -9.245   8.793  66.211  1.00  0.00     0.000 HD 
BRANCH   7   9
HETATM    9  C   UNL     1      -9.954  10.297  67.487  1.00  0.00    -0.189 A  
HETATM   10  N   UNL     1     -10.662  10.523  68.582  1.00  0.00    -0.200 NA 
HETATM   11  C   UNL     1     -11.005  11.794  68.798  1.00  0.00    -0.234 A  
HETATM   12  N   UNL     1      -9.549  11.249  66.656  1.00  0.00    -0.192 NA 
HETATM   13  N   UNL     1     -10.652  12.807  68.007  1.00  0.00    -0.220 NA 
HETATM   14  C   UNL     1      -9.895  12.489  66.966  1.00  0.00    -0.217 A  
BRANCH  11  15
HETATM   15  C   UNL     1     -11.818  12.121  70.000  1.00  0.00    -0.306 A  
HETATM   16  C   UNL     1     -12.784  13.780  71.367  1.00  0.00    -0.367 A  
HETATM   17  F   UNL     1     -12.589  15.640  72.877  1.00  0.00    -0.386 F  
HETATM   18  N   UNL     1     -12.043  13.439  70.272  1.00  0.00    -0.358 NA 
HETATM   19  C   UNL     1     -13.307  12.817  72.230  1.00  0.00    -0.563 A  
HETATM   20  C   UNL     1     -13.066  15.248  71.659  1.00  0.00    -0.425 C  
HETATM   21  C   UNL     1     -12.341  11.124  70.831  1.00  0.00    -0.500 A  
HETATM   22  C   UNL     1     -13.084  11.475  71.954  1.00  0.00    -0.492 A  
HETATM   23  F   UNL     1     -12.534  16.118  70.755  1.00  0.00    -0.402 F  
HETATM   24  F   UNL     1     -14.404  15.521  71.691  1.00  0.00    -0.534 F  
ENDBRANCH  11  15
BRANCH  14  25
HETATM   25  N   UNL     1      -9.345  13.501  66.177  1.00  0.00    -0.477 NA 
HETATM   26  H   UNL     1      -8.365  13.369  65.926  1.00  0.00     0.000 HD 
BRANCH  25  27
HETATM   27  C   UNL     1      -9.930  14.668  65.678  1.00  0.00    -0.351 A  
HETATM   28  C   UNL     1     -10.279  17.058  65.799  1.00  0.00    -0.245 A  
HETATM   29  C   UNL     1      -9.614  15.908  66.240  1.00  0.00    -0.345 A  
HETATM   30  N   UNL     1     -11.210  17.011  64.803  1.00  0.00    -0.840 NA 
HETATM   31  C   UNL     1     -10.001  18.399  66.462  1.00  0.00    -0.379 C  
HETATM   32  C   UNL     1     -11.498  15.809  64.271  1.00  0.00    -0.198 A  
HETATM   33  F   UNL     1     -11.111  18.953  67.031  1.00  0.00    -0.460 F  
HETATM   34  F   UNL     1      -9.081  18.325  67.472  1.00  0.00    -0.249 F  
HETATM   35  F   UNL     1      -9.513  19.336  65.598  1.00  0.00    -0.202 F  
HETATM   36  C   UNL     1     -10.909  14.629  64.685  1.00  0.00    -0.332 A  
ENDBRANCH  25  27
ENDBRANCH  14  25
ENDBRANCH   7   9
ENDBRANCH   5   7
TORSDOF 5
ENDMDL
MODEL       10
REMARK 921   NORMALIZED FREE ENERGY PREDICTED BY IDOCK:   -8.71 KCAL/MOL
REMARK 922        TOTAL FREE ENERGY PREDICTED BY IDOCK:  -12.42 KCAL/MOL
REMARK 923 INTER-LIGAND FREE ENERGY PREDICTED BY IDOCK:  -11.47 KCAL/MOL
REMARK 924 INTRA-LIGAND FREE ENERGY PREDICTED BY IDOCK:   -0.94 KCAL/MOL
REMARK 927      BINDING AFFINITY PREDICTED BY RF-SCORE:    0.00 PKD
ROOT
HETATM    1  C   UNL     1     -12.990  11.872  63.811  1.00  0.00    -0.290 C  
HETATM    2  C   UNL     1     -11.997  13.038  63.839  1.00  0.00    -0.485 C  
HETATM    3  C   UNL     1     -10.591  12.531  63.496  1.00  0.00    -0.394 C  
HETATM    4  O   UNL     1     -12.383  13.986  62.833  1.00  0.00    -1.011 OA 
HETATM    5  C   UNL     1     -12.051  13.739  65.223  1.00  0.00    -0.407 C  
HETATM    6  H   UNL     1     -11.766  14.709  62.851  1.00  0.00     0.000 HD 
ENDROOT
BRANCH   5   7
HETATM    7  N   UNL     1     -11.021  14.763  65.311  1.00  0.00    -0.350 NA 
HETATM    8  H   UNL     1     -10.559  15.116  64.472  1.00  0.00     0.000 HD 
BRANCH   7   9
HETATM    9  C   UNL     1     -10.685  15.246  66.561  1.00  0.00    -0.311 A  
HETATM   10  N   UNL     1      -9.523  15.845  66.764  1.00  0.00    -0.224 NA 
HETATM   11  C   UNL     1      -9.296  16.261  68.011  1.00  0.00    -0.214 A  
HETATM   12  N   UNL     1     -11.613  15.090  67.496  1.00  0.00    -0.333 NA 
HETATM   13  N   UNL     1     -10.168  16.130  69.012  1.00  0.00    -0.234 NA 
HETATM   14  C   UNL     1     -11.327  15.569  68.697  1.00  0.00    -0.344 A  
BRANCH  11  15
HETATM   15  C   UNL     1      -8.002  16.927  68.319  1.00  0.00    -0.211 A  
HETATM   16  C   UNL     1      -6.685  18.877  68.216  1.00  0.00    -0.239 A  
HETATM   17  F   UNL     1      -5.498  20.553  66.966  1.00  0.00    -0.169 F  
HETATM   18  N   UNL     1      -7.859  18.232  67.951  1.00  0.00    -0.244 NA 
HETATM   19  C   UNL     1      -5.617  18.234  68.840  1.00  0.00    -0.199 A  
HETATM   20  C   UNL     1      -6.530  20.345  67.837  1.00  0.00    -0.281 C  
HETATM   21  C   UNL     1      -6.960  16.250  68.963  1.00  0.00    -0.188 A  
HETATM   22  C   UNL     1      -5.760  16.907  69.219  1.00  0.00    -0.163 A  
HETATM   23  F   UNL     1      -7.628  20.898  67.250  1.00  0.00    -0.369 F  
HETATM   24  F   UNL     1      -6.252  21.131  68.919  1.00  0.00    -0.335 F  
ENDBRANCH  11  15
BRANCH  14  25
HETATM   25  N   UNL     1     -12.358  15.539  69.638  1.00  0.00    -0.565 NA 
HETATM   26  H   UNL     1     -12.949  16.370  69.657  1.00  0.00     0.000 HD 
BRANCH  25  27
HETATM   27  C   UNL     1     -12.704  14.547  70.559  1.00  0.00    -0.345 A  
HETATM   28  C   UNL     1     -12.828  12.213  71.182  1.00  0.00    -0.217 A  
HETATM   29  C   UNL     1     -12.390  13.210  70.302  1.00  0.00    -0.319 A  
HETATM   30  N   UNL     1     -13.530  12.514  72.313  1.00  0.00    -0.509 NA 
HETATM   31  C   UNL     1     -12.562  10.749  70.868  1.00  0.00    -0.401 C  
HETATM   32  C   UNL     1     -13.820  13.807  72.546  1.00  0.00    -0.521 A  
HETATM   33  F   UNL     1     -13.704  10.013  70.744  1.00  0.00    -0.414 F  
HETATM   34  F   UNL     1     -11.885  10.560  69.693  1.00  0.00    -0.281 F  
HETATM   35  F   UNL     1     -11.812  10.121  71.820  1.00  0.00    -0.436 F  
HETATM   36  C   UNL     1     -13.453  14.836  71.700  1.00  0.00    -0.468 A  
ENDBRANCH  25  27
ENDBRANCH  14  25
ENDBRANCH   7   9
ENDBRANCH   5   7
TORSDOF 5
ENDMDL
MODEL       11
REMARK 921   NORMALIZED FREE ENERGY PREDICTED BY IDOCK:   -8.66 KCAL/MOL
REMARK 922        TOTAL FREE ENERGY PREDICTED BY IDOCK:  -12.35 KCAL/MOL
REMARK 923 INTER-LIGAND FREE ENERGY PREDICTED BY IDOCK:  -11.59 KCAL/MOL
REMARK 924 INTRA-LIGAND FREE ENERGY PREDICTED BY IDOCK:   -0.76 KCAL/MOL
REMARK 927      BINDING AFFINITY PREDICTED BY RF-SCORE:    0.00 PKD
ROOT
HETATM    1  C   UNL     1      -6.531  19.663  65.029  1.00  0.00    -0.308 C  
HETATM    2  C   UNL     1      -7.499  19.550  66.211  1.00  0.00    -0.280 C  
HETATM    3  C   UNL     1      -6.836  20.098  67.480  1.00  0.00    -0.281 C  
HETATM    4  O   UNL     1      -8.652  20.358  65.930  1.00  0.00    -0.562 OA 
HETATM    5  C   UNL     1      -7.958  18.076  66.372  1.00  0.00    -0.262 C  
HETATM    6  H   UNL     1      -9.253  20.288  66.663  1.00  0.00     0.000 HD 
ENDROOT
BRANCH   5   7
HETATM    7  N   UNL     1      -8.773  17.930  67.569  1.00  0.00    -0.242 NA 
HETATM    8  H   UNL     1      -8.609  18.514  68.390  1.00  0.00     0.000 HD 
BRANCH   7   9
HETATM    9  C   UNL     1      -9.774  16.979  67.565  1.00  0.00    -0.251 A  
HETATM   10  N   UNL     1      -9.868  16.101  66.579  1.00  0.00    -0.252 NA 
HETATM   11  C   UNL     1     -10.879  15.236  66.668  1.00  0.00    -0.310 A  
HETATM   12  N   UNL     1     -10.584  17.003  68.616  1.00  0.00    -0.357 NA 
HETATM   13  N   UNL     1     -11.745  15.201  67.682  1.00  0.00    -0.290 NA 
HETATM   14  C   UNL     1     -11.535  16.083  68.649  1.00  0.00    -0.377 A  
BRANCH  11  15
HETATM   15  C   UNL     1     -11.059  14.230  65.586  1.00  0.00    -0.316 A  
HETATM   16  C   UNL     1     -10.329  12.231  64.577  1.00  0.00    -0.311 A  
HETATM   17  F   UNL     1      -8.672  10.951  63.396  1.00  0.00    -0.176 F  
HETATM   18  N   UNL     1     -10.197  13.173  65.555  1.00  0.00    -0.291 NA 
HETATM   19  C   UNL     1     -11.314  12.324  63.593  1.00  0.00    -0.547 A  
HETATM   20  C   UNL     1      -9.391  11.031  64.555  1.00  0.00    -0.198 C  
HETATM   21  C   UNL     1     -12.071  14.352  64.629  1.00  0.00    -0.485 A  
HETATM   22  C   UNL     1     -12.195  13.396  63.624  1.00  0.00    -0.480 A  
HETATM   23  F   UNL     1      -8.474  11.010  65.562  1.00  0.00    -0.178 F  
HETATM   24  F   UNL     1     -10.065   9.846  64.643  1.00  0.00    -0.388 F  
ENDBRANCH  11  15
BRANCH  14  25
HETATM   25  N   UNL     1     -12.290  16.014  69.822  1.00  0.00    -0.418 NA 
HETATM   26  H   UNL     1     -12.694  16.900  70.128  1.00  0.00     0.000 HD 
BRANCH  25  27
HETATM   27  C   UNL     1     -12.579  14.919  70.640  1.00  0.00    -0.363 A  
HETATM   28  C   UNL     1     -12.582  12.532  71.028  1.00  0.00    -0.256 A  
HETATM   29  C   UNL     1     -12.202  13.632  70.250  1.00  0.00    -0.423 A  
HETATM   30  N   UNL     1     -13.288  12.682  72.186  1.00  0.00    -0.523 NA 
HETATM   31  C   UNL     1     -12.246  11.121  70.567  1.00  0.00    -0.384 C  
HETATM   32  C   UNL     1     -13.639  13.930  72.547  1.00  0.00    -0.576 A  
HETATM   33  F   UNL     1     -13.352  10.345  70.375  1.00  0.00    -0.386 F  
HETATM   34  F   UNL     1     -11.572  11.085  69.378  1.00  0.00    -0.252 F  
HETATM   35  F   UNL     1     -11.458  10.440  71.449  1.00  0.00    -0.386 F  
HETATM   36  C   UNL     1     -13.331  15.056  71.807  1.00  0.00    -0.478 A  
ENDBRANCH  25  27
ENDBRANCH  14  25
ENDBRANCH   7   9
ENDBRANCH   5   7
TORSDOF 5
ENDMDL
MODEL       12
REMARK 921   NORMALIZED FREE ENERGY PREDICTED BY IDOCK:   -8.64 KCAL/MOL
REMARK 922        TOTAL FREE ENERGY PREDICTED BY IDOCK:  -12.33 KCAL/MOL
REMARK 923 INTER-LIGAND FREE ENERGY PREDICTED BY IDOCK:  -11.14 KCAL/MOL
REMARK 924 INTRA-LIGAND FREE ENERGY PREDICTED BY IDOCK:   -1.18 KCAL/MOL
REMARK 927      BINDING AFFINITY PREDICTED BY RF-SCORE:    0.00 PKD
ROOT
HETATM    1  C   UNL     1     -10.225  10.888  63.925  1.00  0.00    -0.418 C  
HETATM    2  C   UNL     1     -11.139  12.040  64.351  1.00  0.00    -0.342 C  
HETATM    3  C   UNL     1     -12.329  12.143  63.390  1.00  0.00    -0.648 C  
HETATM    4  O   UNL     1     -11.652  11.750  65.661  1.00  0.00    -0.274 OA 
HETATM    5  C   UNL     1     -10.321  13.358  64.424  1.00  0.00    -0.325 C  
HETATM    6  H   UNL     1     -12.219  12.466  65.926  1.00  0.00     0.000 HD 
ENDROOT
BRANCH   5   7
HETATM    7  N   UNL     1     -11.201  14.484  64.700  1.00  0.00    -0.527 NA 
HETATM    8  H   UNL     1     -11.825  14.850  63.980  1.00  0.00     0.000 HD 
BRANCH   7   9
HETATM    9  C   UNL     1     -11.169  15.043  65.962  1.00  0.00    -0.310 A  
HETATM   10  N   UNL     1     -11.600  14.364  67.013  1.00  0.00    -0.369 NA 
HETATM   11  C   UNL     1     -11.536  15.003  68.182  1.00  0.00    -0.339 A  
HETATM   12  N   UNL     1     -10.657  16.264  66.028  1.00  0.00    -0.308 NA 
HETATM   13  N   UNL     1     -11.048  16.235  68.333  1.00  0.00    -0.355 NA 
HETATM   14  C   UNL     1     -10.589  16.812  67.231  1.00  0.00    -0.275 A  
BRANCH  11  15
HETATM   15  C   UNL     1     -12.020  14.308  69.406  1.00  0.00    -0.337 A  
HETATM   16  C   UNL     1     -12.384  12.274  70.535  1.00  0.00    -0.264 A  
HETATM   17  F   UNL     1     -13.493  10.151  70.744  1.00  0.00    -0.444 F  
HETATM   18  N   UNL     1     -11.948  12.947  69.430  1.00  0.00    -0.295 NA 
HETATM   19  C   UNL     1     -12.917  12.939  71.639  1.00  0.00    -0.410 A  
HETATM   20  C   UNL     1     -12.278  10.755  70.583  1.00  0.00    -0.379 C  
HETATM   21  C   UNL     1     -12.531  15.015  70.499  1.00  0.00    -0.425 A  
HETATM   22  C   UNL     1     -12.988  14.325  71.619  1.00  0.00    -0.420 A  
HETATM   23  F   UNL     1     -11.728  10.190  69.472  1.00  0.00    -0.257 F  
HETATM   24  F   UNL     1     -11.518  10.322  71.632  1.00  0.00    -0.365 F  
ENDBRANCH  11  15
BRANCH  14  25
HETATM   25  N   UNL     1      -9.914  18.032  67.321  1.00  0.00    -0.309 NA 
HETATM   26  H   UNL     1     -10.512  18.858  67.297  1.00  0.00     0.000 HD 
BRANCH  25  27
HETATM   27  C   UNL     1      -8.547  18.295  67.439  1.00  0.00    -0.249 A  
HETATM   28  C   UNL     1      -6.691  19.246  68.664  1.00  0.00    -0.286 A  
HETATM   29  C   UNL     1      -8.045  18.896  68.596  1.00  0.00    -0.382 A  
HETATM   30  N   UNL     1      -5.831  18.985  67.638  1.00  0.00    -0.190 NA 
HETATM   31  C   UNL     1      -6.153  19.973  69.887  1.00  0.00    -0.355 C  
HETATM   32  C   UNL     1      -6.332  18.403  66.533  1.00  0.00    -0.184 A  
HETATM   33  F   UNL     1      -5.624  21.196  69.591  1.00  0.00    -0.412 F  
HETATM   34  F   UNL     1      -7.108  20.218  70.837  1.00  0.00    -0.203 F  
HETATM   35  F   UNL     1      -5.170  19.284  70.535  1.00  0.00    -0.181 F  
HETATM   36  C   UNL     1      -7.664  18.067  66.383  1.00  0.00    -0.304 A  
ENDBRANCH  25  27
ENDBRANCH  14  25
ENDBRANCH   7   9
ENDBRANCH   5   7
TORSDOF 5
ENDMDL
MODEL       13
REMARK 921   NORMALIZED FREE ENERGY PREDICTED BY IDOCK:   -8.63 KCAL/MOL
REMARK 922        TOTAL FREE ENERGY PREDICTED BY IDOCK:  -12.32 KCAL/MOL
REMARK 923 INTER-LIGAND FREE ENERGY PREDICTED BY IDOCK:  -11.36 KCAL/MOL
REMARK 924 INTRA-LIGAND FREE ENERGY PREDICTED BY IDOCK:   -0.96 KCAL/MOL
REMARK 927      BINDING AFFINITY PREDICTED BY RF-SCORE:    0.00 PKD
ROOT
HETATM    1  C   UNL     1     -11.256   8.054  72.874  1.00  0.00    -0.389 C  
HETATM    2  C   UNL     1     -12.266   8.717  71.932  1.00  0.00    -0.355 C  
HETATM    3  C   UNL     1     -12.840   7.673  70.967  1.00  0.00    -0.132 C  
HETATM    4  O   UNL     1     -13.349   9.233  72.722  1.00  0.00    -0.593 OA 
HETATM    5  C   UNL     1     -11.590   9.901  71.190  1.00  0.00    -0.389 C  
HETATM    6  H   UNL     1     -13.975   9.645  72.137  1.00  0.00     0.000 HD 
ENDROOT
BRANCH   5   7
HETATM    7  N   UNL     1     -12.497  10.457  70.196  1.00  0.00    -0.506 NA 
HETATM    8  H   UNL     1     -13.461  10.131  70.125  1.00  0.00     0.000 HD 
BRANCH   7   9
HETATM    9  C   UNL     1     -12.017  11.439  69.352  1.00  0.00    -0.339 A  
HETATM   10  N   UNL     1     -12.031  11.268  68.040  1.00  0.00    -0.641 NA 
HETATM   11  C   UNL     1     -11.533  12.274  67.319  1.00  0.00    -0.357 A  
HETATM   12  N   UNL     1     -11.588  12.542  69.952  1.00  0.00    -0.222 NA 
HETATM   13  N   UNL     1     -11.069  13.409  67.843  1.00  0.00    -0.256 NA 
HETATM   14  C   UNL     1     -11.150  13.510  69.163  1.00  0.00    -0.225 A  
BRANCH  11  15
HETATM   15  C   UNL     1     -11.498  12.145  65.837  1.00  0.00    -0.363 A  
HETATM   16  C   UNL     1     -10.349  11.388  63.925  1.00  0.00    -0.379 A  
HETATM   17  F   UNL     1      -8.465  11.462  62.433  1.00  0.00    -0.309 F  
HETATM   18  N   UNL     1     -10.418  11.524  65.282  1.00  0.00    -0.273 NA 
HETATM   19  C   UNL     1     -11.347  11.880  63.085  1.00  0.00    -0.232 A  
HETATM   20  C   UNL     1      -9.162  10.667  63.299  1.00  0.00    -0.278 C  
HETATM   21  C   UNL     1     -12.529  12.637  65.031  1.00  0.00    -0.556 A  
HETATM   22  C   UNL     1     -12.450  12.509  63.647  1.00  0.00    -0.570 A  
HETATM   23  F   UNL     1      -8.245  10.202  64.194  1.00  0.00    -0.143 F  
HETATM   24  F   UNL     1      -9.545   9.582  62.564  1.00  0.00    -0.241 F  
ENDBRANCH  11  15
BRANCH  14  25
HETATM   25  N   UNL     1     -10.840  14.723  69.782  1.00  0.00    -0.380 NA 
HETATM   26  H   UNL     1     -11.343  14.905  70.650  1.00  0.00     0.000 HD 
BRANCH  25  27
HETATM   27  C   UNL     1      -9.946  15.726  69.396  1.00  0.00    -0.274 A  
HETATM   28  C   UNL     1      -9.512  17.855  68.334  1.00  0.00    -0.303 A  
HETATM   29  C   UNL     1     -10.421  16.900  68.807  1.00  0.00    -0.343 A  
HETATM   30  N   UNL     1      -8.164  17.687  68.464  1.00  0.00    -0.288 NA 
HETATM   31  C   UNL     1     -10.018  19.098  67.617  1.00  0.00    -0.357 C  
HETATM   32  C   UNL     1      -7.726  16.552  69.038  1.00  0.00    -0.228 A  
HETATM   33  F   UNL     1      -9.555  19.202  66.338  1.00  0.00    -0.321 F  
HETATM   34  F   UNL     1     -11.381  19.145  67.510  1.00  0.00    -0.463 F  
HETATM   35  F   UNL     1      -9.666  20.260  68.241  1.00  0.00    -0.436 F  
HETATM   36  C   UNL     1      -8.565  15.551  69.490  1.00  0.00    -0.218 A  
ENDBRANCH  25  27
ENDBRANCH  14  25
ENDBRANCH   7   9
ENDBRANCH   5   7
TORSDOF 5
ENDMDL
MODEL       14
REMARK 921   NORMALIZED FREE ENERGY PREDICTED BY IDOCK:   -8.59 KCAL/MOL
REMARK 922        TOTAL FREE ENERGY PREDICTED BY IDOCK:  -12.27 KCAL/MOL
REMARK 923 INTER-LIGAND FREE ENERGY PREDICTED BY IDOCK:  -11.17 KCAL/MOL
REMARK 924 INTRA-LIGAND FREE ENERGY PREDICTED BY IDOCK:   -1.09 KCAL/MOL
REMARK 927      BINDING AFFINITY PREDICTED BY RF-SCORE:    0.00 PKD
ROOT
HETATM    1  C   UNL     1      -7.327  19.604  67.244  1.00  0.00    -0.259 C  
HETATM    2  C   UNL     1      -8.790  19.153  67.200  1.00  0.00    -0.288 C  
HETATM    3  C   UNL     1      -9.708  20.377  67.099  1.00  0.00    -0.601 C  
HETATM    4  O   UNL     1      -8.983  18.358  66.019  1.00  0.00    -0.497 OA 
HETATM    5  C   UNL     1      -9.106  18.277  68.441  1.00  0.00    -0.316 C  
HETATM    6  H   UNL     1      -9.891  18.078  65.992  1.00  0.00     0.000 HD 
ENDROOT
BRANCH   5   7
HETATM    7  N   UNL     1     -10.524  17.951  68.480  1.00  0.00    -0.344 NA 
HETATM    8  H   UNL     1     -11.227  18.678  68.617  1.00  0.00     0.000 HD 
BRANCH   7   9
HETATM    9  C   UNL     1     -10.894  16.629  68.328  1.00  0.00    -0.356 A  
HETATM   10  N   UNL     1     -11.416  15.952  69.339  1.00  0.00    -0.340 NA 
HETATM   11  C   UNL     1     -11.726  14.680  69.086  1.00  0.00    -0.309 A  
HETATM   12  N   UNL     1     -10.717  16.127  67.113  1.00  0.00    -0.295 NA 
HETATM   13  N   UNL     1     -11.566  14.095  67.898  1.00  0.00    -0.318 NA 
HETATM   14  C   UNL     1     -11.090  14.870  66.933  1.00  0.00    -0.337 A  
BRANCH  11  15
HETATM   15  C   UNL     1     -12.300  13.851  70.180  1.00  0.00    -0.334 A  
HETATM   16  C   UNL     1     -12.630  11.707  71.099  1.00  0.00    -0.335 A  
HETATM   17  F   UNL     1     -13.572   9.497  71.003  1.00  0.00    -0.396 F  
HETATM   18  N   UNL     1     -12.117  12.501  70.114  1.00  0.00    -0.332 NA 
HETATM   19  C   UNL     1     -13.352  12.236  72.168  1.00  0.00    -0.473 A  
HETATM   20  C   UNL     1     -12.402  10.202  71.048  1.00  0.00    -0.373 C  
HETATM   21  C   UNL     1     -13.003  14.423  71.246  1.00  0.00    -0.414 A  
HETATM   22  C   UNL     1     -13.537  13.609  72.241  1.00  0.00    -0.669 A  
HETATM   23  F   UNL     1     -11.670   9.775  69.981  1.00  0.00    -0.261 F  
HETATM   24  F   UNL     1     -11.747   9.741  72.155  1.00  0.00    -0.383 F  
ENDBRANCH  11  15
BRANCH  14  25
HETATM   25  N   UNL     1     -11.043  14.390  65.623  1.00  0.00    -0.312 NA 
HETATM   26  H   UNL     1     -11.242  15.083  64.902  1.00  0.00     0.000 HD 
BRANCH  25  27
HETATM   27  C   UNL     1     -10.765  13.106  65.146  1.00  0.00    -0.315 A  
HETATM   28  C   UNL     1      -9.881  10.882  65.499  1.00  0.00    -0.246 A  
HETATM   29  C   UNL     1     -10.249  12.134  66.007  1.00  0.00    -0.265 A  
HETATM   30  N   UNL     1     -10.045  10.567  64.181  1.00  0.00    -0.328 NA 
HETATM   31  C   UNL     1      -9.243   9.847  66.413  1.00  0.00    -0.158 C  
HETATM   32  C   UNL     1     -10.546  11.515  63.369  1.00  0.00    -0.395 A  
HETATM   33  F   UNL     1      -7.992   9.479  66.011  1.00  0.00    -0.103 F  
HETATM   34  F   UNL     1      -9.092  10.280  67.702  1.00  0.00    -0.135 F  
HETATM   35  F   UNL     1      -9.964   8.692  66.504  1.00  0.00    -0.269 F  
HETATM   36  C   UNL     1     -10.893  12.783  63.795  1.00  0.00    -0.416 A  
ENDBRANCH  25  27
ENDBRANCH  14  25
ENDBRANCH   7   9
ENDBRANCH   5   7
TORSDOF 5
ENDMDL
MODEL       15
REMARK 921   NORMALIZED FREE ENERGY PREDICTED BY IDOCK:   -8.56 KCAL/MOL
REMARK 922        TOTAL FREE ENERGY PREDICTED BY IDOCK:  -12.22 KCAL/MOL
REMARK 923 INTER-LIGAND FREE ENERGY PREDICTED BY IDOCK:  -11.35 KCAL/MOL
REMARK 924 INTRA-LIGAND FREE ENERGY PREDICTED BY IDOCK:   -0.87 KCAL/MOL
REMARK 927      BINDING AFFINITY PREDICTED BY RF-SCORE:    0.00 PKD
ROOT
HETATM    1  C   UNL     1      -9.833   6.588  74.393  1.00  0.00    -0.355 C  
HETATM    2  C   UNL     1     -10.663   6.713  73.112  1.00  0.00    -0.278 C  
HETATM    3  C   UNL     1     -11.238   5.345  72.728  1.00  0.00    -0.358 C  
HETATM    4  O   UNL     1     -11.764   7.598  73.371  1.00  0.00    -0.615 OA 
HETATM    5  C   UNL     1      -9.793   7.327  71.983  1.00  0.00    -0.161 C  
HETATM    6  H   UNL     1     -12.279   7.676  72.575  1.00  0.00     0.000 HD 
ENDROOT
BRANCH   5   7
HETATM    7  N   UNL     1     -10.527   7.331  70.726  1.00  0.00    -0.211 NA 
HETATM    8  H   UNL     1     -10.766   6.458  70.255  1.00  0.00     0.000 HD 
BRANCH   7   9
HETATM    9  C   UNL     1     -10.891   8.549  70.186  1.00  0.00    -0.233 A  
HETATM   10  N   UNL     1     -10.647   8.826  68.915  1.00  0.00    -0.194 NA 
HETATM   11  C   UNL     1     -11.028  10.035  68.502  1.00  0.00    -0.209 A  
HETATM   12  N   UNL     1     -11.514   9.374  71.018  1.00  0.00    -0.305 NA 
HETATM   13  N   UNL     1     -11.647  10.928  69.276  1.00  0.00    -0.292 NA 
HETATM   14  C   UNL     1     -11.899  10.537  70.518  1.00  0.00    -0.347 A  
BRANCH  11  15
HETATM   15  C   UNL     1     -10.770  10.424  67.089  1.00  0.00    -0.256 A  
HETATM   16  C   UNL     1     -11.270  11.858  65.289  1.00  0.00    -0.295 A  
HETATM   17  F   UNL     1     -12.796  12.716  63.641  1.00  0.00    -0.420 F  
HETATM   18  N   UNL     1     -11.478  11.473  66.582  1.00  0.00    -0.444 NA 
HETATM   19  C   UNL     1     -10.361  11.199  64.462  1.00  0.00    -0.400 A  
HETATM   20  C   UNL     1     -12.035  13.049  64.725  1.00  0.00    -0.395 C  
HETATM   21  C   UNL     1      -9.835   9.746  66.298  1.00  0.00    -0.315 A  
HETATM   22  C   UNL     1      -9.635  10.133  64.976  1.00  0.00    -0.362 A  
HETATM   23  F   UNL     1     -12.886  13.645  65.607  1.00  0.00    -0.500 F  
HETATM   24  F   UNL     1     -11.201  14.039  64.289  1.00  0.00    -0.370 F  
ENDBRANCH  11  15
BRANCH  14  25
HETATM   25  N   UNL     1     -12.684  11.340  71.348  1.00  0.00    -0.406 NA 
HETATM   26  H   UNL     1     -13.169  10.844  72.095  1.00  0.00     0.000 HD 
BRANCH  25  27
HETATM   27  C   UNL     1     -12.906  12.720  71.314  1.00  0.00    -0.262 A  
HETATM   28  C   UNL     1     -12.350  14.914  70.463  1.00  0.00    -0.342 A  
HETATM   29  C   UNL     1     -12.193  13.524  70.421  1.00  0.00    -0.426 A  
HETATM   30  N   UNL     1     -13.214  15.512  71.334  1.00  0.00    -0.495 NA 
HETATM   31  C   UNL     1     -11.517  15.803  69.551  1.00  0.00    -0.353 C  
HETATM   32  C   UNL     1     -13.895  14.721  72.182  1.00  0.00    -0.475 A  
HETATM   33  F   UNL     1     -10.729  16.680  70.237  1.00  0.00    -0.287 F  
HETATM   34  F   UNL     1     -10.658  15.103  68.748  1.00  0.00    -0.214 F  
HETATM   35  F   UNL     1     -12.270  16.559  68.701  1.00  0.00    -0.071 F  
HETATM   36  C   UNL     1     -13.759  13.346  72.222  1.00  0.00    -0.705 A  
ENDBRANCH  25  27
ENDBRANCH  14  25
ENDBRANCH   7   9
ENDBRANCH   5   7
TORSDOF 5
ENDMDL
MODEL       16
REMARK 921   NORMALIZED FREE ENERGY PREDICTED BY IDOCK:   -8.55 KCAL/MOL
REMARK 922        TOTAL FREE ENERGY PREDICTED BY IDOCK:  -12.21 KCAL/MOL
REMARK 923 INTER-LIGAND FREE ENERGY PREDICTED BY IDOCK:  -11.07 KCAL/MOL
REMARK 924 INTRA-LIGAND FREE ENERGY PREDICTED BY IDOCK:   -1.14 KCAL/MOL
REMARK 927      BINDING AFFINITY PREDICTED BY RF-SCORE:    0.00 PKD
ROOT
HETATM    1  C   UNL     1      -8.507   9.012  63.686  1.00  0.00    -0.173 C  
HETATM    2  C   UNL     1      -9.120  10.357  63.283  1.00  0.00    -0.263 C  
HETATM    3  C   UNL     1      -8.078  11.202  62.542  1.00  0.00    -0.091 C  
HETATM    4  O   UNL     1     -10.209  10.105  62.381  1.00  0.00    -0.587 OA 
HETATM    5  C   UNL     1      -9.679  11.075  64.541  1.00  0.00    -0.273 C  
HETATM    6  H   UNL     1     -10.589  10.939  62.131  1.00  0.00     0.000 HD 
ENDROOT
BRANCH   5   7
HETATM    7  N   UNL     1     -10.146  12.409  64.194  1.00  0.00    -0.514 NA 
HETATM    8  H   UNL     1     -10.191  12.713  63.220  1.00  0.00     0.000 HD 
BRANCH   7   9
HETATM    9  C   UNL     1     -10.528  13.253  65.218  1.00  0.00    -0.313 A  
HETATM   10  N   UNL     1     -10.900  12.767  66.391  1.00  0.00    -0.267 NA 
HETATM   11  C   UNL     1     -11.261  13.671  67.304  1.00  0.00    -0.309 A  
HETATM   12  N   UNL     1     -10.460  14.549  64.939  1.00  0.00    -0.431 NA 
HETATM   13  N   UNL     1     -11.235  14.989  67.101  1.00  0.00    -0.337 NA 
HETATM   14  C   UNL     1     -10.794  15.380  65.914  1.00  0.00    -0.325 A  
BRANCH  11  15
HETATM   15  C   UNL     1     -11.709  13.197  68.641  1.00  0.00    -0.326 A  
HETATM   16  C   UNL     1     -12.527  13.744  70.782  1.00  0.00    -0.370 A  
HETATM   17  F   UNL     1     -12.268  14.787  72.932  1.00  0.00    -0.393 F  
HETATM   18  N   UNL     1     -12.111  14.138  69.543  1.00  0.00    -0.333 NA 
HETATM   19  C   UNL     1     -12.541  12.401  71.160  1.00  0.00    -0.349 A  
HETATM   20  C   UNL     1     -13.008  14.786  71.783  1.00  0.00    -0.332 C  
HETATM   21  C   UNL     1     -11.724  11.839  68.975  1.00  0.00    -0.390 A  
HETATM   22  C   UNL     1     -12.137  11.440  70.244  1.00  0.00    -0.459 A  
HETATM   23  F   UNL     1     -12.980  16.069  71.324  1.00  0.00    -0.518 F  
HETATM   24  F   UNL     1     -14.295  14.564  72.183  1.00  0.00    -0.490 F  
ENDBRANCH  11  15
BRANCH  14  25
HETATM   25  N   UNL     1     -10.579  16.739  65.671  1.00  0.00    -0.463 NA 
HETATM   26  H   UNL     1     -10.863  17.062  64.747  1.00  0.00     0.000 HD 
BRANCH  25  27
HETATM   27  C   UNL     1     -10.034  17.723  66.499  1.00  0.00    -0.346 A  
HETATM   28  C   UNL     1      -8.201  18.562  67.836  1.00  0.00    -0.261 A  
HETATM   29  C   UNL     1      -8.708  17.625  66.928  1.00  0.00    -0.262 A  
HETATM   30  N   UNL     1      -8.960  19.600  68.294  1.00  0.00    -0.334 NA 
HETATM   31  C   UNL     1      -6.785  18.416  68.372  1.00  0.00    -0.230 C  
HETATM   32  C   UNL     1     -10.234  19.680  67.866  1.00  0.00    -0.448 A  
HETATM   33  F   UNL     1      -6.739  18.277  69.729  1.00  0.00    -0.204 F  
HETATM   34  F   UNL     1      -6.128  17.322  67.878  1.00  0.00    -0.130 F  
HETATM   35  F   UNL     1      -5.984  19.481  68.076  1.00  0.00    -0.207 F  
HETATM   36  C   UNL     1     -10.809  18.768  67.002  1.00  0.00    -0.343 A  
ENDBRANCH  25  27
ENDBRANCH  14  25
ENDBRANCH   7   9
ENDBRANCH   5   7
TORSDOF 5
ENDMDL
MODEL       17
REMARK 921   NORMALIZED FREE ENERGY PREDICTED BY IDOCK:   -8.51 KCAL/MOL
REMARK 922        TOTAL FREE ENERGY PREDICTED BY IDOCK:  -12.16 KCAL/MOL
REMARK 923 INTER-LIGAND FREE ENERGY PREDICTED BY IDOCK:  -11.27 KCAL/MOL
REMARK 924 INTRA-LIGAND FREE ENERGY PREDICTED BY IDOCK:   -0.89 KCAL/MOL
REMARK 927      BINDING AFFINITY PREDICTED BY RF-SCORE:    0.00 PKD
ROOT
HETATM    1  C   UNL     1     -12.528  15.401  74.351  1.00  0.00    -0.717 C  
HETATM    2  C   UNL     1     -12.920  15.143  72.893  1.00  0.00    -0.462 C  
HETATM    3  C   UNL     1     -13.228  13.654  72.694  1.00  0.00    -0.533 C  
HETATM    4  O   UNL     1     -14.117  15.884  72.609  1.00  0.00    -0.544 OA 
HETATM    5  C   UNL     1     -11.794  15.645  71.951  1.00  0.00    -0.452 C  
HETATM    6  H   UNL     1     -14.360  15.723  71.704  1.00  0.00     0.000 HD 
ENDROOT
BRANCH   5   7
HETATM    7  N   UNL     1     -12.093  15.288  70.572  1.00  0.00    -0.324 NA 
HETATM    8  H   UNL     1     -13.051  15.309  70.220  1.00  0.00     0.000 HD 
BRANCH   7   9
HETATM    9  C   UNL     1     -11.045  14.919  69.752  1.00  0.00    -0.274 A  
HETATM   10  N   UNL     1     -11.189  13.942  68.870  1.00  0.00    -0.258 NA 
HETATM   11  C   UNL     1     -10.110  13.660  68.138  1.00  0.00    -0.245 A  
HETATM   12  N   UNL     1      -9.934  15.628  69.899  1.00  0.00    -0.278 NA 
HETATM   13  N   UNL     1      -8.951  14.313  68.233  1.00  0.00    -0.182 NA 
HETATM   14  C   UNL     1      -8.923  15.313  69.104  1.00  0.00    -0.233 A  
BRANCH  11  15
HETATM   15  C   UNL     1     -10.191  12.560  67.139  1.00  0.00    -0.217 A  
HETATM   16  C   UNL     1     -10.805  11.873  64.971  1.00  0.00    -0.300 A  
HETATM   17  F   UNL     1     -12.468  11.468  63.282  1.00  0.00    -0.608 F  
HETATM   18  N   UNL     1     -10.713  12.856  65.914  1.00  0.00    -0.268 NA 
HETATM   19  C   UNL     1     -10.393  10.566  65.228  1.00  0.00    -0.300 A  
HETATM   20  C   UNL     1     -11.358  12.203  63.591  1.00  0.00    -0.464 C  
HETATM   21  C   UNL     1      -9.750  11.265  67.431  1.00  0.00    -0.190 A  
HETATM   22  C   UNL     1      -9.857  10.262  66.472  1.00  0.00    -0.265 A  
HETATM   23  F   UNL     1     -11.717  13.506  63.420  1.00  0.00    -0.419 F  
HETATM   24  F   UNL     1     -10.460  11.934  62.596  1.00  0.00    -0.201 F  
ENDBRANCH  11  15
BRANCH  14  25
HETATM   25  N   UNL     1      -7.809  16.153  69.154  1.00  0.00    -0.231 NA 
HETATM   26  H   UNL     1      -6.964  15.726  69.534  1.00  0.00     0.000 HD 
BRANCH  25  27
HETATM   27  C   UNL     1      -7.672  17.488  68.763  1.00  0.00    -0.252 A  
HETATM   28  C   UNL     1      -8.562  19.458  67.680  1.00  0.00    -0.305 A  
HETATM   29  C   UNL     1      -8.740  18.154  68.157  1.00  0.00    -0.285 A  
HETATM   30  N   UNL     1      -7.376  20.118  67.822  1.00  0.00    -0.291 NA 
HETATM   31  C   UNL     1      -9.694  20.162  66.945  1.00  0.00    -0.445 C  
HETATM   32  C   UNL     1      -6.361  19.461  68.412  1.00  0.00    -0.241 A  
HETATM   33  F   UNL     1      -9.364  20.512  65.669  1.00  0.00    -0.248 F  
HETATM   34  F   UNL     1     -10.822  19.397  66.827  1.00  0.00    -0.512 F  
HETATM   35  F   UNL     1     -10.101  21.311  67.558  1.00  0.00    -0.491 F  
HETATM   36  C   UNL     1      -6.455  18.160  68.870  1.00  0.00    -0.230 A  
ENDBRANCH  25  27
ENDBRANCH  14  25
ENDBRANCH   7   9
ENDBRANCH   5   7
TORSDOF 5
ENDMDL
MODEL       18
REMARK 921   NORMALIZED FREE ENERGY PREDICTED BY IDOCK:   -8.51 KCAL/MOL
REMARK 922        TOTAL FREE ENERGY PREDICTED BY IDOCK:  -12.15 KCAL/MOL
REMARK 923 INTER-LIGAND FREE ENERGY PREDICTED BY IDOCK:  -11.04 KCAL/MOL
REMARK 924 INTRA-LIGAND FREE ENERGY PREDICTED BY IDOCK:   -1.11 KCAL/MOL
REMARK 927      BINDING AFFINITY PREDICTED BY RF-SCORE:    0.00 PKD
ROOT
HETATM    1  C   UNL     1      -9.926   8.796  66.590  1.00  0.00    -0.355 C  
HETATM    2  C   UNL     1      -9.931  10.285  66.234  1.00  0.00    -0.235 C  
HETATM    3  C   UNL     1      -9.752  10.459  64.721  1.00  0.00    -0.383 C  
HETATM    4  O   UNL     1     -11.209  10.833  66.594  1.00  0.00    -0.173 OA 
HETATM    5  C   UNL     1      -8.833  11.022  67.048  1.00  0.00    -0.143 C  
HETATM    6  H   UNL     1     -11.212  11.757  66.372  1.00  0.00     0.000 HD 
ENDROOT
BRANCH   5   7
HETATM    7  N   UNL     1      -8.738  12.411  66.624  1.00  0.00    -0.356 NA 
HETATM    8  H   UNL     1      -8.028  12.708  65.954  1.00  0.00     0.000 HD 
BRANCH   7   9
HETATM    9  C   UNL     1      -9.635  13.318  67.154  1.00  0.00    -0.240 A  
HETATM   10  N   UNL     1     -10.237  13.078  68.307  1.00  0.00    -0.241 NA 
HETATM   11  C   UNL     1     -11.093  14.014  68.720  1.00  0.00    -0.264 A  
HETATM   12  N   UNL     1      -9.806  14.426  66.444  1.00  0.00    -0.283 NA 
HETATM   13  N   UNL     1     -11.334  15.148  68.061  1.00  0.00    -0.326 NA 
HETATM   14  C   UNL     1     -10.640  15.324  66.944  1.00  0.00    -0.304 A  
BRANCH  11  15
HETATM   15  C   UNL     1     -11.822  13.804  70.000  1.00  0.00    -0.307 A  
HETATM   16  C   UNL     1     -12.470  14.667  72.094  1.00  0.00    -0.316 A  
HETATM   17  F   UNL     1     -11.939  15.465  74.298  1.00  0.00    -0.593 F  
HETATM   18  N   UNL     1     -11.814  14.822  70.907  1.00  0.00    -0.308 NA 
HETATM   19  C   UNL     1     -13.140  13.486  72.415  1.00  0.00    -0.494 A  
HETATM   20  C   UNL     1     -12.493  15.812  73.098  1.00  0.00    -0.487 C  
HETATM   21  C   UNL     1     -12.496  12.609  70.276  1.00  0.00    -0.163 A  
HETATM   22  C   UNL     1     -13.153  12.449  71.493  1.00  0.00    -0.362 A  
HETATM   23  F   UNL     1     -11.832  16.933  72.695  1.00  0.00    -0.566 F  
HETATM   24  F   UNL     1     -13.764  16.217  73.391  1.00  0.00    -0.659 F  
ENDBRANCH  11  15
BRANCH  14  25
HETATM   25  N   UNL     1     -10.706  16.549  66.277  1.00  0.00    -0.210 NA 
HETATM   26  H   UNL     1     -11.331  16.568  65.471  1.00  0.00     0.000 HD 
BRANCH  25  27
HETATM   27  C   UNL     1     -10.049  17.753  66.543  1.00  0.00    -0.358 A  
HETATM   28  C   UNL     1      -8.366  19.003  67.749  1.00  0.00    -0.288 A  
HETATM   29  C   UNL     1      -8.955  17.779  67.412  1.00  0.00    -0.240 A  
HETATM   30  N   UNL     1      -8.810  20.181  67.223  1.00  0.00    -0.342 NA 
HETATM   31  C   UNL     1      -7.227  19.048  68.757  1.00  0.00    -0.323 C  
HETATM   32  C   UNL     1      -9.862  20.136  66.385  1.00  0.00    -0.435 A  
HETATM   33  F   UNL     1      -7.517  19.804  69.856  1.00  0.00    -0.296 F  
HETATM   34  F   UNL     1      -6.888  17.817  69.249  1.00  0.00    -0.242 F  
HETATM   35  F   UNL     1      -6.072  19.561  68.243  1.00  0.00    -0.222 F  
HETATM   36  C   UNL     1     -10.515  18.968  66.041  1.00  0.00    -0.530 A  
ENDBRANCH  25  27
ENDBRANCH  14  25
ENDBRANCH   7   9
ENDBRANCH   5   7
TORSDOF 5
ENDMDL
MODEL       19
REMARK 921   NORMALIZED FREE ENERGY PREDICTED BY IDOCK:   -8.47 KCAL/MOL
REMARK 922        TOTAL FREE ENERGY PREDICTED BY IDOCK:  -12.10 KCAL/MOL
REMARK 923 INTER-LIGAND FREE ENERGY PREDICTED BY IDOCK:  -10.83 KCAL/MOL
REMARK 924 INTRA-LIGAND FREE ENERGY PREDICTED BY IDOCK:   -1.28 KCAL/MOL
REMARK 927      BINDING AFFINITY PREDICTED BY RF-SCORE:    0.00 PKD
ROOT
HETATM    1  C   UNL     1     -12.161  14.896  63.741  1.00  0.00     0.216 C  
HETATM    2  C   UNL     1     -11.524  13.864  64.677  1.00  0.00    -0.377 C  
HETATM    3  C   UNL     1     -10.727  12.842  63.858  1.00  0.00    -0.443 C  
HETATM    4  O   UNL     1     -10.606  14.548  65.545  1.00  0.00    -0.310 OA 
HETATM    5  C   UNL     1     -12.623  13.199  65.548  1.00  0.00    -0.408 C  
HETATM    6  H   UNL     1     -10.211  13.908  66.126  1.00  0.00     0.000 HD 
ENDROOT
BRANCH   5   7
HETATM    7  N   UNL     1     -12.051  12.125  66.348  1.00  0.00    -0.587 NA 
HETATM    8  H   UNL     1     -11.704  11.272  65.909  1.00  0.00     0.000 HD 
BRANCH   7   9
HETATM    9  C   UNL     1     -11.990  12.293  67.717  1.00  0.00    -0.159 A  
HETATM   10  N   UNL     1     -12.084  11.254  68.531  1.00  0.00    -0.591 NA 
HETATM   11  C   UNL     1     -12.025  11.531  69.834  1.00  0.00    -0.351 A  
HETATM   12  N   UNL     1     -11.802  13.541  68.127  1.00  0.00    -0.358 NA 
HETATM   13  N   UNL     1     -11.853  12.757  70.330  1.00  0.00    -0.271 NA 
HETATM   14  C   UNL     1     -11.712  13.726  69.435  1.00  0.00    -0.325 A  
BRANCH  11  15
HETATM   15  C   UNL     1     -12.143  10.414  70.810  1.00  0.00    -0.364 A  
HETATM   16  C   UNL     1     -11.067   8.727  72.053  1.00  0.00    -0.371 A  
HETATM   17  F   UNL     1      -9.815   6.678  72.181  1.00  0.00    -0.160 F  
HETATM   18  N   UNL     1     -10.999   9.759  71.162  1.00  0.00    -0.352 NA 
HETATM   19  C   UNL     1     -12.277   8.310  72.606  1.00  0.00    -0.293 A  
HETATM   20  C   UNL     1      -9.790   8.012  72.476  1.00  0.00    -0.263 C  
HETATM   21  C   UNL     1     -13.375  10.038  71.355  1.00  0.00    -0.432 A  
HETATM   22  C   UNL     1     -13.442   8.977  72.253  1.00  0.00    -0.529 A  
HETATM   23  F   UNL     1      -8.652   8.496  71.903  1.00  0.00    -0.178 F  
HETATM   24  F   UNL     1      -9.582   8.079  73.825  1.00  0.00    -0.336 F  
ENDBRANCH  11  15
BRANCH  14  25
HETATM   25  N   UNL     1     -11.366  15.011  69.858  1.00  0.00    -0.263 NA 
HETATM   26  H   UNL     1     -11.933  15.381  70.621  1.00  0.00     0.000 HD 
BRANCH  25  27
HETATM   27  C   UNL     1     -10.363  15.868  69.398  1.00  0.00    -0.265 A  
HETATM   28  C   UNL     1      -9.692  17.869  68.216  1.00  0.00    -0.327 A  
HETATM   29  C   UNL     1     -10.701  17.065  68.761  1.00  0.00    -0.313 A  
HETATM   30  N   UNL     1      -8.374  17.533  68.320  1.00  0.00    -0.256 NA 
HETATM   31  C   UNL     1     -10.056  19.132  67.449  1.00  0.00    -0.379 C  
HETATM   32  C   UNL     1      -8.068  16.379  68.940  1.00  0.00    -0.236 A  
HETATM   33  F   UNL     1      -9.624  19.113  66.155  1.00  0.00    -0.340 F  
HETATM   34  F   UNL     1     -11.404  19.352  67.374  1.00  0.00    -0.531 F  
HETATM   35  F   UNL     1      -9.536  20.266  68.002  1.00  0.00    -0.430 F  
HETATM   36  C   UNL     1      -9.015  15.519  69.465  1.00  0.00    -0.244 A  
ENDBRANCH  25  27
ENDBRANCH  14  25
ENDBRANCH   7   9
ENDBRANCH   5   7
TORSDOF 5
ENDMDL
MODEL       20
REMARK 921   NORMALIZED FREE ENERGY PREDICTED BY IDOCK:   -8.43 KCAL/MOL
REMARK 922        TOTAL FREE ENERGY PREDICTED BY IDOCK:  -12.05 KCAL/MOL
REMARK 923 INTER-LIGAND FREE ENERGY PREDICTED BY IDOCK:  -11.13 KCAL/MOL
REMARK 924 INTRA-LIGAND FREE ENERGY PREDICTED BY IDOCK:   -0.92 KCAL/MOL
REMARK 927      BINDING AFFINITY PREDICTED BY RF-SCORE:    0.00 PKD
ROOT
HETATM    1  C   UNL     1     -12.201  15.017  73.770  1.00  0.00    -0.628 C  
HETATM    2  C   UNL     1     -12.939  14.772  72.450  1.00  0.00    -0.359 C  
HETATM    3  C   UNL     1     -13.495  13.344  72.422  1.00  0.00    -0.685 C  
HETATM    4  O   UNL     1     -14.049  15.680  72.377  1.00  0.00    -0.543 OA 
HETATM    5  C   UNL     1     -11.988  15.061  71.257  1.00  0.00    -0.335 C  
HETATM    6  H   UNL     1     -14.507  15.528  71.558  1.00  0.00     0.000 HD 
ENDROOT
BRANCH   5   7
HETATM    7  N   UNL     1     -12.632  14.707  70.001  1.00  0.00    -0.525 NA 
HETATM    8  H   UNL     1     -13.502  14.172  69.990  1.00  0.00     0.000 HD 
BRANCH   7   9
HETATM    9  C   UNL     1     -12.036  15.114  68.824  1.00  0.00    -0.250 A  
HETATM   10  N   UNL     1     -11.264  16.188  68.794  1.00  0.00    -0.352 NA 
HETATM   11  C   UNL     1     -10.749  16.499  67.604  1.00  0.00    -0.311 A  
HETATM   12  N   UNL     1     -12.272  14.341  67.772  1.00  0.00    -0.263 NA 
HETATM   13  N   UNL     1     -10.947  15.784  66.495  1.00  0.00    -0.230 NA 
HETATM   14  C   UNL     1     -11.688  14.694  66.637  1.00  0.00    -0.333 A  
BRANCH  11  15
HETATM   15  C   UNL     1      -9.885  17.705  67.490  1.00  0.00    -0.299 A  
HETATM   16  C   UNL     1      -7.924  18.828  68.155  1.00  0.00    -0.290 A  
HETATM   17  F   UNL     1      -6.580  19.903  69.833  1.00  0.00    -0.352 F  
HETATM   18  N   UNL     1      -8.742  17.737  68.232  1.00  0.00    -0.271 NA 
HETATM   19  C   UNL     1      -8.232  19.922  67.348  1.00  0.00    -0.356 A  
HETATM   20  C   UNL     1      -6.629  18.856  68.956  1.00  0.00    -0.281 C  
HETATM   21  C   UNL     1     -10.222  18.775  66.654  1.00  0.00    -0.453 A  
HETATM   22  C   UNL     1      -9.393  19.892  66.588  1.00  0.00    -0.500 A  
HETATM   23  F   UNL     1      -6.398  17.739  69.701  1.00  0.00    -0.233 F  
HETATM   24  F   UNL     1      -5.530  19.003  68.158  1.00  0.00    -0.178 F  
ENDBRANCH  11  15
BRANCH  14  25
HETATM   25  N   UNL     1     -11.814  13.801  65.571  1.00  0.00    -0.346 NA 
HETATM   26  H   UNL     1     -12.545  14.032  64.899  1.00  0.00     0.000 HD 
BRANCH  25  27
HETATM   27  C   UNL     1     -11.091  12.640  65.282  1.00  0.00    -0.295 A  
HETATM   28  C   UNL     1     -10.243  10.476  65.950  1.00  0.00    -0.245 A  
HETATM   29  C   UNL     1     -11.049  11.592  66.206  1.00  0.00    -0.345 A  
HETATM   30  N   UNL     1      -9.518  10.363  64.800  1.00  0.00    -0.246 NA 
HETATM   31  C   UNL     1     -10.126   9.368  66.987  1.00  0.00    -0.240 C  
HETATM   32  C   UNL     1      -9.575  11.380  63.921  1.00  0.00    -0.216 A  
HETATM   33  F   UNL     1      -8.848   9.182  67.427  1.00  0.00    -0.117 F  
HETATM   34  F   UNL     1     -10.863   9.601  68.116  1.00  0.00    -0.260 F  
HETATM   35  F   UNL     1     -10.546   8.154  66.527  1.00  0.00    -0.380 F  
HETATM   36  C   UNL     1     -10.317  12.528  64.127  1.00  0.00    -0.416 A  
ENDBRANCH  25  27
ENDBRANCH  14  25
ENDBRANCH   7   9
ENDBRANCH   5   7
TORSDOF 5
ENDMDL
MODEL       21
REMARK 921   NORMALIZED FREE ENERGY PREDICTED BY IDOCK:   -8.42 KCAL/MOL
REMARK 922        TOTAL FREE ENERGY PREDICTED BY IDOCK:  -12.05 KCAL/MOL
REMARK 923 INTER-LIGAND FREE ENERGY PREDICTED BY IDOCK:  -11.18 KCAL/MOL
REMARK 924 INTRA-LIGAND FREE ENERGY PREDICTED BY IDOCK:   -0.86 KCAL/MOL
REMARK 927      BINDING AFFINITY PREDICTED BY RF-SCORE:    0.00 PKD
ROOT
HETATM    1  C   UNL     1     -12.824  11.666  63.590  1.00  0.00    -0.176 C  
HETATM    2  C   UNL     1     -12.181  13.016  63.924  1.00  0.00    -0.437 C  
HETATM    3  C   UNL     1     -10.660  12.855  64.030  1.00  0.00    -0.418 C  
HETATM    4  O   UNL     1     -12.455  13.925  62.846  1.00  0.00    -1.034 OA 
HETATM    5  C   UNL     1     -12.809  13.588  65.223  1.00  0.00    -0.353 C  
HETATM    6  H   UNL     1     -12.057  14.763  63.053  1.00  0.00     0.000 HD 
ENDROOT
BRANCH   5   7
HETATM    7  N   UNL     1     -12.118  14.805  65.624  1.00  0.00    -0.187 NA 
HETATM    8  H   UNL     1     -12.325  15.698  65.176  1.00  0.00     0.000 HD 
BRANCH   7   9
HETATM    9  C   UNL     1     -11.173  14.718  66.627  1.00  0.00    -0.346 A  
HETATM   10  N   UNL     1     -10.107  15.503  66.621  1.00  0.00    -0.259 NA 
HETATM   11  C   UNL     1      -9.253  15.327  67.630  1.00  0.00    -0.187 A  
HETATM   12  N   UNL     1     -11.437  13.833  67.579  1.00  0.00    -0.312 NA 
HETATM   13  N   UNL     1      -9.435  14.450  68.619  1.00  0.00    -0.204 NA 
HETATM   14  C   UNL     1     -10.560  13.750  68.568  1.00  0.00    -0.253 A  
BRANCH  11  15
HETATM   15  C   UNL     1      -8.021  16.161  67.680  1.00  0.00    -0.145 A  
HETATM   16  C   UNL     1      -7.019  18.208  68.273  1.00  0.00    -0.233 A  
HETATM   17  F   UNL     1      -6.779  20.587  68.019  1.00  0.00    -0.292 F  
HETATM   18  N   UNL     1      -8.126  17.412  68.211  1.00  0.00    -0.240 NA 
HETATM   19  C   UNL     1      -5.780  17.784  67.792  1.00  0.00    -0.146 A  
HETATM   20  C   UNL     1      -7.122  19.595  68.894  1.00  0.00    -0.353 C  
HETATM   21  C   UNL     1      -6.794  15.690  67.203  1.00  0.00    -0.127 A  
HETATM   22  C   UNL     1      -5.669  16.509  67.254  1.00  0.00    -0.180 A  
HETATM   23  F   UNL     1      -8.362  19.920  69.355  1.00  0.00    -0.255 F  
HETATM   24  F   UNL     1      -6.280  19.748  69.960  1.00  0.00    -0.303 F  
ENDBRANCH  11  15
BRANCH  14  25
HETATM   25  N   UNL     1     -10.912  12.930  69.642  1.00  0.00    -0.443 NA 
HETATM   26  H   UNL     1     -10.344  12.090  69.747  1.00  0.00     0.000 HD 
BRANCH  25  27
HETATM   27  C   UNL     1     -11.922  13.083  70.596  1.00  0.00    -0.138 A  
HETATM   28  C   UNL     1     -13.013  14.403  72.303  1.00  0.00    -0.374 A  
HETATM   29  C   UNL     1     -12.063  14.292  71.281  1.00  0.00    -0.391 A  
HETATM   30  N   UNL     1     -13.837  13.367  72.632  1.00  0.00    -0.745 NA 
HETATM   31  C   UNL     1     -13.117  15.689  73.110  1.00  0.00    -0.558 C  
HETATM   32  C   UNL     1     -13.689  12.211  71.958  1.00  0.00    -0.006 A  
HETATM   33  F   UNL     1     -12.888  15.504  74.442  1.00  0.00    -0.602 F  
HETATM   34  F   UNL     1     -12.220  16.647  72.723  1.00  0.00    -0.515 F  
HETATM   35  F   UNL     1     -14.341  16.285  73.017  1.00  0.00    -0.633 F  
HETATM   36  C   UNL     1     -12.746  12.021  70.965  1.00  0.00    -0.337 A  
ENDBRANCH  25  27
ENDBRANCH  14  25
ENDBRANCH   7   9
ENDBRANCH   5   7
TORSDOF 5
ENDMDL
MODEL       22
REMARK 921   NORMALIZED FREE ENERGY PREDICTED BY IDOCK:   -8.36 KCAL/MOL
REMARK 922        TOTAL FREE ENERGY PREDICTED BY IDOCK:  -11.96 KCAL/MOL
REMARK 923 INTER-LIGAND FREE ENERGY PREDICTED BY IDOCK:  -10.91 KCAL/MOL
REMARK 924 INTRA-LIGAND FREE ENERGY PREDICTED BY IDOCK:   -1.06 KCAL/MOL
REMARK 927      BINDING AFFINITY PREDICTED BY RF-SCORE:    0.00 PKD
ROOT
HETATM    1  C   UNL     1      -7.750  10.073  63.405  1.00  0.00    -0.148 C  
HETATM    2  C   UNL     1      -8.947  10.415  64.297  1.00  0.00    -0.226 C  
HETATM    3  C   UNL     1      -9.391   9.169  65.072  1.00  0.00    -0.120 C  
HETATM    4  O   UNL     1      -8.533  11.405  65.251  1.00  0.00    -0.385 OA 
HETATM    5  C   UNL     1     -10.090  11.012  63.432  1.00  0.00    -0.370 C  
HETATM    6  H   UNL     1      -9.276  11.618  65.804  1.00  0.00     0.000 HD 
ENDROOT
BRANCH   5   7
HETATM    7  N   UNL     1     -11.281  11.220  64.243  1.00  0.00    -0.293 NA 
HETATM    8  H   UNL     1     -12.117  10.652  64.103  1.00  0.00     0.000 HD 
BRANCH   7   9
HETATM    9  C   UNL     1     -11.248  12.207  65.209  1.00  0.00    -0.332 A  
HETATM   10  N   UNL     1     -11.565  11.935  66.465  1.00  0.00    -0.519 NA 
HETATM   11  C   UNL     1     -11.512  12.964  67.311  1.00  0.00    -0.336 A  
HETATM   12  N   UNL     1     -10.854  13.401  64.785  1.00  0.00    -0.352 NA 
HETATM   13  N   UNL     1     -11.141  14.198  66.965  1.00  0.00    -0.300 NA 
HETATM   14  C   UNL     1     -10.788  14.359  65.697  1.00  0.00    -0.317 A  
BRANCH  11  15
HETATM   15  C   UNL     1     -11.872  12.738  68.737  1.00  0.00    -0.307 A  
HETATM   16  C   UNL     1     -12.183  11.206  70.499  1.00  0.00    -0.384 A  
HETATM   17  F   UNL     1     -13.347   9.357  71.502  1.00  0.00    -0.362 F  
HETATM   18  N   UNL     1     -11.857  11.454  69.197  1.00  0.00    -0.325 NA 
HETATM   19  C   UNL     1     -12.548  12.229  71.374  1.00  0.00    -0.303 A  
HETATM   20  C   UNL     1     -12.137   9.779  71.029  1.00  0.00    -0.346 C  
HETATM   21  C   UNL     1     -12.216  13.795  69.586  1.00  0.00    -0.359 A  
HETATM   22  C   UNL     1     -12.561  13.537  70.910  1.00  0.00    -0.414 A  
HETATM   23  F   UNL     1     -11.751   8.846  70.113  1.00  0.00    -0.196 F  
HETATM   24  F   UNL     1     -11.274   9.645  72.079  1.00  0.00    -0.396 F  
ENDBRANCH  11  15
BRANCH  14  25
HETATM   25  N   UNL     1     -10.232  15.571  65.284  1.00  0.00    -0.362 NA 
HETATM   26  H   UNL     1     -10.335  15.777  64.290  1.00  0.00     0.000 HD 
BRANCH  25  27
HETATM   27  C   UNL     1      -9.557  16.547  66.022  1.00  0.00    -0.290 A  
HETATM   28  C   UNL     1      -9.552  18.663  67.193  1.00  0.00    -0.298 A  
HETATM   29  C   UNL     1     -10.253  17.642  66.540  1.00  0.00    -0.355 A  
HETATM   30  N   UNL     1      -8.200  18.605  67.369  1.00  0.00    -0.254 NA 
HETATM   31  C   UNL     1     -10.290  19.898  67.688  1.00  0.00    -0.416 C  
HETATM   32  C   UNL     1      -7.548  17.541  66.866  1.00  0.00    -0.213 A  
HETATM   33  F   UNL     1      -9.840  21.053  67.119  1.00  0.00    -0.611 F  
HETATM   34  F   UNL     1     -11.633  19.868  67.426  1.00  0.00    -0.228 F  
HETATM   35  F   UNL     1     -10.191  20.079  69.037  1.00  0.00    -0.513 F  
HETATM   36  C   UNL     1      -8.171  16.518  66.178  1.00  0.00    -0.279 A  
ENDBRANCH  25  27
ENDBRANCH  14  25
ENDBRANCH   7   9
ENDBRANCH   5   7
TORSDOF 5
ENDMDL
MODEL       23
REMARK 921   NORMALIZED FREE ENERGY PREDICTED BY IDOCK:   -8.32 KCAL/MOL
REMARK 922        TOTAL FREE ENERGY PREDICTED BY IDOCK:  -11.92 KCAL/MOL
REMARK 923 INTER-LIGAND FREE ENERGY PREDICTED BY IDOCK:  -10.69 KCAL/MOL
REMARK 924 INTRA-LIGAND FREE ENERGY PREDICTED BY IDOCK:   -1.22 KCAL/MOL
REMARK 927      BINDING AFFINITY PREDICTED BY RF-SCORE:    0.00 PKD
ROOT
HETATM    1  C   UNL     1     -10.132  20.116  66.992  1.00  0.00    -0.599 C  
HETATM    2  C   UNL     1      -9.678  18.827  67.685  1.00  0.00    -0.310 C  
HETATM    3  C   UNL     1      -8.325  19.053  68.370  1.00  0.00    -0.383 C  
HETATM    4  O   UNL     1     -10.638  18.497  68.700  1.00  0.00    -0.372 OA 
HETATM    5  C   UNL     1      -9.633  17.667  66.654  1.00  0.00    -0.295 C  
HETATM    6  H   UNL     1     -10.357  17.697  69.130  1.00  0.00     0.000 HD 
ENDROOT
BRANCH   5   7
HETATM    7  N   UNL     1      -9.079  16.469  67.267  1.00  0.00    -0.202 NA 
HETATM    8  H   UNL     1      -8.094  16.421  67.531  1.00  0.00     0.000 HD 
BRANCH   7   9
HETATM    9  C   UNL     1      -9.922  15.396  67.483  1.00  0.00    -0.226 A  
HETATM   10  N   UNL     1     -10.500  15.217  68.660  1.00  0.00    -0.230 NA 
HETATM   11  C   UNL     1     -11.285  14.144  68.762  1.00  0.00    -0.268 A  
HETATM   12  N   UNL     1     -10.118  14.610  66.433  1.00  0.00    -0.268 NA 
HETATM   13  N   UNL     1     -11.524  13.295  67.761  1.00  0.00    -0.298 NA 
HETATM   14  C   UNL     1     -10.945  13.590  66.605  1.00  0.00    -0.288 A  
BRANCH  11  15
HETATM   15  C   UNL     1     -11.954  13.867  70.062  1.00  0.00    -0.336 A  
HETATM   16  C   UNL     1     -12.599  14.660  72.184  1.00  0.00    -0.327 A  
HETATM   17  F   UNL     1     -12.061  15.478  74.380  1.00  0.00    -0.609 F  
HETATM   18  N   UNL     1     -11.995  14.876  70.980  1.00  0.00    -0.300 NA 
HETATM   19  C   UNL     1     -13.166  13.429  72.513  1.00  0.00    -0.517 A  
HETATM   20  C   UNL     1     -12.677  15.791  73.202  1.00  0.00    -0.507 C  
HETATM   21  C   UNL     1     -12.526  12.623  70.346  1.00  0.00    -0.219 A  
HETATM   22  C   UNL     1     -13.130  12.402  71.581  1.00  0.00    -0.408 A  
HETATM   23  F   UNL     1     -12.117  16.963  72.790  1.00  0.00    -0.463 F  
HETATM   24  F   UNL     1     -13.966  16.096  73.539  1.00  0.00    -0.553 F  
ENDBRANCH  11  15
BRANCH  14  25
HETATM   25  N   UNL     1     -11.268  12.853  65.464  1.00  0.00    -0.283 NA 
HETATM   26  H   UNL     1     -12.101  13.169  64.968  1.00  0.00     0.000 HD 
BRANCH  25  27
HETATM   27  C   UNL     1     -10.625  11.749  64.897  1.00  0.00    -0.294 A  
HETATM   28  C   UNL     1      -9.446   9.652  65.144  1.00  0.00    -0.265 A  
HETATM   29  C   UNL     1     -10.175  10.706  65.710  1.00  0.00    -0.317 A  
HETATM   30  N   UNL     1      -9.189   9.595  63.805  1.00  0.00    -0.203 NA 
HETATM   31  C   UNL     1      -8.880   8.554  66.033  1.00  0.00    -0.173 C  
HETATM   32  C   UNL     1      -9.634  10.607  63.039  1.00  0.00    -0.348 A  
HETATM   33  F   UNL     1      -7.521   8.462  65.969  1.00  0.00    -0.079 F  
HETATM   34  F   UNL     1      -9.165   8.730  67.360  1.00  0.00    -0.136 F  
HETATM   35  F   UNL     1      -9.357   7.313  65.725  1.00  0.00    -0.131 F  
HETATM   36  C   UNL     1     -10.325  11.696  63.536  1.00  0.00    -0.488 A  
ENDBRANCH  25  27
ENDBRANCH  14  25
ENDBRANCH   7   9
ENDBRANCH   5   7
TORSDOF 5
ENDMDL
MODEL       24
REMARK 921   NORMALIZED FREE ENERGY PREDICTED BY IDOCK:   -8.28 KCAL/MOL
REMARK 922        TOTAL FREE ENERGY PREDICTED BY IDOCK:  -11.86 KCAL/MOL
REMARK 923 INTER-LIGAND FREE ENERGY PREDICTED BY IDOCK:  -11.07 KCAL/MOL
REMARK 924 INTRA-LIGAND FREE ENERGY PREDICTED BY IDOCK:   -0.79 KCAL/MOL
REMARK 927      BINDING AFFINITY PREDICTED BY RF-SCORE:    0.00 PKD
ROOT
HETATM    1  C   UNL     1      -9.951   6.179  72.835  1.00  0.00    -0.184 C  
HETATM    2  C   UNL     1     -11.065   6.717  71.932  1.00  0.00    -0.253 C  
HETATM    3  C   UNL     1     -10.887   6.175  70.509  1.00  0.00    -0.364 C  
HETATM    4  O   UNL     1     -12.324   6.239  72.433  1.00  0.00    -0.538 OA 
HETATM    5  C   UNL     1     -11.074   8.268  71.979  1.00  0.00    -0.311 C  
HETATM    6  H   UNL     1     -13.015   6.573  71.872  1.00  0.00     0.000 HD 
ENDROOT
BRANCH   5   7
HETATM    7  N   UNL     1     -12.039   8.796  71.026  1.00  0.00    -0.407 NA 
HETATM    8  H   UNL     1     -12.978   8.402  70.957  1.00  0.00     0.000 HD 
BRANCH   7   9
HETATM    9  C   UNL     1     -11.650   9.846  70.217  1.00  0.00    -0.250 A  
HETATM   10  N   UNL     1     -11.919  11.096  70.555  1.00  0.00    -0.361 NA 
HETATM   11  C   UNL     1     -11.510  12.030  69.696  1.00  0.00    -0.252 A  
HETATM   12  N   UNL     1     -10.978   9.501  69.126  1.00  0.00    -0.175 NA 
HETATM   13  N   UNL     1     -10.842  11.768  68.571  1.00  0.00    -0.212 NA 
HETATM   14  C   UNL     1     -10.569  10.490  68.347  1.00  0.00    -0.199 A  
BRANCH  11  15
HETATM   15  C   UNL     1     -11.793  13.458  70.001  1.00  0.00    -0.294 A  
HETATM   16  C   UNL     1     -12.434  15.071  71.594  1.00  0.00    -0.339 A  
HETATM   17  F   UNL     1     -14.051  16.014  73.103  1.00  0.00    -0.661 F  
HETATM   18  N   UNL     1     -12.164  13.771  71.276  1.00  0.00    -0.302 NA 
HETATM   19  C   UNL     1     -12.357  16.092  70.647  1.00  0.00    -0.161 A  
HETATM   20  C   UNL     1     -12.818  15.432  73.024  1.00  0.00    -0.463 C  
HETATM   21  C   UNL     1     -11.687  14.455  69.026  1.00  0.00    -0.345 A  
HETATM   22  C   UNL     1     -11.976  15.778  69.350  1.00  0.00    -0.321 A  
HETATM   23  F   UNL     1     -12.849  14.378  73.886  1.00  0.00    -0.485 F  
HETATM   24  F   UNL     1     -11.957  16.337  73.577  1.00  0.00    -0.521 F  
ENDBRANCH  11  15
BRANCH  14  25
HETATM   25  N   UNL     1      -9.737  10.139  67.283  1.00  0.00    -0.162 NA 
HETATM   26  H   UNL     1      -8.919   9.585  67.539  1.00  0.00     0.000 HD 
BRANCH  25  27
HETATM   27  C   UNL     1      -9.851  10.427  65.920  1.00  0.00    -0.235 A  
HETATM   28  C   UNL     1     -11.019  11.496  64.092  1.00  0.00    -0.366 A  
HETATM   29  C   UNL     1     -10.851  11.291  65.467  1.00  0.00    -0.244 A  
HETATM   30  N   UNL     1     -10.206  10.899  63.174  1.00  0.00    -0.278 NA 
HETATM   31  C   UNL     1     -12.157  12.370  63.587  1.00  0.00    -0.556 C  
HETATM   32  C   UNL     1      -9.246  10.074  63.629  1.00  0.00    -0.274 A  
HETATM   33  F   UNL     1     -13.025  11.700  62.775  1.00  0.00    -0.519 F  
HETATM   34  F   UNL     1     -12.932  12.886  64.589  1.00  0.00    -0.436 F  
HETATM   35  F   UNL     1     -11.730  13.450  62.870  1.00  0.00    -0.320 F  
HETATM   36  C   UNL     1      -9.050   9.796  64.969  1.00  0.00    -0.280 A  
ENDBRANCH  25  27
ENDBRANCH  14  25
ENDBRANCH   7   9
ENDBRANCH   5   7
TORSDOF 5
ENDMDL
MODEL       25
REMARK 921   NORMALIZED FREE ENERGY PREDICTED BY IDOCK:   -8.28 KCAL/MOL
REMARK 922        TOTAL FREE ENERGY PREDICTED BY IDOCK:  -11.86 KCAL/MOL
REMARK 923 INTER-LIGAND FREE ENERGY PREDICTED BY IDOCK:  -10.95 KCAL/MOL
REMARK 924 INTRA-LIGAND FREE ENERGY PREDICTED BY IDOCK:   -0.91 KCAL/MOL
REMARK 927      BINDING AFFINITY PREDICTED BY RF-SCORE:    0.00 PKD
ROOT
HETATM    1  C   UNL     1     -13.705  12.977  72.313  1.00  0.00    -0.608 C  
HETATM    2  C   UNL     1     -13.264  14.336  71.760  1.00  0.00    -0.367 C  
HETATM    3  C   UNL     1     -14.409  15.347  71.893  1.00  0.00    -0.649 C  
HETATM    4  O   UNL     1     -12.162  14.809  72.550  1.00  0.00    -0.321 OA 
HETATM    5  C   UNL     1     -12.785  14.173  70.293  1.00  0.00    -0.229 C  
HETATM    6  H   UNL     1     -11.889  15.652  72.207  1.00  0.00     0.000 HD 
ENDROOT
BRANCH   5   7
HETATM    7  N   UNL     1     -12.488  15.475  69.713  1.00  0.00    -0.581 NA 
HETATM    8  H   UNL     1     -12.790  16.335  70.171  1.00  0.00     0.000 HD 
BRANCH   7   9
HETATM    9  C   UNL     1     -11.786  15.514  68.524  1.00  0.00    -0.337 A  
HETATM   10  N   UNL     1     -11.888  14.530  67.646  1.00  0.00    -0.378 NA 
HETATM   11  C   UNL     1     -11.158  14.664  66.538  1.00  0.00    -0.329 A  
HETATM   12  N   UNL     1     -11.053  16.604  68.334  1.00  0.00    -0.350 NA 
HETATM   13  N   UNL     1     -10.385  15.719  66.276  1.00  0.00    -0.297 NA 
HETATM   14  C   UNL     1     -10.393  16.680  67.190  1.00  0.00    -0.300 A  
BRANCH  11  15
HETATM   15  C   UNL     1     -11.207  13.586  65.513  1.00  0.00    -0.292 A  
HETATM   16  C   UNL     1     -10.189  11.687  64.562  1.00  0.00    -0.291 A  
HETATM   17  F   UNL     1      -8.387  10.642  63.362  1.00  0.00    -0.164 F  
HETATM   18  N   UNL     1     -10.180  12.689  65.489  1.00  0.00    -0.279 NA 
HETATM   19  C   UNL     1     -11.214  11.561  63.624  1.00  0.00    -0.451 A  
HETATM   20  C   UNL     1      -9.062  10.662  64.549  1.00  0.00    -0.217 C  
HETATM   21  C   UNL     1     -12.263  13.485  64.601  1.00  0.00    -0.450 A  
HETATM   22  C   UNL     1     -12.262  12.470  63.648  1.00  0.00    -0.642 A  
HETATM   23  F   UNL     1      -8.115  10.849  65.511  1.00  0.00    -0.162 F  
HETATM   24  F   UNL     1      -9.520   9.387  64.724  1.00  0.00    -0.305 F  
ENDBRANCH  11  15
BRANCH  14  25
HETATM   25  N   UNL     1      -9.744  17.888  66.926  1.00  0.00    -0.296 NA 
HETATM   26  H   UNL     1     -10.348  18.636  66.585  1.00  0.00     0.000 HD 
BRANCH  25  27
HETATM   27  C   UNL     1      -8.396  18.231  67.057  1.00  0.00    -0.248 A  
HETATM   28  C   UNL     1      -6.616  19.311  68.286  1.00  0.00    -0.249 A  
HETATM   29  C   UNL     1      -7.947  18.884  68.207  1.00  0.00    -0.343 A  
HETATM   30  N   UNL     1      -5.726  19.076  67.278  1.00  0.00    -0.170 NA 
HETATM   31  C   UNL     1      -6.138  20.096  69.499  1.00  0.00    -0.340 C  
HETATM   32  C   UNL     1      -6.176  18.442  66.181  1.00  0.00    -0.200 A  
HETATM   33  F   UNL     1      -5.673  21.339  69.182  1.00  0.00    -0.386 F  
HETATM   34  F   UNL     1      -7.120  20.307  70.429  1.00  0.00    -0.264 F  
HETATM   35  F   UNL     1      -5.128  19.478  70.177  1.00  0.00    -0.181 F  
HETATM   36  C   UNL     1      -7.485  18.028  66.020  1.00  0.00    -0.271 A  
ENDBRANCH  25  27
ENDBRANCH  14  25
ENDBRANCH   7   9
ENDBRANCH   5   7
TORSDOF 5
ENDMDL
MODEL       26
REMARK 921   NORMALIZED FREE ENERGY PREDICTED BY IDOCK:   -8.26 KCAL/MOL
REMARK 922        TOTAL FREE ENERGY PREDICTED BY IDOCK:  -11.84 KCAL/MOL
REMARK 923 INTER-LIGAND FREE ENERGY PREDICTED BY IDOCK:  -10.88 KCAL/MOL
REMARK 924 INTRA-LIGAND FREE ENERGY PREDICTED BY IDOCK:   -0.96 KCAL/MOL
REMARK 927      BINDING AFFINITY PREDICTED BY RF-SCORE:    0.00 PKD
ROOT
HETATM    1  C   UNL     1     -12.467  15.283  74.007  1.00  0.00    -0.757 C  
HETATM    2  C   UNL     1     -13.170  15.239  72.647  1.00  0.00    -0.455 C  
HETATM    3  C   UNL     1     -13.537  13.792  72.297  1.00  0.00    -0.656 C  
HETATM    4  O   UNL     1     -14.388  15.993  72.742  1.00  0.00    -0.419 OA 
HETATM    5  C   UNL     1     -12.266  15.897  71.570  1.00  0.00    -0.465 C  
HETATM    6  H   UNL     1     -14.824  15.966  71.898  1.00  0.00     0.000 HD 
ENDROOT
BRANCH   5   7
HETATM    7  N   UNL     1     -12.862  15.746  70.250  1.00  0.00    -0.653 NA 
HETATM    8  H   UNL     1     -13.866  15.865  70.111  1.00  0.00     0.000 HD 
BRANCH   7   9
HETATM    9  C   UNL     1     -12.032  15.436  69.191  1.00  0.00    -0.299 A  
HETATM   10  N   UNL     1     -10.936  16.140  68.963  1.00  0.00    -0.291 NA 
HETATM   11  C   UNL     1     -10.214  15.763  67.907  1.00  0.00    -0.242 A  
HETATM   12  N   UNL     1     -12.402  14.385  68.470  1.00  0.00    -0.124 NA 
HETATM   13  N   UNL     1     -10.522  14.729  67.122  1.00  0.00    -0.263 NA 
HETATM   14  C   UNL     1     -11.608  14.050  67.465  1.00  0.00    -0.367 A  
BRANCH  11  15
HETATM   15  C   UNL     1      -8.977  16.521  67.577  1.00  0.00    -0.196 A  
HETATM   16  C   UNL     1      -8.005  18.544  66.861  1.00  0.00    -0.239 A  
HETATM   17  F   UNL     1      -7.656  20.237  65.191  1.00  0.00    -0.293 F  
HETATM   18  N   UNL     1      -9.117  17.817  67.174  1.00  0.00    -0.242 NA 
HETATM   19  C   UNL     1      -6.724  17.996  66.927  1.00  0.00    -0.212 A  
HETATM   20  C   UNL     1      -8.152  20.001  66.442  1.00  0.00    -0.307 C  
HETATM   21  C   UNL     1      -7.709  15.939  67.673  1.00  0.00    -0.169 A  
HETATM   22  C   UNL     1      -6.578  16.679  67.340  1.00  0.00    -0.199 A  
HETATM   23  F   UNL     1      -9.435  20.460  66.424  1.00  0.00    -0.441 F  
HETATM   24  F   UNL     1      -7.467  20.848  67.266  1.00  0.00    -0.359 F  
ENDBRANCH  11  15
BRANCH  14  25
HETATM   25  N   UNL     1     -11.916  12.861  66.801  1.00  0.00    -0.413 NA 
HETATM   26  H   UNL     1     -12.899  12.746  66.555  1.00  0.00     0.000 HD 
BRANCH  25  27
HETATM   27  C   UNL     1     -11.085  11.803  66.422  1.00  0.00    -0.307 A  
HETATM   28  C   UNL     1      -9.713  10.705  64.760  1.00  0.00    -0.292 A  
HETATM   29  C   UNL     1     -10.463  11.813  65.170  1.00  0.00    -0.330 A  
HETATM   30  N   UNL     1      -9.540   9.618  65.567  1.00  0.00    -0.269 NA 
HETATM   31  C   UNL     1      -9.101  10.673  63.367  1.00  0.00    -0.241 C  
HETATM   32  C   UNL     1     -10.143   9.628  66.769  1.00  0.00    -0.236 A  
HETATM   33  F   UNL     1      -9.553   9.633  62.609  1.00  0.00    -0.276 F  
HETATM   34  F   UNL     1      -9.367  11.795  62.632  1.00  0.00    -0.372 F  
HETATM   35  F   UNL     1      -7.740  10.566  63.380  1.00  0.00    -0.150 F  
HETATM   36  C   UNL     1     -10.929  10.671  67.221  1.00  0.00    -0.348 A  
ENDBRANCH  25  27
ENDBRANCH  14  25
ENDBRANCH   7   9
ENDBRANCH   5   7
TORSDOF 5
ENDMDL
MODEL       27
REMARK 921   NORMALIZED FREE ENERGY PREDICTED BY IDOCK:   -8.26 KCAL/MOL
REMARK 922        TOTAL FREE ENERGY PREDICTED BY IDOCK:  -11.83 KCAL/MOL
REMARK 923 INTER-LIGAND FREE ENERGY PREDICTED BY IDOCK:  -10.84 KCAL/MOL
REMARK 924 INTRA-LIGAND FREE ENERGY PREDICTED BY IDOCK:   -1.00 KCAL/MOL
REMARK 927      BINDING AFFINITY PREDICTED BY RF-SCORE:    0.00 PKD
ROOT
HETATM    1  C   UNL     1     -12.684  15.316  73.728  1.00  0.00    -0.697 C  
HETATM    2  C   UNL     1     -12.910  15.308  72.213  1.00  0.00    -0.360 C  
HETATM    3  C   UNL     1     -14.405  15.464  71.909  1.00  0.00    -0.649 C  
HETATM    4  O   UNL     1     -12.224  16.436  71.647  1.00  0.00    -0.607 OA 
HETATM    5  C   UNL     1     -12.314  14.012  71.601  1.00  0.00    -0.228 C  
HETATM    6  H   UNL     1     -12.364  16.430  70.707  1.00  0.00     0.000 HD 
ENDROOT
BRANCH   5   7
HETATM    7  N   UNL     1     -12.636  13.928  70.184  1.00  0.00    -0.281 NA 
HETATM    8  H   UNL     1     -13.460  14.396  69.805  1.00  0.00     0.000 HD 
BRANCH   7   9
HETATM    9  C   UNL     1     -11.798  13.196  69.367  1.00  0.00    -0.326 A  
HETATM   10  N   UNL     1     -11.772  11.875  69.433  1.00  0.00    -0.316 NA 
HETATM   11  C   UNL     1     -10.917  11.269  68.608  1.00  0.00    -0.218 A  
HETATM   12  N   UNL     1     -11.071  13.910  68.516  1.00  0.00    -0.253 NA 
HETATM   13  N   UNL     1     -10.141  11.912  67.734  1.00  0.00    -0.187 NA 
HETATM   14  C   UNL     1     -10.279  13.230  67.701  1.00  0.00    -0.228 A  
BRANCH  11  15
HETATM   15  C   UNL     1     -10.820   9.785  68.640  1.00  0.00    -0.188 A  
HETATM   16  C   UNL     1     -10.947   7.802  69.906  1.00  0.00    -0.190 A  
HETATM   17  F   UNL     1     -10.139   6.366  71.657  1.00  0.00    -0.192 F  
HETATM   18  N   UNL     1     -11.029   9.163  69.836  1.00  0.00    -0.229 NA 
HETATM   19  C   UNL     1     -10.639   7.025  68.790  1.00  0.00    -0.235 A  
HETATM   20  C   UNL     1     -11.210   7.099  71.231  1.00  0.00    -0.259 C  
HETATM   21  C   UNL     1     -10.526   9.041  67.493  1.00  0.00    -0.338 A  
HETATM   22  C   UNL     1     -10.429   7.654  67.570  1.00  0.00    -0.336 A  
HETATM   23  F   UNL     1     -11.523   7.931  72.263  1.00  0.00    -0.293 F  
HETATM   24  F   UNL     1     -12.244   6.209  71.147  1.00  0.00    -0.300 F  
ENDBRANCH  11  15
BRANCH  14  25
HETATM   25  N   UNL     1      -9.630  13.968  66.709  1.00  0.00    -0.276 NA 
HETATM   26  H   UNL     1      -8.728  13.593  66.415  1.00  0.00     0.000 HD 
BRANCH  25  27
HETATM   27  C   UNL     1     -10.025  15.139  66.057  1.00  0.00    -0.311 A  
HETATM   28  C   UNL     1     -10.117  17.553  65.953  1.00  0.00    -0.185 A  
HETATM   29  C   UNL     1      -9.635  16.385  66.555  1.00  0.00    -0.291 A  
HETATM   30  N   UNL     1     -10.936  17.513  64.863  1.00  0.00    -0.827 NA 
HETATM   31  C   UNL     1      -9.764  18.913  66.539  1.00  0.00    -0.358 C  
HETATM   32  C   UNL     1     -11.297  16.304  64.396  1.00  0.00    -0.129 A  
HETATM   33  F   UNL     1     -10.859  19.625  66.931  1.00  0.00    -0.539 F  
HETATM   34  F   UNL     1      -8.970  18.835  67.650  1.00  0.00    -0.277 F  
HETATM   35  F   UNL     1      -9.086  19.714  65.667  1.00  0.00    -0.275 F  
HETATM   36  C   UNL     1     -10.891  15.112  64.965  1.00  0.00    -0.457 A  
ENDBRANCH  25  27
ENDBRANCH  14  25
ENDBRANCH   7   9
ENDBRANCH   5   7
TORSDOF 5
ENDMDL
MODEL       28
REMARK 921   NORMALIZED FREE ENERGY PREDICTED BY IDOCK:   -8.11 KCAL/MOL
REMARK 922        TOTAL FREE ENERGY PREDICTED BY IDOCK:  -11.64 KCAL/MOL
REMARK 923 INTER-LIGAND FREE ENERGY PREDICTED BY IDOCK:  -10.53 KCAL/MOL
REMARK 924 INTRA-LIGAND FREE ENERGY PREDICTED BY IDOCK:   -1.11 KCAL/MOL
REMARK 927      BINDING AFFINITY PREDICTED BY RF-SCORE:    0.00 PKD
ROOT
HETATM    1  C   UNL     1      -9.380   9.551  65.887  1.00  0.00    -0.285 C  
HETATM    2  C   UNL     1      -9.950  10.957  65.680  1.00  0.00    -0.251 C  
HETATM    3  C   UNL     1     -10.188  11.208  64.187  1.00  0.00    -0.405 C  
HETATM    4  O   UNL     1     -11.220  11.034  66.349  1.00  0.00    -0.156 OA 
HETATM    5  C   UNL     1      -8.997  12.007  66.313  1.00  0.00    -0.129 C  
HETATM    6  H   UNL     1     -11.573  11.907  66.220  1.00  0.00     0.000 HD 
ENDROOT
BRANCH   5   7
HETATM    7  N   UNL     1      -9.458  13.354  66.010  1.00  0.00    -0.483 NA 
HETATM    8  H   UNL     1      -9.249  13.791  65.112  1.00  0.00     0.000 HD 
BRANCH   7   9
HETATM    9  C   UNL     1     -10.186  14.026  66.972  1.00  0.00    -0.261 A  
HETATM   10  N   UNL     1     -10.719  13.375  67.994  1.00  0.00    -0.242 NA 
HETATM   11  C   UNL     1     -11.412  14.119  68.857  1.00  0.00    -0.293 A  
HETATM   12  N   UNL     1     -10.273  15.339  66.803  1.00  0.00    -0.266 NA 
HETATM   13  N   UNL     1     -11.560  15.440  68.753  1.00  0.00    -0.351 NA 
HETATM   14  C   UNL     1     -10.942  16.010  67.727  1.00  0.00    -0.307 A  
BRANCH  11  15
HETATM   15  C   UNL     1     -12.056  13.452  70.021  1.00  0.00    -0.334 A  
HETATM   16  C   UNL     1     -12.567  11.444  71.142  1.00  0.00    -0.386 A  
HETATM   17  F   UNL     1     -13.691   9.322  71.253  1.00  0.00    -0.401 F  
HETATM   18  N   UNL     1     -11.987  12.092  70.089  1.00  0.00    -0.345 NA 
HETATM   19  C   UNL     1     -13.244  12.134  72.147  1.00  0.00    -0.438 A  
HETATM   20  C   UNL     1     -12.466   9.927  71.241  1.00  0.00    -0.381 C  
HETATM   21  C   UNL     1     -12.710  14.183  71.019  1.00  0.00    -0.433 A  
HETATM   22  C   UNL     1     -13.312  13.519  72.084  1.00  0.00    -0.593 A  
HETATM   23  F   UNL     1     -11.771   9.338  70.228  1.00  0.00    -0.266 F  
HETATM   24  F   UNL     1     -11.854   9.524  72.394  1.00  0.00    -0.326 F  
ENDBRANCH  11  15
BRANCH  14  25
HETATM   25  N   UNL     1     -10.906  17.403  67.631  1.00  0.00    -0.300 NA 
HETATM   26  H   UNL     1     -11.809  17.848  67.471  1.00  0.00     0.000 HD 
BRANCH  25  27
HETATM   27  C   UNL     1      -9.822  18.281  67.720  1.00  0.00    -0.318 A  
HETATM   28  C   UNL     1      -7.580  18.777  68.479  1.00  0.00    -0.327 A  
HETATM   29  C   UNL     1      -8.625  17.861  68.304  1.00  0.00    -0.277 A  
HETATM   30  N   UNL     1      -7.684  20.072  68.060  1.00  0.00    -0.291 NA 
HETATM   31  C   UNL     1      -6.303  18.350  69.187  1.00  0.00    -0.250 C  
HETATM   32  C   UNL     1      -8.844  20.456  67.497  1.00  0.00    -0.282 A  
HETATM   33  F   UNL     1      -6.051  19.075  70.315  1.00  0.00    -0.263 F  
HETATM   34  F   UNL     1      -6.321  17.045  69.598  1.00  0.00    -0.213 F  
HETATM   35  F   UNL     1      -5.189  18.467  68.407  1.00  0.00    -0.160 F  
HETATM   36  C   UNL     1      -9.928  19.616  67.330  1.00  0.00    -0.518 A  
ENDBRANCH  25  27
ENDBRANCH  14  25
ENDBRANCH   7   9
ENDBRANCH   5   7
TORSDOF 5
ENDMDL
MODEL       29
REMARK 921   NORMALIZED FREE ENERGY PREDICTED BY IDOCK:   -8.09 KCAL/MOL
REMARK 922        TOTAL FREE ENERGY PREDICTED BY IDOCK:  -11.62 KCAL/MOL
REMARK 923 INTER-LIGAND FREE ENERGY PREDICTED BY IDOCK:  -10.58 KCAL/MOL
REMARK 924 INTRA-LIGAND FREE ENERGY PREDICTED BY IDOCK:   -1.05 KCAL/MOL
REMARK 927      BINDING AFFINITY PREDICTED BY RF-SCORE:    0.00 PKD
ROOT
HETATM    1  C   UNL     1     -12.537  14.709  73.374  1.00  0.00    -0.497 C  
HETATM    2  C   UNL     1     -12.804  15.329  71.999  1.00  0.00    -0.358 C  
HETATM    3  C   UNL     1     -14.295  15.656  71.858  1.00  0.00    -0.445 C  
HETATM    4  O   UNL     1     -12.071  16.560  71.908  1.00  0.00    -0.616 OA 
HETATM    5  C   UNL     1     -12.300  14.371  70.887  1.00  0.00    -0.349 C  
HETATM    6  H   UNL     1     -12.237  16.944  71.054  1.00  0.00     0.000 HD 
ENDROOT
BRANCH   5   7
HETATM    7  N   UNL     1     -12.665  14.885  69.575  1.00  0.00    -0.570 NA 
HETATM    8  H   UNL     1     -13.510  15.443  69.446  1.00  0.00     0.000 HD 
BRANCH   7   9
HETATM    9  C   UNL     1     -11.837  14.598  68.507  1.00  0.00    -0.311 A  
HETATM   10  N   UNL     1     -11.602  13.345  68.152  1.00  0.00    -0.319 NA 
HETATM   11  C   UNL     1     -10.778  13.181  67.117  1.00  0.00    -0.255 A  
HETATM   12  N   UNL     1     -11.343  15.653  67.873  1.00  0.00    -0.332 NA 
HETATM   13  N   UNL     1     -10.228  14.186  66.434  1.00  0.00    -0.282 NA 
HETATM   14  C   UNL     1     -10.569  15.405  66.829  1.00  0.00    -0.309 A  
BRANCH  11  15
HETATM   15  C   UNL     1     -10.453  11.799  66.672  1.00  0.00    -0.224 A  
HETATM   16  C   UNL     1     -10.185   9.529  67.241  1.00  0.00    -0.234 A  
HETATM   17  F   UNL     1      -9.045   7.776  68.427  1.00  0.00    -0.132 F  
HETATM   18  N   UNL     1     -10.480  10.810  67.610  1.00  0.00    -0.200 NA 
HETATM   19  C   UNL     1      -9.842   9.202  65.930  1.00  0.00    -0.305 A  
HETATM   20  C   UNL     1     -10.244   8.414  68.277  1.00  0.00    -0.205 C  
HETATM   21  C   UNL     1     -10.130  11.510  65.342  1.00  0.00    -0.304 A  
HETATM   22  C   UNL     1      -9.817  10.205  64.971  1.00  0.00    -0.392 A  
HETATM   23  F   UNL     1     -10.607   8.819  69.526  1.00  0.00    -0.215 F  
HETATM   24  F   UNL     1     -11.133   7.435  67.933  1.00  0.00    -0.208 F  
ENDBRANCH  11  15
BRANCH  14  25
HETATM   25  N   UNL     1     -10.172  16.511  66.074  1.00  0.00    -0.342 NA 
HETATM   26  H   UNL     1     -10.174  16.367  65.064  1.00  0.00     0.000 HD 
BRANCH  25  27
HETATM   27  C   UNL     1      -9.772  17.785  66.488  1.00  0.00    -0.320 A  
HETATM   28  C   UNL     1      -8.240  19.214  67.695  1.00  0.00    -0.285 A  
HETATM   29  C   UNL     1      -8.581  17.950  67.199  1.00  0.00    -0.242 A  
HETATM   30  N   UNL     1      -9.025  20.307  67.472  1.00  0.00    -0.343 NA 
HETATM   31  C   UNL     1      -6.987  19.387  68.540  1.00  0.00    -0.298 C  
HETATM   32  C   UNL     1     -10.166  20.129  66.782  1.00  0.00    -0.430 A  
HETATM   33  F   UNL     1      -7.250  19.856  69.794  1.00  0.00    -0.366 F  
HETATM   34  F   UNL     1      -6.296  18.222  68.732  1.00  0.00    -0.191 F  
HETATM   35  F   UNL     1      -6.085  20.254  67.995  1.00  0.00    -0.232 F  
HETATM   36  C   UNL     1     -10.583  18.903  66.298  1.00  0.00    -0.463 A  
ENDBRANCH  25  27
ENDBRANCH  14  25
ENDBRANCH   7   9
ENDBRANCH   5   7
TORSDOF 5
ENDMDL
MODEL       30
REMARK 921   NORMALIZED FREE ENERGY PREDICTED BY IDOCK:   -8.08 KCAL/MOL
REMARK 922        TOTAL FREE ENERGY PREDICTED BY IDOCK:  -11.61 KCAL/MOL
REMARK 923 INTER-LIGAND FREE ENERGY PREDICTED BY IDOCK:  -10.38 KCAL/MOL
REMARK 924 INTRA-LIGAND FREE ENERGY PREDICTED BY IDOCK:   -1.23 KCAL/MOL
REMARK 927      BINDING AFFINITY PREDICTED BY RF-SCORE:    0.00 PKD
ROOT
HETATM    1  C   UNL     1     -12.261  14.974  73.750  1.00  0.00    -0.628 C  
HETATM    2  C   UNL     1     -12.624  15.435  72.335  1.00  0.00    -0.376 C  
HETATM    3  C   UNL     1     -14.135  15.675  72.238  1.00  0.00    -0.564 C  
HETATM    4  O   UNL     1     -11.961  16.684  72.083  1.00  0.00    -0.629 OA 
HETATM    5  C   UNL     1     -12.122  14.393  71.300  1.00  0.00    -0.335 C  
HETATM    6  H   UNL     1     -12.187  16.970  71.205  1.00  0.00     0.000 HD 
ENDROOT
BRANCH   5   7
HETATM    7  N   UNL     1     -12.574  14.752  69.963  1.00  0.00    -0.538 NA 
HETATM    8  H   UNL     1     -13.563  14.713  69.716  1.00  0.00     0.000 HD 
BRANCH   7   9
HETATM    9  C   UNL     1     -11.627  15.146  69.038  1.00  0.00    -0.330 A  
HETATM   10  N   UNL     1     -10.482  15.682  69.429  1.00  0.00    -0.233 NA 
HETATM   11  C   UNL     1      -9.646  16.037  68.453  1.00  0.00    -0.206 A  
HETATM   12  N   UNL     1     -11.944  14.917  67.770  1.00  0.00    -0.258 NA 
HETATM   13  N   UNL     1      -9.893  15.856  67.155  1.00  0.00    -0.229 NA 
HETATM   14  C   UNL     1     -11.042  15.260  66.865  1.00  0.00    -0.288 A  
BRANCH  11  15
HETATM   15  C   UNL     1      -8.346  16.664  68.816  1.00  0.00    -0.252 A  
HETATM   16  C   UNL     1      -7.005  18.600  68.858  1.00  0.00    -0.291 A  
HETATM   17  F   UNL     1      -5.787  20.343  67.736  1.00  0.00    -0.208 F  
HETATM   18  N   UNL     1      -8.184  17.990  68.541  1.00  0.00    -0.303 NA 
HETATM   19  C   UNL     1      -5.949  17.901  69.444  1.00  0.00    -0.237 A  
HETATM   20  C   UNL     1      -6.828  20.088  68.583  1.00  0.00    -0.301 C  
HETATM   21  C   UNL     1      -7.319  15.931  69.419  1.00  0.00    -0.217 A  
HETATM   22  C   UNL     1      -6.112  16.553  69.729  1.00  0.00    -0.215 A  
HETATM   23  F   UNL     1      -7.915  20.695  68.029  1.00  0.00    -0.238 F  
HETATM   24  F   UNL     1      -6.549  20.794  69.719  1.00  0.00    -0.213 F  
ENDBRANCH  11  15
BRANCH  14  25
HETATM   25  N   UNL     1     -11.310  14.883  65.547  1.00  0.00    -0.350 NA 
HETATM   26  H   UNL     1     -11.550  15.651  64.920  1.00  0.00     0.000 HD 
BRANCH  25  27
HETATM   27  C   UNL     1     -11.300  13.617  64.955  1.00  0.00    -0.329 A  
HETATM   28  C   UNL     1     -10.414  11.371  64.820  1.00  0.00    -0.308 A  
HETATM   29  C   UNL     1     -10.492  12.605  65.478  1.00  0.00    -0.304 A  
HETATM   30  N   UNL     1     -11.137  11.113  63.692  1.00  0.00    -0.216 NA 
HETATM   31  C   UNL     1      -9.474  10.291  65.335  1.00  0.00    -0.232 C  
HETATM   32  C   UNL     1     -11.912  12.100  63.206  1.00  0.00    -0.390 A  
HETATM   33  F   UNL     1      -8.528   9.927  64.421  1.00  0.00    -0.137 F  
HETATM   34  F   UNL     1      -8.771  10.669  66.447  1.00  0.00    -0.136 F  
HETATM   35  F   UNL     1     -10.118   9.141  65.690  1.00  0.00    -0.368 F  
HETATM   36  C   UNL     1     -12.006  13.353  63.782  1.00  0.00    -0.517 A  
ENDBRANCH  25  27
ENDBRANCH  14  25
ENDBRANCH   7   9
ENDBRANCH   5   7
TORSDOF 5
ENDMDL
MODEL       31
REMARK 921   NORMALIZED FREE ENERGY PREDICTED BY IDOCK:   -8.01 KCAL/MOL
REMARK 922        TOTAL FREE ENERGY PREDICTED BY IDOCK:  -11.52 KCAL/MOL
REMARK 923 INTER-LIGAND FREE ENERGY PREDICTED BY IDOCK:  -10.28 KCAL/MOL
REMARK 924 INTRA-LIGAND FREE ENERGY PREDICTED BY IDOCK:   -1.24 KCAL/MOL
REMARK 927      BINDING AFFINITY PREDICTED BY RF-SCORE:    0.00 PKD
ROOT
HETATM    1  C   UNL     1     -12.187  15.209  73.467  1.00  0.00    -0.598 C  
HETATM    2  C   UNL     1     -12.681  15.232  72.017  1.00  0.00    -0.352 C  
HETATM    3  C   UNL     1     -14.200  15.441  71.989  1.00  0.00    -0.650 C  
HETATM    4  O   UNL     1     -12.069  16.345  71.348  1.00  0.00    -0.615 OA 
HETATM    5  C   UNL     1     -12.250  13.927  71.297  1.00  0.00    -0.268 C  
HETATM    6  H   UNL     1     -12.376  16.359  70.449  1.00  0.00     0.000 HD 
ENDROOT
BRANCH   5   7
HETATM    7  N   UNL     1     -12.824  13.875  69.960  1.00  0.00    -0.248 NA 
HETATM    8  H   UNL     1     -13.835  13.831  69.824  1.00  0.00     0.000 HD 
BRANCH   7   9
HETATM    9  C   UNL     1     -11.964  13.888  68.880  1.00  0.00    -0.358 A  
HETATM   10  N   UNL     1     -11.278  14.978  68.575  1.00  0.00    -0.273 NA 
HETATM   11  C   UNL     1     -10.487  14.884  67.505  1.00  0.00    -0.254 A  
HETATM   12  N   UNL     1     -11.866  12.741  68.220  1.00  0.00    -0.330 NA 
HETATM   13  N   UNL     1     -10.342  13.775  66.779  1.00  0.00    -0.269 NA 
HETATM   14  C   UNL     1     -11.027  12.718  67.196  1.00  0.00    -0.263 A  
BRANCH  11  15
HETATM   15  C   UNL     1      -9.699  16.076  67.090  1.00  0.00    -0.228 A  
HETATM   16  C   UNL     1      -9.648  18.397  66.692  1.00  0.00    -0.320 A  
HETATM   17  F   UNL     1     -10.354  20.338  65.463  1.00  0.00    -0.532 F  
HETATM   18  N   UNL     1     -10.338  17.280  67.069  1.00  0.00    -0.324 NA 
HETATM   19  C   UNL     1      -8.307  18.340  66.312  1.00  0.00    -0.230 A  
HETATM   20  C   UNL     1     -10.346  19.751  66.696  1.00  0.00    -0.496 C  
HETATM   21  C   UNL     1      -8.350  15.978  66.734  1.00  0.00    -0.305 A  
HETATM   22  C   UNL     1      -7.653  17.116  66.337  1.00  0.00    -0.347 A  
HETATM   23  F   UNL     1     -11.647  19.716  67.099  1.00  0.00    -0.338 F  
HETATM   24  F   UNL     1      -9.728  20.649  67.519  1.00  0.00    -0.532 F  
ENDBRANCH  11  15
BRANCH  14  25
HETATM   25  N   UNL     1     -10.812  11.476  66.597  1.00  0.00    -0.276 NA 
HETATM   26  H   UNL     1     -11.356  11.306  65.751  1.00  0.00     0.000 HD 
BRANCH  25  27
HETATM   27  C   UNL     1      -9.968  10.429  66.977  1.00  0.00    -0.206 A  
HETATM   28  C   UNL     1      -9.633   8.100  67.536  1.00  0.00    -0.157 A  
HETATM   29  C   UNL     1     -10.460   9.125  67.060  1.00  0.00    -0.311 A  
HETATM   30  N   UNL     1      -8.337   8.333  67.894  1.00  0.00    -0.127 NA 
HETATM   31  C   UNL     1     -10.186   6.693  67.707  1.00  0.00    -0.170 C  
HETATM   32  C   UNL     1      -7.880   9.595  67.804  1.00  0.00    -0.094 A  
HETATM   33  F   UNL     1     -10.121   6.247  68.995  1.00  0.00    -0.154 F  
HETATM   34  F   UNL     1     -11.503   6.581  67.355  1.00  0.00    -0.409 F  
HETATM   35  F   UNL     1      -9.532   5.762  66.953  1.00  0.00    -0.122 F  
HETATM   36  C   UNL     1      -8.652  10.660  67.380  1.00  0.00    -0.122 A  
ENDBRANCH  25  27
ENDBRANCH  14  25
ENDBRANCH   7   9
ENDBRANCH   5   7
TORSDOF 5
ENDMDL
MODEL       32
REMARK 921   NORMALIZED FREE ENERGY PREDICTED BY IDOCK:   -7.95 KCAL/MOL
REMARK 922        TOTAL FREE ENERGY PREDICTED BY IDOCK:  -11.43 KCAL/MOL
REMARK 923 INTER-LIGAND FREE ENERGY PREDICTED BY IDOCK:  -10.55 KCAL/MOL
REMARK 924 INTRA-LIGAND FREE ENERGY PREDICTED BY IDOCK:   -0.88 KCAL/MOL
REMARK 927      BINDING AFFINITY PREDICTED BY RF-SCORE:    0.00 PKD
ROOT
HETATM    1  C   UNL     1     -12.877  11.808  63.358  1.00  0.00    -0.310 C  
HETATM    2  C   UNL     1     -12.151  13.074  63.822  1.00  0.00    -0.502 C  
HETATM    3  C   UNL     1     -10.645  12.803  63.919  1.00  0.00    -0.427 C  
HETATM    4  O   UNL     1     -12.354  14.099  62.837  1.00  0.00    -0.914 OA 
HETATM    5  C   UNL     1     -12.753  13.558  65.169  1.00  0.00    -0.399 C  
HETATM    6  H   UNL     1     -11.904  14.884  63.126  1.00  0.00     0.000 HD 
ENDROOT
BRANCH   5   7
HETATM    7  N   UNL     1     -11.988  14.682  65.688  1.00  0.00    -0.292 NA 
HETATM    8  H   UNL     1     -11.989  15.584  65.209  1.00  0.00     0.000 HD 
BRANCH   7   9
HETATM    9  C   UNL     1     -11.260  14.496  66.847  1.00  0.00    -0.336 A  
HETATM   10  N   UNL     1     -10.207  15.253  67.112  1.00  0.00    -0.249 NA 
HETATM   11  C   UNL     1      -9.570  14.979  68.251  1.00  0.00    -0.210 A  
HETATM   12  N   UNL     1     -11.715  13.548  67.655  1.00  0.00    -0.342 NA 
HETATM   13  N   UNL     1      -9.952  14.035  69.112  1.00  0.00    -0.012 NA 
HETATM   14  C   UNL     1     -11.051  13.368  68.787  1.00  0.00    -0.262 A  
BRANCH  11  15
HETATM   15  C   UNL     1      -8.365  15.777  68.607  1.00  0.00    -0.183 A  
HETATM   16  C   UNL     1      -7.367  17.900  68.819  1.00  0.00    -0.270 A  
HETATM   17  F   UNL     1      -6.562  19.953  67.863  1.00  0.00    -0.241 F  
HETATM   18  N   UNL     1      -8.451  17.134  68.503  1.00  0.00    -0.255 NA 
HETATM   19  C   UNL     1      -6.161  17.333  69.233  1.00  0.00    -0.237 A  
HETATM   20  C   UNL     1      -7.466  19.417  68.736  1.00  0.00    -0.358 C  
HETATM   21  C   UNL     1      -7.180  15.169  69.036  1.00  0.00    -0.149 A  
HETATM   22  C   UNL     1      -6.071  15.952  69.345  1.00  0.00    -0.143 A  
HETATM   23  F   UNL     1      -8.683  19.886  68.342  1.00  0.00    -0.358 F  
HETATM   24  F   UNL     1      -7.208  20.019  69.935  1.00  0.00    -0.334 F  
ENDBRANCH  11  15
BRANCH  14  25
HETATM   25  N   UNL     1     -11.614  12.477  69.702  1.00  0.00    -0.426 NA 
HETATM   26  H   UNL     1     -12.314  12.882  70.323  1.00  0.00     0.000 HD 
BRANCH  25  27
HETATM   27  C   UNL     1     -11.367  11.116  69.899  1.00  0.00    -0.268 A  
HETATM   28  C   UNL     1     -11.765   9.066  71.119  1.00  0.00    -0.302 A  
HETATM   29  C   UNL     1     -12.088  10.404  70.860  1.00  0.00    -0.477 A  
HETATM   30  N   UNL     1     -10.781   8.420  70.429  1.00  0.00    -0.228 NA 
HETATM   31  C   UNL     1     -12.490   8.307  72.221  1.00  0.00    -0.335 C  
HETATM   32  C   UNL     1     -10.100   9.121  69.504  1.00  0.00    -0.197 A  
HETATM   33  F   UNL     1     -11.651   7.857  73.199  1.00  0.00    -0.436 F  
HETATM   34  F   UNL     1     -13.428   9.060  72.872  1.00  0.00    -0.489 F  
HETATM   35  F   UNL     1     -13.161   7.209  71.767  1.00  0.00    -0.360 F  
HETATM   36  C   UNL     1     -10.340  10.454  69.226  1.00  0.00    -0.250 A  
ENDBRANCH  25  27
ENDBRANCH  14  25
ENDBRANCH   7   9
ENDBRANCH   5   7
TORSDOF 5
ENDMDL
MODEL       33
REMARK 921   NORMALIZED FREE ENERGY PREDICTED BY IDOCK:   -7.94 KCAL/MOL
REMARK 922        TOTAL FREE ENERGY PREDICTED BY IDOCK:  -11.42 KCAL/MOL
REMARK 923 INTER-LIGAND FREE ENERGY PREDICTED BY IDOCK:  -10.16 KCAL/MOL
REMARK 924 INTRA-LIGAND FREE ENERGY PREDICTED BY IDOCK:   -1.27 KCAL/MOL
REMARK 927      BINDING AFFINITY PREDICTED BY RF-SCORE:    0.00 PKD
ROOT
HETATM    1  C   UNL     1     -11.967  15.053  73.310  1.00  0.00    -0.417 C  
HETATM    2  C   UNL     1     -12.601  15.172  71.921  1.00  0.00    -0.344 C  
HETATM    3  C   UNL     1     -14.123  15.291  72.052  1.00  0.00    -0.662 C  
HETATM    4  O   UNL     1     -12.114  16.374  71.303  1.00  0.00    -0.594 OA 
HETATM    5  C   UNL     1     -12.174  13.962  71.046  1.00  0.00    -0.342 C  
HETATM    6  H   UNL     1     -12.507  16.447  70.441  1.00  0.00     0.000 HD 
ENDROOT
BRANCH   5   7
HETATM    7  N   UNL     1     -12.872  13.992  69.769  1.00  0.00    -0.290 NA 
HETATM    8  H   UNL     1     -13.891  13.970  69.727  1.00  0.00     0.000 HD 
BRANCH   7   9
HETATM    9  C   UNL     1     -12.116  14.052  68.614  1.00  0.00    -0.297 A  
HETATM   10  N   UNL     1     -11.282  15.057  68.403  1.00  0.00    -0.279 NA 
HETATM   11  C   UNL     1     -10.612  15.022  67.251  1.00  0.00    -0.279 A  
HETATM   12  N   UNL     1     -12.272  13.031  67.782  1.00  0.00    -0.167 NA 
HETATM   13  N   UNL     1     -10.721  14.041  66.354  1.00  0.00    -0.277 NA 
HETATM   14  C   UNL     1     -11.538  13.049  66.680  1.00  0.00    -0.359 A  
BRANCH  11  15
HETATM   15  C   UNL     1      -9.670  16.130  66.936  1.00  0.00    -0.236 A  
HETATM   16  C   UNL     1      -9.360  18.421  66.485  1.00  0.00    -0.309 A  
HETATM   17  F   UNL     1      -9.693  20.359  65.103  1.00  0.00    -0.165 F  
HETATM   18  N   UNL     1     -10.192  17.379  66.777  1.00  0.00    -0.311 NA 
HETATM   19  C   UNL     1      -7.985  18.243  66.331  1.00  0.00    -0.290 A  
HETATM   20  C   UNL     1      -9.932  19.825  66.337  1.00  0.00    -0.470 C  
HETATM   21  C   UNL     1      -8.294  15.911  66.807  1.00  0.00    -0.306 A  
HETATM   22  C   UNL     1      -7.449  16.973  66.497  1.00  0.00    -0.327 A  
HETATM   23  F   UNL     1     -11.279  19.910  66.524  1.00  0.00    -0.490 F  
HETATM   24  F   UNL     1      -9.379  20.705  67.224  1.00  0.00    -0.486 F  
ENDBRANCH  11  15
BRANCH  14  25
HETATM   25  N   UNL     1     -11.591  11.906  65.880  1.00  0.00    -0.402 NA 
HETATM   26  H   UNL     1     -12.461  11.377  65.940  1.00  0.00     0.000 HD 
BRANCH  25  27
HETATM   27  C   UNL     1     -10.635  11.375  65.009  1.00  0.00    -0.299 A  
HETATM   28  C   UNL     1      -8.541  10.223  64.642  1.00  0.00    -0.185 A  
HETATM   29  C   UNL     1      -9.543  10.666  65.514  1.00  0.00    -0.271 A  
HETATM   30  N   UNL     1      -8.616  10.436  63.297  1.00  0.00    -0.179 NA 
HETATM   31  C   UNL     1      -7.308   9.522  65.193  1.00  0.00    -0.109 C  
HETATM   32  C   UNL     1      -9.677  11.118  62.829  1.00  0.00    -0.264 A  
HETATM   33  F   UNL     1      -6.147  10.178  64.904  1.00  0.00    -0.089 F  
HETATM   34  F   UNL     1      -7.318   9.395  66.555  1.00  0.00    -0.088 F  
HETATM   35  F   UNL     1      -7.152   8.253  64.714  1.00  0.00    -0.073 F  
HETATM   36  C   UNL     1     -10.682  11.617  63.636  1.00  0.00    -0.500 A  
ENDBRANCH  25  27
ENDBRANCH  14  25
ENDBRANCH   7   9
ENDBRANCH   5   7
TORSDOF 5
ENDMDL
MODEL       34
REMARK 921   NORMALIZED FREE ENERGY PREDICTED BY IDOCK:   -7.93 KCAL/MOL
REMARK 922        TOTAL FREE ENERGY PREDICTED BY IDOCK:  -11.41 KCAL/MOL
REMARK 923 INTER-LIGAND FREE ENERGY PREDICTED BY IDOCK:  -10.88 KCAL/MOL
REMARK 924 INTRA-LIGAND FREE ENERGY PREDICTED BY IDOCK:   -0.53 KCAL/MOL
REMARK 927      BINDING AFFINITY PREDICTED BY RF-SCORE:    0.00 PKD
ROOT
HETATM    1  C   UNL     1     -11.443  15.501  64.357  1.00  0.00    -0.264 C  
HETATM    2  C   UNL     1     -11.937  14.055  64.463  1.00  0.00    -0.448 C  
HETATM    3  C   UNL     1     -13.160  13.990  65.385  1.00  0.00    -0.215 C  
HETATM    4  O   UNL     1     -12.346  13.620  63.156  1.00  0.00    -1.045 OA 
HETATM    5  C   UNL     1     -10.780  13.141  64.947  1.00  0.00    -0.346 C  
HETATM    6  H   UNL     1     -12.652  12.723  63.222  1.00  0.00     0.000 HD 
ENDROOT
BRANCH   5   7
HETATM    7  N   UNL     1     -11.269  11.789  65.178  1.00  0.00    -0.283 NA 
HETATM    8  H   UNL     1     -11.687  11.246  64.422  1.00  0.00     0.000 HD 
BRANCH   7   9
HETATM    9  C   UNL     1     -11.151  11.261  66.448  1.00  0.00    -0.193 A  
HETATM   10  N   UNL     1     -11.691  11.875  67.489  1.00  0.00    -0.551 NA 
HETATM   11  C   UNL     1     -11.506  11.285  68.670  1.00  0.00    -0.297 A  
HETATM   12  N   UNL     1     -10.499  10.108  66.524  1.00  0.00    -0.199 NA 
HETATM   13  N   UNL     1     -10.852  10.134  68.836  1.00  0.00    -0.215 NA 
HETATM   14  C   UNL     1     -10.396   9.565  67.728  1.00  0.00    -0.239 A  
BRANCH  11  15
HETATM   15  C   UNL     1     -12.069  11.928  69.888  1.00  0.00    -0.272 A  
HETATM   16  C   UNL     1     -12.483  13.911  71.089  1.00  0.00    -0.372 A  
HETATM   17  F   UNL     1     -11.711  15.849  72.285  1.00  0.00    -0.434 F  
HETATM   18  N   UNL     1     -11.979  13.285  69.986  1.00  0.00    -0.339 NA 
HETATM   19  C   UNL     1     -13.077  13.200  72.132  1.00  0.00    -0.481 A  
HETATM   20  C   UNL     1     -12.414  15.429  71.191  1.00  0.00    -0.402 C  
HETATM   21  C   UNL     1     -12.673  11.179  70.904  1.00  0.00    -0.438 A  
HETATM   22  C   UNL     1     -13.174  11.819  72.034  1.00  0.00    -0.460 A  
HETATM   23  F   UNL     1     -11.837  16.044  70.121  1.00  0.00    -0.322 F  
HETATM   24  F   UNL     1     -13.652  15.995  71.320  1.00  0.00    -0.444 F  
ENDBRANCH  11  15
BRANCH  14  25
HETATM   25  N   UNL     1      -9.844   8.284  67.786  1.00  0.00    -0.162 NA 
HETATM   26  H   UNL     1      -9.141   8.085  67.075  1.00  0.00     0.000 HD 
BRANCH  25  27
HETATM   27  C   UNL     1     -10.106   7.233  68.669  1.00  0.00    -0.176 A  
HETATM   28  C   UNL     1     -10.928   6.438  70.800  1.00  0.00    -0.290 A  
HETATM   29  C   UNL     1     -10.759   7.480  69.879  1.00  0.00    -0.254 A  
HETATM   30  N   UNL     1     -10.501   5.170  70.534  1.00  0.00    -0.243 NA 
HETATM   31  C   UNL     1     -11.565   6.715  72.154  1.00  0.00    -0.298 C  
HETATM   32  C   UNL     1      -9.878   4.952  69.362  1.00  0.00    -0.211 A  
HETATM   33  F   UNL     1     -10.739   6.427  73.201  1.00  0.00    -0.221 F  
HETATM   34  F   UNL     1     -11.920   8.025  72.329  1.00  0.00    -0.319 F  
HETATM   35  F   UNL     1     -12.707   6.000  72.368  1.00  0.00    -0.304 F  
HETATM   36  C   UNL     1      -9.643   5.940  68.426  1.00  0.00    -0.138 A  
ENDBRANCH  25  27
ENDBRANCH  14  25
ENDBRANCH   7   9
ENDBRANCH   5   7
TORSDOF 5
ENDMDL
MODEL       35
REMARK 921   NORMALIZED FREE ENERGY PREDICTED BY IDOCK:   -7.91 KCAL/MOL
REMARK 922        TOTAL FREE ENERGY PREDICTED BY IDOCK:  -11.39 KCAL/MOL
REMARK 923 INTER-LIGAND FREE ENERGY PREDICTED BY IDOCK:  -10.28 KCAL/MOL
REMARK 924 INTRA-LIGAND FREE ENERGY PREDICTED BY IDOCK:   -1.11 KCAL/MOL
REMARK 927      BINDING AFFINITY PREDICTED BY RF-SCORE:    0.00 PKD
ROOT
HETATM    1  C   UNL     1     -14.178   7.702  71.871  1.00  0.00    -0.492 C  
HETATM    2  C   UNL     1     -12.873   8.457  71.597  1.00  0.00    -0.334 C  
HETATM    3  C   UNL     1     -11.902   8.256  72.766  1.00  0.00    -0.273 C  
HETATM    4  O   UNL     1     -12.268   7.902  70.419  1.00  0.00    -0.473 OA 
HETATM    5  C   UNL     1     -13.181   9.955  71.334  1.00  0.00    -0.400 C  
HETATM    6  H   UNL     1     -11.459   8.371  70.249  1.00  0.00     0.000 HD 
ENDROOT
BRANCH   5   7
HETATM    7  N   UNL     1     -11.942  10.709  71.203  1.00  0.00    -0.331 NA 
HETATM    8  H   UNL     1     -11.360  10.907  72.018  1.00  0.00     0.000 HD 
BRANCH   7   9
HETATM    9  C   UNL     1     -11.576  11.149  69.946  1.00  0.00    -0.337 A  
HETATM   10  N   UNL     1     -10.960  10.339  69.100  1.00  0.00    -0.227 NA 
HETATM   11  C   UNL     1     -10.641  10.870  67.919  1.00  0.00    -0.207 A  
HETATM   12  N   UNL     1     -11.914  12.400  69.663  1.00  0.00    -0.298 NA 
HETATM   13  N   UNL     1     -10.931  12.121  67.560  1.00  0.00    -0.244 NA 
HETATM   14  C   UNL     1     -11.599  12.837  68.454  1.00  0.00    -0.325 A  
BRANCH  11  15
HETATM   15  C   UNL     1      -9.930  10.024  66.922  1.00  0.00    -0.209 A  
HETATM   16  C   UNL     1      -9.184   9.752  64.704  1.00  0.00    -0.255 A  
HETATM   17  F   UNL     1      -9.618   9.475  62.356  1.00  0.00    -0.253 F  
HETATM   18  N   UNL     1      -9.828  10.499  65.648  1.00  0.00    -0.236 NA 
HETATM   19  C   UNL     1      -8.638   8.503  65.002  1.00  0.00    -0.162 A  
HETATM   20  C   UNL     1      -9.038  10.290  63.287  1.00  0.00    -0.265 C  
HETATM   21  C   UNL     1      -9.381   8.785  67.266  1.00  0.00    -0.181 A  
HETATM   22  C   UNL     1      -8.737   8.019  66.299  1.00  0.00    -0.174 A  
HETATM   23  F   UNL     1      -9.583  11.523  63.090  1.00  0.00    -0.295 F  
HETATM   24  F   UNL     1      -7.730  10.398  62.907  1.00  0.00    -0.143 F  
ENDBRANCH  11  15
BRANCH  14  25
HETATM   25  N   UNL     1     -12.086  14.098  68.104  1.00  0.00    -0.539 NA 
HETATM   26  H   UNL     1     -12.999  14.332  68.493  1.00  0.00     0.000 HD 
BRANCH  25  27
HETATM   27  C   UNL     1     -11.515  15.091  67.303  1.00  0.00    -0.304 A  
HETATM   28  C   UNL     1     -10.601  17.315  67.050  1.00  0.00    -0.231 A  
HETATM   29  C   UNL     1     -11.080  16.290  67.873  1.00  0.00    -0.270 A  
HETATM   30  N   UNL     1     -10.512  17.166  65.696  1.00  0.00    -0.575 NA 
HETATM   31  C   UNL     1     -10.203  18.654  67.654  1.00  0.00    -0.384 C  
HETATM   32  C   UNL     1     -10.932  16.003  65.166  1.00  0.00    -0.348 A  
HETATM   33  F   UNL     1     -10.932  19.698  67.165  1.00  0.00    -0.562 F  
HETATM   34  F   UNL     1     -10.367  18.707  69.012  1.00  0.00    -0.389 F  
HETATM   35  F   UNL     1      -8.894  18.975  67.438  1.00  0.00    -0.287 F  
HETATM   36  C   UNL     1     -11.452  14.965  65.915  1.00  0.00    -0.276 A  
ENDBRANCH  25  27
ENDBRANCH  14  25
ENDBRANCH   7   9
ENDBRANCH   5   7
TORSDOF 5
ENDMDL
MODEL       36
REMARK 921   NORMALIZED FREE ENERGY PREDICTED BY IDOCK:   -7.90 KCAL/MOL
REMARK 922        TOTAL FREE ENERGY PREDICTED BY IDOCK:  -11.37 KCAL/MOL
REMARK 923 INTER-LIGAND FREE ENERGY PREDICTED BY IDOCK:  -10.41 KCAL/MOL
REMARK 924 INTRA-LIGAND FREE ENERGY PREDICTED BY IDOCK:   -0.96 KCAL/MOL
REMARK 927      BINDING AFFINITY PREDICTED BY RF-SCORE:    0.00 PKD
ROOT
HETATM    1  C   UNL     1      -7.608  10.334  64.080  1.00  0.00    -0.087 C  
HETATM    2  C   UNL     1      -9.109  10.356  64.387  1.00  0.00    -0.234 C  
HETATM    3  C   UNL     1      -9.895  10.686  63.113  1.00  0.00    -0.351 C  
HETATM    4  O   UNL     1      -9.501   9.045  64.822  1.00  0.00    -0.416 OA 
HETATM    5  C   UNL     1      -9.393  11.361  65.535  1.00  0.00    -0.208 C  
HETATM    6  H   UNL     1     -10.432   9.059  65.012  1.00  0.00     0.000 HD 
ENDROOT
BRANCH   5   7
HETATM    7  N   UNL     1     -10.827  11.490  65.749  1.00  0.00    -0.279 NA 
HETATM    8  H   UNL     1     -11.488  11.315  64.991  1.00  0.00     0.000 HD 
BRANCH   7   9
HETATM    9  C   UNL     1     -11.270  11.858  67.004  1.00  0.00    -0.323 A  
HETATM   10  N   UNL     1     -11.460  10.949  67.947  1.00  0.00    -0.487 NA 
HETATM   11  C   UNL     1     -11.900  11.411  69.117  1.00  0.00    -0.345 A  
HETATM   12  N   UNL     1     -11.449  13.160  67.183  1.00  0.00    -0.316 NA 
HETATM   13  N   UNL     1     -12.119  12.702  69.376  1.00  0.00    -0.230 NA 
HETATM   14  C   UNL     1     -11.846  13.542  68.387  1.00  0.00    -0.373 A  
BRANCH  11  15
HETATM   15  C   UNL     1     -12.155  10.445  70.220  1.00  0.00    -0.286 A  
HETATM   16  C   UNL     1     -11.632   8.380  71.226  1.00  0.00    -0.283 A  
HETATM   17  F   UNL     1     -11.565   5.977  71.190  1.00  0.00    -0.354 F  
HETATM   18  N   UNL     1     -11.426   9.292  70.231  1.00  0.00    -0.211 NA 
HETATM   19  C   UNL     1     -12.581   8.585  72.227  1.00  0.00    -0.438 A  
HETATM   20  C   UNL     1     -10.798   7.105  71.263  1.00  0.00    -0.233 C  
HETATM   21  C   UNL     1     -13.105  10.697  71.215  1.00  0.00    -0.456 A  
HETATM   22  C   UNL     1     -13.322   9.758  72.220  1.00  0.00    -0.472 A  
HETATM   23  F   UNL     1      -9.883   6.997  70.260  1.00  0.00    -0.174 F  
HETATM   24  F   UNL     1     -10.090   6.985  72.425  1.00  0.00    -0.176 F  
ENDBRANCH  11  15
BRANCH  14  25
HETATM   25  N   UNL     1     -11.889  14.918  68.619  1.00  0.00    -0.463 NA 
HETATM   26  H   UNL     1     -12.817  15.293  68.819  1.00  0.00     0.000 HD 
BRANCH  25  27
HETATM   27  C   UNL     1     -10.858  15.862  68.620  1.00  0.00    -0.291 A  
HETATM   28  C   UNL     1     -10.018  18.052  68.032  1.00  0.00    -0.343 A  
HETATM   29  C   UNL     1     -11.082  17.146  68.118  1.00  0.00    -0.118 A  
HETATM   30  N   UNL     1      -8.764  17.727  68.460  1.00  0.00    -0.287 NA 
HETATM   31  C   UNL     1     -10.235  19.424  67.411  1.00  0.00    -0.420 C  
HETATM   32  C   UNL     1      -8.569  16.487  68.944  1.00  0.00    -0.241 A  
HETATM   33  F   UNL     1      -9.452  19.643  66.315  1.00  0.00    -0.358 F  
HETATM   34  F   UNL     1     -11.517  19.629  66.983  1.00  0.00    -0.437 F  
HETATM   35  F   UNL     1      -9.973  20.451  68.271  1.00  0.00    -0.481 F  
HETATM   36  C   UNL     1      -9.564  15.531  69.020  1.00  0.00    -0.238 A  
ENDBRANCH  25  27
ENDBRANCH  14  25
ENDBRANCH   7   9
ENDBRANCH   5   7
TORSDOF 5
ENDMDL
MODEL       37
REMARK 921   NORMALIZED FREE ENERGY PREDICTED BY IDOCK:   -7.87 KCAL/MOL
REMARK 922        TOTAL FREE ENERGY PREDICTED BY IDOCK:  -11.33 KCAL/MOL
REMARK 923 INTER-LIGAND FREE ENERGY PREDICTED BY IDOCK:  -10.46 KCAL/MOL
REMARK 924 INTRA-LIGAND FREE ENERGY PREDICTED BY IDOCK:   -0.87 KCAL/MOL
REMARK 927      BINDING AFFINITY PREDICTED BY RF-SCORE:    0.00 PKD
ROOT
HETATM    1  C   UNL     1      -7.108  10.117  62.768  1.00  0.00    -0.128 C  
HETATM    2  C   UNL     1      -7.721   9.788  64.132  1.00  0.00    -0.134 C  
HETATM    3  C   UNL     1      -7.289   8.383  64.571  1.00  0.00    -0.094 C  
HETATM    4  O   UNL     1      -7.214  10.726  65.095  1.00  0.00    -0.347 OA 
HETATM    5  C   UNL     1      -9.264   9.938  64.063  1.00  0.00    -0.253 C  
HETATM    6  H   UNL     1      -7.595  10.521  65.941  1.00  0.00     0.000 HD 
ENDROOT
BRANCH   5   7
HETATM    7  N   UNL     1      -9.870   9.502  65.312  1.00  0.00    -0.441 NA 
HETATM    8  H   UNL     1     -10.109   8.522  65.466  1.00  0.00     0.000 HD 
BRANCH   7   9
HETATM    9  C   UNL     1     -10.114  10.451  66.286  1.00  0.00    -0.231 A  
HETATM   10  N   UNL     1     -10.690  10.115  67.429  1.00  0.00    -0.277 NA 
HETATM   11  C   UNL     1     -10.889  11.111  68.292  1.00  0.00    -0.212 A  
HETATM   12  N   UNL     1      -9.703  11.679  65.995  1.00  0.00    -0.226 NA 
HETATM   13  N   UNL     1     -10.521  12.374  68.073  1.00  0.00    -0.211 NA 
HETATM   14  C   UNL     1      -9.900  12.602  66.924  1.00  0.00    -0.234 A  
BRANCH  11  15
HETATM   15  C   UNL     1     -11.549  10.812  69.592  1.00  0.00    -0.316 A  
HETATM   16  C   UNL     1     -12.023   9.232  71.273  1.00  0.00    -0.340 A  
HETATM   17  F   UNL     1     -13.068   7.199  72.019  1.00  0.00    -0.331 F  
HETATM   18  N   UNL     1     -11.430   9.546  70.085  1.00  0.00    -0.206 NA 
HETATM   19  C   UNL     1     -12.764  10.167  71.996  1.00  0.00    -0.421 A  
HETATM   20  C   UNL     1     -11.868   7.829  71.846  1.00  0.00    -0.297 C  
HETATM   21  C   UNL     1     -12.269  11.785  70.294  1.00  0.00    -0.381 A  
HETATM   22  C   UNL     1     -12.883  11.458  71.499  1.00  0.00    -0.508 A  
HETATM   23  F   UNL     1     -11.114   6.987  71.086  1.00  0.00    -0.255 F  
HETATM   24  F   UNL     1     -11.284   7.836  73.081  1.00  0.00    -0.425 F  
ENDBRANCH  11  15
BRANCH  14  25
HETATM   25  N   UNL     1      -9.336  13.856  66.681  1.00  0.00    -0.311 NA 
HETATM   26  H   UNL     1      -8.377  13.969  67.011  1.00  0.00     0.000 HD 
BRANCH  25  27
HETATM   27  C   UNL     1      -9.881  14.980  66.055  1.00  0.00    -0.319 A  
HETATM   28  C   UNL     1     -10.324  17.357  66.025  1.00  0.00    -0.304 A  
HETATM   29  C   UNL     1      -9.692  16.251  66.605  1.00  0.00    -0.266 A  
HETATM   30  N   UNL     1     -11.099  17.237  64.909  1.00  0.00    -0.817 NA 
HETATM   31  C   UNL     1     -10.191  18.732  66.665  1.00  0.00    -0.408 C  
HETATM   32  C   UNL     1     -11.266  16.007  64.392  1.00  0.00    -0.205 A  
HETATM   33  F   UNL     1     -11.389  19.262  67.045  1.00  0.00    -0.446 F  
HETATM   34  F   UNL     1      -9.424  18.730  67.798  1.00  0.00    -0.291 F  
HETATM   35  F   UNL     1      -9.615  19.655  65.842  1.00  0.00    -0.398 F  
HETATM   36  C   UNL     1     -10.705  14.867  64.935  1.00  0.00    -0.426 A  
ENDBRANCH  25  27
ENDBRANCH  14  25
ENDBRANCH   7   9
ENDBRANCH   5   7
TORSDOF 5
ENDMDL
MODEL       38
REMARK 921   NORMALIZED FREE ENERGY PREDICTED BY IDOCK:   -7.87 KCAL/MOL
REMARK 922        TOTAL FREE ENERGY PREDICTED BY IDOCK:  -11.33 KCAL/MOL
REMARK 923 INTER-LIGAND FREE ENERGY PREDICTED BY IDOCK:  -10.28 KCAL/MOL
REMARK 924 INTRA-LIGAND FREE ENERGY PREDICTED BY IDOCK:   -1.05 KCAL/MOL
REMARK 927      BINDING AFFINITY PREDICTED BY RF-SCORE:    0.00 PKD
ROOT
HETATM    1  C   UNL     1     -10.729  19.168  67.239  1.00  0.00    -0.585 C  
HETATM    2  C   UNL     1      -9.914  17.899  67.509  1.00  0.00    -0.322 C  
HETATM    3  C   UNL     1      -8.430  18.167  67.237  1.00  0.00    -0.243 C  
HETATM    4  O   UNL     1     -10.056  17.558  68.897  1.00  0.00    -0.338 OA 
HETATM    5  C   UNL     1     -10.471  16.729  66.655  1.00  0.00    -0.258 C  
HETATM    6  H   UNL     1      -9.550  16.770  69.064  1.00  0.00     0.000 HD 
ENDROOT
BRANCH   5   7
HETATM    7  N   UNL     1      -9.627  15.552  66.801  1.00  0.00    -0.226 NA 
HETATM    8  H   UNL     1      -8.654  15.562  66.494  1.00  0.00     0.000 HD 
BRANCH   7   9
HETATM    9  C   UNL     1     -10.179  14.419  67.367  1.00  0.00    -0.247 A  
HETATM   10  N   UNL     1     -10.810  14.482  68.529  1.00  0.00    -0.241 NA 
HETATM   11  C   UNL     1     -11.293  13.328  68.989  1.00  0.00    -0.285 A  
HETATM   12  N   UNL     1     -10.054  13.309  66.650  1.00  0.00    -0.260 NA 
HETATM   13  N   UNL     1     -11.198  12.167  68.340  1.00  0.00    -0.243 NA 
HETATM   14  C   UNL     1     -10.600  12.215  67.157  1.00  0.00    -0.226 A  
BRANCH  11  15
HETATM   15  C   UNL     1     -11.998  13.318  70.299  1.00  0.00    -0.300 A  
HETATM   16  C   UNL     1     -12.637  14.504  72.232  1.00  0.00    -0.303 A  
HETATM   17  F   UNL     1     -12.094  15.670  74.263  1.00  0.00    -0.570 F  
HETATM   18  N   UNL     1     -12.002  14.474  71.024  1.00  0.00    -0.329 NA 
HETATM   19  C   UNL     1     -13.273  13.379  72.757  1.00  0.00    -0.269 A  
HETATM   20  C   UNL     1     -12.673  15.799  73.032  1.00  0.00    -0.491 C  
HETATM   21  C   UNL     1     -12.639  12.172  70.782  1.00  0.00    -0.305 A  
HETATM   22  C   UNL     1     -13.274  12.202  72.021  1.00  0.00    -0.496 A  
HETATM   23  F   UNL     1     -12.046  16.852  72.436  1.00  0.00    -0.391 F  
HETATM   24  F   UNL     1     -13.950  16.220  73.278  1.00  0.00    -0.696 F  
ENDBRANCH  11  15
BRANCH  14  25
HETATM   25  N   UNL     1     -10.599  11.084  66.338  1.00  0.00    -0.262 NA 
HETATM   26  H   UNL     1     -10.875  11.253  65.370  1.00  0.00     0.000 HD 
BRANCH  25  27
HETATM   27  C   UNL     1     -10.279   9.758  66.638  1.00  0.00    -0.226 A  
HETATM   28  C   UNL     1     -10.336   7.878  68.159  1.00  0.00    -0.200 A  
HETATM   29  C   UNL     1     -10.744   9.174  67.820  1.00  0.00    -0.243 A  
HETATM   30  N   UNL     1      -9.519   7.147  67.347  1.00  0.00    -0.128 NA 
HETATM   31  C   UNL     1     -10.771   7.266  69.483  1.00  0.00    -0.232 C  
HETATM   32  C   UNL     1      -9.086   7.725  66.212  1.00  0.00    -0.178 A  
HETATM   33  F   UNL     1      -9.720   6.939  70.290  1.00  0.00    -0.169 F  
HETATM   34  F   UNL     1     -11.555   8.098  70.234  1.00  0.00    -0.248 F  
HETATM   35  F   UNL     1     -11.500   6.122  69.333  1.00  0.00    -0.456 F  
HETATM   36  C   UNL     1      -9.416   9.013  65.835  1.00  0.00    -0.317 A  
ENDBRANCH  25  27
ENDBRANCH  14  25
ENDBRANCH   7   9
ENDBRANCH   5   7
TORSDOF 5
ENDMDL
MODEL       39
REMARK 921   NORMALIZED FREE ENERGY PREDICTED BY IDOCK:   -7.84 KCAL/MOL
REMARK 922        TOTAL FREE ENERGY PREDICTED BY IDOCK:  -11.29 KCAL/MOL
REMARK 923 INTER-LIGAND FREE ENERGY PREDICTED BY IDOCK:  -10.39 KCAL/MOL
REMARK 924 INTRA-LIGAND FREE ENERGY PREDICTED BY IDOCK:   -0.90 KCAL/MOL
REMARK 927      BINDING AFFINITY PREDICTED BY RF-SCORE:    0.00 PKD
ROOT
HETATM    1  C   UNL     1     -13.332   8.849  72.746  1.00  0.00    -0.251 C  
HETATM    2  C   UNL     1     -12.540   8.488  71.485  1.00  0.00    -0.316 C  
HETATM    3  C   UNL     1     -11.225   7.804  71.875  1.00  0.00    -0.310 C  
HETATM    4  O   UNL     1     -13.315   7.553  70.717  1.00  0.00    -0.582 OA 
HETATM    5  C   UNL     1     -12.314   9.761  70.626  1.00  0.00    -0.168 C  
HETATM    6  H   UNL     1     -12.823   7.329  69.935  1.00  0.00     0.000 HD 
ENDROOT
BRANCH   5   7
HETATM    7  N   UNL     1     -11.452   9.458  69.493  1.00  0.00    -0.436 NA 
HETATM    8  H   UNL     1     -10.961   8.566  69.431  1.00  0.00     0.000 HD 
BRANCH   7   9
HETATM    9  C   UNL     1     -11.317  10.412  68.503  1.00  0.00    -0.220 A  
HETATM   10  N   UNL     1     -10.835  10.088  67.314  1.00  0.00    -0.253 NA 
HETATM   11  C   UNL     1     -10.735  11.088  66.437  1.00  0.00    -0.227 A  
HETATM   12  N   UNL     1     -11.729  11.630  68.829  1.00  0.00    -0.306 NA 
HETATM   13  N   UNL     1     -11.113  12.342  66.689  1.00  0.00    -0.275 NA 
HETATM   14  C   UNL     1     -11.637  12.556  67.888  1.00  0.00    -0.347 A  
BRANCH  11  15
HETATM   15  C   UNL     1     -10.184  10.803  65.085  1.00  0.00    -0.298 A  
HETATM   16  C   UNL     1      -8.761   9.488  63.745  1.00  0.00    -0.217 A  
HETATM   17  F   UNL     1      -6.569   8.720  63.124  1.00  0.00    -0.089 F  
HETATM   18  N   UNL     1      -9.290   9.779  64.969  1.00  0.00    -0.249 NA 
HETATM   19  C   UNL     1      -9.097  10.219  62.605  1.00  0.00    -0.299 A  
HETATM   20  C   UNL     1      -7.787   8.326  63.602  1.00  0.00    -0.152 C  
HETATM   21  C   UNL     1     -10.561  11.550  63.964  1.00  0.00    -0.437 A  
HETATM   22  C   UNL     1     -10.009  11.259  62.719  1.00  0.00    -0.197 A  
HETATM   23  F   UNL     1      -7.531   7.655  64.759  1.00  0.00    -0.072 F  
HETATM   24  F   UNL     1      -8.233   7.383  62.719  1.00  0.00    -0.139 F  
ENDBRANCH  11  15
BRANCH  14  25
HETATM   25  N   UNL     1     -12.207  13.797  68.181  1.00  0.00    -0.444 NA 
HETATM   26  H   UNL     1     -12.897  14.125  67.504  1.00  0.00     0.000 HD 
BRANCH  25  27
HETATM   27  C   UNL     1     -11.979  14.659  69.257  1.00  0.00    -0.302 A  
HETATM   28  C   UNL     1     -12.457  15.359  71.522  1.00  0.00    -0.384 A  
HETATM   29  C   UNL     1     -12.614  14.435  70.481  1.00  0.00    -0.417 A  
HETATM   30  N   UNL     1     -11.668  16.464  71.387  1.00  0.00    -0.368 NA 
HETATM   31  C   UNL     1     -13.209  15.167  72.830  1.00  0.00    -0.499 C  
HETATM   32  C   UNL     1     -11.062  16.660  70.201  1.00  0.00    -0.063 A  
HETATM   33  F   UNL     1     -14.050  16.202  73.120  1.00  0.00    -0.690 F  
HETATM   34  F   UNL     1     -13.999  14.049  72.843  1.00  0.00    -0.506 F  
HETATM   35  F   UNL     1     -12.386  15.038  73.911  1.00  0.00    -0.551 F  
HETATM   36  C   UNL     1     -11.205  15.811  69.121  1.00  0.00    -0.322 A  
ENDBRANCH  25  27
ENDBRANCH  14  25
ENDBRANCH   7   9
ENDBRANCH   5   7
TORSDOF 5
ENDMDL
MODEL       40
REMARK 921   NORMALIZED FREE ENERGY PREDICTED BY IDOCK:   -7.77 KCAL/MOL
REMARK 922        TOTAL FREE ENERGY PREDICTED BY IDOCK:  -11.21 KCAL/MOL
REMARK 923 INTER-LIGAND FREE ENERGY PREDICTED BY IDOCK:  -10.26 KCAL/MOL
REMARK 924 INTRA-LIGAND FREE ENERGY PREDICTED BY IDOCK:   -0.95 KCAL/MOL
REMARK 927      BINDING AFFINITY PREDICTED BY RF-SCORE:    0.00 PKD
ROOT
HETATM    1  C   UNL     1     -10.732   8.181  72.484  1.00  0.00    -0.419 C  
HETATM    2  C   UNL     1     -11.556   8.508  71.234  1.00  0.00    -0.283 C  
HETATM    3  C   UNL     1     -10.710   8.271  69.978  1.00  0.00    -0.239 C  
HETATM    4  O   UNL     1     -12.680   7.616  71.187  1.00  0.00    -0.463 OA 
HETATM    5  C   UNL     1     -12.087   9.964  71.324  1.00  0.00    -0.394 C  
HETATM    6  H   UNL     1     -13.190   7.819  70.411  1.00  0.00     0.000 HD 
ENDROOT
BRANCH   5   7
HETATM    7  N   UNL     1     -12.759  10.333  70.087  1.00  0.00    -0.557 NA 
HETATM    8  H   UNL     1     -13.636   9.888  69.814  1.00  0.00     0.000 HD 
BRANCH   7   9
HETATM    9  C   UNL     1     -12.179  11.302  69.292  1.00  0.00    -0.222 A  
HETATM   10  N   UNL     1     -12.123  11.154  67.978  1.00  0.00    -0.587 NA 
HETATM   11  C   UNL     1     -11.530  12.144  67.309  1.00  0.00    -0.345 A  
HETATM   12  N   UNL     1     -11.728  12.369  69.939  1.00  0.00    -0.298 NA 
HETATM   13  N   UNL     1     -11.038  13.243  67.882  1.00  0.00    -0.252 NA 
HETATM   14  C   UNL     1     -11.192  13.326  69.197  1.00  0.00    -0.251 A  
BRANCH  11  15
HETATM   15  C   UNL     1     -11.414  12.039  65.829  1.00  0.00    -0.320 A  
HETATM   16  C   UNL     1     -10.214  11.224  63.973  1.00  0.00    -0.348 A  
HETATM   17  F   UNL     1      -8.242  11.170  62.599  1.00  0.00    -0.189 F  
HETATM   18  N   UNL     1     -10.356  11.341  65.326  1.00  0.00    -0.268 NA 
HETATM   19  C   UNL     1     -11.116  11.812  63.085  1.00  0.00    -0.251 A  
HETATM   20  C   UNL     1      -9.052  10.420  63.404  1.00  0.00    -0.260 C  
HETATM   21  C   UNL     1     -12.351  12.628  64.974  1.00  0.00    -0.561 A  
HETATM   22  C   UNL     1     -12.196  12.519  63.594  1.00  0.00    -0.642 A  
HETATM   23  F   UNL     1      -8.234   9.865  64.341  1.00  0.00    -0.133 F  
HETATM   24  F   UNL     1      -9.476   9.383  62.622  1.00  0.00    -0.250 F  
ENDBRANCH  11  15
BRANCH  14  25
HETATM   25  N   UNL     1     -10.855  14.509  69.858  1.00  0.00    -0.447 NA 
HETATM   26  H   UNL     1     -11.237  14.600  70.799  1.00  0.00     0.000 HD 
BRANCH  25  27
HETATM   27  C   UNL     1     -10.075  15.586  69.429  1.00  0.00    -0.266 A  
HETATM   28  C   UNL     1      -7.910  16.623  69.134  1.00  0.00    -0.170 A  
HETATM   29  C   UNL     1      -8.681  15.504  69.471  1.00  0.00    -0.223 A  
HETATM   30  N   UNL     1      -8.483  17.792  68.727  1.00  0.00    -0.256 NA 
HETATM   31  C   UNL     1      -6.394  16.568  69.256  1.00  0.00    -0.194 C  
HETATM   32  C   UNL     1      -9.827  17.851  68.689  1.00  0.00    -0.374 A  
HETATM   33  F   UNL     1      -5.895  17.492  70.127  1.00  0.00    -0.232 F  
HETATM   34  F   UNL     1      -5.929  15.363  69.707  1.00  0.00    -0.114 F  
HETATM   35  F   UNL     1      -5.751  16.781  68.071  1.00  0.00    -0.105 F  
HETATM   36  C   UNL     1     -10.648  16.798  69.046  1.00  0.00    -0.343 A  
ENDBRANCH  25  27
ENDBRANCH  14  25
ENDBRANCH   7   9
ENDBRANCH   5   7
TORSDOF 5
ENDMDL
MODEL       41
REMARK 921   NORMALIZED FREE ENERGY PREDICTED BY IDOCK:   -7.67 KCAL/MOL
REMARK 922        TOTAL FREE ENERGY PREDICTED BY IDOCK:  -11.08 KCAL/MOL
REMARK 923 INTER-LIGAND FREE ENERGY PREDICTED BY IDOCK:   -9.98 KCAL/MOL
REMARK 924 INTRA-LIGAND FREE ENERGY PREDICTED BY IDOCK:   -1.10 KCAL/MOL
REMARK 927      BINDING AFFINITY PREDICTED BY RF-SCORE:    0.00 PKD
ROOT
HETATM    1  C   UNL     1      -9.030   9.642  62.500  1.00  0.00    -0.280 C  
HETATM    2  C   UNL     1      -8.731  10.337  63.832  1.00  0.00    -0.204 C  
HETATM    3  C   UNL     1      -7.223  10.315  64.103  1.00  0.00    -0.057 C  
HETATM    4  O   UNL     1      -9.142  11.710  63.728  1.00  0.00    -0.450 OA 
HETATM    5  C   UNL     1      -9.547   9.664  64.968  1.00  0.00    -0.214 C  
HETATM    6  H   UNL     1      -8.956  12.141  64.554  1.00  0.00     0.000 HD 
ENDROOT
BRANCH   5   7
HETATM    7  N   UNL     1      -9.175  10.227  66.258  1.00  0.00    -0.156 NA 
HETATM    8  H   UNL     1      -8.198  10.269  66.550  1.00  0.00     0.000 HD 
BRANCH   7   9
HETATM    9  C   UNL     1     -10.181  10.704  67.076  1.00  0.00    -0.220 A  
HETATM   10  N   UNL     1     -10.489  10.080  68.202  1.00  0.00    -0.198 NA 
HETATM   11  C   UNL     1     -11.483  10.618  68.909  1.00  0.00    -0.265 A  
HETATM   12  N   UNL     1     -10.765  11.822  66.664  1.00  0.00    -0.251 NA 
HETATM   13  N   UNL     1     -12.132  11.730  68.559  1.00  0.00    -0.455 NA 
HETATM   14  C   UNL     1     -11.713  12.315  67.445  1.00  0.00    -0.335 A  
BRANCH  11  15
HETATM   15  C   UNL     1     -11.898   9.960  70.177  1.00  0.00    -0.124 A  
HETATM   16  C   UNL     1     -11.546   8.231  71.738  1.00  0.00    -0.299 A  
HETATM   17  F   UNL     1     -11.513   5.901  72.327  1.00  0.00    -0.303 F  
HETATM   18  N   UNL     1     -11.195   8.864  70.580  1.00  0.00    -0.262 NA 
HETATM   19  C   UNL     1     -12.618   8.666  72.517  1.00  0.00    -0.367 A  
HETATM   20  C   UNL     1     -10.745   7.025  72.211  1.00  0.00    -0.220 C  
HETATM   21  C   UNL     1     -12.969  10.439  70.939  1.00  0.00    -0.475 A  
HETATM   22  C   UNL     1     -13.334   9.784  72.112  1.00  0.00    -0.527 A  
HETATM   23  F   UNL     1      -9.705   6.682  71.401  1.00  0.00    -0.170 F  
HETATM   24  F   UNL     1     -10.201   7.219  73.449  1.00  0.00    -0.243 F  
ENDBRANCH  11  15
BRANCH  14  25
HETATM   25  N   UNL     1     -12.222  13.566  67.089  1.00  0.00    -0.332 NA 
HETATM   26  H   UNL     1     -13.224  13.682  67.239  1.00  0.00     0.000 HD 
BRANCH  25  27
HETATM   27  C   UNL     1     -11.570  14.683  66.559  1.00  0.00    -0.344 A  
HETATM   28  C   UNL     1     -10.573  16.866  66.854  1.00  0.00    -0.214 A  
HETATM   29  C   UNL     1     -11.135  15.707  67.403  1.00  0.00    -0.260 A  
HETATM   30  N   UNL     1     -10.404  17.012  65.508  1.00  0.00    -0.623 NA 
HETATM   31  C   UNL     1     -10.171  18.020  67.760  1.00  0.00    -0.378 C  
HETATM   32  C   UNL     1     -10.826  16.013  64.712  1.00  0.00    -0.294 A  
HETATM   33  F   UNL     1     -10.835  19.178  67.475  1.00  0.00    -0.494 F  
HETATM   34  F   UNL     1     -10.419  17.783  69.084  1.00  0.00    -0.362 F  
HETATM   35  F   UNL     1      -8.842  18.322  67.691  1.00  0.00    -0.248 F  
HETATM   36  C   UNL     1     -11.425  14.860  65.183  1.00  0.00    -0.357 A  
ENDBRANCH  25  27
ENDBRANCH  14  25
ENDBRANCH   7   9
ENDBRANCH   5   7
TORSDOF 5
ENDMDL
MODEL       42
REMARK 921   NORMALIZED FREE ENERGY PREDICTED BY IDOCK:   -7.64 KCAL/MOL
REMARK 922        TOTAL FREE ENERGY PREDICTED BY IDOCK:  -11.04 KCAL/MOL
REMARK 923 INTER-LIGAND FREE ENERGY PREDICTED BY IDOCK:   -9.98 KCAL/MOL
REMARK 924 INTRA-LIGAND FREE ENERGY PREDICTED BY IDOCK:   -1.05 KCAL/MOL
REMARK 927      BINDING AFFINITY PREDICTED BY RF-SCORE:    0.00 PKD
ROOT
HETATM    1  C   UNL     1     -10.014   4.259  65.393  1.00  0.00    -0.233 C  
HETATM    2  C   UNL     1      -9.397   5.383  66.231  1.00  0.00    -0.154 C  
HETATM    3  C   UNL     1      -8.040   4.934  66.785  1.00  0.00    -0.107 C  
HETATM    4  O   UNL     1      -9.173   6.514  65.375  1.00  0.00    -0.368 OA 
HETATM    5  C   UNL     1     -10.385   5.802  67.352  1.00  0.00    -0.225 C  
HETATM    6  H   UNL     1      -8.790   7.212  65.895  1.00  0.00     0.000 HD 
ENDROOT
BRANCH   5   7
HETATM    7  N   UNL     1      -9.761   6.776  68.236  1.00  0.00    -0.126 NA 
HETATM    8  H   UNL     1      -8.997   6.508  68.857  1.00  0.00     0.000 HD 
BRANCH   7   9
HETATM    9  C   UNL     1     -10.232   8.074  68.212  1.00  0.00    -0.205 A  
HETATM   10  N   UNL     1     -10.190   8.788  67.098  1.00  0.00    -0.251 NA 
HETATM   11  C   UNL     1     -10.659  10.033  67.191  1.00  0.00    -0.232 A  
HETATM   12  N   UNL     1     -10.742   8.513  69.355  1.00  0.00    -0.198 NA 
HETATM   13  N   UNL     1     -11.175  10.556  68.304  1.00  0.00    -0.294 NA 
HETATM   14  C   UNL     1     -11.227   9.745  69.351  1.00  0.00    -0.114 A  
BRANCH  11  15
HETATM   15  C   UNL     1     -10.626  10.902  65.983  1.00  0.00    -0.189 A  
HETATM   16  C   UNL     1     -11.095  12.999  65.019  1.00  0.00    -0.294 A  
HETATM   17  F   UNL     1     -12.649  14.696  64.320  1.00  0.00    -0.484 F  
HETATM   18  N   UNL     1     -11.107  12.173  66.105  1.00  0.00    -0.298 NA 
HETATM   19  C   UNL     1     -10.618  12.577  63.778  1.00  0.00    -0.471 A  
HETATM   20  C   UNL     1     -11.601  14.430  65.155  1.00  0.00    -0.361 C  
HETATM   21  C   UNL     1     -10.123  10.445  64.760  1.00  0.00    -0.387 A  
HETATM   22  C   UNL     1     -10.125  11.286  63.651  1.00  0.00    -0.432 A  
HETATM   23  F   UNL     1     -12.029  14.763  66.405  1.00  0.00    -0.362 F  
HETATM   24  F   UNL     1     -10.643  15.350  64.835  1.00  0.00    -0.384 F  
ENDBRANCH  11  15
BRANCH  14  25
HETATM   25  N   UNL     1     -11.896  10.153  70.507  1.00  0.00    -0.301 NA 
HETATM   26  H   UNL     1     -12.076   9.412  71.185  1.00  0.00     0.000 HD 
BRANCH  25  27
HETATM   27  C   UNL     1     -12.359  11.418  70.878  1.00  0.00    -0.381 A  
HETATM   28  C   UNL     1     -12.251  13.827  70.698  1.00  0.00    -0.363 A  
HETATM   29  C   UNL     1     -11.855  12.561  70.251  1.00  0.00    -0.305 A  
HETATM   30  N   UNL     1     -13.149  13.981  71.714  1.00  0.00    -0.350 NA 
HETATM   31  C   UNL     1     -11.646  15.077  70.076  1.00  0.00    -0.287 C  
HETATM   32  C   UNL     1     -13.626  12.869  72.302  1.00  0.00    -0.515 A  
HETATM   33  F   UNL     1     -10.981  15.854  70.979  1.00  0.00    -0.325 F  
HETATM   34  F   UNL     1     -10.731  14.807  69.095  1.00  0.00    -0.224 F  
HETATM   35  F   UNL     1     -12.572  15.890  69.490  1.00  0.00    -0.283 F  
HETATM   36  C   UNL     1     -13.248  11.590  71.939  1.00  0.00    -0.479 A  
ENDBRANCH  25  27
ENDBRANCH  14  25
ENDBRANCH   7   9
ENDBRANCH   5   7
TORSDOF 5
ENDMDL
MODEL       43
REMARK 921   NORMALIZED FREE ENERGY PREDICTED BY IDOCK:   -7.63 KCAL/MOL
REMARK 922        TOTAL FREE ENERGY PREDICTED BY IDOCK:  -11.03 KCAL/MOL
REMARK 923 INTER-LIGAND FREE ENERGY PREDICTED BY IDOCK:   -9.93 KCAL/MOL
REMARK 924 INTRA-LIGAND FREE ENERGY PREDICTED BY IDOCK:   -1.09 KCAL/MOL
REMARK 927      BINDING AFFINITY PREDICTED BY RF-SCORE:    0.00 PKD
ROOT
HETATM    1  C   UNL     1     -14.041   7.482  71.691  1.00  0.00    -0.562 C  
HETATM    2  C   UNL     1     -12.791   8.323  71.416  1.00  0.00    -0.247 C  
HETATM    3  C   UNL     1     -11.783   8.145  72.558  1.00  0.00    -0.457 C  
HETATM    4  O   UNL     1     -12.180   7.844  70.208  1.00  0.00    -0.381 OA 
HETATM    5  C   UNL     1     -13.194   9.808  71.209  1.00  0.00    -0.373 C  
HETATM    6  H   UNL     1     -11.404   8.366  70.038  1.00  0.00     0.000 HD 
ENDROOT
BRANCH   5   7
HETATM    7  N   UNL     1     -12.006  10.639  71.078  1.00  0.00    -0.350 NA 
HETATM    8  H   UNL     1     -11.468  10.920  71.898  1.00  0.00     0.000 HD 
BRANCH   7   9
HETATM    9  C   UNL     1     -11.626  11.038  69.811  1.00  0.00    -0.325 A  
HETATM   10  N   UNL     1     -11.007  10.199  68.996  1.00  0.00    -0.226 NA 
HETATM   11  C   UNL     1     -10.674  10.692  67.802  1.00  0.00    -0.257 A  
HETATM   12  N   UNL     1     -11.954  12.282  69.487  1.00  0.00    -0.295 NA 
HETATM   13  N   UNL     1     -10.953  11.934  67.402  1.00  0.00    -0.248 NA 
HETATM   14  C   UNL     1     -11.626  12.680  68.268  1.00  0.00    -0.332 A  
BRANCH  11  15
HETATM   15  C   UNL     1      -9.959   9.812  66.838  1.00  0.00    -0.211 A  
HETATM   16  C   UNL     1      -9.151   7.662  66.317  1.00  0.00    -0.162 A  
HETATM   17  F   UNL     1      -7.694   5.798  66.747  1.00  0.00    -0.094 F  
HETATM   18  N   UNL     1      -9.803   8.500  67.175  1.00  0.00    -0.186 NA 
HETATM   19  C   UNL     1      -8.624   8.112  65.107  1.00  0.00    -0.097 A  
HETATM   20  C   UNL     1      -9.002   6.188  66.672  1.00  0.00    -0.130 C  
HETATM   21  C   UNL     1      -9.460  10.301  65.626  1.00  0.00    -0.274 A  
HETATM   22  C   UNL     1      -8.784   9.446  64.759  1.00  0.00    -0.227 A  
HETATM   23  F   UNL     1      -9.563   5.831  67.861  1.00  0.00    -0.112 F  
HETATM   24  F   UNL     1      -9.568   5.371  65.735  1.00  0.00    -0.168 F  
ENDBRANCH  11  15
BRANCH  14  25
HETATM   25  N   UNL     1     -12.102  13.933  67.875  1.00  0.00    -0.470 NA 
HETATM   26  H   UNL     1     -13.050  14.150  68.182  1.00  0.00     0.000 HD 
BRANCH  25  27
HETATM   27  C   UNL     1     -11.480  14.935  67.126  1.00  0.00    -0.335 A  
HETATM   28  C   UNL     1     -10.527  17.153  66.970  1.00  0.00    -0.282 A  
HETATM   29  C   UNL     1     -11.059  16.115  67.745  1.00  0.00    -0.254 A  
HETATM   30  N   UNL     1     -10.374  17.033  65.619  1.00  0.00    -0.591 NA 
HETATM   31  C   UNL     1     -10.142  18.471  67.625  1.00  0.00    -0.364 C  
HETATM   32  C   UNL     1     -10.781  15.888  65.042  1.00  0.00    -0.404 A  
HETATM   33  F   UNL     1     -10.834  19.536  67.125  1.00  0.00    -0.527 F  
HETATM   34  F   UNL     1     -10.373  18.495  68.973  1.00  0.00    -0.386 F  
HETATM   35  F   UNL     1      -8.821  18.779  67.479  1.00  0.00    -0.271 F  
HETATM   36  C   UNL     1     -11.350  14.840  65.740  1.00  0.00    -0.336 A  
ENDBRANCH  25  27
ENDBRANCH  14  25
ENDBRANCH   7   9
ENDBRANCH   5   7
TORSDOF 5
ENDMDL
MODEL       44
REMARK 921   NORMALIZED FREE ENERGY PREDICTED BY IDOCK:   -7.62 KCAL/MOL
REMARK 922        TOTAL FREE ENERGY PREDICTED BY IDOCK:  -11.01 KCAL/MOL
REMARK 923 INTER-LIGAND FREE ENERGY PREDICTED BY IDOCK:  -10.27 KCAL/MOL
REMARK 924 INTRA-LIGAND FREE ENERGY PREDICTED BY IDOCK:   -0.75 KCAL/MOL
REMARK 927      BINDING AFFINITY PREDICTED BY RF-SCORE:    0.00 PKD
ROOT
HETATM    1  C   UNL     1     -10.159   6.730  74.287  1.00  0.00    -0.348 C  
HETATM    2  C   UNL     1     -10.805   6.816  72.901  1.00  0.00    -0.272 C  
HETATM    3  C   UNL     1     -11.487   5.485  72.561  1.00  0.00    -0.303 C  
HETATM    4  O   UNL     1     -11.818   7.835  72.937  1.00  0.00    -0.597 OA 
HETATM    5  C   UNL     1      -9.738   7.220  71.849  1.00  0.00    -0.155 C  
HETATM    6  H   UNL     1     -12.219   7.888  72.077  1.00  0.00     0.000 HD 
ENDROOT
BRANCH   5   7
HETATM    7  N   UNL     1     -10.307   7.178  70.510  1.00  0.00    -0.200 NA 
HETATM    8  H   UNL     1     -10.461   6.289  70.033  1.00  0.00     0.000 HD 
BRANCH   7   9
HETATM    9  C   UNL     1     -10.634   8.375  69.903  1.00  0.00    -0.228 A  
HETATM   10  N   UNL     1     -11.228   9.340  70.586  1.00  0.00    -0.261 NA 
HETATM   11  C   UNL     1     -11.510  10.447  69.899  1.00  0.00    -0.297 A  
HETATM   12  N   UNL     1     -10.283   8.477  68.627  1.00  0.00    -0.195 NA 
HETATM   13  N   UNL     1     -11.204  10.626  68.613  1.00  0.00    -0.262 NA 
HETATM   14  C   UNL     1     -10.560   9.625  68.029  1.00  0.00    -0.243 A  
BRANCH  11  15
HETATM   15  C   UNL     1     -12.194  11.569  70.597  1.00  0.00    -0.378 A  
HETATM   16  C   UNL     1     -12.436  13.895  70.879  1.00  0.00    -0.375 A  
HETATM   17  F   UNL     1     -11.566  16.039  71.534  1.00  0.00    -0.389 F  
HETATM   18  N   UNL     1     -11.832  12.840  70.259  1.00  0.00    -0.271 NA 
HETATM   19  C   UNL     1     -13.406  13.713  71.864  1.00  0.00    -0.510 A  
HETATM   20  C   UNL     1     -12.059  15.317  70.484  1.00  0.00    -0.354 C  
HETATM   21  C   UNL     1     -13.176  11.343  71.568  1.00  0.00    -0.333 A  
HETATM   22  C   UNL     1     -13.780  12.421  72.208  1.00  0.00    -0.271 A  
HETATM   23  F   UNL     1     -11.119  15.403  69.501  1.00  0.00    -0.226 F  
HETATM   24  F   UNL     1     -13.134  16.029  70.030  1.00  0.00    -0.129 F  
ENDBRANCH  11  15
BRANCH  14  25
HETATM   25  N   UNL     1     -10.058   9.788  66.736  1.00  0.00    -0.218 NA 
HETATM   26  H   UNL     1      -9.456   9.033  66.409  1.00  0.00     0.000 HD 
BRANCH  25  27
HETATM   27  C   UNL     1     -10.254  10.826  65.821  1.00  0.00    -0.257 A  
HETATM   28  C   UNL     1     -10.983  13.079  65.328  1.00  0.00    -0.284 A  
HETATM   29  C   UNL     1     -10.696  12.076  66.262  1.00  0.00    -0.302 A  
HETATM   30  N   UNL     1     -10.810  12.882  63.989  1.00  0.00    -0.409 NA 
HETATM   31  C   UNL     1     -11.543  14.415  65.793  1.00  0.00    -0.353 C  
HETATM   32  C   UNL     1     -10.380  11.673  63.584  1.00  0.00    -0.419 A  
HETATM   33  F   UNL     1     -12.770  14.692  65.265  1.00  0.00    -0.363 F  
HETATM   34  F   UNL     1     -11.712  14.490  67.149  1.00  0.00    -0.349 F  
HETATM   35  F   UNL     1     -10.746  15.474  65.471  1.00  0.00    -0.299 F  
HETATM   36  C   UNL     1     -10.115  10.627  64.448  1.00  0.00    -0.418 A  
ENDBRANCH  25  27
ENDBRANCH  14  25
ENDBRANCH   7   9
ENDBRANCH   5   7
TORSDOF 5
ENDMDL
MODEL       45
REMARK 921   NORMALIZED FREE ENERGY PREDICTED BY IDOCK:   -7.55 KCAL/MOL
REMARK 922        TOTAL FREE ENERGY PREDICTED BY IDOCK:  -10.91 KCAL/MOL
REMARK 923 INTER-LIGAND FREE ENERGY PREDICTED BY IDOCK:   -9.71 KCAL/MOL
REMARK 924 INTRA-LIGAND FREE ENERGY PREDICTED BY IDOCK:   -1.20 KCAL/MOL
REMARK 927      BINDING AFFINITY PREDICTED BY RF-SCORE:    0.00 PKD
ROOT
HETATM    1  C   UNL     1      -9.453   8.370  68.524  1.00  0.00    -0.149 C  
HETATM    2  C   UNL     1      -9.819   9.496  67.552  1.00  0.00    -0.167 C  
HETATM    3  C   UNL     1      -9.755   8.979  66.110  1.00  0.00    -0.354 C  
HETATM    4  O   UNL     1     -11.171   9.901  67.818  1.00  0.00    -0.484 OA 
HETATM    5  C   UNL     1      -8.886  10.714  67.786  1.00  0.00    -0.133 C  
HETATM    6  H   UNL     1     -11.398  10.600  67.215  1.00  0.00     0.000 HD 
ENDROOT
BRANCH   5   7
HETATM    7  N   UNL     1      -9.134  11.740  66.784  1.00  0.00    -0.188 NA 
HETATM    8  H   UNL     1      -8.965  11.559  65.794  1.00  0.00     0.000 HD 
BRANCH   7   9
HETATM    9  C   UNL     1      -9.606  12.967  67.210  1.00  0.00    -0.220 A  
HETATM   10  N   UNL     1      -9.023  14.088  66.818  1.00  0.00    -0.228 NA 
HETATM   11  C   UNL     1      -9.552  15.214  67.298  1.00  0.00    -0.209 A  
HETATM   12  N   UNL     1     -10.678  12.921  67.991  1.00  0.00    -0.222 NA 
HETATM   13  N   UNL     1     -10.618  15.257  68.098  1.00  0.00    -0.249 NA 
HETATM   14  C   UNL     1     -11.167  14.085  68.389  1.00  0.00    -0.266 A  
BRANCH  11  15
HETATM   15  C   UNL     1      -8.937  16.514  66.915  1.00  0.00    -0.219 A  
HETATM   16  C   UNL     1      -9.218  18.823  66.542  1.00  0.00    -0.331 A  
HETATM   17  F   UNL     1     -10.172  20.657  65.316  1.00  0.00    -0.322 F  
HETATM   18  N   UNL     1      -9.745  17.613  66.890  1.00  0.00    -0.280 NA 
HETATM   19  C   UNL     1      -7.875  18.969  66.196  1.00  0.00    -0.283 A  
HETATM   20  C   UNL     1     -10.107  20.060  66.543  1.00  0.00    -0.482 C  
HETATM   21  C   UNL     1      -7.580  16.620  66.592  1.00  0.00    -0.314 A  
HETATM   22  C   UNL     1      -7.049  17.853  66.224  1.00  0.00    -0.321 A  
HETATM   23  F   UNL     1     -11.398  19.831  66.913  1.00  0.00    -0.480 F  
HETATM   24  F   UNL     1      -9.645  21.028  67.391  1.00  0.00    -0.589 F  
ENDBRANCH  11  15
BRANCH  14  25
HETATM   25  N   UNL     1     -12.377  14.044  69.084  1.00  0.00    -0.486 NA 
HETATM   26  H   UNL     1     -13.150  14.535  68.635  1.00  0.00     0.000 HD 
BRANCH  25  27
HETATM   27  C   UNL     1     -12.694  13.434  70.301  1.00  0.00    -0.009 A  
HETATM   28  C   UNL     1     -13.012  11.436  71.626  1.00  0.00    -0.418 A  
HETATM   29  C   UNL     1     -12.599  12.047  70.436  1.00  0.00    -0.128 A  
HETATM   30  N   UNL     1     -13.477  12.165  72.682  1.00  0.00     0.006 NA 
HETATM   31  C   UNL     1     -12.990   9.920  71.752  1.00  0.00    -0.449 C  
HETATM   32  C   UNL     1     -13.557  13.500  72.535  1.00  0.00    -0.569 A  
HETATM   33  F   UNL     1     -14.222   9.387  71.996  1.00  0.00    -0.362 F  
HETATM   34  F   UNL     1     -12.544   9.288  70.624  1.00  0.00    -0.234 F  
HETATM   35  F   UNL     1     -12.182   9.475  72.758  1.00  0.00    -0.155 F  
HETATM   36  C   UNL     1     -13.204  14.163  71.375  1.00  0.00    -0.418 A  
ENDBRANCH  25  27
ENDBRANCH  14  25
ENDBRANCH   7   9
ENDBRANCH   5   7
TORSDOF 5
ENDMDL
MODEL       46
REMARK 921   NORMALIZED FREE ENERGY PREDICTED BY IDOCK:   -7.53 KCAL/MOL
REMARK 922        TOTAL FREE ENERGY PREDICTED BY IDOCK:  -10.90 KCAL/MOL
REMARK 923 INTER-LIGAND FREE ENERGY PREDICTED BY IDOCK:  -10.00 KCAL/MOL
REMARK 924 INTRA-LIGAND FREE ENERGY PREDICTED BY IDOCK:   -0.90 KCAL/MOL
REMARK 927      BINDING AFFINITY PREDICTED BY RF-SCORE:    0.00 PKD
ROOT
HETATM    1  C   UNL     1      -9.614  13.032  66.327  1.00  0.00    -0.243 C  
HETATM    2  C   UNL     1     -10.713  12.003  66.609  1.00  0.00    -0.245 C  
HETATM    3  C   UNL     1     -12.003  12.719  67.025  1.00  0.00    -0.364 C  
HETATM    4  O   UNL     1     -10.979  11.281  65.396  1.00  0.00    -0.230 OA 
HETATM    5  C   UNL     1     -10.222  10.995  67.683  1.00  0.00    -0.182 C  
HETATM    6  H   UNL     1     -11.660  10.642  65.571  1.00  0.00     0.000 HD 
ENDROOT
BRANCH   5   7
HETATM    7  N   UNL     1     -11.301  10.091  68.057  1.00  0.00    -0.556 NA 
HETATM    8  H   UNL     1     -11.872   9.634  67.346  1.00  0.00     0.000 HD 
BRANCH   7   9
HETATM    9  C   UNL     1     -11.530   9.869  69.400  1.00  0.00    -0.026 A  
HETATM   10  N   UNL     1     -10.997   8.825  70.013  1.00  0.00    -0.236 NA 
HETATM   11  C   UNL     1     -11.293   8.699  71.308  1.00  0.00    -0.281 A  
HETATM   12  N   UNL     1     -12.278  10.782  70.006  1.00  0.00    -0.331 NA 
HETATM   13  N   UNL     1     -12.048   9.563  71.988  1.00  0.00    -0.327 NA 
HETATM   14  C   UNL     1     -12.490  10.608  71.301  1.00  0.00    -0.410 A  
BRANCH  11  15
HETATM   15  C   UNL     1     -10.745   7.538  72.059  1.00  0.00    -0.225 A  
HETATM   16  C   UNL     1      -9.898   5.340  71.999  1.00  0.00    -0.174 A  
HETATM   17  F   UNL     1     -10.171   2.989  71.580  1.00  0.00    -0.236 F  
HETATM   18  N   UNL     1     -10.403   6.427  71.345  1.00  0.00    -0.203 NA 
HETATM   19  C   UNL     1      -9.733   5.326  73.383  1.00  0.00    -0.156 A  
HETATM   20  C   UNL     1      -9.484   4.108  71.204  1.00  0.00    -0.163 C  
HETATM   21  C   UNL     1     -10.579   7.570  73.447  1.00  0.00    -0.409 A  
HETATM   22  C   UNL     1     -10.076   6.456  74.113  1.00  0.00    -0.353 A  
HETATM   23  F   UNL     1      -9.660   4.216  69.858  1.00  0.00    -0.212 F  
HETATM   24  F   UNL     1      -8.165   3.798  71.381  1.00  0.00    -0.064 F  
ENDBRANCH  11  15
BRANCH  14  25
HETATM   25  N   UNL     1     -13.148  11.643  71.968  1.00  0.00    -0.442 NA 
HETATM   26  H   UNL     1     -13.592  11.377  72.847  1.00  0.00     0.000 HD 
BRANCH  25  27
HETATM   27  C   UNL     1     -13.294  12.988  71.616  1.00  0.00    -0.292 A  
HETATM   28  C   UNL     1     -12.479  14.959  70.476  1.00  0.00    -0.363 A  
HETATM   29  C   UNL     1     -12.382  13.588  70.743  1.00  0.00    -0.440 A  
HETATM   30  N   UNL     1     -13.466  15.728  71.020  1.00  0.00    -0.488 NA 
HETATM   31  C   UNL     1     -11.442  15.636  69.592  1.00  0.00    -0.340 C  
HETATM   32  C   UNL     1     -14.336  15.131  71.855  1.00  0.00    -0.596 A  
HETATM   33  F   UNL     1     -10.761  16.630  70.233  1.00  0.00    -0.287 F  
HETATM   34  F   UNL     1     -10.478  14.781  69.132  1.00  0.00    -0.218 F  
HETATM   35  F   UNL     1     -11.978  16.208  68.475  1.00  0.00    -0.362 F  
HETATM   36  C   UNL     1     -14.276  13.793  72.193  1.00  0.00    -0.544 A  
ENDBRANCH  25  27
ENDBRANCH  14  25
ENDBRANCH   7   9
ENDBRANCH   5   7
TORSDOF 5
ENDMDL
MODEL       47
REMARK 921   NORMALIZED FREE ENERGY PREDICTED BY IDOCK:   -7.52 KCAL/MOL
REMARK 922        TOTAL FREE ENERGY PREDICTED BY IDOCK:  -10.89 KCAL/MOL
REMARK 923 INTER-LIGAND FREE ENERGY PREDICTED BY IDOCK:  -10.03 KCAL/MOL
REMARK 924 INTRA-LIGAND FREE ENERGY PREDICTED BY IDOCK:   -0.86 KCAL/MOL
REMARK 927      BINDING AFFINITY PREDICTED BY RF-SCORE:    0.00 PKD
ROOT
HETATM    1  C   UNL     1     -11.255  15.831  64.613  1.00  0.00    -0.373 C  
HETATM    2  C   UNL     1     -11.825  14.413  64.509  1.00  0.00    -0.449 C  
HETATM    3  C   UNL     1     -12.923  14.216  65.560  1.00  0.00    -0.303 C  
HETATM    4  O   UNL     1     -12.422  14.260  63.211  1.00  0.00    -1.133 OA 
HETATM    5  C   UNL     1     -10.678  13.377  64.649  1.00  0.00    -0.411 C  
HETATM    6  H   UNL     1     -12.775  13.380  63.147  1.00  0.00     0.000 HD 
ENDROOT
BRANCH   5   7
HETATM    7  N   UNL     1     -11.220  12.026  64.684  1.00  0.00    -0.319 NA 
HETATM    8  H   UNL     1     -11.786  11.668  63.913  1.00  0.00     0.000 HD 
BRANCH   7   9
HETATM    9  C   UNL     1     -10.949  11.242  65.788  1.00  0.00    -0.145 A  
HETATM   10  N   UNL     1     -10.622   9.968  65.648  1.00  0.00     0.025 NA 
HETATM   11  C   UNL     1     -10.393   9.301  66.780  1.00  0.00    -0.226 A  
HETATM   12  N   UNL     1     -11.011  11.868  66.956  1.00  0.00    -0.262 NA 
HETATM   13  N   UNL     1     -10.447   9.850  67.994  1.00  0.00    -0.208 NA 
HETATM   14  C   UNL     1     -10.727  11.146  68.028  1.00  0.00    -0.211 A  
BRANCH  11  15
HETATM   15  C   UNL     1     -10.038   7.858  66.702  1.00  0.00    -0.240 A  
HETATM   16  C   UNL     1      -8.558   6.205  65.911  1.00  0.00    -0.147 A  
HETATM   17  F   UNL     1      -7.531   4.984  64.112  1.00  0.00    -0.058 F  
HETATM   18  N   UNL     1      -8.915   7.519  66.006  1.00  0.00    -0.156 NA 
HETATM   19  C   UNL     1      -9.318   5.192  66.493  1.00  0.00    -0.142 A  
HETATM   20  C   UNL     1      -7.287   5.822  65.163  1.00  0.00    -0.075 C  
HETATM   21  C   UNL     1     -10.819   6.873  67.315  1.00  0.00    -0.426 A  
HETATM   22  C   UNL     1     -10.460   5.533  67.205  1.00  0.00    -0.300 A  
HETATM   23  F   UNL     1      -6.595   6.875  64.644  1.00  0.00    -0.039 F  
HETATM   24  F   UNL     1      -6.400   5.154  65.959  1.00  0.00    -0.034 F  
ENDBRANCH  11  15
BRANCH  14  25
HETATM   25  N   UNL     1     -10.645  11.837  69.239  1.00  0.00    -0.430 NA 
HETATM   26  H   UNL     1      -9.711  12.160  69.489  1.00  0.00     0.000 HD 
BRANCH  25  27
HETATM   27  C   UNL     1     -11.647  12.155  70.160  1.00  0.00    -0.118 A  
HETATM   28  C   UNL     1     -12.852  13.795  71.466  1.00  0.00    -0.362 A  
HETATM   29  C   UNL     1     -11.917  13.491  70.470  1.00  0.00    -0.344 A  
HETATM   30  N   UNL     1     -13.540  12.819  72.127  1.00  0.00    -0.514 NA 
HETATM   31  C   UNL     1     -13.093  15.243  71.867  1.00  0.00    -0.395 C  
HETATM   32  C   UNL     1     -13.268  11.540  71.812  1.00  0.00    -0.351 A  
HETATM   33  F   UNL     1     -12.817  15.486  73.181  1.00  0.00    -0.405 F  
HETATM   34  F   UNL     1     -12.325  16.135  71.169  1.00  0.00    -0.446 F  
HETATM   35  F   UNL     1     -14.382  15.648  71.672  1.00  0.00    -0.527 F  
HETATM   36  C   UNL     1     -12.330  11.167  70.868  1.00  0.00    -0.500 A  
ENDBRANCH  25  27
ENDBRANCH  14  25
ENDBRANCH   7   9
ENDBRANCH   5   7
TORSDOF 5
ENDMDL
MODEL       48
REMARK 921   NORMALIZED FREE ENERGY PREDICTED BY IDOCK:   -7.52 KCAL/MOL
REMARK 922        TOTAL FREE ENERGY PREDICTED BY IDOCK:  -10.88 KCAL/MOL
REMARK 923 INTER-LIGAND FREE ENERGY PREDICTED BY IDOCK:   -9.70 KCAL/MOL
REMARK 924 INTRA-LIGAND FREE ENERGY PREDICTED BY IDOCK:   -1.18 KCAL/MOL
REMARK 927      BINDING AFFINITY PREDICTED BY RF-SCORE:    0.00 PKD
ROOT
HETATM    1  C   UNL     1     -11.739  15.612  64.081  1.00  0.00    -0.081 C  
HETATM    2  C   UNL     1     -11.570  14.121  64.393  1.00  0.00    -0.362 C  
HETATM    3  C   UNL     1     -12.084  13.283  63.218  1.00  0.00    -0.407 C  
HETATM    4  O   UNL     1     -10.168  13.849  64.550  1.00  0.00    -0.616 OA 
HETATM    5  C   UNL     1     -12.290  13.780  65.725  1.00  0.00    -0.486 C  
HETATM    6  H   UNL     1     -10.063  12.925  64.744  1.00  0.00     0.000 HD 
ENDROOT
BRANCH   5   7
HETATM    7  N   UNL     1     -12.250  12.345  65.967  1.00  0.00    -0.624 NA 
HETATM    8  H   UNL     1     -12.805  11.702  65.402  1.00  0.00     0.000 HD 
BRANCH   7   9
HETATM    9  C   UNL     1     -11.439  11.877  66.982  1.00  0.00    -0.316 A  
HETATM   10  N   UNL     1     -11.500  10.613  67.368  1.00  0.00    -0.410 NA 
HETATM   11  C   UNL     1     -10.683  10.271  68.365  1.00  0.00    -0.226 A  
HETATM   12  N   UNL     1     -10.601  12.769  67.494  1.00  0.00    -0.227 NA 
HETATM   13  N   UNL     1      -9.821  11.108  68.944  1.00  0.00    -0.191 NA 
HETATM   14  C   UNL     1      -9.793  12.339  68.451  1.00  0.00    -0.199 A  
BRANCH  11  15
HETATM   15  C   UNL     1     -10.709   8.870  68.864  1.00  0.00    -0.106 A  
HETATM   16  C   UNL     1     -11.159   7.392  70.643  1.00  0.00    -0.266 A  
HETATM   17  F   UNL     1     -10.706   6.553  72.849  1.00  0.00    -0.211 F  
HETATM   18  N   UNL     1     -11.123   8.664  70.147  1.00  0.00    -0.230 NA 
HETATM   19  C   UNL     1     -10.770   6.293  69.877  1.00  0.00    -0.355 A  
HETATM   20  C   UNL     1     -11.650   7.151  72.064  1.00  0.00    -0.280 C  
HETATM   21  C   UNL     1     -10.327   7.793  68.057  1.00  0.00    -0.263 A  
HETATM   22  C   UNL     1     -10.353   6.499  68.569  1.00  0.00    -0.219 A  
HETATM   23  F   UNL     1     -12.029   8.276  72.732  1.00  0.00    -0.444 F  
HETATM   24  F   UNL     1     -12.732   6.317  72.103  1.00  0.00    -0.369 F  
ENDBRANCH  11  15
BRANCH  14  25
HETATM   25  N   UNL     1      -8.812  13.233  68.884  1.00  0.00    -0.363 NA 
HETATM   26  H   UNL     1      -8.284  12.931  69.702  1.00  0.00     0.000 HD 
BRANCH  25  27
HETATM   27  C   UNL     1      -8.442  14.479  68.369  1.00  0.00    -0.163 A  
HETATM   28  C   UNL     1      -8.816  16.860  68.166  1.00  0.00    -0.223 A  
HETATM   29  C   UNL     1      -9.128  15.632  68.761  1.00  0.00    -0.208 A  
HETATM   30  N   UNL     1      -7.829  16.973  67.230  1.00  0.00    -0.168 NA 
HETATM   31  C   UNL     1      -9.612  18.105  68.526  1.00  0.00    -0.339 C  
HETATM   32  C   UNL     1      -7.177  15.852  66.869  1.00  0.00    -0.138 A  
HETATM   33  F   UNL     1     -10.246  18.662  67.454  1.00  0.00    -0.325 F  
HETATM   34  F   UNL     1     -10.600  17.871  69.443  1.00  0.00    -0.292 F  
HETATM   35  F   UNL     1      -8.846  19.096  69.067  1.00  0.00    -0.381 F  
HETATM   36  C   UNL     1      -7.461  14.603  67.386  1.00  0.00    -0.212 A  
ENDBRANCH  25  27
ENDBRANCH  14  25
ENDBRANCH   7   9
ENDBRANCH   5   7
TORSDOF 5
ENDMDL
MODEL       49
REMARK 921   NORMALIZED FREE ENERGY PREDICTED BY IDOCK:   -7.48 KCAL/MOL
REMARK 922        TOTAL FREE ENERGY PREDICTED BY IDOCK:  -10.83 KCAL/MOL
REMARK 923 INTER-LIGAND FREE ENERGY PREDICTED BY IDOCK:   -9.58 KCAL/MOL
REMARK 924 INTRA-LIGAND FREE ENERGY PREDICTED BY IDOCK:   -1.25 KCAL/MOL
REMARK 927      BINDING AFFINITY PREDICTED BY RF-SCORE:    0.00 PKD
ROOT
HETATM    1  C   UNL     1     -12.398  14.024  63.089  1.00  0.00     0.595 C  
HETATM    2  C   UNL     1     -11.564  13.257  64.119  1.00  0.00    -0.405 C  
HETATM    3  C   UNL     1     -10.700  12.207  63.410  1.00  0.00    -0.461 C  
HETATM    4  O   UNL     1     -10.685  14.186  64.772  1.00  0.00    -0.398 OA 
HETATM    5  C   UNL     1     -12.499  12.630  65.187  1.00  0.00    -0.463 C  
HETATM    6  H   UNL     1     -10.167  13.709  65.411  1.00  0.00     0.000 HD 
ENDROOT
BRANCH   5   7
HETATM    7  N   UNL     1     -11.734  11.789  66.097  1.00  0.00    -0.448 NA 
HETATM    8  H   UNL     1     -11.153  11.028  65.744  1.00  0.00     0.000 HD 
BRANCH   7   9
HETATM    9  C   UNL     1     -11.816  12.050  67.451  1.00  0.00    -0.198 A  
HETATM   10  N   UNL     1     -11.911  11.061  68.325  1.00  0.00    -0.576 NA 
HETATM   11  C   UNL     1     -11.996  11.425  69.605  1.00  0.00    -0.348 A  
HETATM   12  N   UNL     1     -11.759  13.332  67.785  1.00  0.00    -0.340 NA 
HETATM   13  N   UNL     1     -11.961  12.691  70.025  1.00  0.00    -0.341 NA 
HETATM   14  C   UNL     1     -11.806  13.608  69.079  1.00  0.00    -0.352 A  
BRANCH  11  15
HETATM   15  C   UNL     1     -12.125  10.368  70.644  1.00  0.00    -0.348 A  
HETATM   16  C   UNL     1     -11.072   8.719  71.956  1.00  0.00    -0.371 A  
HETATM   17  F   UNL     1      -9.880   6.642  72.171  1.00  0.00    -0.160 F  
HETATM   18  N   UNL     1     -10.994   9.698  71.007  1.00  0.00    -0.341 NA 
HETATM   19  C   UNL     1     -12.281   8.372  72.557  1.00  0.00    -0.381 A  
HETATM   20  C   UNL     1      -9.807   7.989  72.390  1.00  0.00    -0.247 C  
HETATM   21  C   UNL     1     -13.355  10.062  71.235  1.00  0.00    -0.410 A  
HETATM   22  C   UNL     1     -13.433   9.055  72.193  1.00  0.00    -0.514 A  
HETATM   23  F   UNL     1      -8.670   8.405  71.767  1.00  0.00    -0.152 F  
HETATM   24  F   UNL     1      -9.566   8.123  73.728  1.00  0.00    -0.318 F  
ENDBRANCH  11  15
BRANCH  14  25
HETATM   25  N   UNL     1     -11.596  14.940  69.438  1.00  0.00    -0.291 NA 
HETATM   26  H   UNL     1     -12.251  15.310  70.127  1.00  0.00     0.000 HD 
BRANCH  25  27
HETATM   27  C   UNL     1     -10.626  15.846  69.001  1.00  0.00    -0.247 A  
HETATM   28  C   UNL     1      -8.318  16.560  68.895  1.00  0.00    -0.241 A  
HETATM   29  C   UNL     1      -9.273  15.600  69.249  1.00  0.00    -0.269 A  
HETATM   30  N   UNL     1      -8.667  17.725  68.277  1.00  0.00    -0.271 NA 
HETATM   31  C   UNL     1      -6.851  16.337  69.235  1.00  0.00    -0.211 C  
HETATM   32  C   UNL     1      -9.974  17.942  68.042  1.00  0.00    -0.333 A  
HETATM   33  F   UNL     1      -6.341  17.302  70.053  1.00  0.00    -0.237 F  
HETATM   34  F   UNL     1      -6.619  15.156  69.886  1.00  0.00    -0.143 F  
HETATM   35  F   UNL     1      -6.042  16.308  68.137  1.00  0.00    -0.102 F  
HETATM   36  C   UNL     1     -10.972  17.057  68.401  1.00  0.00    -0.263 A  
ENDBRANCH  25  27
ENDBRANCH  14  25
ENDBRANCH   7   9
ENDBRANCH   5   7
TORSDOF 5
ENDMDL
MODEL       50
REMARK 921   NORMALIZED FREE ENERGY PREDICTED BY IDOCK:   -7.47 KCAL/MOL
REMARK 922        TOTAL FREE ENERGY PREDICTED BY IDOCK:  -10.82 KCAL/MOL
REMARK 923 INTER-LIGAND FREE ENERGY PREDICTED BY IDOCK:  -10.03 KCAL/MOL
REMARK 924 INTRA-LIGAND FREE ENERGY PREDICTED BY IDOCK:   -0.79 KCAL/MOL
REMARK 927      BINDING AFFINITY PREDICTED BY RF-SCORE:    0.00 PKD
ROOT
HETATM    1  C   UNL     1     -11.448  15.516  64.360  1.00  0.00    -0.264 C  
HETATM    2  C   UNL     1     -11.893  14.052  64.447  1.00  0.00    -0.431 C  
HETATM    3  C   UNL     1     -13.111  13.933  65.370  1.00  0.00    -0.236 C  
HETATM    4  O   UNL     1     -12.288  13.621  63.135  1.00  0.00    -1.045 OA 
HETATM    5  C   UNL     1     -10.705  13.171  64.918  1.00  0.00    -0.346 C  
HETATM    6  H   UNL     1     -12.564  12.713  63.189  1.00  0.00     0.000 HD 
ENDROOT
BRANCH   5   7
HETATM    7  N   UNL     1     -11.147  11.801  65.131  1.00  0.00    -0.303 NA 
HETATM    8  H   UNL     1     -11.546  11.253  64.368  1.00  0.00     0.000 HD 
BRANCH   7   9
HETATM    9  C   UNL     1     -11.013  11.261  66.395  1.00  0.00    -0.227 A  
HETATM   10  N   UNL     1     -11.639  11.798  67.430  1.00  0.00    -0.521 NA 
HETATM   11  C   UNL     1     -11.430  11.205  68.606  1.00  0.00    -0.298 A  
HETATM   12  N   UNL     1     -10.253  10.175  66.470  1.00  0.00    -0.229 NA 
HETATM   13  N   UNL     1     -10.671  10.120  68.770  1.00  0.00    -0.210 NA 
HETATM   14  C   UNL     1     -10.131   9.622  67.666  1.00  0.00    -0.194 A  
BRANCH  11  15
HETATM   15  C   UNL     1     -12.087  11.764  69.818  1.00  0.00    -0.269 A  
HETATM   16  C   UNL     1     -12.751  13.673  71.027  1.00  0.00    -0.332 A  
HETATM   17  F   UNL     1     -12.233  15.675  72.254  1.00  0.00    -0.364 F  
HETATM   18  N   UNL     1     -12.157  13.122  69.929  1.00  0.00    -0.309 NA 
HETATM   19  C   UNL     1     -13.278  12.887  72.052  1.00  0.00    -0.549 A  
HETATM   20  C   UNL     1     -12.862  15.188  71.143  1.00  0.00    -0.401 C  
HETATM   21  C   UNL     1     -12.618  10.940  70.815  1.00  0.00    -0.470 A  
HETATM   22  C   UNL     1     -13.211  11.505  71.940  1.00  0.00    -0.479 A  
HETATM   23  F   UNL     1     -12.341  15.877  70.090  1.00  0.00    -0.377 F  
HETATM   24  F   UNL     1     -14.159  15.605  71.252  1.00  0.00    -0.549 F  
ENDBRANCH  11  15
BRANCH  14  25
HETATM   25  N   UNL     1      -9.458   8.400  67.718  1.00  0.00    -0.147 NA 
HETATM   26  H   UNL     1      -8.720   8.284  67.024  1.00  0.00     0.000 HD 
BRANCH  25  27
HETATM   27  C   UNL     1      -9.638   7.311  68.576  1.00  0.00    -0.140 A  
HETATM   28  C   UNL     1      -9.342   6.273  70.740  1.00  0.00    -0.158 A  
HETATM   29  C   UNL     1      -9.249   7.400  69.915  1.00  0.00    -0.144 A  
HETATM   30  N   UNL     1      -9.839   5.087  70.281  1.00  0.00    -0.213 NA 
HETATM   31  C   UNL     1      -8.845   6.337  72.176  1.00  0.00    -0.137 C  
HETATM   32  C   UNL     1     -10.212   5.022  68.990  1.00  0.00    -0.137 A  
HETATM   33  F   UNL     1      -7.844   5.446  72.435  1.00  0.00    -0.095 F  
HETATM   34  F   UNL     1      -8.333   7.559  72.519  1.00  0.00    -0.110 F  
HETATM   35  F   UNL     1      -9.820   6.085  73.096  1.00  0.00    -0.161 F  
HETATM   36  C   UNL     1     -10.110   6.083  68.111  1.00  0.00    -0.188 A  
ENDBRANCH  25  27
ENDBRANCH  14  25
ENDBRANCH   7   9
ENDBRANCH   5   7
TORSDOF 5
ENDMDL
MODEL       51
REMARK 921   NORMALIZED FREE ENERGY PREDICTED BY IDOCK:   -7.47 KCAL/MOL
REMARK 922        TOTAL FREE ENERGY PREDICTED BY IDOCK:  -10.81 KCAL/MOL
REMARK 923 INTER-LIGAND FREE ENERGY PREDICTED BY IDOCK:   -9.71 KCAL/MOL
REMARK 924 INTRA-LIGAND FREE ENERGY PREDICTED BY IDOCK:   -1.11 KCAL/MOL
REMARK 927      BINDING AFFINITY PREDICTED BY RF-SCORE:    0.00 PKD
ROOT
HETATM    1  C   UNL     1     -12.449  15.750  74.359  1.00  0.00    -0.790 C  
HETATM    2  C   UNL     1     -12.868  15.363  72.937  1.00  0.00    -0.445 C  
HETATM    3  C   UNL     1     -14.271  15.907  72.642  1.00  0.00    -0.263 C  
HETATM    4  O   UNL     1     -11.953  15.975  72.014  1.00  0.00    -0.453 OA 
HETATM    5  C   UNL     1     -12.782  13.823  72.768  1.00  0.00    -0.050 C  
HETATM    6  H   UNL     1     -12.213  15.734  71.132  1.00  0.00     0.000 HD 
ENDROOT
BRANCH   5   7
HETATM    7  N   UNL     1     -13.301  13.429  71.466  1.00  0.00    -0.308 NA 
HETATM    8  H   UNL     1     -14.301  13.282  71.323  1.00  0.00     0.000 HD 
BRANCH   7   9
HETATM    9  C   UNL     1     -12.404  13.258  70.430  1.00  0.00    -0.295 A  
HETATM   10  N   UNL     1     -12.175  14.235  69.567  1.00  0.00    -0.320 NA 
HETATM   11  C   UNL     1     -11.300  13.959  68.599  1.00  0.00    -0.278 A  
HETATM   12  N   UNL     1     -11.790  12.083  70.400  1.00  0.00    -0.286 NA 
HETATM   13  N   UNL     1     -10.651  12.799  68.487  1.00  0.00    -0.250 NA 
HETATM   14  C   UNL     1     -10.904  11.904  69.432  1.00  0.00    -0.032 A  
BRANCH  11  15
HETATM   15  C   UNL     1     -11.007  15.003  67.580  1.00  0.00    -0.307 A  
HETATM   16  C   UNL     1     -10.509  17.258  67.118  1.00  0.00    -0.297 A  
HETATM   17  F   UNL     1     -11.106  19.587  67.107  1.00  0.00    -0.577 F  
HETATM   18  N   UNL     1     -10.780  16.273  68.022  1.00  0.00    -0.320 NA 
HETATM   19  C   UNL     1     -10.471  17.008  65.746  1.00  0.00    -0.261 A  
HETATM   20  C   UNL     1     -10.223  18.673  67.607  1.00  0.00    -0.384 C  
HETATM   21  C   UNL     1     -10.961  14.706  66.214  1.00  0.00    -0.327 A  
HETATM   22  C   UNL     1     -10.697  15.716  65.292  1.00  0.00    -0.444 A  
HETATM   23  F   UNL     1     -10.261  18.823  68.961  1.00  0.00    -0.402 F  
HETATM   24  F   UNL     1      -8.989  19.114  67.220  1.00  0.00    -0.293 F  
ENDBRANCH  11  15
BRANCH  14  25
HETATM   25  N   UNL     1     -10.152  10.729  69.489  1.00  0.00    -0.419 NA 
HETATM   26  H   UNL     1      -9.339  10.707  68.873  1.00  0.00     0.000 HD 
BRANCH  25  27
HETATM   27  C   UNL     1     -10.342   9.578  70.258  1.00  0.00    -0.269 A  
HETATM   28  C   UNL     1      -9.578   8.048  71.969  1.00  0.00    -0.201 A  
HETATM   29  C   UNL     1      -9.435   9.254  71.271  1.00  0.00    -0.245 A  
HETATM   30  N   UNL     1     -10.606   7.188  71.712  1.00  0.00    -0.206 NA 
HETATM   31  C   UNL     1      -8.550   7.649  73.017  1.00  0.00    -0.148 C  
HETATM   32  C   UNL     1     -11.470   7.519  70.735  1.00  0.00    -0.284 A  
HETATM   33  F   UNL     1      -7.922   6.473  72.727  1.00  0.00    -0.101 F  
HETATM   34  F   UNL     1      -7.545   8.565  73.167  1.00  0.00    -0.174 F  
HETATM   35  F   UNL     1      -9.084   7.493  74.263  1.00  0.00    -0.255 F  
HETATM   36  C   UNL     1     -11.366   8.672  69.981  1.00  0.00    -0.022 A  
ENDBRANCH  25  27
ENDBRANCH  14  25
ENDBRANCH   7   9
ENDBRANCH   5   7
TORSDOF 5
ENDMDL
MODEL       52
REMARK 921   NORMALIZED FREE ENERGY PREDICTED BY IDOCK:   -7.46 KCAL/MOL
REMARK 922        TOTAL FREE ENERGY PREDICTED BY IDOCK:  -10.81 KCAL/MOL
REMARK 923 INTER-LIGAND FREE ENERGY PREDICTED BY IDOCK:  -10.51 KCAL/MOL
REMARK 924 INTRA-LIGAND FREE ENERGY PREDICTED BY IDOCK:   -0.30 KCAL/MOL
REMARK 927      BINDING AFFINITY PREDICTED BY RF-SCORE:    0.00 PKD
ROOT
HETATM    1  C   UNL     1     -11.297  15.538  64.495  1.00  0.00    -0.322 C  
HETATM    2  C   UNL     1     -11.839  14.105  64.482  1.00  0.00    -0.436 C  
HETATM    3  C   UNL     1     -13.030  13.991  65.440  1.00  0.00    -0.346 C  
HETATM    4  O   UNL     1     -12.308  13.812  63.156  1.00  0.00    -1.099 OA 
HETATM    5  C   UNL     1     -10.700  13.111  64.832  1.00  0.00    -0.346 C  
HETATM    6  H   UNL     1     -12.645  12.923  63.148  1.00  0.00     0.000 HD 
ENDROOT
BRANCH   5   7
HETATM    7  N   UNL     1     -11.228  11.760  64.952  1.00  0.00    -0.294 NA 
HETATM    8  H   UNL     1     -11.705  11.311  64.169  1.00  0.00     0.000 HD 
BRANCH   7   9
HETATM    9  C   UNL     1     -11.068  11.101  66.155  1.00  0.00    -0.085 A  
HETATM   10  N   UNL     1     -10.319  10.013  66.236  1.00  0.00    -0.200 NA 
HETATM   11  C   UNL     1     -10.243   9.450  67.442  1.00  0.00    -0.239 A  
HETATM   12  N   UNL     1     -11.683  11.656  67.191  1.00  0.00    -0.598 NA 
HETATM   13  N   UNL     1     -10.841   9.935  68.531  1.00  0.00    -0.231 NA 
HETATM   14  C   UNL     1     -11.523  11.060  68.362  1.00  0.00    -0.308 A  
BRANCH  11  15
HETATM   15  C   UNL     1      -9.434   8.212  67.605  1.00  0.00    -0.145 A  
HETATM   16  C   UNL     1      -9.194   6.103  68.627  1.00  0.00    -0.123 A  
HETATM   17  F   UNL     1      -8.886   4.730  70.576  1.00  0.00    -0.105 F  
HETATM   18  N   UNL     1      -9.909   7.252  68.449  1.00  0.00    -0.152 NA 
HETATM   19  C   UNL     1      -7.978   5.886  67.979  1.00  0.00    -0.105 A  
HETATM   20  C   UNL     1      -9.734   5.013  69.543  1.00  0.00    -0.189 C  
HETATM   21  C   UNL     1      -8.227   8.026  66.923  1.00  0.00    -0.115 A  
HETATM   22  C   UNL     1      -7.493   6.859  67.116  1.00  0.00    -0.095 A  
HETATM   23  F   UNL     1     -10.936   5.300  70.118  1.00  0.00    -0.348 F  
HETATM   24  F   UNL     1      -9.911   3.828  68.888  1.00  0.00    -0.207 F  
ENDBRANCH  11  15
BRANCH  14  25
HETATM   25  N   UNL     1     -12.044  11.725  69.474  1.00  0.00    -0.280 NA 
HETATM   26  H   UNL     1     -12.521  11.127  70.149  1.00  0.00     0.000 HD 
BRANCH  25  27
HETATM   27  C   UNL     1     -12.012  13.082  69.805  1.00  0.00    -0.308 A  
HETATM   28  C   UNL     1     -12.450  14.870  71.374  1.00  0.00    -0.337 A  
HETATM   29  C   UNL     1     -12.390  13.501  71.083  1.00  0.00    -0.377 A  
HETATM   30  N   UNL     1     -12.114  15.815  70.449  1.00  0.00    -0.385 NA 
HETATM   31  C   UNL     1     -12.939  15.338  72.737  1.00  0.00    -0.438 C  
HETATM   32  C   UNL     1     -11.749  15.391  69.225  1.00  0.00    -0.349 A  
HETATM   33  F   UNL     1     -14.050  16.127  72.663  1.00  0.00    -0.560 F  
HETATM   34  F   UNL     1     -13.285  14.310  73.572  1.00  0.00    -0.515 F  
HETATM   35  F   UNL     1     -12.008  16.062  73.424  1.00  0.00    -0.500 F  
HETATM   36  C   UNL     1     -11.706  14.059  68.859  1.00  0.00    -0.375 A  
ENDBRANCH  25  27
ENDBRANCH  14  25
ENDBRANCH   7   9
ENDBRANCH   5   7
TORSDOF 5
ENDMDL
MODEL       53
REMARK 921   NORMALIZED FREE ENERGY PREDICTED BY IDOCK:   -7.45 KCAL/MOL
REMARK 922        TOTAL FREE ENERGY PREDICTED BY IDOCK:  -10.79 KCAL/MOL
REMARK 923 INTER-LIGAND FREE ENERGY PREDICTED BY IDOCK:   -9.74 KCAL/MOL
REMARK 924 INTRA-LIGAND FREE ENERGY PREDICTED BY IDOCK:   -1.04 KCAL/MOL
REMARK 927      BINDING AFFINITY PREDICTED BY RF-SCORE:    0.00 PKD
ROOT
HETATM    1  C   UNL     1      -6.433  15.108  67.918  1.00  0.00    -0.176 C  
HETATM    2  C   UNL     1      -7.151  13.879  68.486  1.00  0.00    -0.104 C  
HETATM    3  C   UNL     1      -6.332  13.284  69.636  1.00  0.00    -0.089 C  
HETATM    4  O   UNL     1      -8.418  14.301  69.017  1.00  0.00    -0.323 OA 
HETATM    5  C   UNL     1      -7.411  12.853  67.350  1.00  0.00    -0.128 C  
HETATM    6  H   UNL     1      -8.863  13.539  69.369  1.00  0.00     0.000 HD 
ENDROOT
BRANCH   5   7
HETATM    7  N   UNL     1      -7.973  11.627  67.897  1.00  0.00    -0.125 NA 
HETATM    8  H   UNL     1      -7.377  10.829  68.119  1.00  0.00     0.000 HD 
BRANCH   7   9
HETATM    9  C   UNL     1      -9.337  11.572  68.108  1.00  0.00    -0.185 A  
HETATM   10  N   UNL     1      -9.833  10.951  69.166  1.00  0.00    -0.184 NA 
HETATM   11  C   UNL     1     -11.163  10.948  69.266  1.00  0.00    -0.265 A  
HETATM   12  N   UNL     1     -10.076  12.204  67.206  1.00  0.00    -0.202 NA 
HETATM   13  N   UNL     1     -11.978  11.546  68.396  1.00  0.00    -0.562 NA 
HETATM   14  C   UNL     1     -11.385  12.191  67.400  1.00  0.00    -0.326 A  
BRANCH  11  15
HETATM   15  C   UNL     1     -11.793  10.252  70.420  1.00  0.00    -0.309 A  
HETATM   16  C   UNL     1     -11.848   8.361  71.824  1.00  0.00    -0.316 A  
HETATM   17  F   UNL     1     -12.201   6.010  72.177  1.00  0.00    -0.376 F  
HETATM   18  N   UNL     1     -11.295   9.032  70.772  1.00  0.00    -0.269 NA 
HETATM   19  C   UNL     1     -12.922   8.882  72.545  1.00  0.00    -0.415 A  
HETATM   20  C   UNL     1     -11.276   7.013  72.243  1.00  0.00    -0.263 C  
HETATM   21  C   UNL     1     -12.859  10.817  71.128  1.00  0.00    -0.513 A  
HETATM   22  C   UNL     1     -13.429  10.125  72.193  1.00  0.00    -0.371 A  
HETATM   23  F   UNL     1     -10.216   6.590  71.498  1.00  0.00    -0.199 F  
HETATM   24  F   UNL     1     -10.840   7.017  73.538  1.00  0.00    -0.327 F  
ENDBRANCH  11  15
BRANCH  14  25
HETATM   25  N   UNL     1     -12.149  12.979  66.537  1.00  0.00    -0.406 NA 
HETATM   26  H   UNL     1     -13.095  12.638  66.366  1.00  0.00     0.000 HD 
BRANCH  25  27
HETATM   27  C   UNL     1     -11.818  14.163  65.872  1.00  0.00    -0.384 A  
HETATM   28  C   UNL     1     -10.898  16.399  65.902  1.00  0.00    -0.114 A  
HETATM   29  C   UNL     1     -11.138  15.180  66.546  1.00  0.00    -0.305 A  
HETATM   30  N   UNL     1     -11.282  16.615  64.610  1.00  0.00    -0.843 NA 
HETATM   31  C   UNL     1     -10.232  17.541  66.655  1.00  0.00    -0.332 C  
HETATM   32  C   UNL     1     -11.933  15.622  63.976  1.00  0.00     0.087 A  
HETATM   33  F   UNL     1     -11.012  18.657  66.732  1.00  0.00    -0.403 F  
HETATM   34  F   UNL     1      -9.924  17.229  67.951  1.00  0.00    -0.260 F  
HETATM   35  F   UNL     1      -9.055  17.943  66.092  1.00  0.00    -0.275 F  
HETATM   36  C   UNL     1     -12.236  14.409  64.565  1.00  0.00    -0.483 A  
ENDBRANCH  25  27
ENDBRANCH  14  25
ENDBRANCH   7   9
ENDBRANCH   5   7
TORSDOF 5
ENDMDL
MODEL       54
REMARK 921   NORMALIZED FREE ENERGY PREDICTED BY IDOCK:   -7.39 KCAL/MOL
REMARK 922        TOTAL FREE ENERGY PREDICTED BY IDOCK:  -10.72 KCAL/MOL
REMARK 923 INTER-LIGAND FREE ENERGY PREDICTED BY IDOCK:   -9.59 KCAL/MOL
REMARK 924 INTRA-LIGAND FREE ENERGY PREDICTED BY IDOCK:   -1.13 KCAL/MOL
REMARK 927      BINDING AFFINITY PREDICTED BY RF-SCORE:    0.00 PKD
ROOT
HETATM    1  C   UNL     1     -12.312  15.530  63.838  1.00  0.00     0.303 C  
HETATM    2  C   UNL     1     -11.943  14.123  64.316  1.00  0.00    -0.435 C  
HETATM    3  C   UNL     1     -12.349  13.091  63.257  1.00  0.00    -0.392 C  
HETATM    4  O   UNL     1     -10.517  14.058  64.473  1.00  0.00    -0.539 OA 
HETATM    5  C   UNL     1     -12.603  13.848  65.694  1.00  0.00    -0.517 C  
HETATM    6  H   UNL     1     -10.288  13.184  64.770  1.00  0.00     0.000 HD 
ENDROOT
BRANCH   5   7
HETATM    7  N   UNL     1     -12.370  12.470  66.099  1.00  0.00    -0.539 NA 
HETATM    8  H   UNL     1     -12.723  11.692  65.541  1.00  0.00     0.000 HD 
BRANCH   7   9
HETATM    9  C   UNL     1     -11.658  12.243  67.261  1.00  0.00    -0.357 A  
HETATM   10  N   UNL     1     -12.098  11.384  68.166  1.00  0.00    -0.617 NA 
HETATM   11  C   UNL     1     -11.339  11.251  69.255  1.00  0.00    -0.287 A  
HETATM   12  N   UNL     1     -10.518  12.913  67.366  1.00  0.00    -0.232 NA 
HETATM   13  N   UNL     1     -10.188  11.898  69.447  1.00  0.00     0.239 NA 
HETATM   14  C   UNL     1      -9.802  12.692  68.458  1.00  0.00    -0.148 A  
BRANCH  11  15
HETATM   15  C   UNL     1     -11.781  10.317  70.326  1.00  0.00    -0.306 A  
HETATM   16  C   UNL     1     -11.483   8.255  71.425  1.00  0.00    -0.269 A  
HETATM   17  F   UNL     1     -11.509   5.851  71.434  1.00  0.00    -0.337 F  
HETATM   18  N   UNL     1     -11.106   9.139  70.455  1.00  0.00    -0.247 NA 
HETATM   19  C   UNL     1     -12.551   8.515  72.283  1.00  0.00    -0.438 A  
HETATM   20  C   UNL     1     -10.714   6.951  71.595  1.00  0.00    -0.222 C  
HETATM   21  C   UNL     1     -12.847  10.625  71.178  1.00  0.00    -0.518 A  
HETATM   22  C   UNL     1     -13.237   9.716  72.157  1.00  0.00    -0.535 A  
HETATM   23  F   UNL     1      -9.675   6.788  70.729  1.00  0.00    -0.175 F  
HETATM   24  F   UNL     1     -10.177   6.827  72.845  1.00  0.00    -0.180 F  
ENDBRANCH  11  15
BRANCH  14  25
HETATM   25  N   UNL     1      -8.536  13.281  68.500  1.00  0.00    -0.328 NA 
HETATM   26  H   UNL     1      -7.759  12.644  68.326  1.00  0.00     0.000 HD 
BRANCH  25  27
HETATM   27  C   UNL     1      -8.171  14.607  68.743  1.00  0.00    -0.156 A  
HETATM   28  C   UNL     1      -8.629  16.976  68.569  1.00  0.00    -0.257 A  
HETATM   29  C   UNL     1      -9.044  15.647  68.413  1.00  0.00    -0.190 A  
HETATM   30  N   UNL     1      -7.399  17.289  69.069  1.00  0.00    -0.237 NA 
HETATM   31  C   UNL     1      -9.542  18.114  68.136  1.00  0.00    -0.307 C  
HETATM   32  C   UNL     1      -6.574  16.274  69.384  1.00  0.00    -0.202 A  
HETATM   33  F   UNL     1      -8.990  18.901  67.168  1.00  0.00    -0.271 F  
HETATM   34  F   UNL     1     -10.732  17.686  67.615  1.00  0.00    -0.354 F  
HETATM   35  F   UNL     1      -9.877  18.953  69.158  1.00  0.00    -0.392 F  
HETATM   36  C   UNL     1      -6.903  14.942  69.219  1.00  0.00    -0.148 A  
ENDBRANCH  25  27
ENDBRANCH  14  25
ENDBRANCH   7   9
ENDBRANCH   5   7
TORSDOF 5
ENDMDL
MODEL       55
REMARK 921   NORMALIZED FREE ENERGY PREDICTED BY IDOCK:   -7.39 KCAL/MOL
REMARK 922        TOTAL FREE ENERGY PREDICTED BY IDOCK:  -10.71 KCAL/MOL
REMARK 923 INTER-LIGAND FREE ENERGY PREDICTED BY IDOCK:   -9.65 KCAL/MOL
REMARK 924 INTRA-LIGAND FREE ENERGY PREDICTED BY IDOCK:   -1.06 KCAL/MOL
REMARK 927      BINDING AFFINITY PREDICTED BY RF-SCORE:    0.00 PKD
ROOT
HETATM    1  C   UNL     1      -9.723  20.284  67.589  1.00  0.00    -0.555 C  
HETATM    2  C   UNL     1      -9.441  18.832  67.192  1.00  0.00    -0.305 C  
HETATM    3  C   UNL     1      -8.232  18.777  66.251  1.00  0.00    -0.270 C  
HETATM    4  O   UNL     1      -9.112  18.094  68.379  1.00  0.00    -0.294 OA 
HETATM    5  C   UNL     1     -10.713  18.206  66.559  1.00  0.00    -0.151 C  
HETATM    6  H   UNL     1      -8.937  17.193  68.132  1.00  0.00     0.000 HD 
ENDROOT
BRANCH   5   7
HETATM    7  N   UNL     1     -10.422  16.871  66.057  1.00  0.00    -0.324 NA 
HETATM    8  H   UNL     1     -10.428  16.674  65.056  1.00  0.00     0.000 HD 
BRANCH   7   9
HETATM    9  C   UNL     1     -10.136  15.878  66.973  1.00  0.00    -0.268 A  
HETATM   10  N   UNL     1     -10.975  15.606  67.959  1.00  0.00    -0.308 NA 
HETATM   11  C   UNL     1     -10.595  14.637  68.793  1.00  0.00    -0.248 A  
HETATM   12  N   UNL     1      -9.002  15.223  66.763  1.00  0.00    -0.243 NA 
HETATM   13  N   UNL     1      -9.466  13.940  68.662  1.00  0.00    -0.170 NA 
HETATM   14  C   UNL     1      -8.718  14.246  67.611  1.00  0.00    -0.191 A  
BRANCH  11  15
HETATM   15  C   UNL     1     -11.480  14.289  69.938  1.00  0.00    -0.243 A  
HETATM   16  C   UNL     1     -12.390  14.910  72.020  1.00  0.00    -0.344 A  
HETATM   17  F   UNL     1     -12.144  15.440  74.352  1.00  0.00    -0.625 F  
HETATM   18  N   UNL     1     -11.589  15.194  70.951  1.00  0.00    -0.312 NA 
HETATM   19  C   UNL     1     -13.093  13.709  72.113  1.00  0.00    -0.489 A  
HETATM   20  C   UNL     1     -12.542  15.931  73.140  1.00  0.00    -0.513 C  
HETATM   21  C   UNL     1     -12.182  13.080  69.985  1.00  0.00    -0.306 A  
HETATM   22  C   UNL     1     -12.987  12.787  71.081  1.00  0.00    -0.244 A  
HETATM   23  F   UNL     1     -11.837  17.082  72.958  1.00  0.00    -0.535 F  
HETATM   24  F   UNL     1     -13.841  16.316  73.317  1.00  0.00    -0.673 F  
ENDBRANCH  11  15
BRANCH  14  25
HETATM   25  N   UNL     1      -7.605  13.462  67.304  1.00  0.00    -0.339 NA 
HETATM   26  H   UNL     1      -6.740  13.981  67.152  1.00  0.00     0.000 HD 
BRANCH  25  27
HETATM   27  C   UNL     1      -7.492  12.075  67.172  1.00  0.00    -0.138 A  
HETATM   28  C   UNL     1      -8.309   9.978  66.287  1.00  0.00    -0.127 A  
HETATM   29  C   UNL     1      -8.366  11.376  66.336  1.00  0.00    -0.140 A  
HETATM   30  N   UNL     1      -7.394   9.272  67.013  1.00  0.00    -0.090 NA 
HETATM   31  C   UNL     1      -9.310   9.204  65.442  1.00  0.00    -0.191 C  
HETATM   32  C   UNL     1      -6.559   9.963  67.810  1.00  0.00    -0.068 A  
HETATM   33  F   UNL     1     -10.074   8.343  66.174  1.00  0.00    -0.323 F  
HETATM   34  F   UNL     1     -10.203  10.007  64.787  1.00  0.00    -0.408 F  
HETATM   35  F   UNL     1      -8.723   8.450  64.467  1.00  0.00    -0.160 F  
HETATM   36  C   UNL     1      -6.586  11.338  67.936  1.00  0.00    -0.059 A  
ENDBRANCH  25  27
ENDBRANCH  14  25
ENDBRANCH   7   9
ENDBRANCH   5   7
TORSDOF 5
ENDMDL
MODEL       56
REMARK 921   NORMALIZED FREE ENERGY PREDICTED BY IDOCK:   -7.38 KCAL/MOL
REMARK 922        TOTAL FREE ENERGY PREDICTED BY IDOCK:  -10.69 KCAL/MOL
REMARK 923 INTER-LIGAND FREE ENERGY PREDICTED BY IDOCK:   -9.74 KCAL/MOL
REMARK 924 INTRA-LIGAND FREE ENERGY PREDICTED BY IDOCK:   -0.96 KCAL/MOL
REMARK 927      BINDING AFFINITY PREDICTED BY RF-SCORE:    0.00 PKD
ROOT
HETATM    1  C   UNL     1     -10.620   8.528  72.152  1.00  0.00    -0.419 C  
HETATM    2  C   UNL     1     -11.446   8.678  70.871  1.00  0.00    -0.275 C  
HETATM    3  C   UNL     1     -10.725   7.994  69.704  1.00  0.00    -0.207 C  
HETATM    4  O   UNL     1     -12.705   8.014  71.063  1.00  0.00    -0.499 OA 
HETATM    5  C   UNL     1     -11.719  10.182  70.598  1.00  0.00    -0.338 C  
HETATM    6  H   UNL     1     -13.217   8.108  70.268  1.00  0.00     0.000 HD 
ENDROOT
BRANCH   5   7
HETATM    7  N   UNL     1     -12.389  10.348  69.316  1.00  0.00    -0.682 NA 
HETATM    8  H   UNL     1     -13.249   9.842  69.104  1.00  0.00     0.000 HD 
BRANCH   7   9
HETATM    9  C   UNL     1     -11.829  11.211  68.394  1.00  0.00    -0.232 A  
HETATM   10  N   UNL     1     -11.304  10.751  67.270  1.00  0.00    -0.410 NA 
HETATM   11  C   UNL     1     -10.779  11.669  66.457  1.00  0.00    -0.272 A  
HETATM   12  N   UNL     1     -11.892  12.498  68.711  1.00  0.00    -0.314 NA 
HETATM   13  N   UNL     1     -10.788  12.979  66.707  1.00  0.00    -0.266 NA 
HETATM   14  C   UNL     1     -11.387  13.348  67.831  1.00  0.00    -0.289 A  
BRANCH  11  15
HETATM   15  C   UNL     1     -10.154  11.224  65.182  1.00  0.00    -0.275 A  
HETATM   16  C   UNL     1      -8.596   9.825  64.104  1.00  0.00    -0.194 A  
HETATM   17  F   UNL     1      -6.336   9.126  63.678  1.00  0.00    -0.086 F  
HETATM   18  N   UNL     1      -9.194  10.258  65.252  1.00  0.00    -0.183 NA 
HETATM   19  C   UNL     1      -8.929  10.353  62.857  1.00  0.00    -0.260 A  
HETATM   20  C   UNL     1      -7.545   8.724  64.170  1.00  0.00    -0.122 C  
HETATM   21  C   UNL     1     -10.530  11.768  63.949  1.00  0.00    -0.437 A  
HETATM   22  C   UNL     1      -9.909  11.333  62.782  1.00  0.00    -0.241 A  
HETATM   23  F   UNL     1      -7.297   8.253  65.424  1.00  0.00    -0.075 F  
HETATM   24  F   UNL     1      -7.893   7.632  63.427  1.00  0.00    -0.113 F  
ENDBRANCH  11  15
BRANCH  14  25
HETATM   25  N   UNL     1     -11.586  14.705  68.094  1.00  0.00    -0.321 NA 
HETATM   26  H   UNL     1     -12.563  14.996  68.141  1.00  0.00     0.000 HD 
BRANCH  25  27
HETATM   27  C   UNL     1     -10.655  15.726  68.303  1.00  0.00    -0.271 A  
HETATM   28  C   UNL     1      -9.958  18.022  68.007  1.00  0.00    -0.343 A  
HETATM   29  C   UNL     1     -10.936  17.028  67.883  1.00  0.00    -0.226 A  
HETATM   30  N   UNL     1      -8.739  17.763  68.562  1.00  0.00    -0.287 NA 
HETATM   31  C   UNL     1     -10.226  19.424  67.479  1.00  0.00    -0.425 C  
HETATM   32  C   UNL     1      -8.488  16.504  68.963  1.00  0.00    -0.204 A  
HETATM   33  F   UNL     1      -9.343  19.807  66.511  1.00  0.00    -0.351 F  
HETATM   34  F   UNL     1     -11.462  19.562  66.910  1.00  0.00    -0.389 F  
HETATM   35  F   UNL     1     -10.165  20.385  68.446  1.00  0.00    -0.511 F  
HETATM   36  C   UNL     1      -9.392  15.466  68.835  1.00  0.00    -0.218 A  
ENDBRANCH  25  27
ENDBRANCH  14  25
ENDBRANCH   7   9
ENDBRANCH   5   7
TORSDOF 5
ENDMDL
MODEL       57
REMARK 921   NORMALIZED FREE ENERGY PREDICTED BY IDOCK:   -7.34 KCAL/MOL
REMARK 922        TOTAL FREE ENERGY PREDICTED BY IDOCK:  -10.65 KCAL/MOL
REMARK 923 INTER-LIGAND FREE ENERGY PREDICTED BY IDOCK:   -9.54 KCAL/MOL
REMARK 924 INTRA-LIGAND FREE ENERGY PREDICTED BY IDOCK:   -1.10 KCAL/MOL
REMARK 927      BINDING AFFINITY PREDICTED BY RF-SCORE:    0.00 PKD
ROOT
HETATM    1  C   UNL     1      -9.591  10.451  62.599  1.00  0.00    -0.274 C  
HETATM    2  C   UNL     1      -9.037  10.606  64.019  1.00  0.00    -0.224 C  
HETATM    3  C   UNL     1      -7.516  10.419  64.007  1.00  0.00    -0.002 C  
HETATM    4  O   UNL     1      -9.315  11.942  64.469  1.00  0.00    -0.430 OA 
HETATM    5  C   UNL     1      -9.749   9.608  64.971  1.00  0.00    -0.164 C  
HETATM    6  H   UNL     1      -8.971  12.038  65.350  1.00  0.00     0.000 HD 
ENDROOT
BRANCH   5   7
HETATM    7  N   UNL     1      -9.143   9.652  66.293  1.00  0.00    -0.153 NA 
HETATM    8  H   UNL     1      -8.154   9.437  66.424  1.00  0.00     0.000 HD 
BRANCH   7   9
HETATM    9  C   UNL     1      -9.942   9.993  67.367  1.00  0.00    -0.197 A  
HETATM   10  N   UNL     1     -10.081   9.170  68.394  1.00  0.00    -0.189 NA 
HETATM   11  C   UNL     1     -10.886   9.593  69.370  1.00  0.00    -0.217 A  
HETATM   12  N   UNL     1     -10.511  11.189  67.292  1.00  0.00    -0.214 NA 
HETATM   13  N   UNL     1     -11.506  10.774  69.367  1.00  0.00    -0.271 NA 
HETATM   14  C   UNL     1     -11.260  11.552  68.322  1.00  0.00    -0.261 A  
BRANCH  11  15
HETATM   15  C   UNL     1     -11.105   8.713  70.549  1.00  0.00    -0.242 A  
HETATM   16  C   UNL     1     -10.536   6.738  71.701  1.00  0.00    -0.209 A  
HETATM   17  F   UNL     1     -10.442   4.340  71.851  1.00  0.00    -0.246 F  
HETATM   18  N   UNL     1     -10.362   7.572  70.634  1.00  0.00    -0.207 NA 
HETATM   19  C   UNL     1     -11.465   7.010  72.704  1.00  0.00    -0.250 A  
HETATM   20  C   UNL     1      -9.687   5.479  71.818  1.00  0.00    -0.163 C  
HETATM   21  C   UNL     1     -12.036   9.032  71.543  1.00  0.00    -0.414 A  
HETATM   22  C   UNL     1     -12.220   8.172  72.623  1.00  0.00    -0.270 A  
HETATM   23  F   UNL     1      -8.792   5.301  70.807  1.00  0.00    -0.124 F  
HETATM   24  F   UNL     1      -8.952   5.456  72.970  1.00  0.00    -0.120 F  
ENDBRANCH  11  15
BRANCH  14  25
HETATM   25  N   UNL     1     -11.735  12.865  68.312  1.00  0.00    -0.333 NA 
HETATM   26  H   UNL     1     -12.192  13.152  67.447  1.00  0.00     0.000 HD 
BRANCH  25  27
HETATM   27  C   UNL     1     -11.681  13.847  69.305  1.00  0.00    -0.334 A  
HETATM   28  C   UNL     1     -12.426  14.722  71.433  1.00  0.00    -0.336 A  
HETATM   29  C   UNL     1     -12.408  13.689  70.488  1.00  0.00    -0.425 A  
HETATM   30  N   UNL     1     -11.720  15.875  71.248  1.00  0.00    -0.415 NA 
HETATM   31  C   UNL     1     -13.280  14.593  72.685  1.00  0.00    -0.464 C  
HETATM   32  C   UNL     1     -11.023  16.007  70.105  1.00  0.00    -0.367 A  
HETATM   33  F   UNL     1     -14.226  15.571  72.789  1.00  0.00    -0.571 F  
HETATM   34  F   UNL     1     -13.974  13.416  72.750  1.00  0.00    -0.601 F  
HETATM   35  F   UNL     1     -12.555  14.648  73.840  1.00  0.00    -0.593 F  
HETATM   36  C   UNL     1     -10.993  15.045  69.113  1.00  0.00    -0.265 A  
ENDBRANCH  25  27
ENDBRANCH  14  25
ENDBRANCH   7   9
ENDBRANCH   5   7
TORSDOF 5
ENDMDL
MODEL       58
REMARK 921   NORMALIZED FREE ENERGY PREDICTED BY IDOCK:   -7.34 KCAL/MOL
REMARK 922        TOTAL FREE ENERGY PREDICTED BY IDOCK:  -10.64 KCAL/MOL
REMARK 923 INTER-LIGAND FREE ENERGY PREDICTED BY IDOCK:  -10.04 KCAL/MOL
REMARK 924 INTRA-LIGAND FREE ENERGY PREDICTED BY IDOCK:   -0.60 KCAL/MOL
REMARK 927      BINDING AFFINITY PREDICTED BY RF-SCORE:    0.00 PKD
ROOT
HETATM    1  C   UNL     1     -10.580  14.552  64.848  1.00  0.00    -0.450 C  
HETATM    2  C   UNL     1     -10.843  13.047  64.950  1.00  0.00    -0.323 C  
HETATM    3  C   UNL     1     -12.305  12.748  64.597  1.00  0.00    -0.524 C  
HETATM    4  O   UNL     1     -10.011  12.377  63.989  1.00  0.00    -0.519 OA 
HETATM    5  C   UNL     1     -10.461  12.543  66.368  1.00  0.00    -0.247 C  
HETATM    6  H   UNL     1     -10.173  11.443  64.053  1.00  0.00     0.000 HD 
ENDROOT
BRANCH   5   7
HETATM    7  N   UNL     1     -10.827  11.143  66.521  1.00  0.00    -0.269 NA 
HETATM    8  H   UNL     1     -10.841  10.513  65.718  1.00  0.00     0.000 HD 
BRANCH   7   9
HETATM    9  C   UNL     1     -11.156  10.689  67.783  1.00  0.00    -0.321 A  
HETATM   10  N   UNL     1     -10.803   9.477  68.179  1.00  0.00    -0.197 NA 
HETATM   11  C   UNL     1     -11.182   9.136  69.411  1.00  0.00     0.085 A  
HETATM   12  N   UNL     1     -11.805  11.559  68.547  1.00  0.00    -0.473 NA 
HETATM   13  N   UNL     1     -11.849   9.944  70.237  1.00  0.00    -0.223 NA 
HETATM   14  C   UNL     1     -12.108  11.158  69.772  1.00  0.00    -0.344 A  
BRANCH  11  15
HETATM   15  C   UNL     1     -10.836   7.781  69.918  1.00  0.00    -0.226 A  
HETATM   16  C   UNL     1     -10.478   6.374  71.773  1.00  0.00    -0.214 A  
HETATM   17  F   UNL     1      -9.238   5.752  73.737  1.00  0.00    -0.127 F  
HETATM   18  N   UNL     1     -10.794   7.603  71.270  1.00  0.00    -0.230 NA 
HETATM   19  C   UNL     1     -10.183   5.292  70.944  1.00  0.00    -0.304 A  
HETATM   20  C   UNL     1     -10.460   6.159  73.282  1.00  0.00    -0.243 C  
HETATM   21  C   UNL     1     -10.563   6.718  69.051  1.00  0.00    -0.258 A  
HETATM   22  C   UNL     1     -10.229   5.469  69.568  1.00  0.00    -0.331 A  
HETATM   23  F   UNL     1     -10.780   7.262  74.015  1.00  0.00    -0.403 F  
HETATM   24  F   UNL     1     -11.334   5.186  73.676  1.00  0.00    -0.350 F  
ENDBRANCH  11  15
BRANCH  14  25
HETATM   25  N   UNL     1     -12.655  12.121  70.622  1.00  0.00    -0.225 NA 
HETATM   26  H   UNL     1     -13.372  11.775  71.260  1.00  0.00     0.000 HD 
BRANCH  25  27
HETATM   27  C   UNL     1     -12.373  13.485  70.734  1.00  0.00    -0.363 A  
HETATM   28  C   UNL     1     -11.251  15.469  69.925  1.00  0.00    -0.316 A  
HETATM   29  C   UNL     1     -11.611  14.127  69.754  1.00  0.00    -0.351 A  
HETATM   30  N   UNL     1     -11.653  16.186  71.014  1.00  0.00    -0.424 NA 
HETATM   31  C   UNL     1     -10.353  16.152  68.904  1.00  0.00    -0.250 C  
HETATM   32  C   UNL     1     -12.389  15.552  71.945  1.00  0.00    -0.395 A  
HETATM   33  F   UNL     1      -9.184  16.608  69.441  1.00  0.00    -0.227 F  
HETATM   34  F   UNL     1      -9.978  15.331  67.876  1.00  0.00    -0.221 F  
HETATM   35  F   UNL     1     -10.939  17.231  68.309  1.00  0.00    -0.361 F  
HETATM   36  C   UNL     1     -12.747  14.220  71.859  1.00  0.00    -0.419 A  
ENDBRANCH  25  27
ENDBRANCH  14  25
ENDBRANCH   7   9
ENDBRANCH   5   7
TORSDOF 5
ENDMDL
MODEL       59
REMARK 921   NORMALIZED FREE ENERGY PREDICTED BY IDOCK:   -7.32 KCAL/MOL
REMARK 922        TOTAL FREE ENERGY PREDICTED BY IDOCK:  -10.62 KCAL/MOL
REMARK 923 INTER-LIGAND FREE ENERGY PREDICTED BY IDOCK:   -9.63 KCAL/MOL
REMARK 924 INTRA-LIGAND FREE ENERGY PREDICTED BY IDOCK:   -1.00 KCAL/MOL
REMARK 927      BINDING AFFINITY PREDICTED BY RF-SCORE:    0.00 PKD
ROOT
HETATM    1  C   UNL     1     -12.149  15.754  72.904  1.00  0.00    -0.596 C  
HETATM    2  C   UNL     1     -12.624  14.737  71.862  1.00  0.00    -0.334 C  
HETATM    3  C   UNL     1     -13.738  15.350  71.006  1.00  0.00    -0.420 C  
HETATM    4  O   UNL     1     -11.520  14.429  70.996  1.00  0.00    -0.511 OA 
HETATM    5  C   UNL     1     -13.072  13.431  72.571  1.00  0.00    -0.319 C  
HETATM    6  H   UNL     1     -11.814  13.797  70.349  1.00  0.00     0.000 HD 
ENDROOT
BRANCH   5   7
HETATM    7  N   UNL     1     -13.648  12.505  71.606  1.00  0.00    -0.050 NA 
HETATM    8  H   UNL     1     -14.648  12.511  71.405  1.00  0.00     0.000 HD 
BRANCH   7   9
HETATM    9  C   UNL     1     -12.802  11.617  70.970  1.00  0.00    -0.245 A  
HETATM   10  N   UNL     1     -12.465  11.795  69.703  1.00  0.00    -0.047 NA 
HETATM   11  C   UNL     1     -11.654  10.872  69.184  1.00  0.00    -0.319 A  
HETATM   12  N   UNL     1     -12.350  10.625  71.726  1.00  0.00    -0.228 NA 
HETATM   13  N   UNL     1     -11.166   9.837  69.870  1.00  0.00    -0.242 NA 
HETATM   14  C   UNL     1     -11.515   9.776  71.148  1.00  0.00    -0.398 A  
BRANCH  11  15
HETATM   15  C   UNL     1     -11.246  10.996  67.759  1.00  0.00    -0.308 A  
HETATM   16  C   UNL     1     -11.474  12.134  65.709  1.00  0.00    -0.361 A  
HETATM   17  F   UNL     1     -12.779  12.799  63.803  1.00  0.00    -0.429 F  
HETATM   18  N   UNL     1     -11.821  11.989  67.021  1.00  0.00    -0.611 NA 
HETATM   19  C   UNL     1     -10.555  11.283  65.092  1.00  0.00    -0.343 A  
HETATM   20  C   UNL     1     -12.087  13.260  64.887  1.00  0.00    -0.397 C  
HETATM   21  C   UNL     1     -10.308  10.133  67.184  1.00  0.00    -0.295 A  
HETATM   22  C   UNL     1      -9.966  10.275  65.842  1.00  0.00    -0.321 A  
HETATM   23  F   UNL     1     -12.957  14.053  65.572  1.00  0.00    -0.526 F  
HETATM   24  F   UNL     1     -11.140  14.103  64.377  1.00  0.00    -0.369 F  
ENDBRANCH  11  15
BRANCH  14  25
HETATM   25  N   UNL     1     -10.924   8.823  71.979  1.00  0.00    -0.362 NA 
HETATM   26  H   UNL     1     -10.608   9.176  72.883  1.00  0.00     0.000 HD 
BRANCH  25  27
HETATM   27  C   UNL     1     -10.700   7.460  71.766  1.00  0.00    -0.214 A  
HETATM   28  C   UNL     1      -9.751   5.672  70.442  1.00  0.00    -0.179 A  
HETATM   29  C   UNL     1      -9.890   7.040  70.708  1.00  0.00    -0.190 A  
HETATM   30  N   UNL     1     -10.361   4.726  71.214  1.00  0.00    -0.159 NA 
HETATM   31  C   UNL     1      -8.939   5.208  69.242  1.00  0.00    -0.100 C  
HETATM   32  C   UNL     1     -11.133   5.151  72.231  1.00  0.00    -0.107 A  
HETATM   33  F   UNL     1      -9.673   4.485  68.348  1.00  0.00    -0.183 F  
HETATM   34  F   UNL     1      -8.405   6.238  68.517  1.00  0.00    -0.111 F  
HETATM   35  F   UNL     1      -7.878   4.420  69.583  1.00  0.00    -0.056 F  
HETATM   36  C   UNL     1     -11.345   6.484  72.525  1.00  0.00    -0.299 A  
ENDBRANCH  25  27
ENDBRANCH  14  25
ENDBRANCH   7   9
ENDBRANCH   5   7
TORSDOF 5
ENDMDL
MODEL       60
REMARK 921   NORMALIZED FREE ENERGY PREDICTED BY IDOCK:   -7.31 KCAL/MOL
REMARK 922        TOTAL FREE ENERGY PREDICTED BY IDOCK:  -10.61 KCAL/MOL
REMARK 923 INTER-LIGAND FREE ENERGY PREDICTED BY IDOCK:   -9.85 KCAL/MOL
REMARK 924 INTRA-LIGAND FREE ENERGY PREDICTED BY IDOCK:   -0.77 KCAL/MOL
REMARK 927      BINDING AFFINITY PREDICTED BY RF-SCORE:    0.00 PKD
ROOT
HETATM    1  C   UNL     1      -9.580   5.985  73.990  1.00  0.00    -0.171 C  
HETATM    2  C   UNL     1     -10.630   6.369  72.943  1.00  0.00    -0.235 C  
HETATM    3  C   UNL     1     -11.604   5.204  72.730  1.00  0.00    -0.241 C  
HETATM    4  O   UNL     1     -11.381   7.486  73.445  1.00  0.00    -0.611 OA 
HETATM    5  C   UNL     1      -9.926   6.800  71.629  1.00  0.00    -0.172 C  
HETATM    6  H   UNL     1     -12.033   7.725  72.795  1.00  0.00     0.000 HD 
ENDROOT
BRANCH   5   7
HETATM    7  N   UNL     1     -10.911   7.042  70.584  1.00  0.00    -0.238 NA 
HETATM    8  H   UNL     1     -11.525   6.294  70.259  1.00  0.00     0.000 HD 
BRANCH   7   9
HETATM    9  C   UNL     1     -10.992   8.311  70.045  1.00  0.00    -0.197 A  
HETATM   10  N   UNL     1     -10.646   8.534  68.788  1.00  0.00    -0.179 NA 
HETATM   11  C   UNL     1     -10.751   9.798  68.374  1.00  0.00    -0.221 A  
HETATM   12  N   UNL     1     -11.462   9.244  70.863  1.00  0.00    -0.284 NA 
HETATM   13  N   UNL     1     -11.200  10.798  69.134  1.00  0.00    -0.241 NA 
HETATM   14  C   UNL     1     -11.576  10.464  70.361  1.00  0.00    -0.337 A  
BRANCH  11  15
HETATM   15  C   UNL     1     -10.362  10.129  66.976  1.00  0.00    -0.244 A  
HETATM   16  C   UNL     1     -10.461  11.654  65.184  1.00  0.00    -0.279 A  
HETATM   17  F   UNL     1     -11.694  12.850  63.502  1.00  0.00    -0.465 F  
HETATM   18  N   UNL     1     -10.796  11.315  66.463  1.00  0.00    -0.277 NA 
HETATM   19  C   UNL     1      -9.698  10.811  64.376  1.00  0.00    -0.356 A  
HETATM   20  C   UNL     1     -10.915  12.992  64.615  1.00  0.00    -0.342 C  
HETATM   21  C   UNL     1      -9.580   9.263  66.205  1.00  0.00    -0.313 A  
HETATM   22  C   UNL     1      -9.251   9.604  64.896  1.00  0.00    -0.306 A  
HETATM   23  F   UNL     1     -11.637  13.759  65.478  1.00  0.00    -0.311 F  
HETATM   24  F   UNL     1      -9.862  13.769  64.221  1.00  0.00    -0.285 F  
ENDBRANCH  11  15
BRANCH  14  25
HETATM   25  N   UNL     1     -12.208  11.411  71.170  1.00  0.00    -0.284 NA 
HETATM   26  H   UNL     1     -12.640  11.037  72.015  1.00  0.00     0.000 HD 
BRANCH  25  27
HETATM   27  C   UNL     1     -12.341  12.792  71.001  1.00  0.00    -0.221 A  
HETATM   28  C   UNL     1     -12.674  14.998  71.935  1.00  0.00    -0.337 A  
HETATM   29  C   UNL     1     -12.443  13.629  72.115  1.00  0.00    -0.048 A  
HETATM   30  N   UNL     1     -12.771  15.551  70.691  1.00  0.00    -0.457 NA 
HETATM   31  C   UNL     1     -12.868  15.903  73.142  1.00  0.00    -0.537 C  
HETATM   32  C   UNL     1     -12.667  14.729  69.631  1.00  0.00     0.052 A  
HETATM   33  F   UNL     1     -14.085  16.520  73.157  1.00  0.00    -0.492 F  
HETATM   34  F   UNL     1     -12.789  15.239  74.336  1.00  0.00    -0.564 F  
HETATM   35  F   UNL     1     -11.939  16.899  73.222  1.00  0.00    -0.546 F  
HETATM   36  C   UNL     1     -12.478  13.364  69.736  1.00  0.00    -0.112 A  
ENDBRANCH  25  27
ENDBRANCH  14  25
ENDBRANCH   7   9
ENDBRANCH   5   7
TORSDOF 5
ENDMDL
MODEL       61
REMARK 921   NORMALIZED FREE ENERGY PREDICTED BY IDOCK:   -7.31 KCAL/MOL
REMARK 922        TOTAL FREE ENERGY PREDICTED BY IDOCK:  -10.61 KCAL/MOL
REMARK 923 INTER-LIGAND FREE ENERGY PREDICTED BY IDOCK:   -9.50 KCAL/MOL
REMARK 924 INTRA-LIGAND FREE ENERGY PREDICTED BY IDOCK:   -1.11 KCAL/MOL
REMARK 927      BINDING AFFINITY PREDICTED BY RF-SCORE:    0.00 PKD
ROOT
HETATM    1  C   UNL     1     -10.412   9.329  71.540  1.00  0.00    -0.385 C  
HETATM    2  C   UNL     1     -11.314   9.613  70.335  1.00  0.00    -0.277 C  
HETATM    3  C   UNL     1     -10.640   9.115  69.051  1.00  0.00    -0.219 C  
HETATM    4  O   UNL     1     -12.538   8.881  70.504  1.00  0.00    -0.447 OA 
HETATM    5  C   UNL     1     -11.650  11.128  70.278  1.00  0.00    -0.296 C  
HETATM    6  H   UNL     1     -13.098   9.058  69.757  1.00  0.00     0.000 HD 
ENDROOT
BRANCH   5   7
HETATM    7  N   UNL     1     -12.397  11.434  69.067  1.00  0.00    -0.386 NA 
HETATM    8  H   UNL     1     -13.336  11.060  68.921  1.00  0.00     0.000 HD 
BRANCH   7   9
HETATM    9  C   UNL     1     -11.802  12.244  68.120  1.00  0.00    -0.311 A  
HETATM   10  N   UNL     1     -11.194  13.364  68.476  1.00  0.00    -0.266 NA 
HETATM   11  C   UNL     1     -10.664  14.076  67.480  1.00  0.00    -0.268 A  
HETATM   12  N   UNL     1     -11.864  11.797  66.873  1.00  0.00    -0.585 NA 
HETATM   13  N   UNL     1     -10.695  13.707  66.199  1.00  0.00    -0.284 NA 
HETATM   14  C   UNL     1     -11.276  12.541  65.949  1.00  0.00    -0.320 A  
BRANCH  11  15
HETATM   15  C   UNL     1      -9.980  15.358  67.802  1.00  0.00    -0.225 A  
HETATM   16  C   UNL     1      -9.681  17.641  67.305  1.00  0.00    -0.284 A  
HETATM   17  F   UNL     1      -8.967  19.399  65.829  1.00  0.00    -0.285 F  
HETATM   18  N   UNL     1     -10.289  16.448  67.042  1.00  0.00    -0.291 NA 
HETATM   19  C   UNL     1      -8.737  17.777  68.323  1.00  0.00    -0.277 A  
HETATM   20  C   UNL     1     -10.044  18.870  66.482  1.00  0.00    -0.398 C  
HETATM   21  C   UNL     1      -9.052  15.456  68.844  1.00  0.00    -0.218 A  
HETATM   22  C   UNL     1      -8.423  16.671  69.101  1.00  0.00    -0.115 A  
HETATM   23  F   UNL     1     -10.988  18.652  65.523  1.00  0.00    -0.439 F  
HETATM   24  F   UNL     1     -10.531  19.885  67.255  1.00  0.00    -0.503 F  
ENDBRANCH  11  15
BRANCH  14  25
HETATM   25  N   UNL     1     -11.211  12.000  64.664  1.00  0.00    -0.319 NA 
HETATM   26  H   UNL     1     -12.003  12.222  64.061  1.00  0.00     0.000 HD 
BRANCH  25  27
HETATM   27  C   UNL     1     -10.228  11.199  64.075  1.00  0.00    -0.361 A  
HETATM   28  C   UNL     1      -8.669   9.355  64.205  1.00  0.00    -0.197 A  
HETATM   29  C   UNL     1      -9.722  10.092  64.761  1.00  0.00    -0.363 A  
HETATM   30  N   UNL     1      -8.139   9.668  62.987  1.00  0.00    -0.134 NA 
HETATM   31  C   UNL     1      -8.056   8.198  64.981  1.00  0.00    -0.155 C  
HETATM   32  C   UNL     1      -8.643  10.735  62.341  1.00  0.00    -0.281 A  
HETATM   33  F   UNL     1      -6.728   8.374  65.241  1.00  0.00    -0.054 F  
HETATM   34  F   UNL     1      -8.637   7.997  66.203  1.00  0.00    -0.117 F  
HETATM   35  F   UNL     1      -8.158   7.002  64.333  1.00  0.00    -0.125 F  
HETATM   36  C   UNL     1      -9.654  11.529  62.848  1.00  0.00    -0.314 A  
ENDBRANCH  25  27
ENDBRANCH  14  25
ENDBRANCH   7   9
ENDBRANCH   5   7
TORSDOF 5
ENDMDL
MODEL       62
REMARK 921   NORMALIZED FREE ENERGY PREDICTED BY IDOCK:   -7.31 KCAL/MOL
REMARK 922        TOTAL FREE ENERGY PREDICTED BY IDOCK:  -10.61 KCAL/MOL
REMARK 923 INTER-LIGAND FREE ENERGY PREDICTED BY IDOCK:   -9.51 KCAL/MOL
REMARK 924 INTRA-LIGAND FREE ENERGY PREDICTED BY IDOCK:   -1.10 KCAL/MOL
REMARK 927      BINDING AFFINITY PREDICTED BY RF-SCORE:    0.00 PKD
ROOT
HETATM    1  C   UNL     1     -14.121  13.355  72.442  1.00  0.00    -0.517 C  
HETATM    2  C   UNL     1     -12.927  14.124  71.868  1.00  0.00    -0.360 C  
HETATM    3  C   UNL     1     -12.220  14.897  72.988  1.00  0.00    -0.407 C  
HETATM    4  O   UNL     1     -11.993  13.174  71.330  1.00  0.00    -0.286 OA 
HETATM    5  C   UNL     1     -13.404  15.051  70.718  1.00  0.00    -0.315 C  
HETATM    6  H   UNL     1     -11.252  13.652  70.974  1.00  0.00     0.000 HD 
ENDROOT
BRANCH   5   7
HETATM    7  N   UNL     1     -12.305  15.884  70.252  1.00  0.00    -0.389 NA 
HETATM    8  H   UNL     1     -12.006  16.703  70.782  1.00  0.00     0.000 HD 
BRANCH   7   9
HETATM    9  C   UNL     1     -11.677  15.535  69.072  1.00  0.00    -0.377 A  
HETATM   10  N   UNL     1     -11.566  14.266  68.715  1.00  0.00    -0.302 NA 
HETATM   11  C   UNL     1     -10.931  14.042  67.564  1.00  0.00    -0.277 A  
HETATM   12  N   UNL     1     -11.242  16.553  68.341  1.00  0.00    -0.337 NA 
HETATM   13  N   UNL     1     -10.451  15.005  66.776  1.00  0.00    -0.277 NA 
HETATM   14  C   UNL     1     -10.661  16.247  67.191  1.00  0.00    -0.247 A  
BRANCH  11  15
HETATM   15  C   UNL     1     -10.751  12.637  67.107  1.00  0.00    -0.241 A  
HETATM   16  C   UNL     1     -10.089  11.164  65.392  1.00  0.00    -0.264 A  
HETATM   17  F   UNL     1     -10.367  10.230  63.194  1.00  0.00    -0.153 F  
HETATM   18  N   UNL     1     -10.266  12.439  65.848  1.00  0.00    -0.247 NA 
HETATM   19  C   UNL     1     -10.405  10.053  66.173  1.00  0.00    -0.225 A  
HETATM   20  C   UNL     1      -9.517  10.935  63.999  1.00  0.00    -0.262 C  
HETATM   21  C   UNL     1     -11.064  11.549  67.929  1.00  0.00    -0.317 A  
HETATM   22  C   UNL     1     -10.895  10.251  67.456  1.00  0.00    -0.355 A  
HETATM   23  F   UNL     1      -9.219  12.074  63.314  1.00  0.00    -0.199 F  
HETATM   24  F   UNL     1      -8.362  10.207  64.027  1.00  0.00    -0.144 F  
ENDBRANCH  11  15
BRANCH  14  25
HETATM   25  N   UNL     1     -10.339  17.317  66.354  1.00  0.00    -0.333 NA 
HETATM   26  H   UNL     1     -10.696  17.243  65.402  1.00  0.00     0.000 HD 
BRANCH  25  27
HETATM   27  C   UNL     1      -9.602  18.475  66.620  1.00  0.00    -0.321 A  
HETATM   28  C   UNL     1      -7.483  19.563  67.041  1.00  0.00    -0.228 A  
HETATM   29  C   UNL     1      -8.207  18.421  66.676  1.00  0.00    -0.283 A  
HETATM   30  N   UNL     1      -8.103  20.748  67.312  1.00  0.00    -0.267 NA 
HETATM   31  C   UNL     1      -5.970  19.492  67.184  1.00  0.00    -0.178 C  
HETATM   32  C   UNL     1      -9.447  20.781  67.249  1.00  0.00    -0.327 A  
HETATM   33  F   UNL     1      -5.538  19.802  68.440  1.00  0.00    -0.202 F  
HETATM   34  F   UNL     1      -5.458  18.250  66.925  1.00  0.00    -0.135 F  
HETATM   35  F   UNL     1      -5.309  20.336  66.339  1.00  0.00    -0.173 F  
HETATM   36  C   UNL     1     -10.224  19.682  66.935  1.00  0.00    -0.560 A  
ENDBRANCH  25  27
ENDBRANCH  14  25
ENDBRANCH   7   9
ENDBRANCH   5   7
TORSDOF 5
ENDMDL
MODEL       63
REMARK 921   NORMALIZED FREE ENERGY PREDICTED BY IDOCK:   -7.29 KCAL/MOL
REMARK 922        TOTAL FREE ENERGY PREDICTED BY IDOCK:  -10.59 KCAL/MOL
REMARK 923 INTER-LIGAND FREE ENERGY PREDICTED BY IDOCK:   -9.61 KCAL/MOL
REMARK 924 INTRA-LIGAND FREE ENERGY PREDICTED BY IDOCK:   -0.98 KCAL/MOL
REMARK 927      BINDING AFFINITY PREDICTED BY RF-SCORE:    0.00 PKD
ROOT
HETATM    1  C   UNL     1     -10.452   5.794  67.331  1.00  0.00    -0.318 C  
HETATM    2  C   UNL     1      -9.703   7.042  66.853  1.00  0.00    -0.175 C  
HETATM    3  C   UNL     1      -8.454   7.261  67.714  1.00  0.00    -0.121 C  
HETATM    4  O   UNL     1      -9.275   6.822  65.500  1.00  0.00    -0.376 OA 
HETATM    5  C   UNL     1     -10.659   8.266  66.874  1.00  0.00    -0.232 C  
HETATM    6  H   UNL     1      -8.811   7.596  65.203  1.00  0.00     0.000 HD 
ENDROOT
BRANCH   5   7
HETATM    7  N   UNL     1      -9.928   9.482  66.548  1.00  0.00    -0.243 NA 
HETATM    8  H   UNL     1      -9.151   9.466  65.886  1.00  0.00     0.000 HD 
BRANCH   7   9
HETATM    9  C   UNL     1     -10.314  10.659  67.159  1.00  0.00    -0.228 A  
HETATM   10  N   UNL     1     -10.359  11.792  66.476  1.00  0.00    -0.218 NA 
HETATM   11  C   UNL     1     -10.733  12.869  67.166  1.00  0.00    -0.253 A  
HETATM   12  N   UNL     1     -10.656  10.549  68.436  1.00  0.00    -0.186 NA 
HETATM   13  N   UNL     1     -11.078  12.849  68.454  1.00  0.00    -0.247 NA 
HETATM   14  C   UNL     1     -11.057  11.658  69.037  1.00  0.00    -0.241 A  
BRANCH  11  15
HETATM   15  C   UNL     1     -10.788  14.183  66.469  1.00  0.00    -0.298 A  
HETATM   16  C   UNL     1     -10.473  16.515  66.575  1.00  0.00    -0.270 A  
HETATM   17  F   UNL     1     -11.046  18.680  67.448  1.00  0.00    -0.460 F  
HETATM   18  N   UNL     1     -10.433  15.292  67.179  1.00  0.00    -0.274 NA 
HETATM   19  C   UNL     1     -10.882  16.668  65.250  1.00  0.00    -0.194 A  
HETATM   20  C   UNL     1     -10.047  17.754  67.352  1.00  0.00    -0.338 C  
HETATM   21  C   UNL     1     -11.188  14.291  65.133  1.00  0.00    -0.345 A  
HETATM   22  C   UNL     1     -11.241  15.541  64.523  1.00  0.00    -0.327 A  
HETATM   23  F   UNL     1      -9.643  17.510  68.630  1.00  0.00    -0.266 F  
HETATM   24  F   UNL     1      -9.006  18.407  66.754  1.00  0.00    -0.256 F  
ENDBRANCH  11  15
BRANCH  14  25
HETATM   25  N   UNL     1     -11.557  11.515  70.333  1.00  0.00    -0.503 NA 
HETATM   26  H   UNL     1     -11.589  12.375  70.880  1.00  0.00     0.000 HD 
BRANCH  25  27
HETATM   27  C   UNL     1     -12.021  10.375  70.996  1.00  0.00    -0.382 A  
HETATM   28  C   UNL     1     -11.586   8.273  72.110  1.00  0.00    -0.364 A  
HETATM   29  C   UNL     1     -11.114   9.459  71.536  1.00  0.00    -0.446 A  
HETATM   30  N   UNL     1     -12.920   7.997  72.191  1.00  0.00    -0.264 NA 
HETATM   31  C   UNL     1     -10.603   7.233  72.626  1.00  0.00    -0.266 C  
HETATM   32  C   UNL     1     -13.778   8.893  71.669  1.00  0.00    -0.395 A  
HETATM   33  F   UNL     1     -10.722   6.028  71.998  1.00  0.00    -0.235 F  
HETATM   34  F   UNL     1      -9.294   7.595  72.461  1.00  0.00    -0.161 F  
HETATM   35  F   UNL     1     -10.740   6.977  73.960  1.00  0.00    -0.397 F  
HETATM   36  C   UNL     1     -13.379  10.064  71.053  1.00  0.00    -0.334 A  
ENDBRANCH  25  27
ENDBRANCH  14  25
ENDBRANCH   7   9
ENDBRANCH   5   7
TORSDOF 5
ENDMDL
MODEL       64
REMARK 921   NORMALIZED FREE ENERGY PREDICTED BY IDOCK:   -7.27 KCAL/MOL
REMARK 922        TOTAL FREE ENERGY PREDICTED BY IDOCK:  -10.55 KCAL/MOL
REMARK 923 INTER-LIGAND FREE ENERGY PREDICTED BY IDOCK:   -9.53 KCAL/MOL
REMARK 924 INTRA-LIGAND FREE ENERGY PREDICTED BY IDOCK:   -1.03 KCAL/MOL
REMARK 927      BINDING AFFINITY PREDICTED BY RF-SCORE:    0.00 PKD
ROOT
HETATM    1  C   UNL     1      -8.897   9.186  63.356  1.00  0.00    -0.088 C  
HETATM    2  C   UNL     1      -8.270  10.070  64.438  1.00  0.00    -0.165 C  
HETATM    3  C   UNL     1      -7.790   9.201  65.607  1.00  0.00    -0.095 C  
HETATM    4  O   UNL     1      -7.123  10.728  63.876  1.00  0.00    -0.338 OA 
HETATM    5  C   UNL     1      -9.289  11.153  64.884  1.00  0.00    -0.194 C  
HETATM    6  H   UNL     1      -6.734  11.277  64.548  1.00  0.00     0.000 HD 
ENDROOT
BRANCH   5   7
HETATM    7  N   UNL     1      -8.755  11.917  66.003  1.00  0.00    -0.400 NA 
HETATM    8  H   UNL     1      -7.787  11.800  66.304  1.00  0.00     0.000 HD 
BRANCH   7   9
HETATM    9  C   UNL     1      -9.595  12.806  66.645  1.00  0.00    -0.255 A  
HETATM   10  N   UNL     1     -10.224  12.459  67.756  1.00  0.00    -0.207 NA 
HETATM   11  C   UNL     1     -11.019  13.389  68.286  1.00  0.00    -0.259 A  
HETATM   12  N   UNL     1      -9.683  14.006  66.086  1.00  0.00    -0.295 NA 
HETATM   13  N   UNL     1     -11.176  14.614  67.781  1.00  0.00    -0.294 NA 
HETATM   14  C   UNL     1     -10.459  14.887  66.699  1.00  0.00    -0.292 A  
BRANCH  11  15
HETATM   15  C   UNL     1     -11.775  13.064  69.526  1.00  0.00    -0.317 A  
HETATM   16  C   UNL     1     -12.636  11.409  70.963  1.00  0.00    -0.386 A  
HETATM   17  F   UNL     1     -14.117   9.568  71.406  1.00  0.00    -0.343 F  
HETATM   18  N   UNL     1     -11.947  11.747  69.835  1.00  0.00    -0.330 NA 
HETATM   19  C   UNL     1     -13.185  12.374  71.807  1.00  0.00    -0.435 A  
HETATM   20  C   UNL     1     -12.805   9.940  71.331  1.00  0.00    -0.405 C  
HETATM   21  C   UNL     1     -12.294  14.064  70.355  1.00  0.00    -0.429 A  
HETATM   22  C   UNL     1     -13.008  13.716  71.499  1.00  0.00    -0.443 A  
HETATM   23  F   UNL     1     -12.221   9.067  70.464  1.00  0.00    -0.208 F  
HETATM   24  F   UNL     1     -12.278   9.651  72.558  1.00  0.00    -0.293 F  
ENDBRANCH  11  15
BRANCH  14  25
HETATM   25  N   UNL     1     -10.435  16.190  66.197  1.00  0.00    -0.325 NA 
HETATM   26  H   UNL     1     -10.790  16.293  65.246  1.00  0.00     0.000 HD 
BRANCH  25  27
HETATM   27  C   UNL     1     -10.002  17.375  66.798  1.00  0.00    -0.307 A  
HETATM   28  C   UNL     1      -8.273  18.658  67.900  1.00  0.00    -0.265 A  
HETATM   29  C   UNL     1      -8.674  17.507  67.211  1.00  0.00    -0.236 A  
HETATM   30  N   UNL     1      -9.141  19.681  68.152  1.00  0.00    -0.328 NA 
HETATM   31  C   UNL     1      -6.850  18.774  68.426  1.00  0.00    -0.249 C  
HETATM   32  C   UNL     1     -10.414  19.537  67.742  1.00  0.00    -0.449 A  
HETATM   33  F   UNL     1      -6.793  18.921  69.781  1.00  0.00    -0.254 F  
HETATM   34  F   UNL     1      -6.079  17.679  68.151  1.00  0.00    -0.152 F  
HETATM   35  F   UNL     1      -6.168  19.835  67.904  1.00  0.00    -0.220 F  
HETATM   36  C   UNL     1     -10.886  18.412  67.093  1.00  0.00    -0.271 A  
ENDBRANCH  25  27
ENDBRANCH  14  25
ENDBRANCH   7   9
ENDBRANCH   5   7
TORSDOF 5
ENDMDL
MODEL       65
REMARK 921   NORMALIZED FREE ENERGY PREDICTED BY IDOCK:   -7.26 KCAL/MOL
REMARK 922        TOTAL FREE ENERGY PREDICTED BY IDOCK:  -10.55 KCAL/MOL
REMARK 923 INTER-LIGAND FREE ENERGY PREDICTED BY IDOCK:   -9.60 KCAL/MOL
REMARK 924 INTRA-LIGAND FREE ENERGY PREDICTED BY IDOCK:   -0.95 KCAL/MOL
REMARK 927      BINDING AFFINITY PREDICTED BY RF-SCORE:    0.00 PKD
ROOT
HETATM    1  C   UNL     1     -10.682  20.192  65.358  1.00  0.00    -0.088 C  
HETATM    2  C   UNL     1     -10.029  19.752  66.672  1.00  0.00    -0.441 C  
HETATM    3  C   UNL     1      -8.720  19.010  66.380  1.00  0.00    -0.322 C  
HETATM    4  O   UNL     1      -9.711  20.927  67.435  1.00  0.00    -0.539 OA 
HETATM    5  C   UNL     1     -11.029  18.890  67.490  1.00  0.00    -0.236 C  
HETATM    6  H   UNL     1      -9.307  20.654  68.250  1.00  0.00     0.000 HD 
ENDROOT
BRANCH   5   7
HETATM    7  N   UNL     1     -10.379  18.356  68.678  1.00  0.00    -0.410 NA 
HETATM    8  H   UNL     1      -9.980  18.978  69.382  1.00  0.00     0.000 HD 
BRANCH   7   9
HETATM    9  C   UNL     1     -10.318  16.985  68.828  1.00  0.00    -0.336 A  
HETATM   10  N   UNL     1     -11.183  16.350  69.602  1.00  0.00    -0.304 NA 
HETATM   11  C   UNL     1     -11.026  15.029  69.685  1.00  0.00    -0.279 A  
HETATM   12  N   UNL     1      -9.370  16.380  68.125  1.00  0.00    -0.206 NA 
HETATM   13  N   UNL     1     -10.091  14.345  69.024  1.00  0.00    -0.197 NA 
HETATM   14  C   UNL     1      -9.308  15.061  68.228  1.00  0.00    -0.192 A  
BRANCH  11  15
HETATM   15  C   UNL     1     -11.951  14.250  70.553  1.00  0.00    -0.331 A  
HETATM   16  C   UNL     1     -12.746  12.141  71.238  1.00  0.00    -0.261 A  
HETATM   17  F   UNL     1     -13.875  10.068  70.785  1.00  0.00    -0.363 F  
HETATM   18  N   UNL     1     -11.911  12.890  70.459  1.00  0.00    -0.277 NA 
HETATM   19  C   UNL     1     -13.653  12.728  72.119  1.00  0.00    -0.547 A  
HETATM   20  C   UNL     1     -12.684  10.621  71.162  1.00  0.00    -0.422 C  
HETATM   21  C   UNL     1     -12.834  14.878  71.437  1.00  0.00    -0.416 A  
HETATM   22  C   UNL     1     -13.693  14.111  72.220  1.00  0.00    -0.623 A  
HETATM   23  F   UNL     1     -11.757  10.133  70.291  1.00  0.00    -0.279 F  
HETATM   24  F   UNL     1     -12.390  10.055  72.370  1.00  0.00    -0.321 F  
ENDBRANCH  11  15
BRANCH  14  25
HETATM   25  N   UNL     1      -8.411  14.413  67.377  1.00  0.00    -0.191 NA 
HETATM   26  H   UNL     1      -7.837  15.031  66.804  1.00  0.00     0.000 HD 
BRANCH  25  27
HETATM   27  C   UNL     1      -8.178  13.048  67.189  1.00  0.00    -0.127 A  
HETATM   28  C   UNL     1      -8.860  10.907  66.294  1.00  0.00    -0.179 A  
HETATM   29  C   UNL     1      -9.045  12.291  66.396  1.00  0.00    -0.158 A  
HETATM   30  N   UNL     1      -7.829  10.273  66.923  1.00  0.00    -0.111 NA 
HETATM   31  C   UNL     1      -9.847  10.064  65.500  1.00  0.00    -0.303 C  
HETATM   32  C   UNL     1      -7.003  11.019  67.679  1.00  0.00    -0.083 A  
HETATM   33  F   UNL     1     -10.466   9.113  66.257  1.00  0.00    -0.331 F  
HETATM   34  F   UNL     1     -10.861  10.795  64.944  1.00  0.00    -0.350 F  
HETATM   35  F   UNL     1      -9.270   9.398  64.458  1.00  0.00    -0.269 F  
HETATM   36  C   UNL     1      -7.150  12.382  67.855  1.00  0.00    -0.109 A  
ENDBRANCH  25  27
ENDBRANCH  14  25
ENDBRANCH   7   9
ENDBRANCH   5   7
TORSDOF 5
ENDMDL
MODEL       66
REMARK 921   NORMALIZED FREE ENERGY PREDICTED BY IDOCK:   -7.25 KCAL/MOL
REMARK 922        TOTAL FREE ENERGY PREDICTED BY IDOCK:  -10.53 KCAL/MOL
REMARK 923 INTER-LIGAND FREE ENERGY PREDICTED BY IDOCK:   -9.54 KCAL/MOL
REMARK 924 INTRA-LIGAND FREE ENERGY PREDICTED BY IDOCK:   -1.00 KCAL/MOL
REMARK 927      BINDING AFFINITY PREDICTED BY RF-SCORE:    0.00 PKD
ROOT
HETATM    1  C   UNL     1     -13.114  11.704  63.536  1.00  0.00     0.093 C  
HETATM    2  C   UNL     1     -12.240  12.925  63.839  1.00  0.00    -0.449 C  
HETATM    3  C   UNL     1     -10.759  12.547  63.718  1.00  0.00    -0.483 C  
HETATM    4  O   UNL     1     -12.520  13.936  62.858  1.00  0.00    -1.034 OA 
HETATM    5  C   UNL     1     -12.595  13.488  65.241  1.00  0.00    -0.468 C  
HETATM    6  H   UNL     1     -11.978  14.693  63.046  1.00  0.00     0.000 HD 
ENDROOT
BRANCH   5   7
HETATM    7  N   UNL     1     -11.684  14.566  65.597  1.00  0.00    -0.347 NA 
HETATM    8  H   UNL     1     -11.626  15.413  65.030  1.00  0.00     0.000 HD 
BRANCH   7   9
HETATM    9  C   UNL     1     -10.900  14.413  66.723  1.00  0.00    -0.301 A  
HETATM   10  N   UNL     1      -9.862  15.206  66.938  1.00  0.00    -0.232 NA 
HETATM   11  C   UNL     1      -9.166  14.962  68.049  1.00  0.00    -0.185 A  
HETATM   12  N   UNL     1     -11.285  13.455  67.556  1.00  0.00    -0.274 NA 
HETATM   13  N   UNL     1      -9.477  14.011  68.931  1.00  0.00    -0.064 NA 
HETATM   14  C   UNL     1     -10.567  13.305  68.658  1.00  0.00    -0.246 A  
BRANCH  11  15
HETATM   15  C   UNL     1      -7.975  15.802  68.347  1.00  0.00    -0.141 A  
HETATM   16  C   UNL     1      -7.105  17.942  68.804  1.00  0.00    -0.268 A  
HETATM   17  F   UNL     1      -6.637  20.209  68.152  1.00  0.00    -0.280 F  
HETATM   18  N   UNL     1      -8.173  17.139  68.530  1.00  0.00    -0.253 NA 
HETATM   19  C   UNL     1      -5.807  17.438  68.888  1.00  0.00    -0.175 A  
HETATM   20  C   UNL     1      -7.323  19.431  69.042  1.00  0.00    -0.360 C  
HETATM   21  C   UNL     1      -6.692  15.253  68.440  1.00  0.00    -0.113 A  
HETATM   22  C   UNL     1      -5.602  16.077  68.705  1.00  0.00    -0.108 A  
HETATM   23  F   UNL     1      -8.622  19.834  68.961  1.00  0.00    -0.356 F  
HETATM   24  F   UNL     1      -6.889  19.827  70.275  1.00  0.00    -0.315 F  
ENDBRANCH  11  15
BRANCH  14  25
HETATM   25  N   UNL     1     -11.058  12.402  69.602  1.00  0.00    -0.470 NA 
HETATM   26  H   UNL     1     -11.588  12.822  70.366  1.00  0.00     0.000 HD 
BRANCH  25  27
HETATM   27  C   UNL     1     -10.937  11.011  69.663  1.00  0.00    -0.225 A  
HETATM   28  C   UNL     1     -10.528   8.891  68.573  1.00  0.00    -0.182 A  
HETATM   29  C   UNL     1     -10.551  10.290  68.530  1.00  0.00    -0.240 A  
HETATM   30  N   UNL     1     -10.841   8.204  69.709  1.00  0.00    -0.227 NA 
HETATM   31  C   UNL     1     -10.189   8.096  67.320  1.00  0.00    -0.278 C  
HETATM   32  C   UNL     1     -11.207   8.915  70.791  1.00  0.00    -0.272 A  
HETATM   33  F   UNL     1     -11.196   7.264  66.927  1.00  0.00    -0.437 F  
HETATM   34  F   UNL     1      -9.929   8.883  66.232  1.00  0.00    -0.304 F  
HETATM   35  F   UNL     1      -9.084   7.308  67.466  1.00  0.00    -0.124 F  
HETATM   36  C   UNL     1     -11.289  10.295  70.806  1.00  0.00    -0.421 A  
ENDBRANCH  25  27
ENDBRANCH  14  25
ENDBRANCH   7   9
ENDBRANCH   5   7
TORSDOF 5
ENDMDL
MODEL       67
REMARK 921   NORMALIZED FREE ENERGY PREDICTED BY IDOCK:   -7.25 KCAL/MOL
REMARK 922        TOTAL FREE ENERGY PREDICTED BY IDOCK:  -10.53 KCAL/MOL
REMARK 923 INTER-LIGAND FREE ENERGY PREDICTED BY IDOCK:   -9.48 KCAL/MOL
REMARK 924 INTRA-LIGAND FREE ENERGY PREDICTED BY IDOCK:   -1.05 KCAL/MOL
REMARK 927      BINDING AFFINITY PREDICTED BY RF-SCORE:    0.00 PKD
ROOT
HETATM    1  C   UNL     1     -11.175  15.747  64.684  1.00  0.00    -0.373 C  
HETATM    2  C   UNL     1     -11.785  14.346  64.579  1.00  0.00    -0.419 C  
HETATM    3  C   UNL     1     -12.903  14.187  65.616  1.00  0.00    -0.402 C  
HETATM    4  O   UNL     1     -12.369  14.203  63.274  1.00  0.00    -1.140 OA 
HETATM    5  C   UNL     1     -10.672  13.276  64.740  1.00  0.00    -0.378 C  
HETATM    6  H   UNL     1     -12.747  13.334  63.209  1.00  0.00     0.000 HD 
ENDROOT
BRANCH   5   7
HETATM    7  N   UNL     1     -11.254  11.943  64.774  1.00  0.00    -0.310 NA 
HETATM    8  H   UNL     1     -11.973  11.667  64.104  1.00  0.00     0.000 HD 
BRANCH   7   9
HETATM    9  C   UNL     1     -10.808  11.060  65.738  1.00  0.00    -0.097 A  
HETATM   10  N   UNL     1     -10.144   9.967  65.398  1.00  0.00    -0.281 NA 
HETATM   11  C   UNL     1      -9.771   9.179  66.406  1.00  0.00    -0.262 A  
HETATM   12  N   UNL     1     -11.066  11.411  66.991  1.00  0.00    -0.295 NA 
HETATM   13  N   UNL     1     -10.003   9.450  67.692  1.00  0.00    -0.178 NA 
HETATM   14  C   UNL     1     -10.624  10.596  67.935  1.00  0.00    -0.228 A  
BRANCH  11  15
HETATM   15  C   UNL     1      -9.036   7.922  66.099  1.00  0.00    -0.175 A  
HETATM   16  C   UNL     1      -8.598   5.676  66.661  1.00  0.00    -0.117 A  
HETATM   17  F   UNL     1      -7.732   4.012  68.164  1.00  0.00    -0.065 F  
HETATM   18  N   UNL     1      -9.255   6.847  66.910  1.00  0.00    -0.140 NA 
HETATM   19  C   UNL     1      -7.693   5.550  65.607  1.00  0.00    -0.088 A  
HETATM   20  C   UNL     1      -8.862   4.462  67.542  1.00  0.00    -0.108 C  
HETATM   21  C   UNL     1      -8.150   7.832  65.021  1.00  0.00    -0.139 A  
HETATM   22  C   UNL     1      -7.471   6.641  64.778  1.00  0.00    -0.095 A  
HETATM   23  F   UNL     1      -9.773   4.669  68.534  1.00  0.00    -0.181 F  
HETATM   24  F   UNL     1      -9.329   3.396  66.827  1.00  0.00    -0.162 F  
ENDBRANCH  11  15
BRANCH  14  25
HETATM   25  N   UNL     1     -10.764  11.039  69.252  1.00  0.00    -0.253 NA 
HETATM   26  H   UNL     1     -10.322  11.935  69.455  1.00  0.00     0.000 HD 
BRANCH  25  27
HETATM   27  C   UNL     1     -11.415  10.443  70.336  1.00  0.00    -0.337 A  
HETATM   28  C   UNL     1     -11.643   8.611  71.898  1.00  0.00    -0.350 A  
HETATM   29  C   UNL     1     -10.928   9.252  70.879  1.00  0.00    -0.368 A  
HETATM   30  N   UNL     1     -12.795   9.138  72.406  1.00  0.00    -0.390 NA 
HETATM   31  C   UNL     1     -11.163   7.272  72.439  1.00  0.00    -0.281 C  
HETATM   32  C   UNL     1     -13.246  10.288  71.873  1.00  0.00    -0.445 A  
HETATM   33  F   UNL     1     -12.076   6.272  72.274  1.00  0.00    -0.343 F  
HETATM   34  F   UNL     1     -10.023   6.820  71.834  1.00  0.00    -0.176 F  
HETATM   35  F   UNL     1     -10.876   7.302  73.773  1.00  0.00    -0.408 F  
HETATM   36  C   UNL     1     -12.612  10.951  70.839  1.00  0.00    -0.494 A  
ENDBRANCH  25  27
ENDBRANCH  14  25
ENDBRANCH   7   9
ENDBRANCH   5   7
TORSDOF 5
ENDMDL
MODEL       68
REMARK 921   NORMALIZED FREE ENERGY PREDICTED BY IDOCK:   -7.24 KCAL/MOL
REMARK 922        TOTAL FREE ENERGY PREDICTED BY IDOCK:  -10.52 KCAL/MOL
REMARK 923 INTER-LIGAND FREE ENERGY PREDICTED BY IDOCK:   -9.41 KCAL/MOL
REMARK 924 INTRA-LIGAND FREE ENERGY PREDICTED BY IDOCK:   -1.11 KCAL/MOL
REMARK 927      BINDING AFFINITY PREDICTED BY RF-SCORE:    0.00 PKD
ROOT
HETATM    1  C   UNL     1     -11.346  15.789  64.503  1.00  0.00    -0.324 C  
HETATM    2  C   UNL     1     -11.773  14.318  64.465  1.00  0.00    -0.418 C  
HETATM    3  C   UNL     1     -12.839  14.058  65.535  1.00  0.00    -0.453 C  
HETATM    4  O   UNL     1     -12.360  14.051  63.182  1.00  0.00    -1.133 OA 
HETATM    5  C   UNL     1     -10.527  13.408  64.635  1.00  0.00    -0.411 C  
HETATM    6  H   UNL     1     -12.624  13.139  63.158  1.00  0.00     0.000 HD 
ENDROOT
BRANCH   5   7
HETATM    7  N   UNL     1     -10.932  12.013  64.732  1.00  0.00    -0.301 NA 
HETATM    8  H   UNL     1     -11.526  11.588  64.019  1.00  0.00     0.000 HD 
BRANCH   7   9
HETATM    9  C   UNL     1     -10.491  11.279  65.816  1.00  0.00    -0.254 A  
HETATM   10  N   UNL     1     -11.175  11.268  66.949  1.00  0.00    -0.353 NA 
HETATM   11  C   UNL     1     -10.653  10.537  67.934  1.00  0.00    -0.232 A  
HETATM   12  N   UNL     1      -9.377  10.586  65.616  1.00  0.00    -0.188 NA 
HETATM   13  N   UNL     1      -9.532   9.823  67.821  1.00  0.00    -0.133 NA 
HETATM   14  C   UNL     1      -8.948   9.852  66.630  1.00  0.00    -0.139 A  
BRANCH  11  15
HETATM   15  C   UNL     1     -11.358  10.492  69.244  1.00  0.00    -0.262 A  
HETATM   16  C   UNL     1     -11.994   9.227  71.126  1.00  0.00    -0.322 A  
HETATM   17  F   UNL     1     -13.222   7.422  72.134  1.00  0.00    -0.276 F  
HETATM   18  N   UNL     1     -11.356   9.309  69.922  1.00  0.00    -0.130 NA 
HETATM   19  C   UNL     1     -12.663  10.318  71.680  1.00  0.00    -0.561 A  
HETATM   20  C   UNL     1     -11.969   7.918  71.905  1.00  0.00    -0.305 C  
HETATM   21  C   UNL     1     -12.003  11.615  69.772  1.00  0.00    -0.402 A  
HETATM   22  C   UNL     1     -12.663  11.525  70.994  1.00  0.00    -0.426 A  
HETATM   23  F   UNL     1     -11.277   6.912  71.301  1.00  0.00    -0.262 F  
HETATM   24  F   UNL     1     -11.408   8.063  73.142  1.00  0.00    -0.455 F  
ENDBRANCH  11  15
BRANCH  14  25
HETATM   25  N   UNL     1      -7.865   9.009  66.372  1.00  0.00    -0.099 NA 
HETATM   26  H   UNL     1      -6.948   9.419  66.549  1.00  0.00     0.000 HD 
BRANCH  25  27
HETATM   27  C   UNL     1      -7.843   7.691  65.910  1.00  0.00    -0.103 A  
HETATM   28  C   UNL     1      -8.900   5.527  65.689  1.00  0.00    -0.152 A  
HETATM   29  C   UNL     1      -8.966   6.874  66.065  1.00  0.00    -0.131 A  
HETATM   30  N   UNL     1      -7.774   4.991  65.137  1.00  0.00    -0.081 NA 
HETATM   31  C   UNL     1     -10.091   4.610  65.930  1.00  0.00    -0.258 C  
HETATM   32  C   UNL     1      -6.704   5.794  64.992  1.00  0.00    -0.047 A  
HETATM   33  F   UNL     1      -9.797   3.560  66.750  1.00  0.00    -0.216 F  
HETATM   34  F   UNL     1     -11.151   5.241  66.522  1.00  0.00    -0.296 F  
HETATM   35  F   UNL     1     -10.591   4.064  64.784  1.00  0.00    -0.235 F  
HETATM   36  C   UNL     1      -6.687   7.121  65.378  1.00  0.00    -0.051 A  
ENDBRANCH  25  27
ENDBRANCH  14  25
ENDBRANCH   7   9
ENDBRANCH   5   7
TORSDOF 5
ENDMDL
MODEL       69
REMARK 921   NORMALIZED FREE ENERGY PREDICTED BY IDOCK:   -7.22 KCAL/MOL
REMARK 922        TOTAL FREE ENERGY PREDICTED BY IDOCK:  -10.49 KCAL/MOL
REMARK 923 INTER-LIGAND FREE ENERGY PREDICTED BY IDOCK:   -9.81 KCAL/MOL
REMARK 924 INTRA-LIGAND FREE ENERGY PREDICTED BY IDOCK:   -0.68 KCAL/MOL
REMARK 927      BINDING AFFINITY PREDICTED BY RF-SCORE:    0.00 PKD
ROOT
HETATM    1  C   UNL     1      -5.144  13.315  69.232  1.00  0.00    -0.074 C  
HETATM    2  C   UNL     1      -6.136  12.305  68.647  1.00  0.00    -0.057 C  
HETATM    3  C   UNL     1      -5.396  11.025  68.241  1.00  0.00    -0.039 C  
HETATM    4  O   UNL     1      -7.086  11.962  69.668  1.00  0.00    -0.337 OA 
HETATM    5  C   UNL     1      -6.900  12.949  67.460  1.00  0.00    -0.153 C  
HETATM    6  H   UNL     1      -7.702  11.335  69.305  1.00  0.00     0.000 HD 
ENDROOT
BRANCH   5   7
HETATM    7  N   UNL     1      -7.750  11.961  66.811  1.00  0.00    -0.330 NA 
HETATM    8  H   UNL     1      -7.517  11.593  65.889  1.00  0.00     0.000 HD 
BRANCH   7   9
HETATM    9  C   UNL     1      -8.882  11.535  67.479  1.00  0.00    -0.155 A  
HETATM   10  N   UNL     1      -9.069  10.252  67.741  1.00  0.00    -0.134 NA 
HETATM   11  C   UNL     1     -10.201   9.950  68.379  1.00  0.00    -0.178 A  
HETATM   12  N   UNL     1      -9.717  12.498  67.850  1.00  0.00    -0.199 NA 
HETATM   13  N   UNL     1     -11.099  10.853  68.774  1.00  0.00    -0.234 NA 
HETATM   14  C   UNL     1     -10.796  12.119  68.516  1.00  0.00    -0.236 A  
BRANCH  11  15
HETATM   15  C   UNL     1     -10.489   8.524  68.691  1.00  0.00    -0.169 A  
HETATM   16  C   UNL     1     -10.915   6.885  70.328  1.00  0.00    -0.281 A  
HETATM   17  F   UNL     1     -10.230   5.572  72.222  1.00  0.00    -0.204 F  
HETATM   18  N   UNL     1     -10.651   8.184  70.002  1.00  0.00    -0.236 NA 
HETATM   19  C   UNL     1     -11.009   5.887  69.358  1.00  0.00    -0.421 A  
HETATM   20  C   UNL     1     -11.130   6.503  71.787  1.00  0.00    -0.257 C  
HETATM   21  C   UNL     1     -10.592   7.557  67.686  1.00  0.00    -0.303 A  
HETATM   22  C   UNL     1     -10.848   6.230  68.023  1.00  0.00    -0.409 A  
HETATM   23  F   UNL     1     -11.041   7.542  72.664  1.00  0.00    -0.271 F  
HETATM   24  F   UNL     1     -12.359   5.944  72.000  1.00  0.00    -0.335 F  
ENDBRANCH  11  15
BRANCH  14  25
HETATM   25  N   UNL     1     -11.595  13.139  69.035  1.00  0.00    -0.292 NA 
HETATM   26  H   UNL     1     -11.716  13.946  68.423  1.00  0.00     0.000 HD 
BRANCH  25  27
HETATM   27  C   UNL     1     -12.256  13.226  70.263  1.00  0.00    -0.321 A  
HETATM   28  C   UNL     1     -12.797  14.458  72.273  1.00  0.00    -0.346 A  
HETATM   29  C   UNL     1     -12.216  14.412  71.000  1.00  0.00    -0.422 A  
HETATM   30  N   UNL     1     -13.438  13.378  72.807  1.00  0.00    -0.591 NA 
HETATM   31  C   UNL     1     -12.687  15.720  73.115  1.00  0.00    -0.507 C  
HETATM   32  C   UNL     1     -13.470  12.246  72.081  1.00  0.00    -0.327 A  
HETATM   33  F   UNL     1     -12.042  15.515  74.300  1.00  0.00    -0.583 F  
HETATM   34  F   UNL     1     -11.992  16.725  72.499  1.00  0.00    -0.552 F  
HETATM   35  F   UNL     1     -13.898  16.262  73.434  1.00  0.00    -0.671 F  
HETATM   36  C   UNL     1     -12.884  12.120  70.836  1.00  0.00    -0.190 A  
ENDBRANCH  25  27
ENDBRANCH  14  25
ENDBRANCH   7   9
ENDBRANCH   5   7
TORSDOF 5
ENDMDL
MODEL       70
REMARK 921   NORMALIZED FREE ENERGY PREDICTED BY IDOCK:   -7.20 KCAL/MOL
REMARK 922        TOTAL FREE ENERGY PREDICTED BY IDOCK:  -10.47 KCAL/MOL
REMARK 923 INTER-LIGAND FREE ENERGY PREDICTED BY IDOCK:   -9.24 KCAL/MOL
REMARK 924 INTRA-LIGAND FREE ENERGY PREDICTED BY IDOCK:   -1.23 KCAL/MOL
REMARK 927      BINDING AFFINITY PREDICTED BY RF-SCORE:    0.00 PKD
ROOT
HETATM    1  C   UNL     1      -7.240   9.990  63.718  1.00  0.00    -0.128 C  
HETATM    2  C   UNL     1      -8.688   9.946  64.216  1.00  0.00    -0.209 C  
HETATM    3  C   UNL     1      -9.641  10.330  63.078  1.00  0.00    -0.297 C  
HETATM    4  O   UNL     1      -8.990   8.598  64.610  1.00  0.00    -0.418 OA 
HETATM    5  C   UNL     1      -8.843  10.867  65.455  1.00  0.00    -0.188 C  
HETATM    6  H   UNL     1      -9.889   8.571  64.919  1.00  0.00     0.000 HD 
ENDROOT
BRANCH   5   7
HETATM    7  N   UNL     1     -10.240  10.938  65.859  1.00  0.00    -0.250 NA 
HETATM    8  H   UNL     1     -10.948  11.328  65.235  1.00  0.00     0.000 HD 
BRANCH   7   9
HETATM    9  C   UNL     1     -10.582  10.464  67.110  1.00  0.00    -0.261 A  
HETATM   10  N   UNL     1     -11.183  11.249  67.990  1.00  0.00    -0.262 NA 
HETATM   11  C   UNL     1     -11.456  10.693  69.171  1.00  0.00    -0.280 A  
HETATM   12  N   UNL     1     -10.295   9.188  67.330  1.00  0.00    -0.247 NA 
HETATM   13  N   UNL     1     -11.188   9.423  69.478  1.00  0.00    -0.106 NA 
HETATM   14  C   UNL     1     -10.638   8.700  68.513  1.00  0.00    -0.119 A  
BRANCH  11  15
HETATM   15  C   UNL     1     -12.115  11.522  70.217  1.00  0.00    -0.359 A  
HETATM   16  C   UNL     1     -12.517  13.665  71.107  1.00  0.00    -0.359 A  
HETATM   17  F   UNL     1     -11.749  15.688  72.156  1.00  0.00    -0.402 F  
HETATM   18  N   UNL     1     -11.930  12.872  70.164  1.00  0.00    -0.337 NA 
HETATM   19  C   UNL     1     -13.291  13.133  72.138  1.00  0.00    -0.621 A  
HETATM   20  C   UNL     1     -12.341  15.177  71.036  1.00  0.00    -0.347 C  
HETATM   21  C   UNL     1     -12.898  10.949  71.225  1.00  0.00    -0.536 A  
HETATM   22  C   UNL     1     -13.484  11.759  72.193  1.00  0.00    -0.273 A  
HETATM   23  F   UNL     1     -11.588  15.611  69.987  1.00  0.00    -0.258 F  
HETATM   24  F   UNL     1     -13.536  15.831  70.929  1.00  0.00    -0.546 F  
ENDBRANCH  11  15
BRANCH  14  25
HETATM   25  N   UNL     1     -10.473   7.325  68.689  1.00  0.00    -0.197 NA 
HETATM   26  H   UNL     1     -10.796   6.749  67.912  1.00  0.00     0.000 HD 
BRANCH  25  27
HETATM   27  C   UNL     1      -9.932   6.616  69.765  1.00  0.00    -0.173 A  
HETATM   28  C   UNL     1     -10.196   5.548  71.918  1.00  0.00    -0.199 A  
HETATM   29  C   UNL     1     -10.760   6.169  70.798  1.00  0.00    -0.326 A  
HETATM   30  N   UNL     1      -8.852   5.332  72.018  1.00  0.00    -0.130 NA 
HETATM   31  C   UNL     1     -11.081   5.131  73.084  1.00  0.00    -0.326 C  
HETATM   32  C   UNL     1      -8.072   5.766  71.012  1.00  0.00    -0.120 A  
HETATM   33  F   UNL     1     -10.742   5.742  74.256  1.00  0.00    -0.273 F  
HETATM   34  F   UNL     1     -12.403   5.428  72.895  1.00  0.00    -0.294 F  
HETATM   35  F   UNL     1     -11.045   3.790  73.335  1.00  0.00    -0.263 F  
HETATM   36  C   UNL     1      -8.557   6.422  69.896  1.00  0.00    -0.138 A  
ENDBRANCH  25  27
ENDBRANCH  14  25
ENDBRANCH   7   9
ENDBRANCH   5   7
TORSDOF 5
ENDMDL
MODEL       71
REMARK 921   NORMALIZED FREE ENERGY PREDICTED BY IDOCK:   -7.19 KCAL/MOL
REMARK 922        TOTAL FREE ENERGY PREDICTED BY IDOCK:  -10.45 KCAL/MOL
REMARK 923 INTER-LIGAND FREE ENERGY PREDICTED BY IDOCK:   -9.11 KCAL/MOL
REMARK 924 INTRA-LIGAND FREE ENERGY PREDICTED BY IDOCK:   -1.35 KCAL/MOL
REMARK 927      BINDING AFFINITY PREDICTED BY RF-SCORE:    0.00 PKD
ROOT
HETATM    1  C   UNL     1     -10.621  16.265  65.124  1.00  0.00    -0.327 C  
HETATM    2  C   UNL     1     -11.085  14.810  65.012  1.00  0.00    -0.405 C  
HETATM    3  C   UNL     1     -12.211  14.701  63.978  1.00  0.00    -0.226 C  
HETATM    4  O   UNL     1      -9.980  14.017  64.548  1.00  0.00    -0.663 OA 
HETATM    5  C   UNL     1     -11.512  14.288  66.410  1.00  0.00    -0.355 C  
HETATM    6  H   UNL     1     -10.268  13.114  64.479  1.00  0.00     0.000 HD 
ENDROOT
BRANCH   5   7
HETATM    7  N   UNL     1     -12.078  12.951  66.298  1.00  0.00    -0.474 NA 
HETATM    8  H   UNL     1     -12.890  12.773  65.707  1.00  0.00     0.000 HD 
BRANCH   7   9
HETATM    9  C   UNL     1     -11.486  11.930  67.015  1.00  0.00    -0.316 A  
HETATM   10  N   UNL     1     -11.993  11.533  68.172  1.00  0.00    -0.610 NA 
HETATM   11  C   UNL     1     -11.336  10.549  68.786  1.00  0.00    -0.249 A  
HETATM   12  N   UNL     1     -10.421  11.381  66.445  1.00  0.00    -0.245 NA 
HETATM   13  N   UNL     1     -10.251   9.952  68.289  1.00  0.00    -0.168 NA 
HETATM   14  C   UNL     1      -9.852  10.380  67.099  1.00  0.00    -0.181 A  
BRANCH  11  15
HETATM   15  C   UNL     1     -11.837  10.063  70.100  1.00  0.00    -0.173 A  
HETATM   16  C   UNL     1     -11.776   8.405  71.771  1.00  0.00    -0.310 A  
HETATM   17  F   UNL     1     -12.158   6.152  72.517  1.00  0.00    -0.312 F  
HETATM   18  N   UNL     1     -11.339   8.884  70.570  1.00  0.00    -0.256 NA 
HETATM   19  C   UNL     1     -12.732   9.080  72.529  1.00  0.00    -0.373 A  
HETATM   20  C   UNL     1     -11.200   7.105  72.318  1.00  0.00    -0.261 C  
HETATM   21  C   UNL     1     -12.785  10.781  70.837  1.00  0.00    -0.478 A  
HETATM   22  C   UNL     1     -13.239  10.283  72.055  1.00  0.00    -0.516 A  
HETATM   23  F   UNL     1     -10.258   6.523  71.524  1.00  0.00    -0.199 F  
HETATM   24  F   UNL     1     -10.603   7.276  73.535  1.00  0.00    -0.324 F  
ENDBRANCH  11  15
BRANCH  14  25
HETATM   25  N   UNL     1      -8.827   9.706  66.432  1.00  0.00    -0.147 NA 
HETATM   26  H   UNL     1      -8.326  10.261  65.738  1.00  0.00     0.000 HD 
BRANCH  25  27
HETATM   27  C   UNL     1      -8.382   8.388  66.567  1.00  0.00    -0.111 A  
HETATM   28  C   UNL     1      -8.831   6.012  66.573  1.00  0.00    -0.131 A  
HETATM   29  C   UNL     1      -9.258   7.324  66.339  1.00  0.00    -0.201 A  
HETATM   30  N   UNL     1      -7.561   5.735  66.989  1.00  0.00    -0.098 NA 
HETATM   31  C   UNL     1      -9.803   4.853  66.405  1.00  0.00    -0.209 C  
HETATM   32  C   UNL     1      -6.731   6.772  67.200  1.00  0.00    -0.059 A  
HETATM   33  F   UNL     1      -9.987   4.142  67.555  1.00  0.00    -0.224 F  
HETATM   34  F   UNL     1     -11.056   5.247  66.023  1.00  0.00    -0.301 F  
HETATM   35  F   UNL     1      -9.406   3.950  65.463  1.00  0.00    -0.130 F  
HETATM   36  C   UNL     1      -7.099   8.093  67.027  1.00  0.00    -0.079 A  
ENDBRANCH  25  27
ENDBRANCH  14  25
ENDBRANCH   7   9
ENDBRANCH   5   7
TORSDOF 5
ENDMDL
MODEL       72
REMARK 921   NORMALIZED FREE ENERGY PREDICTED BY IDOCK:   -7.12 KCAL/MOL
REMARK 922        TOTAL FREE ENERGY PREDICTED BY IDOCK:  -10.37 KCAL/MOL
REMARK 923 INTER-LIGAND FREE ENERGY PREDICTED BY IDOCK:   -9.30 KCAL/MOL
REMARK 924 INTRA-LIGAND FREE ENERGY PREDICTED BY IDOCK:   -1.07 KCAL/MOL
REMARK 927      BINDING AFFINITY PREDICTED BY RF-SCORE:    0.00 PKD
ROOT
HETATM    1  C   UNL     1      -8.305  18.818  66.091  1.00  0.00    -0.195 C  
HETATM    2  C   UNL     1      -9.628  18.185  66.531  1.00  0.00    -0.317 C  
HETATM    3  C   UNL     1     -10.034  18.729  67.906  1.00  0.00    -0.400 C  
HETATM    4  O   UNL     1     -10.645  18.561  65.589  1.00  0.00    -0.616 OA 
HETATM    5  C   UNL     1      -9.497  16.638  66.523  1.00  0.00    -0.266 C  
HETATM    6  H   UNL     1     -11.466  18.167  65.862  1.00  0.00     0.000 HD 
ENDROOT
BRANCH   5   7
HETATM    7  N   UNL     1     -10.702  16.026  67.063  1.00  0.00    -0.308 NA 
HETATM    8  H   UNL     1     -11.556  16.570  67.188  1.00  0.00     0.000 HD 
BRANCH   7   9
HETATM    9  C   UNL     1     -10.658  14.688  67.404  1.00  0.00    -0.265 A  
HETATM   10  N   UNL     1     -11.306  14.240  68.467  1.00  0.00    -0.266 NA 
HETATM   11  C   UNL     1     -11.186  12.934  68.710  1.00  0.00    -0.279 A  
HETATM   12  N   UNL     1      -9.960  13.917  66.580  1.00  0.00    -0.271 NA 
HETATM   13  N   UNL     1     -10.493  12.092  67.942  1.00  0.00    -0.197 NA 
HETATM   14  C   UNL     1      -9.926  12.625  66.868  1.00  0.00    -0.230 A  
BRANCH  11  15
HETATM   15  C   UNL     1     -11.872  12.361  69.899  1.00  0.00    -0.305 A  
HETATM   16  C   UNL     1     -12.422  10.447  71.158  1.00  0.00    -0.404 A  
HETATM   17  F   UNL     1     -13.547   8.336  71.397  1.00  0.00    -0.345 F  
HETATM   18  N   UNL     1     -11.804  11.011  70.079  1.00  0.00    -0.322 NA 
HETATM   19  C   UNL     1     -13.138  11.212  72.078  1.00  0.00    -0.433 A  
HETATM   20  C   UNL     1     -12.324   8.944  71.383  1.00  0.00    -0.313 C  
HETATM   21  C   UNL     1     -12.565  13.166  70.809  1.00  0.00    -0.338 A  
HETATM   22  C   UNL     1     -13.206  12.587  71.901  1.00  0.00    -0.495 A  
HETATM   23  F   UNL     1     -11.590   8.278  70.448  1.00  0.00    -0.268 F  
HETATM   24  F   UNL     1     -11.755   8.638  72.587  1.00  0.00    -0.432 F  
ENDBRANCH  11  15
BRANCH  14  25
HETATM   25  N   UNL     1      -9.320  11.795  65.924  1.00  0.00    -0.281 NA 
HETATM   26  H   UNL     1      -9.251  12.187  64.985  1.00  0.00     0.000 HD 
BRANCH  25  27
HETATM   27  C   UNL     1      -8.792  10.508  66.066  1.00  0.00    -0.165 A  
HETATM   28  C   UNL     1      -9.101   8.150  66.500  1.00  0.00    -0.176 A  
HETATM   29  C   UNL     1      -9.643   9.418  66.260  1.00  0.00    -0.297 A  
HETATM   30  N   UNL     1      -7.753   7.937  66.516  1.00  0.00    -0.095 NA 
HETATM   31  C   UNL     1     -10.019   6.972  66.793  1.00  0.00    -0.197 C  
HETATM   32  C   UNL     1      -6.950   8.999  66.324  1.00  0.00    -0.079 A  
HETATM   33  F   UNL     1      -9.795   6.413  68.017  1.00  0.00    -0.122 F  
HETATM   34  F   UNL     1     -11.346   7.305  66.789  1.00  0.00    -0.356 F  
HETATM   35  F   UNL     1      -9.899   5.958  65.888  1.00  0.00    -0.145 F  
HETATM   36  C   UNL     1      -7.416  10.284  66.121  1.00  0.00    -0.121 A  
ENDBRANCH  25  27
ENDBRANCH  14  25
ENDBRANCH   7   9
ENDBRANCH   5   7
TORSDOF 5
ENDMDL
MODEL       73
REMARK 921   NORMALIZED FREE ENERGY PREDICTED BY IDOCK:   -7.11 KCAL/MOL
REMARK 922        TOTAL FREE ENERGY PREDICTED BY IDOCK:  -10.34 KCAL/MOL
REMARK 923 INTER-LIGAND FREE ENERGY PREDICTED BY IDOCK:   -9.49 KCAL/MOL
REMARK 924 INTRA-LIGAND FREE ENERGY PREDICTED BY IDOCK:   -0.85 KCAL/MOL
REMARK 927      BINDING AFFINITY PREDICTED BY RF-SCORE:    0.00 PKD
ROOT
HETATM    1  C   UNL     1     -10.840   7.473  73.039  1.00  0.00    -0.445 C  
HETATM    2  C   UNL     1     -11.888   8.104  72.118  1.00  0.00    -0.359 C  
HETATM    3  C   UNL     1     -12.450   7.043  71.165  1.00  0.00    -0.407 C  
HETATM    4  O   UNL     1     -12.971   8.587  72.930  1.00  0.00    -0.667 OA 
HETATM    5  C   UNL     1     -11.265   9.309  71.363  1.00  0.00    -0.362 C  
HETATM    6  H   UNL     1     -13.621   8.979  72.359  1.00  0.00     0.000 HD 
ENDROOT
BRANCH   5   7
HETATM    7  N   UNL     1     -12.209   9.837  70.389  1.00  0.00    -0.470 NA 
HETATM    8  H   UNL     1     -13.215   9.771  70.545  1.00  0.00     0.000 HD 
BRANCH   7   9
HETATM    9  C   UNL     1     -11.706  10.429  69.247  1.00  0.00    -0.140 A  
HETATM   10  N   UNL     1     -11.005   9.725  68.373  1.00  0.00    -0.192 NA 
HETATM   11  C   UNL     1     -10.556  10.398  67.313  1.00  0.00    -0.267 A  
HETATM   12  N   UNL     1     -12.006  11.712  69.096  1.00  0.00    -0.327 NA 
HETATM   13  N   UNL     1     -10.800  11.691  67.092  1.00  0.00    -0.247 NA 
HETATM   14  C   UNL     1     -11.559  12.297  67.995  1.00  0.00    -0.349 A  
BRANCH  11  15
HETATM   15  C   UNL     1      -9.744   9.676  66.297  1.00  0.00    -0.240 A  
HETATM   16  C   UNL     1      -8.692   7.675  65.636  1.00  0.00    -0.092 A  
HETATM   17  F   UNL     1      -7.027   5.969  65.948  1.00  0.00    -0.055 F  
HETATM   18  N   UNL     1      -9.436   8.371  66.544  1.00  0.00    -0.202 NA 
HETATM   19  C   UNL     1      -8.221   8.266  64.463  1.00  0.00    -0.138 A  
HETATM   20  C   UNL     1      -8.371   6.208  65.890  1.00  0.00    -0.140 C  
HETATM   21  C   UNL     1      -9.307  10.302  65.124  1.00  0.00    -0.279 A  
HETATM   22  C   UNL     1      -8.536   9.593  64.206  1.00  0.00    -0.207 A  
HETATM   23  F   UNL     1      -8.886   5.707  67.048  1.00  0.00    -0.114 F  
HETATM   24  F   UNL     1      -8.839   5.397  64.896  1.00  0.00    -0.151 F  
ENDBRANCH  11  15
BRANCH  14  25
HETATM   25  N   UNL     1     -11.999  13.602  67.763  1.00  0.00    -0.367 NA 
HETATM   26  H   UNL     1     -12.760  13.687  67.088  1.00  0.00     0.000 HD 
BRANCH  25  27
HETATM   27  C   UNL     1     -11.560  14.809  68.312  1.00  0.00    -0.323 A  
HETATM   28  C   UNL     1     -10.782  17.081  68.032  1.00  0.00    -0.365 A  
HETATM   29  C   UNL     1     -11.316  15.908  67.486  1.00  0.00    -0.098 A  
HETATM   30  N   UNL     1     -10.522  17.197  69.367  1.00  0.00    -0.286 NA 
HETATM   31  C   UNL     1     -10.436  18.255  67.127  1.00  0.00    -0.395 C  
HETATM   32  C   UNL     1     -10.768  16.129  70.147  1.00  0.00    -0.289 A  
HETATM   33  F   UNL     1      -9.114  18.591  67.172  1.00  0.00    -0.263 F  
HETATM   34  F   UNL     1     -10.701  18.017  65.806  1.00  0.00    -0.394 F  
HETATM   35  F   UNL     1     -11.124  19.392  67.434  1.00  0.00    -0.561 F  
HETATM   36  C   UNL     1     -11.257  14.928  69.668  1.00  0.00    -0.300 A  
ENDBRANCH  25  27
ENDBRANCH  14  25
ENDBRANCH   7   9
ENDBRANCH   5   7
TORSDOF 5
ENDMDL
MODEL       74
REMARK 921   NORMALIZED FREE ENERGY PREDICTED BY IDOCK:   -7.04 KCAL/MOL
REMARK 922        TOTAL FREE ENERGY PREDICTED BY IDOCK:  -10.26 KCAL/MOL
REMARK 923 INTER-LIGAND FREE ENERGY PREDICTED BY IDOCK:   -9.08 KCAL/MOL
REMARK 924 INTRA-LIGAND FREE ENERGY PREDICTED BY IDOCK:   -1.18 KCAL/MOL
REMARK 927      BINDING AFFINITY PREDICTED BY RF-SCORE:    0.00 PKD
ROOT
HETATM    1  C   UNL     1      -6.138   7.921  63.811  1.00  0.00    -0.058 C  
HETATM    2  C   UNL     1      -7.356   8.849  63.764  1.00  0.00    -0.101 C  
HETATM    3  C   UNL     1      -7.513   9.430  62.354  1.00  0.00    -0.109 C  
HETATM    4  O   UNL     1      -8.528   8.071  64.055  1.00  0.00    -0.380 OA 
HETATM    5  C   UNL     1      -7.216   9.952  64.847  1.00  0.00    -0.136 C  
HETATM    6  H   UNL     1      -9.283   8.647  64.026  1.00  0.00     0.000 HD 
ENDROOT
BRANCH   5   7
HETATM    7  N   UNL     1      -8.300  10.916  64.728  1.00  0.00    -0.375 NA 
HETATM    8  H   UNL     1      -8.316  11.596  63.967  1.00  0.00     0.000 HD 
BRANCH   7   9
HETATM    9  C   UNL     1      -9.306  10.887  65.674  1.00  0.00    -0.207 A  
HETATM   10  N   UNL     1      -9.469   9.831  66.455  1.00  0.00    -0.172 NA 
HETATM   11  C   UNL     1     -10.478   9.904  67.324  1.00  0.00    -0.258 A  
HETATM   12  N   UNL     1     -10.044  11.987  65.750  1.00  0.00    -0.233 NA 
HETATM   13  N   UNL     1     -11.276  10.964  67.454  1.00  0.00    -0.396 NA 
HETATM   14  C   UNL     1     -10.998  11.995  66.668  1.00  0.00    -0.287 A  
BRANCH  11  15
HETATM   15  C   UNL     1     -10.735   8.745  68.222  1.00  0.00    -0.067 A  
HETATM   16  C   UNL     1     -11.240   7.972  70.389  1.00  0.00    -0.229 A  
HETATM   17  F   UNL     1     -10.676   7.689  72.708  1.00  0.00    -0.268 F  
HETATM   18  N   UNL     1     -11.001   9.009  69.533  1.00  0.00    -0.165 NA 
HETATM   19  C   UNL     1     -11.206   6.644  69.964  1.00  0.00    -0.425 A  
HETATM   20  C   UNL     1     -11.570   8.260  71.848  1.00  0.00    -0.315 C  
HETATM   21  C   UNL     1     -10.708   7.429  67.751  1.00  0.00    -0.249 A  
HETATM   22  C   UNL     1     -10.939   6.373  68.629  1.00  0.00    -0.404 A  
HETATM   23  F   UNL     1     -11.602   9.583  72.171  1.00  0.00    -0.422 F  
HETATM   24  F   UNL     1     -12.789   7.761  72.211  1.00  0.00    -0.286 F  
ENDBRANCH  11  15
BRANCH  14  25
HETATM   25  N   UNL     1     -11.675  13.203  66.848  1.00  0.00    -0.367 NA 
HETATM   26  H   UNL     1     -12.415  13.388  66.171  1.00  0.00     0.000 HD 
BRANCH  25  27
HETATM   27  C   UNL     1     -11.495  14.198  67.813  1.00  0.00    -0.325 A  
HETATM   28  C   UNL     1     -10.619  16.356  68.463  1.00  0.00    -0.304 A  
HETATM   29  C   UNL     1     -10.883  15.406  67.469  1.00  0.00    -0.305 A  
HETATM   30  N   UNL     1     -10.975  16.151  69.764  1.00  0.00    -0.327 NA 
HETATM   31  C   UNL     1      -9.879  17.639  68.113  1.00  0.00    -0.318 C  
HETATM   32  C   UNL     1     -11.567  14.983  70.075  1.00  0.00    -0.287 A  
HETATM   33  F   UNL     1      -8.706  17.782  68.796  1.00  0.00    -0.281 F  
HETATM   34  F   UNL     1      -9.536  17.724  66.791  1.00  0.00    -0.261 F  
HETATM   35  F   UNL     1     -10.604  18.766  68.370  1.00  0.00    -0.374 F  
HETATM   36  C   UNL     1     -11.822  13.986  69.152  1.00  0.00    -0.391 A  
ENDBRANCH  25  27
ENDBRANCH  14  25
ENDBRANCH   7   9
ENDBRANCH   5   7
TORSDOF 5
ENDMDL
MODEL       75
REMARK 921   NORMALIZED FREE ENERGY PREDICTED BY IDOCK:   -7.04 KCAL/MOL
REMARK 922        TOTAL FREE ENERGY PREDICTED BY IDOCK:  -10.26 KCAL/MOL
REMARK 923 INTER-LIGAND FREE ENERGY PREDICTED BY IDOCK:   -9.35 KCAL/MOL
REMARK 924 INTRA-LIGAND FREE ENERGY PREDICTED BY IDOCK:   -0.90 KCAL/MOL
REMARK 927      BINDING AFFINITY PREDICTED BY RF-SCORE:    0.00 PKD
ROOT
HETATM    1  C   UNL     1     -12.771  14.899  73.424  1.00  0.00    -0.636 C  
HETATM    2  C   UNL     1     -13.006  14.114  72.130  1.00  0.00    -0.376 C  
HETATM    3  C   UNL     1     -14.245  14.659  71.409  1.00  0.00    -0.462 C  
HETATM    4  O   UNL     1     -11.872  14.310  71.270  1.00  0.00    -0.450 OA 
HETATM    5  C   UNL     1     -13.125  12.600  72.450  1.00  0.00    -0.136 C  
HETATM    6  H   UNL     1     -12.018  13.823  70.467  1.00  0.00     0.000 HD 
ENDROOT
BRANCH   5   7
HETATM    7  N   UNL     1     -13.479  11.857  71.250  1.00  0.00     0.227 NA 
HETATM    8  H   UNL     1     -14.439  11.843  70.905  1.00  0.00     0.000 HD 
BRANCH   7   9
HETATM    9  C   UNL     1     -12.479  11.169  70.590  1.00  0.00    -0.356 A  
HETATM   10  N   UNL     1     -12.251  11.378  69.303  1.00  0.00    -0.318 NA 
HETATM   11  C   UNL     1     -11.271  10.652  68.763  1.00  0.00    -0.279 A  
HETATM   12  N   UNL     1     -11.772  10.336  71.343  1.00  0.00    -0.302 NA 
HETATM   13  N   UNL     1     -10.523   9.783  69.445  1.00  0.00    -0.210 NA 
HETATM   14  C   UNL     1     -10.789   9.686  70.741  1.00  0.00    -0.330 A  
BRANCH  11  15
HETATM   15  C   UNL     1     -10.970  10.819  67.316  1.00  0.00    -0.297 A  
HETATM   16  C   UNL     1     -11.467  11.904  65.285  1.00  0.00    -0.253 A  
HETATM   17  F   UNL     1     -12.961  12.382  63.463  1.00  0.00    -0.472 F  
HETATM   18  N   UNL     1     -11.712  11.724  66.616  1.00  0.00    -0.554 NA 
HETATM   19  C   UNL     1     -10.485  11.177  64.613  1.00  0.00    -0.400 A  
HETATM   20  C   UNL     1     -12.270  12.936  64.503  1.00  0.00    -0.426 C  
HETATM   21  C   UNL     1      -9.964  10.082  66.683  1.00  0.00    -0.274 A  
HETATM   22  C   UNL     1      -9.724  10.258  65.323  1.00  0.00    -0.354 A  
HETATM   23  F   UNL     1     -13.193  13.614  65.242  1.00  0.00    -0.454 F  
HETATM   24  F   UNL     1     -11.474  13.891  63.939  1.00  0.00    -0.353 F  
ENDBRANCH  11  15
BRANCH  14  25
HETATM   25  N   UNL     1      -9.954   8.926  71.561  1.00  0.00    -0.296 NA 
HETATM   26  H   UNL     1      -9.632   9.399  72.405  1.00  0.00     0.000 HD 
BRANCH  25  27
HETATM   27  C   UNL     1      -9.491   7.616  71.405  1.00  0.00    -0.148 A  
HETATM   28  C   UNL     1      -9.460   5.304  72.111  1.00  0.00    -0.143 A  
HETATM   29  C   UNL     1     -10.000   6.592  72.207  1.00  0.00    -0.176 A  
HETATM   30  N   UNL     1      -8.464   5.007  71.226  1.00  0.00    -0.119 NA 
HETATM   31  C   UNL     1      -9.952   4.201  73.037  1.00  0.00    -0.141 C  
HETATM   32  C   UNL     1      -7.989   6.007  70.461  1.00  0.00    -0.111 A  
HETATM   33  F   UNL     1      -8.964   3.684  73.824  1.00  0.00    -0.088 F  
HETATM   34  F   UNL     1     -10.922   4.616  73.908  1.00  0.00    -0.297 F  
HETATM   35  F   UNL     1     -10.496   3.141  72.371  1.00  0.00    -0.231 F  
HETATM   36  C   UNL     1      -8.449   7.308  70.531  1.00  0.00    -0.138 A  
ENDBRANCH  25  27
ENDBRANCH  14  25
ENDBRANCH   7   9
ENDBRANCH   5   7
TORSDOF 5
ENDMDL
MODEL       76
REMARK 921   NORMALIZED FREE ENERGY PREDICTED BY IDOCK:   -7.03 KCAL/MOL
REMARK 922        TOTAL FREE ENERGY PREDICTED BY IDOCK:  -10.25 KCAL/MOL
REMARK 923 INTER-LIGAND FREE ENERGY PREDICTED BY IDOCK:   -9.06 KCAL/MOL
REMARK 924 INTRA-LIGAND FREE ENERGY PREDICTED BY IDOCK:   -1.19 KCAL/MOL
REMARK 927      BINDING AFFINITY PREDICTED BY RF-SCORE:    0.00 PKD
ROOT
HETATM    1  C   UNL     1     -14.293   6.861  71.868  1.00  0.00    -0.365 C  
HETATM    2  C   UNL     1     -12.919   7.396  71.455  1.00  0.00    -0.375 C  
HETATM    3  C   UNL     1     -11.846   6.873  72.418  1.00  0.00    -0.217 C  
HETATM    4  O   UNL     1     -12.616   6.898  70.142  1.00  0.00    -0.533 OA 
HETATM    5  C   UNL     1     -12.956   8.947  71.397  1.00  0.00    -0.278 C  
HETATM    6  H   UNL     1     -11.763   7.230  69.886  1.00  0.00     0.000 HD 
ENDROOT
BRANCH   5   7
HETATM    7  N   UNL     1     -11.625   9.474  71.134  1.00  0.00    -0.336 NA 
HETATM    8  H   UNL     1     -10.939   9.564  71.884  1.00  0.00     0.000 HD 
BRANCH   7   9
HETATM    9  C   UNL     1     -11.316   9.850  69.842  1.00  0.00    -0.222 A  
HETATM   10  N   UNL     1     -10.616   9.049  69.054  1.00  0.00    -0.215 NA 
HETATM   11  C   UNL     1     -10.363   9.515  67.831  1.00  0.00    -0.227 A  
HETATM   12  N   UNL     1     -11.794  11.028  69.464  1.00  0.00    -0.307 NA 
HETATM   13  N   UNL     1     -10.794  10.693  67.377  1.00  0.00    -0.283 NA 
HETATM   14  C   UNL     1     -11.536  11.399  68.220  1.00  0.00    -0.299 A  
BRANCH  11  15
HETATM   15  C   UNL     1      -9.565   8.677  66.896  1.00  0.00    -0.194 A  
HETATM   16  C   UNL     1      -9.116   6.538  66.018  1.00  0.00    -0.086 A  
HETATM   17  F   UNL     1      -8.349   4.274  66.277  1.00  0.00    -0.106 F  
HETATM   18  N   UNL     1      -9.829   7.340  66.862  1.00  0.00    -0.198 NA 
HETATM   19  C   UNL     1      -8.111   7.045  65.195  1.00  0.00    -0.124 A  
HETATM   20  C   UNL     1      -9.427   5.048  65.952  1.00  0.00    -0.162 C  
HETATM   21  C   UNL     1      -8.576   9.229  66.074  1.00  0.00    -0.158 A  
HETATM   22  C   UNL     1      -7.842   8.407  65.223  1.00  0.00    -0.111 A  
HETATM   23  F   UNL     1     -10.435   4.642  66.774  1.00  0.00    -0.249 F  
HETATM   24  F   UNL     1      -9.791   4.651  64.697  1.00  0.00    -0.153 F  
ENDBRANCH  11  15
BRANCH  14  25
HETATM   25  N   UNL     1     -12.163  12.565  67.777  1.00  0.00    -0.301 NA 
HETATM   26  H   UNL     1     -13.016  12.813  68.277  1.00  0.00     0.000 HD 
BRANCH  25  27
HETATM   27  C   UNL     1     -11.802  13.446  66.753  1.00  0.00    -0.403 A  
HETATM   28  C   UNL     1     -10.694  15.465  66.016  1.00  0.00    -0.322 A  
HETATM   29  C   UNL     1     -10.969  14.534  67.025  1.00  0.00    -0.312 A  
HETATM   30  N   UNL     1     -11.191  15.322  64.754  1.00  0.00    -0.410 NA 
HETATM   31  C   UNL     1      -9.855  16.696  66.325  1.00  0.00    -0.310 C  
HETATM   32  C   UNL     1     -11.988  14.266  64.510  1.00  0.00    -0.462 A  
HETATM   33  F   UNL     1     -10.524  17.866  66.107  1.00  0.00    -0.355 F  
HETATM   34  F   UNL     1      -9.441  16.758  67.627  1.00  0.00    -0.226 F  
HETATM   35  F   UNL     1      -8.714  16.771  65.580  1.00  0.00    -0.231 F  
HETATM   36  C   UNL     1     -12.333  13.331  65.468  1.00  0.00    -0.533 A  
ENDBRANCH  25  27
ENDBRANCH  14  25
ENDBRANCH   7   9
ENDBRANCH   5   7
TORSDOF 5
ENDMDL
MODEL       77
REMARK 921   NORMALIZED FREE ENERGY PREDICTED BY IDOCK:   -7.00 KCAL/MOL
REMARK 922        TOTAL FREE ENERGY PREDICTED BY IDOCK:  -10.21 KCAL/MOL
REMARK 923 INTER-LIGAND FREE ENERGY PREDICTED BY IDOCK:   -9.09 KCAL/MOL
REMARK 924 INTRA-LIGAND FREE ENERGY PREDICTED BY IDOCK:   -1.13 KCAL/MOL
REMARK 927      BINDING AFFINITY PREDICTED BY RF-SCORE:    0.00 PKD
ROOT
HETATM    1  C   UNL     1      -7.777   7.300  63.158  1.00  0.00    -0.120 C  
HETATM    2  C   UNL     1      -7.332   8.322  64.209  1.00  0.00    -0.093 C  
HETATM    3  C   UNL     1      -5.881   8.740  63.946  1.00  0.00    -0.071 C  
HETATM    4  O   UNL     1      -8.160   9.489  64.084  1.00  0.00    -0.129 OA 
HETATM    5  C   UNL     1      -7.529   7.729  65.631  1.00  0.00    -0.075 C  
HETATM    6  H   UNL     1      -7.883  10.122  64.737  1.00  0.00     0.000 HD 
ENDROOT
BRANCH   5   7
HETATM    7  N   UNL     1      -6.989   8.635  66.634  1.00  0.00    -0.078 NA 
HETATM    8  H   UNL     1      -5.983   8.709  66.787  1.00  0.00     0.000 HD 
BRANCH   7   9
HETATM    9  C   UNL     1      -7.875   9.394  67.373  1.00  0.00    -0.102 A  
HETATM   10  N   UNL     1      -8.755  10.181  66.774  1.00  0.00    -0.126 NA 
HETATM   11  C   UNL     1      -9.554  10.877  67.583  1.00  0.00    -0.163 A  
HETATM   12  N   UNL     1      -7.791   9.242  68.688  1.00  0.00    -0.088 NA 
HETATM   13  N   UNL     1      -9.525  10.794  68.914  1.00  0.00    -0.186 NA 
HETATM   14  C   UNL     1      -8.649   9.936  69.419  1.00  0.00    -0.174 A  
BRANCH  11  15
HETATM   15  C   UNL     1     -10.556  11.798  66.981  1.00  0.00    -0.232 A  
HETATM   16  C   UNL     1     -11.853  12.387  65.105  1.00  0.00    -0.388 A  
HETATM   17  F   UNL     1     -12.045  13.156  62.835  1.00  0.00    -0.591 F  
HETATM   18  N   UNL     1     -10.937  11.563  65.692  1.00  0.00    -0.270 NA 
HETATM   19  C   UNL     1     -12.402  13.477  65.780  1.00  0.00    -0.516 A  
HETATM   20  C   UNL     1     -12.307  12.113  63.677  1.00  0.00    -0.568 C  
HETATM   21  C   UNL     1     -11.096  12.870  67.699  1.00  0.00    -0.297 A  
HETATM   22  C   UNL     1     -12.020  13.716  67.093  1.00  0.00    -0.434 A  
HETATM   23  F   UNL     1     -11.735  11.019  63.100  1.00  0.00    -0.166 F  
HETATM   24  F   UNL     1     -13.656  11.912  63.593  1.00  0.00    -0.328 F  
ENDBRANCH  11  15
BRANCH  14  25
HETATM   25  N   UNL     1      -8.661   9.664  70.788  1.00  0.00    -0.364 NA 
HETATM   26  H   UNL     1      -7.866  10.035  71.309  1.00  0.00     0.000 HD 
BRANCH  25  27
HETATM   27  C   UNL     1      -9.594   8.963  71.557  1.00  0.00    -0.292 A  
HETATM   28  C   UNL     1     -11.891   8.463  72.128  1.00  0.00    -0.375 A  
HETATM   29  C   UNL     1     -10.960   9.091  71.291  1.00  0.00    -0.384 A  
HETATM   30  N   UNL     1     -11.500   7.694  73.185  1.00  0.00    -0.239 NA 
HETATM   31  C   UNL     1     -13.381   8.663  71.895  1.00  0.00    -0.382 C  
HETATM   32  C   UNL     1     -10.180   7.580  73.422  1.00  0.00    -0.343 A  
HETATM   33  F   UNL     1     -14.015   9.232  72.960  1.00  0.00    -0.394 F  
HETATM   34  F   UNL     1     -13.659   9.481  70.834  1.00  0.00    -0.368 F  
HETATM   35  F   UNL     1     -14.047   7.500  71.637  1.00  0.00    -0.419 F  
HETATM   36  C   UNL     1      -9.210   8.204  72.662  1.00  0.00    -0.332 A  
ENDBRANCH  25  27
ENDBRANCH  14  25
ENDBRANCH   7   9
ENDBRANCH   5   7
TORSDOF 5
ENDMDL
MODEL       78
REMARK 921   NORMALIZED FREE ENERGY PREDICTED BY IDOCK:   -7.00 KCAL/MOL
REMARK 922        TOTAL FREE ENERGY PREDICTED BY IDOCK:  -10.21 KCAL/MOL
REMARK 923 INTER-LIGAND FREE ENERGY PREDICTED BY IDOCK:   -9.37 KCAL/MOL
REMARK 924 INTRA-LIGAND FREE ENERGY PREDICTED BY IDOCK:   -0.84 KCAL/MOL
REMARK 927      BINDING AFFINITY PREDICTED BY RF-SCORE:    0.00 PKD
ROOT
HETATM    1  C   UNL     1      -8.931   3.832  64.308  1.00  0.00    -0.124 C  
HETATM    2  C   UNL     1      -8.568   4.504  65.636  1.00  0.00    -0.121 C  
HETATM    3  C   UNL     1      -9.560   4.077  66.724  1.00  0.00    -0.234 C  
HETATM    4  O   UNL     1      -7.261   4.054  66.027  1.00  0.00    -0.066 OA 
HETATM    5  C   UNL     1      -8.522   6.044  65.447  1.00  0.00    -0.145 C  
HETATM    6  H   UNL     1      -7.036   4.471  66.851  1.00  0.00     0.000 HD 
ENDROOT
BRANCH   5   7
HETATM    7  N   UNL     1      -8.307   6.703  66.727  1.00  0.00    -0.113 NA 
HETATM    8  H   UNL     1      -7.594   6.369  67.376  1.00  0.00     0.000 HD 
BRANCH   7   9
HETATM    9  C   UNL     1      -9.095   7.793  67.041  1.00  0.00    -0.138 A  
HETATM   10  N   UNL     1      -9.376   8.708  66.128  1.00  0.00    -0.216 NA 
HETATM   11  C   UNL     1     -10.135   9.724  66.541  1.00  0.00    -0.239 A  
HETATM   12  N   UNL     1      -9.555   7.820  68.285  1.00  0.00    -0.153 NA 
HETATM   13  N   UNL     1     -10.626   9.836  67.776  1.00  0.00    -0.250 NA 
HETATM   14  C   UNL     1     -10.337   8.840  68.603  1.00  0.00    -0.205 A  
BRANCH  11  15
HETATM   15  C   UNL     1     -10.477  10.802  65.574  1.00  0.00    -0.194 A  
HETATM   16  C   UNL     1     -11.449  12.915  65.200  1.00  0.00    -0.313 A  
HETATM   17  F   UNL     1     -13.356  14.379  65.163  1.00  0.00    -0.307 F  
HETATM   18  N   UNL     1     -11.117  11.906  66.057  1.00  0.00    -0.314 NA 
HETATM   19  C   UNL     1     -11.166  12.846  63.836  1.00  0.00    -0.471 A  
HETATM   20  C   UNL     1     -12.135  14.164  65.738  1.00  0.00    -0.420 C  
HETATM   21  C   UNL     1     -10.159  10.701  64.215  1.00  0.00    -0.411 A  
HETATM   22  C   UNL     1     -10.511  11.726  63.342  1.00  0.00    -0.485 A  
HETATM   23  F   UNL     1     -12.355  14.156  67.082  1.00  0.00    -0.441 F  
HETATM   24  F   UNL     1     -11.415  15.298  65.488  1.00  0.00    -0.337 F  
ENDBRANCH  11  15
BRANCH  14  25
HETATM   25  N   UNL     1     -10.940   8.791  69.861  1.00  0.00    -0.350 NA 
HETATM   26  H   UNL     1     -10.747   7.946  70.399  1.00  0.00     0.000 HD 
BRANCH  25  27
HETATM   27  C   UNL     1     -11.766   9.721  70.498  1.00  0.00    -0.268 A  
HETATM   28  C   UNL     1     -12.409  12.014  70.919  1.00  0.00    -0.285 A  
HETATM   29  C   UNL     1     -11.646  11.082  70.205  1.00  0.00    -0.414 A  
HETATM   30  N   UNL     1     -13.299  11.628  71.879  1.00  0.00    -0.402 NA 
HETATM   31  C   UNL     1     -12.226  13.503  70.665  1.00  0.00    -0.358 C  
HETATM   32  C   UNL     1     -13.403  10.313  72.144  1.00  0.00    -0.299 A  
HETATM   33  F   UNL     1     -11.823  14.189  71.774  1.00  0.00    -0.335 F  
HETATM   34  F   UNL     1     -11.283  13.779  69.712  1.00  0.00    -0.277 F  
HETATM   35  F   UNL     1     -13.364  14.120  70.233  1.00  0.00    -0.235 F  
HETATM   36  C   UNL     1     -12.653   9.343  71.506  1.00  0.00    -0.447 A  
ENDBRANCH  25  27
ENDBRANCH  14  25
ENDBRANCH   7   9
ENDBRANCH   5   7
TORSDOF 5
ENDMDL
MODEL       79
REMARK 921   NORMALIZED FREE ENERGY PREDICTED BY IDOCK:   -6.99 KCAL/MOL
REMARK 922        TOTAL FREE ENERGY PREDICTED BY IDOCK:  -10.20 KCAL/MOL
REMARK 923 INTER-LIGAND FREE ENERGY PREDICTED BY IDOCK:   -9.51 KCAL/MOL
REMARK 924 INTRA-LIGAND FREE ENERGY PREDICTED BY IDOCK:   -0.69 KCAL/MOL
REMARK 927      BINDING AFFINITY PREDICTED BY RF-SCORE:    0.00 PKD
ROOT
HETATM    1  C   UNL     1     -13.191  11.880  63.652  1.00  0.00     0.029 C  
HETATM    2  C   UNL     1     -12.268  13.037  64.047  1.00  0.00    -0.417 C  
HETATM    3  C   UNL     1     -10.816  12.684  63.705  1.00  0.00    -0.466 C  
HETATM    4  O   UNL     1     -12.635  14.193  63.277  1.00  0.00    -1.080 OA 
HETATM    5  C   UNL     1     -12.458  13.368  65.552  1.00  0.00    -0.483 C  
HETATM    6  H   UNL     1     -12.062  14.910  63.523  1.00  0.00     0.000 HD 
ENDROOT
BRANCH   5   7
HETATM    7  N   UNL     1     -11.495  14.375  65.973  1.00  0.00    -0.343 NA 
HETATM    8  H   UNL     1     -11.466  15.292  65.527  1.00  0.00     0.000 HD 
BRANCH   7   9
HETATM    9  C   UNL     1     -10.621  14.055  66.993  1.00  0.00    -0.279 A  
HETATM   10  N   UNL     1     -10.388  12.792  67.314  1.00  0.00    -0.231 NA 
HETATM   11  C   UNL     1      -9.537  12.598  68.321  1.00  0.00    -0.208 A  
HETATM   12  N   UNL     1     -10.032  15.090  67.579  1.00  0.00    -0.225 NA 
HETATM   13  N   UNL     1      -8.913  13.581  68.973  1.00  0.00     0.251 NA 
HETATM   14  C   UNL     1      -9.167  14.809  68.542  1.00  0.00    -0.194 A  
BRANCH  11  15
HETATM   15  C   UNL     1      -9.241  11.204  68.750  1.00  0.00    -0.145 A  
HETATM   16  C   UNL     1      -9.686   9.437  70.243  1.00  0.00    -0.246 A  
HETATM   17  F   UNL     1      -9.670   8.495  72.455  1.00  0.00    -0.299 F  
HETATM   18  N   UNL     1      -9.930  10.711  69.819  1.00  0.00    -0.063 NA 
HETATM   19  C   UNL     1      -8.736   8.625  69.623  1.00  0.00    -0.132 A  
HETATM   20  C   UNL     1     -10.474   8.869  71.416  1.00  0.00    -0.305 C  
HETATM   21  C   UNL     1      -8.293  10.416  68.089  1.00  0.00    -0.117 A  
HETATM   22  C   UNL     1      -8.036   9.122  68.533  1.00  0.00    -0.102 A  
HETATM   23  F   UNL     1     -11.393   9.723  71.948  1.00  0.00    -0.424 F  
HETATM   24  F   UNL     1     -11.169   7.743  71.075  1.00  0.00    -0.248 F  
ENDBRANCH  11  15
BRANCH  14  25
HETATM   25  N   UNL     1      -8.438  15.884  69.054  1.00  0.00    -0.227 NA 
HETATM   26  H   UNL     1      -8.082  15.752  70.000  1.00  0.00     0.000 HD 
BRANCH  25  27
HETATM   27  C   UNL     1      -8.121  17.114  68.470  1.00  0.00    -0.260 A  
HETATM   28  C   UNL     1      -8.816  19.186  67.434  1.00  0.00    -0.293 A  
HETATM   29  C   UNL     1      -9.138  18.001  68.107  1.00  0.00    -0.279 A  
HETATM   30  N   UNL     1      -7.524  19.520  67.148  1.00  0.00    -0.228 NA 
HETATM   31  C   UNL     1      -9.922  20.118  66.963  1.00  0.00    -0.456 C  
HETATM   32  C   UNL     1      -6.559  18.654  67.509  1.00  0.00    -0.198 A  
HETATM   33  F   UNL     1      -9.926  20.300  65.610  1.00  0.00    -0.521 F  
HETATM   34  F   UNL     1     -11.177  19.669  67.268  1.00  0.00    -0.564 F  
HETATM   35  F   UNL     1      -9.844  21.366  67.510  1.00  0.00    -0.567 F  
HETATM   36  C   UNL     1      -6.808  17.451  68.140  1.00  0.00    -0.184 A  
ENDBRANCH  25  27
ENDBRANCH  14  25
ENDBRANCH   7   9
ENDBRANCH   5   7
TORSDOF 5
ENDMDL
MODEL       80
REMARK 921   NORMALIZED FREE ENERGY PREDICTED BY IDOCK:   -6.99 KCAL/MOL
REMARK 922        TOTAL FREE ENERGY PREDICTED BY IDOCK:  -10.19 KCAL/MOL
REMARK 923 INTER-LIGAND FREE ENERGY PREDICTED BY IDOCK:   -9.45 KCAL/MOL
REMARK 924 INTRA-LIGAND FREE ENERGY PREDICTED BY IDOCK:   -0.74 KCAL/MOL
REMARK 927      BINDING AFFINITY PREDICTED BY RF-SCORE:    0.00 PKD
ROOT
HETATM    1  C   UNL     1     -14.384  15.484  71.493  1.00  0.00    -0.452 C  
HETATM    2  C   UNL     1     -13.217  14.516  71.712  1.00  0.00    -0.351 C  
HETATM    3  C   UNL     1     -12.042  15.256  72.360  1.00  0.00    -0.497 C  
HETATM    4  O   UNL     1     -13.647  13.487  72.618  1.00  0.00    -0.629 OA 
HETATM    5  C   UNL     1     -12.828  13.852  70.364  1.00  0.00    -0.137 C  
HETATM    6  H   UNL     1     -12.923  12.887  72.754  1.00  0.00     0.000 HD 
ENDROOT
BRANCH   5   7
HETATM    7  N   UNL     1     -11.638  13.031  70.531  1.00  0.00    -0.457 NA 
HETATM    8  H   UNL     1     -11.041  13.133  71.352  1.00  0.00     0.000 HD 
BRANCH   7   9
HETATM    9  C   UNL     1     -11.338  12.108  69.548  1.00  0.00    -0.207 A  
HETATM   10  N   UNL     1     -11.294  10.815  69.825  1.00  0.00    -0.276 NA 
HETATM   11  C   UNL     1     -10.983  10.015  68.805  1.00  0.00    -0.202 A  
HETATM   12  N   UNL     1     -11.138  12.615  68.338  1.00  0.00    -0.249 NA 
HETATM   13  N   UNL     1     -10.753  10.443  67.562  1.00  0.00    -0.266 NA 
HETATM   14  C   UNL     1     -10.876  11.749  67.371  1.00  0.00    -0.251 A  
BRANCH  11  15
HETATM   15  C   UNL     1     -10.896   8.549  69.045  1.00  0.00    -0.001 A  
HETATM   16  C   UNL     1     -10.357   6.416  68.204  1.00  0.00    -0.192 A  
HETATM   17  F   UNL     1     -10.734   4.597  66.678  1.00  0.00    -0.263 F  
HETATM   18  N   UNL     1     -10.449   7.765  68.022  1.00  0.00    -0.204 NA 
HETATM   19  C   UNL     1     -10.723   5.808  69.405  1.00  0.00    -0.397 A  
HETATM   20  C   UNL     1      -9.828   5.538  67.077  1.00  0.00    -0.158 C  
HETATM   21  C   UNL     1     -11.257   7.981  70.271  1.00  0.00    -0.192 A  
HETATM   22  C   UNL     1     -11.175   6.603  70.449  1.00  0.00    -0.398 A  
HETATM   23  F   UNL     1      -9.475   6.215  65.948  1.00  0.00    -0.167 F  
HETATM   24  F   UNL     1      -8.717   4.834  67.448  1.00  0.00    -0.105 F  
ENDBRANCH  11  15
BRANCH  14  25
HETATM   25  N   UNL     1     -10.815  12.266  66.075  1.00  0.00    -0.265 NA 
HETATM   26  H   UNL     1     -10.889  11.573  65.331  1.00  0.00     0.000 HD 
BRANCH  25  27
HETATM   27  C   UNL     1     -10.667  13.586  65.641  1.00  0.00    -0.281 A  
HETATM   28  C   UNL     1      -9.635  15.762  65.855  1.00  0.00    -0.347 A  
HETATM   29  C   UNL     1      -9.708  14.415  66.228  1.00  0.00    -0.330 A  
HETATM   30  N   UNL     1     -10.457  16.288  64.902  1.00  0.00    -0.608 NA 
HETATM   31  C   UNL     1      -8.650  16.692  66.548  1.00  0.00    -0.285 C  
HETATM   32  C   UNL     1     -11.372  15.473  64.345  1.00  0.00    -0.252 A  
HETATM   33  F   UNL     1      -9.257  17.735  67.184  1.00  0.00    -0.239 F  
HETATM   34  F   UNL     1      -7.903  16.071  67.512  1.00  0.00    -0.132 F  
HETATM   35  F   UNL     1      -7.743  17.248  65.694  1.00  0.00    -0.266 F  
HETATM   36  C   UNL     1     -11.525  14.145  64.693  1.00  0.00    -0.392 A  
ENDBRANCH  25  27
ENDBRANCH  14  25
ENDBRANCH   7   9
ENDBRANCH   5   7
TORSDOF 5
ENDMDL
MODEL       81
REMARK 921   NORMALIZED FREE ENERGY PREDICTED BY IDOCK:   -6.97 KCAL/MOL
REMARK 922        TOTAL FREE ENERGY PREDICTED BY IDOCK:  -10.17 KCAL/MOL
REMARK 923 INTER-LIGAND FREE ENERGY PREDICTED BY IDOCK:   -9.00 KCAL/MOL
REMARK 924 INTRA-LIGAND FREE ENERGY PREDICTED BY IDOCK:   -1.18 KCAL/MOL
REMARK 927      BINDING AFFINITY PREDICTED BY RF-SCORE:    0.00 PKD
ROOT
HETATM    1  C   UNL     1      -7.671   8.346  64.794  1.00  0.00    -0.109 C  
HETATM    2  C   UNL     1      -8.773   9.401  64.650  1.00  0.00    -0.200 C  
HETATM    3  C   UNL     1      -9.132   9.579  63.171  1.00  0.00    -0.157 C  
HETATM    4  O   UNL     1      -9.943   8.929  65.336  1.00  0.00    -0.366 OA 
HETATM    5  C   UNL     1      -8.316  10.728  65.313  1.00  0.00    -0.086 C  
HETATM    6  H   UNL     1     -10.626   9.584  65.247  1.00  0.00     0.000 HD 
ENDROOT
BRANCH   5   7
HETATM    7  N   UNL     1      -9.296  11.777  65.070  1.00  0.00    -0.431 NA 
HETATM    8  H   UNL     1      -9.599  12.002  64.123  1.00  0.00     0.000 HD 
BRANCH   7   9
HETATM    9  C   UNL     1      -9.804  12.459  66.158  1.00  0.00    -0.252 A  
HETATM   10  N   UNL     1      -9.496  13.729  66.363  1.00  0.00    -0.269 NA 
HETATM   11  C   UNL     1     -10.031  14.287  67.450  1.00  0.00    -0.242 A  
HETATM   12  N   UNL     1     -10.625  11.761  66.932  1.00  0.00    -0.226 NA 
HETATM   13  N   UNL     1     -10.854  13.653  68.287  1.00  0.00    -0.244 NA 
HETATM   14  C   UNL     1     -11.149  12.400  67.966  1.00  0.00    -0.245 A  
BRANCH  11  15
HETATM   15  C   UNL     1      -9.715  15.709  67.756  1.00  0.00    -0.218 A  
HETATM   16  C   UNL     1      -9.867  17.971  67.116  1.00  0.00    -0.316 A  
HETATM   17  F   UNL     1      -9.349  19.773  65.612  1.00  0.00    -0.325 F  
HETATM   18  N   UNL     1     -10.140  16.656  66.871  1.00  0.00    -0.273 NA 
HETATM   19  C   UNL     1      -9.150  18.376  68.242  1.00  0.00    -0.330 A  
HETATM   20  C   UNL     1     -10.366  19.037  66.149  1.00  0.00    -0.468 C  
HETATM   21  C   UNL     1      -9.007  16.074  68.906  1.00  0.00    -0.239 A  
HETATM   22  C   UNL     1      -8.719  17.415  69.146  1.00  0.00     0.063 A  
HETATM   23  F   UNL     1     -11.074  18.554  65.090  1.00  0.00    -0.364 F  
HETATM   24  F   UNL     1     -11.185  19.944  66.759  1.00  0.00    -0.511 F  
ENDBRANCH  11  15
BRANCH  14  25
HETATM   25  N   UNL     1     -12.125  11.714  68.691  1.00  0.00    -0.469 NA 
HETATM   26  H   UNL     1     -13.081  11.850  68.363  1.00  0.00     0.000 HD 
BRANCH  25  27
HETATM   27  C   UNL     1     -11.994  10.869  69.796  1.00  0.00    -0.351 A  
HETATM   28  C   UNL     1     -11.209   8.802  70.776  1.00  0.00    -0.266 A  
HETATM   29  C   UNL     1     -11.251   9.690  69.695  1.00  0.00    -0.176 A  
HETATM   30  N   UNL     1     -11.848   9.072  71.951  1.00  0.00    -0.365 NA 
HETATM   31  C   UNL     1     -10.470   7.478  70.646  1.00  0.00    -0.216 C  
HETATM   32  C   UNL     1     -12.555  10.214  72.031  1.00  0.00    -0.259 A  
HETATM   33  F   UNL     1     -11.280   6.395  70.829  1.00  0.00    -0.298 F  
HETATM   34  F   UNL     1      -9.899   7.294  69.417  1.00  0.00    -0.159 F  
HETATM   35  F   UNL     1      -9.450   7.340  71.542  1.00  0.00    -0.152 F  
HETATM   36  C   UNL     1     -12.673  11.115  70.990  1.00  0.00    -0.476 A  
ENDBRANCH  25  27
ENDBRANCH  14  25
ENDBRANCH   7   9
ENDBRANCH   5   7
TORSDOF 5
ENDMDL
MODEL       82
REMARK 921   NORMALIZED FREE ENERGY PREDICTED BY IDOCK:   -6.97 KCAL/MOL
REMARK 922        TOTAL FREE ENERGY PREDICTED BY IDOCK:  -10.17 KCAL/MOL
REMARK 923 INTER-LIGAND FREE ENERGY PREDICTED BY IDOCK:   -9.12 KCAL/MOL
REMARK 924 INTRA-LIGAND FREE ENERGY PREDICTED BY IDOCK:   -1.05 KCAL/MOL
REMARK 927      BINDING AFFINITY PREDICTED BY RF-SCORE:    0.00 PKD
ROOT
HETATM    1  C   UNL     1     -12.989  11.530  63.615  1.00  0.00     0.167 C  
HETATM    2  C   UNL     1     -11.805  12.499  63.530  1.00  0.00    -0.534 C  
HETATM    3  C   UNL     1     -10.579  11.773  62.963  1.00  0.00    -0.202 C  
HETATM    4  O   UNL     1     -12.151  13.557  62.623  1.00  0.00    -0.673 OA 
HETATM    5  C   UNL     1     -11.533  13.118  64.927  1.00  0.00    -0.309 C  
HETATM    6  H   UNL     1     -11.417  14.158  62.570  1.00  0.00     0.000 HD 
ENDROOT
BRANCH   5   7
HETATM    7  N   UNL     1     -10.331  13.938  64.890  1.00  0.00    -0.481 NA 
HETATM    8  H   UNL     1      -9.991  14.331  64.012  1.00  0.00     0.000 HD 
BRANCH   7   9
HETATM    9  C   UNL     1      -9.663  14.171  66.077  1.00  0.00    -0.274 A  
HETATM   10  N   UNL     1      -9.402  15.406  66.474  1.00  0.00    -0.260 NA 
HETATM   11  C   UNL     1      -8.742  15.515  67.628  1.00  0.00    -0.175 A  
HETATM   12  N   UNL     1      -9.349  13.085  66.772  1.00  0.00    -0.240 NA 
HETATM   13  N   UNL     1      -8.376  14.476  68.381  1.00  0.00    -0.147 NA 
HETATM   14  C   UNL     1      -8.733  13.282  67.927  1.00  0.00    -0.192 A  
BRANCH  11  15
HETATM   15  C   UNL     1      -8.396  16.873  68.129  1.00  0.00    -0.212 A  
HETATM   16  C   UNL     1      -9.018  19.132  68.366  1.00  0.00    -0.349 A  
HETATM   17  F   UNL     1      -9.540  21.282  67.425  1.00  0.00    -0.583 F  
HETATM   18  N   UNL     1      -9.300  17.873  67.922  1.00  0.00    -0.265 NA 
HETATM   19  C   UNL     1      -7.821  19.433  69.015  1.00  0.00    -0.325 A  
HETATM   20  C   UNL     1     -10.037  20.247  68.166  1.00  0.00    -0.278 C  
HETATM   21  C   UNL     1      -7.191  17.128  68.792  1.00  0.00    -0.232 A  
HETATM   22  C   UNL     1      -6.900  18.417  69.232  1.00  0.00    -0.221 A  
HETATM   23  F   UNL     1     -11.185  19.862  67.541  1.00  0.00    -0.454 F  
HETATM   24  F   UNL     1     -10.429  20.807  69.349  1.00  0.00    -0.246 F  
ENDBRANCH  11  15
BRANCH  14  25
HETATM   25  N   UNL     1      -8.537  12.154  68.726  1.00  0.00    -0.367 NA 
HETATM   26  H   UNL     1      -7.645  12.125  69.220  1.00  0.00     0.000 HD 
BRANCH  25  27
HETATM   27  C   UNL     1      -9.373  11.058  68.954  1.00  0.00    -0.145 A  
HETATM   28  C   UNL     1     -11.285  10.072  70.059  1.00  0.00    -0.288 A  
HETATM   29  C   UNL     1     -10.508  11.197  69.757  1.00  0.00     0.116 A  
HETATM   30  N   UNL     1     -10.984   8.838  69.561  1.00  0.00    -0.135 NA 
HETATM   31  C   UNL     1     -12.475  10.198  70.999  1.00  0.00    -0.375 C  
HETATM   32  C   UNL     1      -9.889   8.725  68.786  1.00  0.00    -0.171 A  
HETATM   33  F   UNL     1     -12.360   9.419  72.113  1.00  0.00    -0.421 F  
HETATM   34  F   UNL     1     -12.663  11.469  71.469  1.00  0.00    -0.456 F  
HETATM   35  F   UNL     1     -13.660   9.851  70.417  1.00  0.00    -0.263 F  
HETATM   36  C   UNL     1      -9.057   9.785  68.480  1.00  0.00    -0.128 A  
ENDBRANCH  25  27
ENDBRANCH  14  25
ENDBRANCH   7   9
ENDBRANCH   5   7
TORSDOF 5
ENDMDL
MODEL       83
REMARK 921   NORMALIZED FREE ENERGY PREDICTED BY IDOCK:   -6.96 KCAL/MOL
REMARK 922        TOTAL FREE ENERGY PREDICTED BY IDOCK:  -10.16 KCAL/MOL
REMARK 923 INTER-LIGAND FREE ENERGY PREDICTED BY IDOCK:   -9.44 KCAL/MOL
REMARK 924 INTRA-LIGAND FREE ENERGY PREDICTED BY IDOCK:   -0.73 KCAL/MOL
REMARK 927      BINDING AFFINITY PREDICTED BY RF-SCORE:    0.00 PKD
ROOT
HETATM    1  C   UNL     1      -9.766   5.454  73.213  1.00  0.00    -0.161 C  
HETATM    2  C   UNL     1     -11.055   5.963  72.560  1.00  0.00    -0.283 C  
HETATM    3  C   UNL     1     -11.008   5.708  71.049  1.00  0.00    -0.247 C  
HETATM    4  O   UNL     1     -12.160   5.221  73.100  1.00  0.00    -0.532 OA 
HETATM    5  C   UNL     1     -11.257   7.464  72.902  1.00  0.00    -0.319 C  
HETATM    6  H   UNL     1     -12.959   5.537  72.695  1.00  0.00     0.000 HD 
ENDROOT
BRANCH   5   7
HETATM    7  N   UNL     1     -12.405   7.995  72.182  1.00  0.00    -0.380 NA 
HETATM    8  H   UNL     1     -13.320   7.550  72.252  1.00  0.00     0.000 HD 
BRANCH   7   9
HETATM    9  C   UNL     1     -12.222   9.119  71.400  1.00  0.00    -0.335 A  
HETATM   10  N   UNL     1     -11.643   9.031  70.214  1.00  0.00    -0.135 NA 
HETATM   11  C   UNL     1     -11.505  10.179  69.549  1.00  0.00    -0.168 A  
HETATM   12  N   UNL     1     -12.693  10.249  71.914  1.00  0.00    -0.414 NA 
HETATM   13  N   UNL     1     -11.937  11.358  69.999  1.00  0.00    -0.338 NA 
HETATM   14  C   UNL     1     -12.555  11.336  71.172  1.00  0.00    -0.397 A  
BRANCH  11  15
HETATM   15  C   UNL     1     -10.846  10.160  68.216  1.00  0.00    -0.252 A  
HETATM   16  C   UNL     1      -9.394   9.061  66.721  1.00  0.00    -0.165 A  
HETATM   17  F   UNL     1      -7.211   8.259  66.113  1.00  0.00    -0.066 F  
HETATM   18  N   UNL     1     -10.019   9.113  67.934  1.00  0.00    -0.176 NA 
HETATM   19  C   UNL     1      -9.565  10.059  65.762  1.00  0.00    -0.291 A  
HETATM   20  C   UNL     1      -8.494   7.878  66.387  1.00  0.00    -0.138 C  
HETATM   21  C   UNL     1     -11.058  11.173  67.275  1.00  0.00    -0.366 A  
HETATM   22  C   UNL     1     -10.409  11.124  66.044  1.00  0.00    -0.308 A  
HETATM   23  F   UNL     1      -8.400   6.941  67.372  1.00  0.00    -0.117 F  
HETATM   24  F   UNL     1      -8.916   7.205  65.276  1.00  0.00    -0.069 F  
ENDBRANCH  11  15
BRANCH  14  25
HETATM   25  N   UNL     1     -13.181  12.492  71.643  1.00  0.00    -0.365 NA 
HETATM   26  H   UNL     1     -14.080  12.340  72.100  1.00  0.00     0.000 HD 
BRANCH  25  27
HETATM   27  C   UNL     1     -12.766  13.825  71.586  1.00  0.00    -0.321 A  
HETATM   28  C   UNL     1     -11.617  15.618  70.439  1.00  0.00    -0.349 A  
HETATM   29  C   UNL     1     -12.117  14.310  70.448  1.00  0.00    -0.409 A  
HETATM   30  N   UNL     1     -11.776  16.453  71.506  1.00  0.00    -0.397 NA 
HETATM   31  C   UNL     1     -10.837  16.127  69.236  1.00  0.00    -0.310 C  
HETATM   32  C   UNL     1     -12.407  15.970  72.591  1.00  0.00    -0.502 A  
HETATM   33  F   UNL     1      -9.562  16.502  69.546  1.00  0.00    -0.239 F  
HETATM   34  F   UNL     1     -10.704  15.196  68.242  1.00  0.00    -0.234 F  
HETATM   35  F   UNL     1     -11.413  17.210  68.639  1.00  0.00    -0.155 F  
HETATM   36  C   UNL     1     -12.890  14.678  72.683  1.00  0.00    -0.499 A  
ENDBRANCH  25  27
ENDBRANCH  14  25
ENDBRANCH   7   9
ENDBRANCH   5   7
TORSDOF 5
ENDMDL
MODEL       84
REMARK 921   NORMALIZED FREE ENERGY PREDICTED BY IDOCK:   -6.93 KCAL/MOL
REMARK 922        TOTAL FREE ENERGY PREDICTED BY IDOCK:  -10.12 KCAL/MOL
REMARK 923 INTER-LIGAND FREE ENERGY PREDICTED BY IDOCK:   -9.17 KCAL/MOL
REMARK 924 INTRA-LIGAND FREE ENERGY PREDICTED BY IDOCK:   -0.95 KCAL/MOL
REMARK 927      BINDING AFFINITY PREDICTED BY RF-SCORE:    0.00 PKD
ROOT
HETATM    1  C   UNL     1     -13.156  11.895  63.575  1.00  0.00    -0.140 C  
HETATM    2  C   UNL     1     -11.925  12.256  64.412  1.00  0.00    -0.394 C  
HETATM    3  C   UNL     1     -11.528  13.714  64.151  1.00  0.00    -0.359 C  
HETATM    4  O   UNL     1     -12.272  12.134  65.801  1.00  0.00    -0.586 OA 
HETATM    5  C   UNL     1     -10.773  11.263  64.104  1.00  0.00    -0.369 C  
HETATM    6  H   UNL     1     -11.508  12.358  66.320  1.00  0.00     0.000 HD 
ENDROOT
BRANCH   5   7
HETATM    7  N   UNL     1      -9.557  11.672  64.793  1.00  0.00    -0.381 NA 
HETATM    8  H   UNL     1      -8.742  11.995  64.271  1.00  0.00     0.000 HD 
BRANCH   7   9
HETATM    9  C   UNL     1      -9.537  11.611  66.172  1.00  0.00    -0.232 A  
HETATM   10  N   UNL     1      -9.809  10.479  66.803  1.00  0.00    -0.186 NA 
HETATM   11  C   UNL     1      -9.773  10.535  68.135  1.00  0.00    -0.153 A  
HETATM   12  N   UNL     1      -9.201  12.739  66.785  1.00  0.00    -0.224 NA 
HETATM   13  N   UNL     1      -9.459  11.631  68.828  1.00  0.00    -0.117 NA 
HETATM   14  C   UNL     1      -9.147  12.699  68.107  1.00  0.00    -0.204 A  
BRANCH  11  15
HETATM   15  C   UNL     1     -10.086   9.306  68.912  1.00  0.00    -0.195 A  
HETATM   16  C   UNL     1     -11.329   8.298  70.641  1.00  0.00    -0.244 A  
HETATM   17  F   UNL     1     -11.903   8.069  72.964  1.00  0.00    -0.419 F  
HETATM   18  N   UNL     1     -11.016   9.404  69.904  1.00  0.00    -0.237 NA 
HETATM   19  C   UNL     1     -10.712   7.067  70.418  1.00  0.00    -0.259 A  
HETATM   20  C   UNL     1     -12.390   8.393  71.730  1.00  0.00    -0.331 C  
HETATM   21  C   UNL     1      -9.456   8.086  68.645  1.00  0.00    -0.147 A  
HETATM   22  C   UNL     1      -9.767   6.963  69.406  1.00  0.00    -0.157 A  
HETATM   23  F   UNL     1     -12.955   9.625  71.865  1.00  0.00    -0.384 F  
HETATM   24  F   UNL     1     -13.429   7.532  71.515  1.00  0.00    -0.365 F  
ENDBRANCH  11  15
BRANCH  14  25
HETATM   25  N   UNL     1      -8.650  13.839  68.742  1.00  0.00    -0.360 NA 
HETATM   26  H   UNL     1      -7.792  13.697  69.275  1.00  0.00     0.000 HD 
BRANCH  25  27
HETATM   27  C   UNL     1      -9.147  15.145  68.760  1.00  0.00    -0.200 A  
HETATM   28  C   UNL     1      -8.793  17.528  68.540  1.00  0.00    -0.282 A  
HETATM   29  C   UNL     1      -8.316  16.217  68.423  1.00  0.00    -0.179 A  
HETATM   30  N   UNL     1     -10.069  17.793  68.944  1.00  0.00    -0.367 NA 
HETATM   31  C   UNL     1      -7.870  18.703  68.253  1.00  0.00    -0.307 C  
HETATM   32  C   UNL     1     -10.856  16.748  69.260  1.00  0.00    -0.275 A  
HETATM   33  F   UNL     1      -7.704  19.525  69.329  1.00  0.00    -0.390 F  
HETATM   34  F   UNL     1      -6.605  18.324  67.894  1.00  0.00    -0.190 F  
HETATM   35  F   UNL     1      -8.310  19.498  67.236  1.00  0.00    -0.290 F  
HETATM   36  C   UNL     1     -10.437  15.432  69.206  1.00  0.00    -0.251 A  
ENDBRANCH  25  27
ENDBRANCH  14  25
ENDBRANCH   7   9
ENDBRANCH   5   7
TORSDOF 5
ENDMDL
MODEL       85
REMARK 921   NORMALIZED FREE ENERGY PREDICTED BY IDOCK:   -6.92 KCAL/MOL
REMARK 922        TOTAL FREE ENERGY PREDICTED BY IDOCK:  -10.11 KCAL/MOL
REMARK 923 INTER-LIGAND FREE ENERGY PREDICTED BY IDOCK:   -9.02 KCAL/MOL
REMARK 924 INTRA-LIGAND FREE ENERGY PREDICTED BY IDOCK:   -1.08 KCAL/MOL
REMARK 927      BINDING AFFINITY PREDICTED BY RF-SCORE:    0.00 PKD
ROOT
HETATM    1  C   UNL     1      -5.937  15.582  70.272  1.00  0.00    -0.109 C  
HETATM    2  C   UNL     1      -6.902  15.316  69.112  1.00  0.00    -0.138 C  
HETATM    3  C   UNL     1      -6.150  15.410  67.779  1.00  0.00    -0.173 C  
HETATM    4  O   UNL     1      -7.407  13.978  69.241  1.00  0.00    -0.259 OA 
HETATM    5  C   UNL     1      -8.097  16.304  69.188  1.00  0.00    -0.215 C  
HETATM    6  H   UNL     1      -8.005  13.814  68.522  1.00  0.00     0.000 HD 
ENDROOT
BRANCH   5   7
HETATM    7  N   UNL     1      -8.953  16.151  68.021  1.00  0.00    -0.184 NA 
HETATM    8  H   UNL     1      -8.946  16.843  67.271  1.00  0.00     0.000 HD 
BRANCH   7   9
HETATM    9  C   UNL     1      -9.775  15.043  67.955  1.00  0.00    -0.212 A  
HETATM   10  N   UNL     1     -10.438  14.629  69.023  1.00  0.00    -0.244 NA 
HETATM   11  C   UNL     1     -11.192  13.543  68.851  1.00  0.00    -0.275 A  
HETATM   12  N   UNL     1      -9.863  14.473  66.760  1.00  0.00    -0.257 NA 
HETATM   13  N   UNL     1     -11.325  12.902  67.689  1.00  0.00    -0.285 NA 
HETATM   14  C   UNL     1     -10.667  13.426  66.664  1.00  0.00    -0.282 A  
BRANCH  11  15
HETATM   15  C   UNL     1     -11.952  13.007  70.013  1.00  0.00    -0.312 A  
HETATM   16  C   UNL     1     -12.680  11.125  71.227  1.00  0.00    -0.426 A  
HETATM   17  F   UNL     1     -13.967   9.102  71.404  1.00  0.00    -0.416 F  
HETATM   18  N   UNL     1     -11.992  11.654  70.174  1.00  0.00    -0.349 NA 
HETATM   19  C   UNL     1     -13.361  11.930  72.140  1.00  0.00    -0.361 A  
HETATM   20  C   UNL     1     -12.702   9.615  71.431  1.00  0.00    -0.374 C  
HETATM   21  C   UNL     1     -12.608  13.851  70.916  1.00  0.00    -0.431 A  
HETATM   22  C   UNL     1     -13.320  13.308  71.982  1.00  0.00    -0.582 A  
HETATM   23  F   UNL     1     -11.995   8.908  70.506  1.00  0.00    -0.252 F  
HETATM   24  F   UNL     1     -12.191   9.251  72.645  1.00  0.00    -0.330 F  
ENDBRANCH  11  15
BRANCH  14  25
HETATM   25  N   UNL     1     -10.875  12.919  65.379  1.00  0.00    -0.278 NA 
HETATM   26  H   UNL     1     -11.528  13.453  64.805  1.00  0.00     0.000 HD 
BRANCH  25  27
HETATM   27  C   UNL     1     -10.327  11.794  64.758  1.00  0.00    -0.288 A  
HETATM   28  C   UNL     1      -9.125   9.700  64.892  1.00  0.00    -0.232 A  
HETATM   29  C   UNL     1      -9.759  10.775  65.527  1.00  0.00    -0.290 A  
HETATM   30  N   UNL     1      -9.075   9.598  63.532  1.00  0.00    -0.226 NA 
HETATM   31  C   UNL     1      -8.432   8.628  65.721  1.00  0.00    -0.151 C  
HETATM   32  C   UNL     1      -9.631  10.587  62.809  1.00  0.00    -0.289 A  
HETATM   33  F   UNL     1      -7.097   8.526  65.453  1.00  0.00    -0.076 F  
HETATM   34  F   UNL     1      -8.511   8.849  67.069  1.00  0.00    -0.109 F  
HETATM   35  F   UNL     1      -8.950   7.380  65.529  1.00  0.00    -0.148 F  
HETATM   36  C   UNL     1     -10.237  11.695  63.369  1.00  0.00    -0.471 A  
ENDBRANCH  25  27
ENDBRANCH  14  25
ENDBRANCH   7   9
ENDBRANCH   5   7
TORSDOF 5
ENDMDL
MODEL       86
REMARK 921   NORMALIZED FREE ENERGY PREDICTED BY IDOCK:   -6.91 KCAL/MOL
REMARK 922        TOTAL FREE ENERGY PREDICTED BY IDOCK:  -10.10 KCAL/MOL
REMARK 923 INTER-LIGAND FREE ENERGY PREDICTED BY IDOCK:   -9.29 KCAL/MOL
REMARK 924 INTRA-LIGAND FREE ENERGY PREDICTED BY IDOCK:   -0.81 KCAL/MOL
REMARK 927      BINDING AFFINITY PREDICTED BY RF-SCORE:    0.00 PKD
ROOT
HETATM    1  C   UNL     1     -14.170   7.026  72.144  1.00  0.00    -0.209 C  
HETATM    2  C   UNL     1     -12.778   7.304  71.569  1.00  0.00    -0.384 C  
HETATM    3  C   UNL     1     -11.713   6.605  72.423  1.00  0.00    -0.260 C  
HETATM    4  O   UNL     1     -12.717   6.750  70.245  1.00  0.00    -0.474 OA 
HETATM    5  C   UNL     1     -12.547   8.836  71.473  1.00  0.00    -0.326 C  
HETATM    6  H   UNL     1     -11.853   6.922  69.889  1.00  0.00     0.000 HD 
ENDROOT
BRANCH   5   7
HETATM    7  N   UNL     1     -11.182   9.115  71.052  1.00  0.00    -0.286 NA 
HETATM    8  H   UNL     1     -10.410   9.083  71.719  1.00  0.00     0.000 HD 
BRANCH   7   9
HETATM    9  C   UNL     1     -10.958   9.425  69.725  1.00  0.00    -0.215 A  
HETATM   10  N   UNL     1     -10.377   8.554  68.916  1.00  0.00    -0.211 NA 
HETATM   11  C   UNL     1     -10.198   8.960  67.659  1.00  0.00    -0.237 A  
HETATM   12  N   UNL     1     -11.394  10.617  69.340  1.00  0.00    -0.263 NA 
HETATM   13  N   UNL     1     -10.593  10.147  67.194  1.00  0.00    -0.253 NA 
HETATM   14  C   UNL     1     -11.218  10.928  68.066  1.00  0.00    -0.314 A  
BRANCH  11  15
HETATM   15  C   UNL     1      -9.533   8.041  66.696  1.00  0.00    -0.212 A  
HETATM   16  C   UNL     1      -9.154   5.827  65.985  1.00  0.00    -0.153 A  
HETATM   17  F   UNL     1      -8.271   3.621  66.348  1.00  0.00    -0.096 F  
HETATM   18  N   UNL     1      -9.749   6.703  66.848  1.00  0.00    -0.158 NA 
HETATM   19  C   UNL     1      -8.317   6.261  64.957  1.00  0.00    -0.099 A  
HETATM   20  C   UNL     1      -9.416   4.334  66.128  1.00  0.00    -0.178 C  
HETATM   21  C   UNL     1      -8.714   8.518  65.668  1.00  0.00    -0.213 A  
HETATM   22  C   UNL     1      -8.099   7.623  64.798  1.00  0.00    -0.121 A  
HETATM   23  F   UNL     1     -10.260   4.001  67.144  1.00  0.00    -0.196 F  
HETATM   24  F   UNL     1      -9.965   3.794  64.999  1.00  0.00    -0.167 F  
ENDBRANCH  11  15
BRANCH  14  25
HETATM   25  N   UNL     1     -11.807  12.115  67.628  1.00  0.00    -0.535 NA 
HETATM   26  H   UNL     1     -12.364  12.033  66.778  1.00  0.00     0.000 HD 
BRANCH  25  27
HETATM   27  C   UNL     1     -11.753  13.400  68.176  1.00  0.00    -0.362 A  
HETATM   28  C   UNL     1     -12.105  14.903  70.037  1.00  0.00    -0.338 A  
HETATM   29  C   UNL     1     -12.066  13.602  69.523  1.00  0.00    -0.368 A  
HETATM   30  N   UNL     1     -11.810  15.989  69.265  1.00  0.00    -0.315 NA 
HETATM   31  C   UNL     1     -12.524  15.139  71.481  1.00  0.00    -0.350 C  
HETATM   32  C   UNL     1     -11.508  15.774  67.972  1.00  0.00    -0.264 A  
HETATM   33  F   UNL     1     -13.633  15.926  71.593  1.00  0.00    -0.524 F  
HETATM   34  F   UNL     1     -12.834  13.987  72.151  1.00  0.00    -0.386 F  
HETATM   35  F   UNL     1     -11.557  15.743  72.231  1.00  0.00    -0.435 F  
HETATM   36  C   UNL     1     -11.489  14.521  67.389  1.00  0.00    -0.385 A  
ENDBRANCH  25  27
ENDBRANCH  14  25
ENDBRANCH   7   9
ENDBRANCH   5   7
TORSDOF 5
ENDMDL
MODEL       87
REMARK 921   NORMALIZED FREE ENERGY PREDICTED BY IDOCK:   -6.90 KCAL/MOL
REMARK 922        TOTAL FREE ENERGY PREDICTED BY IDOCK:  -10.08 KCAL/MOL
REMARK 923 INTER-LIGAND FREE ENERGY PREDICTED BY IDOCK:   -9.06 KCAL/MOL
REMARK 924 INTRA-LIGAND FREE ENERGY PREDICTED BY IDOCK:   -1.03 KCAL/MOL
REMARK 927      BINDING AFFINITY PREDICTED BY RF-SCORE:    0.00 PKD
ROOT
HETATM    1  C   UNL     1     -12.322  13.817  63.186  1.00  0.00     0.285 C  
HETATM    2  C   UNL     1     -11.733  12.682  64.031  1.00  0.00    -0.424 C  
HETATM    3  C   UNL     1     -12.475  12.592  65.370  1.00  0.00    -0.421 C  
HETATM    4  O   UNL     1     -11.934  11.445  63.330  1.00  0.00    -0.838 OA 
HETATM    5  C   UNL     1     -10.208  12.903  64.213  1.00  0.00    -0.312 C  
HETATM    6  H   UNL     1     -11.569  10.742  63.854  1.00  0.00     0.000 HD 
ENDROOT
BRANCH   5   7
HETATM    7  N   UNL     1      -9.659  11.906  65.121  1.00  0.00    -0.400 NA 
HETATM    8  H   UNL     1      -9.629  10.920  64.862  1.00  0.00     0.000 HD 
BRANCH   7   9
HETATM    9  C   UNL     1      -9.179  12.332  66.344  1.00  0.00    -0.203 A  
HETATM   10  N   UNL     1      -8.917  13.611  66.560  1.00  0.00    -0.118 NA 
HETATM   11  C   UNL     1      -8.447  13.910  67.771  1.00  0.00    -0.183 A  
HETATM   12  N   UNL     1      -9.042  11.382  67.261  1.00  0.00    -0.160 NA 
HETATM   13  N   UNL     1      -8.265  13.016  68.744  1.00  0.00     0.029 NA 
HETATM   14  C   UNL     1      -8.610  11.769  68.451  1.00  0.00    -0.156 A  
BRANCH  11  15
HETATM   15  C   UNL     1      -8.112  15.327  68.080  1.00  0.00    -0.136 A  
HETATM   16  C   UNL     1      -8.669  17.605  67.858  1.00  0.00    -0.245 A  
HETATM   17  F   UNL     1      -8.989  19.573  66.515  1.00  0.00    -0.302 F  
HETATM   18  N   UNL     1      -8.944  16.293  67.597  1.00  0.00    -0.192 NA 
HETATM   19  C   UNL     1      -7.549  17.989  68.595  1.00  0.00    -0.297 A  
HETATM   20  C   UNL     1      -9.611  18.688  67.349  1.00  0.00    -0.296 C  
HETATM   21  C   UNL     1      -6.987  15.669  68.838  1.00  0.00    -0.130 A  
HETATM   22  C   UNL     1      -6.702  17.008  69.091  1.00  0.00    -0.241 A  
HETATM   23  F   UNL     1     -10.689  18.223  66.657  1.00  0.00    -0.371 F  
HETATM   24  F   UNL     1     -10.123  19.447  68.363  1.00  0.00    -0.407 F  
ENDBRANCH  11  15
BRANCH  14  25
HETATM   25  N   UNL     1      -8.608  10.799  69.455  1.00  0.00    -0.383 NA 
HETATM   26  H   UNL     1      -7.802  10.825  70.079  1.00  0.00     0.000 HD 
BRANCH  25  27
HETATM   27  C   UNL     1      -9.541   9.797  69.738  1.00  0.00    -0.230 A  
HETATM   28  C   UNL     1     -11.570   9.068  70.832  1.00  0.00    -0.290 A  
HETATM   29  C   UNL     1     -10.693  10.097  70.470  1.00  0.00    -0.295 A  
HETATM   30  N   UNL     1     -11.351   7.774  70.460  1.00  0.00    -0.267 NA 
HETATM   31  C   UNL     1     -12.784   9.372  71.699  1.00  0.00    -0.374 C  
HETATM   32  C   UNL     1     -10.239   7.506  69.752  1.00  0.00    -0.211 A  
HETATM   33  F   UNL     1     -12.779   8.692  72.881  1.00  0.00    -0.435 F  
HETATM   34  F   UNL     1     -12.886  10.692  72.045  1.00  0.00    -0.501 F  
HETATM   35  F   UNL     1     -13.968   9.067  71.093  1.00  0.00    -0.397 F  
HETATM   36  C   UNL     1      -9.310   8.465  69.395  1.00  0.00    -0.154 A  
ENDBRANCH  25  27
ENDBRANCH  14  25
ENDBRANCH   7   9
ENDBRANCH   5   7
TORSDOF 5
ENDMDL
MODEL       88
REMARK 921   NORMALIZED FREE ENERGY PREDICTED BY IDOCK:   -6.89 KCAL/MOL
REMARK 922        TOTAL FREE ENERGY PREDICTED BY IDOCK:  -10.07 KCAL/MOL
REMARK 923 INTER-LIGAND FREE ENERGY PREDICTED BY IDOCK:   -9.21 KCAL/MOL
REMARK 924 INTRA-LIGAND FREE ENERGY PREDICTED BY IDOCK:   -0.86 KCAL/MOL
REMARK 927      BINDING AFFINITY PREDICTED BY RF-SCORE:    0.00 PKD
ROOT
HETATM    1  C   UNL     1      -9.346  20.686  67.642  1.00  0.00    -0.372 C  
HETATM    2  C   UNL     1      -8.397  19.485  67.672  1.00  0.00    -0.305 C  
HETATM    3  C   UNL     1      -8.074  19.042  66.240  1.00  0.00    -0.298 C  
HETATM    4  O   UNL     1      -7.170  19.893  68.296  1.00  0.00    -0.293 OA 
HETATM    5  C   UNL     1      -9.024  18.344  68.517  1.00  0.00    -0.315 C  
HETATM    6  H   UNL     1      -6.581  19.147  68.314  1.00  0.00     0.000 HD 
ENDROOT
BRANCH   5   7
HETATM    7  N   UNL     1      -8.195  17.149  68.446  1.00  0.00    -0.244 NA 
HETATM    8  H   UNL     1      -7.177  17.214  68.486  1.00  0.00     0.000 HD 
BRANCH   7   9
HETATM    9  C   UNL     1      -8.823  15.925  68.323  1.00  0.00    -0.179 A  
HETATM   10  N   UNL     1      -8.186  14.888  67.802  1.00  0.00    -0.146 NA 
HETATM   11  C   UNL     1      -8.890  13.759  67.719  1.00  0.00    -0.188 A  
HETATM   12  N   UNL     1     -10.064  15.876  68.788  1.00  0.00    -0.213 NA 
HETATM   13  N   UNL     1     -10.146  13.628  68.149  1.00  0.00    -0.239 NA 
HETATM   14  C   UNL     1     -10.679  14.707  68.708  1.00  0.00    -0.249 A  
BRANCH  11  15
HETATM   15  C   UNL     1      -8.247  12.555  67.126  1.00  0.00    -0.168 A  
HETATM   16  C   UNL     1      -8.450  10.656  65.748  1.00  0.00    -0.178 A  
HETATM   17  F   UNL     1      -9.404   8.506  65.253  1.00  0.00    -0.187 F  
HETATM   18  N   UNL     1      -9.005  11.770  66.309  1.00  0.00    -0.200 NA 
HETATM   19  C   UNL     1      -7.129  10.287  65.998  1.00  0.00    -0.128 A  
HETATM   20  C   UNL     1      -9.282   9.792  64.809  1.00  0.00    -0.261 C  
HETATM   21  C   UNL     1      -6.912  12.230  67.389  1.00  0.00    -0.151 A  
HETATM   22  C   UNL     1      -6.353  11.086  66.826  1.00  0.00    -0.114 A  
HETATM   23  F   UNL     1     -10.553  10.237  64.605  1.00  0.00    -0.363 F  
HETATM   24  F   UNL     1      -8.722   9.692  63.566  1.00  0.00    -0.166 F  
ENDBRANCH  11  15
BRANCH  14  25
HETATM   25  N   UNL     1     -11.925  14.617  69.331  1.00  0.00    -0.361 NA 
HETATM   26  H   UNL     1     -12.629  15.269  68.985  1.00  0.00     0.000 HD 
BRANCH  25  27
HETATM   27  C   UNL     1     -12.358  13.770  70.355  1.00  0.00    -0.353 A  
HETATM   28  C   UNL     1     -12.653  11.545  71.254  1.00  0.00    -0.347 A  
HETATM   29  C   UNL     1     -12.129  12.394  70.273  1.00  0.00    -0.377 A  
HETATM   30  N   UNL     1     -13.359  12.027  72.318  1.00  0.00    -0.364 NA 
HETATM   31  C   UNL     1     -12.479  10.038  71.129  1.00  0.00    -0.379 C  
HETATM   32  C   UNL     1     -13.565  13.355  72.382  1.00  0.00    -0.606 A  
HETATM   33  F   UNL     1     -13.666   9.368  71.061  1.00  0.00    -0.390 F  
HETATM   34  F   UNL     1     -11.791   9.663  70.008  1.00  0.00    -0.233 F  
HETATM   35  F   UNL     1     -11.795   9.487  72.173  1.00  0.00    -0.423 F  
HETATM   36  C   UNL     1     -13.111  14.246  71.429  1.00  0.00    -0.421 A  
ENDBRANCH  25  27
ENDBRANCH  14  25
ENDBRANCH   7   9
ENDBRANCH   5   7
TORSDOF 5
ENDMDL
MODEL       89
REMARK 921   NORMALIZED FREE ENERGY PREDICTED BY IDOCK:   -6.88 KCAL/MOL
REMARK 922        TOTAL FREE ENERGY PREDICTED BY IDOCK:  -10.05 KCAL/MOL
REMARK 923 INTER-LIGAND FREE ENERGY PREDICTED BY IDOCK:   -9.01 KCAL/MOL
REMARK 924 INTRA-LIGAND FREE ENERGY PREDICTED BY IDOCK:   -1.04 KCAL/MOL
REMARK 927      BINDING AFFINITY PREDICTED BY RF-SCORE:    0.00 PKD
ROOT
HETATM    1  C   UNL     1      -7.235   6.532  66.425  1.00  0.00    -0.073 C  
HETATM    2  C   UNL     1      -8.286   7.490  65.856  1.00  0.00    -0.139 C  
HETATM    3  C   UNL     1      -7.915   7.876  64.420  1.00  0.00    -0.132 C  
HETATM    4  O   UNL     1      -9.549   6.807  65.819  1.00  0.00    -0.381 OA 
HETATM    5  C   UNL     1      -8.423   8.727  66.785  1.00  0.00    -0.111 C  
HETATM    6  H   UNL     1     -10.201   7.402  65.466  1.00  0.00     0.000 HD 
ENDROOT
BRANCH   5   7
HETATM    7  N   UNL     1      -9.321   9.707  66.190  1.00  0.00    -0.178 NA 
HETATM    8  H   UNL     1      -9.291   9.907  65.190  1.00  0.00     0.000 HD 
BRANCH   7   9
HETATM    9  C   UNL     1     -10.215  10.358  67.017  1.00  0.00    -0.225 A  
HETATM   10  N   UNL     1     -10.594   9.817  68.163  1.00  0.00    -0.220 NA 
HETATM   11  C   UNL     1     -11.470  10.525  68.877  1.00  0.00    -0.226 A  
HETATM   12  N   UNL     1     -10.619  11.548  66.589  1.00  0.00    -0.242 NA 
HETATM   13  N   UNL     1     -11.937  11.720  68.514  1.00  0.00    -0.461 NA 
HETATM   14  C   UNL     1     -11.455  12.206  67.377  1.00  0.00    -0.345 A  
BRANCH  11  15
HETATM   15  C   UNL     1     -11.956   9.970  70.169  1.00  0.00    -0.131 A  
HETATM   16  C   UNL     1     -11.877   8.225  71.749  1.00  0.00    -0.306 A  
HETATM   17  F   UNL     1     -12.254   5.935  72.379  1.00  0.00    -0.364 F  
HETATM   18  N   UNL     1     -11.454   8.767  70.570  1.00  0.00    -0.238 NA 
HETATM   19  C   UNL     1     -12.823   8.859  72.554  1.00  0.00    -0.401 A  
HETATM   20  C   UNL     1     -11.296   6.897  72.219  1.00  0.00    -0.269 C  
HETATM   21  C   UNL     1     -12.894  10.648  70.955  1.00  0.00    -0.496 A  
HETATM   22  C   UNL     1     -13.334  10.086  72.151  1.00  0.00    -0.469 A  
HETATM   23  F   UNL     1     -10.365   6.358  71.383  1.00  0.00    -0.213 F  
HETATM   24  F   UNL     1     -10.685   7.002  73.436  1.00  0.00    -0.281 F  
ENDBRANCH  11  15
BRANCH  14  25
HETATM   25  N   UNL     1     -11.761  13.515  67.001  1.00  0.00    -0.361 NA 
HETATM   26  H   UNL     1     -12.396  13.598  66.208  1.00  0.00     0.000 HD 
BRANCH  25  27
HETATM   27  C   UNL     1     -11.332  14.729  67.545  1.00  0.00    -0.344 A  
HETATM   28  C   UNL     1      -9.791  16.593  67.562  1.00  0.00    -0.253 A  
HETATM   29  C   UNL     1     -10.278  15.429  66.954  1.00  0.00    -0.273 A  
HETATM   30  N   UNL     1     -10.343  17.088  68.707  1.00  0.00    -0.316 NA 
HETATM   31  C   UNL     1      -8.590  17.316  66.970  1.00  0.00    -0.227 C  
HETATM   32  C   UNL     1     -11.361  16.402  69.259  1.00  0.00    -0.225 A  
HETATM   33  F   UNL     1      -7.535  17.391  67.831  1.00  0.00    -0.176 F  
HETATM   34  F   UNL     1      -8.093  16.713  65.847  1.00  0.00    -0.340 F  
HETATM   35  F   UNL     1      -8.864  18.600  66.598  1.00  0.00    -0.265 F  
HETATM   36  C   UNL     1     -11.864  15.227  68.734  1.00  0.00    -0.332 A  
ENDBRANCH  25  27
ENDBRANCH  14  25
ENDBRANCH   7   9
ENDBRANCH   5   7
TORSDOF 5
ENDMDL
MODEL       90
REMARK 921   NORMALIZED FREE ENERGY PREDICTED BY IDOCK:   -6.87 KCAL/MOL
REMARK 922        TOTAL FREE ENERGY PREDICTED BY IDOCK:  -10.05 KCAL/MOL
REMARK 923 INTER-LIGAND FREE ENERGY PREDICTED BY IDOCK:   -8.88 KCAL/MOL
REMARK 924 INTRA-LIGAND FREE ENERGY PREDICTED BY IDOCK:   -1.17 KCAL/MOL
REMARK 927      BINDING AFFINITY PREDICTED BY RF-SCORE:    0.00 PKD
ROOT
HETATM    1  C   UNL     1      -6.275  15.057  67.841  1.00  0.00    -0.174 C  
HETATM    2  C   UNL     1      -6.603  13.867  68.747  1.00  0.00    -0.098 C  
HETATM    3  C   UNL     1      -5.827  13.986  70.064  1.00  0.00    -0.133 C  
HETATM    4  O   UNL     1      -8.006  13.905  69.055  1.00  0.00    -0.309 OA 
HETATM    5  C   UNL     1      -6.300  12.541  67.999  1.00  0.00    -0.087 C  
HETATM    6  H   UNL     1      -8.209  13.166  69.617  1.00  0.00     0.000 HD 
ENDROOT
BRANCH   5   7
HETATM    7  N   UNL     1      -6.482  11.405  68.892  1.00  0.00    -0.056 NA 
HETATM    8  H   UNL     1      -5.764  11.151  69.571  1.00  0.00     0.000 HD 
BRANCH   7   9
HETATM    9  C   UNL     1      -7.653  10.680  68.794  1.00  0.00    -0.109 A  
HETATM   10  N   UNL     1      -8.261  10.228  69.880  1.00  0.00    -0.107 NA 
HETATM   11  C   UNL     1      -9.377   9.529  69.670  1.00  0.00    -0.200 A  
HETATM   12  N   UNL     1      -8.115  10.512  67.562  1.00  0.00    -0.107 NA 
HETATM   13  N   UNL     1      -9.901   9.302  68.464  1.00  0.00    -0.154 NA 
HETATM   14  C   UNL     1      -9.251   9.844  67.443  1.00  0.00    -0.134 A  
BRANCH  11  15
HETATM   15  C   UNL     1     -10.105   8.973  70.843  1.00  0.00    -0.262 A  
HETATM   16  C   UNL     1     -12.169   8.561  71.901  1.00  0.00    -0.352 A  
HETATM   17  F   UNL     1     -14.190   9.336  72.946  1.00  0.00    -0.407 F  
HETATM   18  N   UNL     1     -11.466   9.059  70.841  1.00  0.00    -0.281 NA 
HETATM   19  C   UNL     1     -11.533   7.978  72.996  1.00  0.00    -0.177 A  
HETATM   20  C   UNL     1     -13.691   8.625  71.892  1.00  0.00    -0.421 C  
HETATM   21  C   UNL     1      -9.430   8.379  71.914  1.00  0.00    -0.323 A  
HETATM   22  C   UNL     1     -10.148   7.885  72.999  1.00  0.00    -0.384 A  
HETATM   23  F   UNL     1     -14.228   9.192  70.775  1.00  0.00    -0.269 F  
HETATM   24  F   UNL     1     -14.261   7.387  71.989  1.00  0.00    -0.413 F  
ENDBRANCH  11  15
BRANCH  14  25
HETATM   25  N   UNL     1      -9.813   9.797  66.165  1.00  0.00    -0.244 NA 
HETATM   26  H   UNL     1      -9.885   8.863  65.760  1.00  0.00     0.000 HD 
BRANCH  25  27
HETATM   27  C   UNL     1     -10.292  10.830  65.356  1.00  0.00    -0.247 A  
HETATM   28  C   UNL     1     -11.464  12.931  65.110  1.00  0.00    -0.313 A  
HETATM   29  C   UNL     1     -10.899  11.949  65.932  1.00  0.00    -0.342 A  
HETATM   30  N   UNL     1     -11.407  12.847  63.749  1.00  0.00    -0.435 NA 
HETATM   31  C   UNL     1     -12.199  14.111  65.728  1.00  0.00    -0.442 C  
HETATM   32  C   UNL     1     -10.815  11.765  63.213  1.00  0.00    -0.326 A  
HETATM   33  F   UNL     1     -13.507  14.184  65.346  1.00  0.00    -0.436 F  
HETATM   34  F   UNL     1     -12.228  14.076  67.096  1.00  0.00    -0.422 F  
HETATM   35  F   UNL     1     -11.646  15.317  65.410  1.00  0.00    -0.326 F  
HETATM   36  C   UNL     1     -10.273  10.739  63.964  1.00  0.00    -0.390 A  
ENDBRANCH  25  27
ENDBRANCH  14  25
ENDBRANCH   7   9
ENDBRANCH   5   7
TORSDOF 5
ENDMDL
MODEL       91
REMARK 921   NORMALIZED FREE ENERGY PREDICTED BY IDOCK:   -6.87 KCAL/MOL
REMARK 922        TOTAL FREE ENERGY PREDICTED BY IDOCK:  -10.05 KCAL/MOL
REMARK 923 INTER-LIGAND FREE ENERGY PREDICTED BY IDOCK:   -9.03 KCAL/MOL
REMARK 924 INTRA-LIGAND FREE ENERGY PREDICTED BY IDOCK:   -1.02 KCAL/MOL
REMARK 927      BINDING AFFINITY PREDICTED BY RF-SCORE:    0.00 PKD
ROOT
HETATM    1  C   UNL     1     -12.238  15.074  64.100  1.00  0.00    -0.234 C  
HETATM    2  C   UNL     1     -11.699  13.705  64.528  1.00  0.00    -0.400 C  
HETATM    3  C   UNL     1     -12.141  12.635  63.522  1.00  0.00    -0.648 C  
HETATM    4  O   UNL     1     -10.264  13.759  64.514  1.00  0.00    -0.587 OA 
HETATM    5  C   UNL     1     -12.166  13.387  65.974  1.00  0.00    -0.437 C  
HETATM    6  H   UNL     1      -9.930  12.910  64.780  1.00  0.00     0.000 HD 
ENDROOT
BRANCH   5   7
HETATM    7  N   UNL     1     -11.774  12.035  66.345  1.00  0.00    -0.565 NA 
HETATM    8  H   UNL     1     -12.279  11.225  65.986  1.00  0.00     0.000 HD 
BRANCH   7   9
HETATM    9  C   UNL     1     -10.697  11.879  67.196  1.00  0.00    -0.240 A  
HETATM   10  N   UNL     1     -10.560  10.779  67.918  1.00  0.00    -0.204 NA 
HETATM   11  C   UNL     1      -9.492  10.738  68.715  1.00  0.00    -0.182 A  
HETATM   12  N   UNL     1      -9.827  12.881  67.198  1.00  0.00    -0.221 NA 
HETATM   13  N   UNL     1      -8.578  11.707  68.788  1.00  0.00    -0.079 NA 
HETATM   14  C   UNL     1      -8.771  12.744  67.984  1.00  0.00    -0.194 A  
BRANCH  11  15
HETATM   15  C   UNL     1      -9.282   9.539  69.571  1.00  0.00    -0.189 A  
HETATM   16  C   UNL     1     -10.014   7.397  70.222  1.00  0.00    -0.188 A  
HETATM   17  F   UNL     1     -11.641   5.945  71.234  1.00  0.00    -0.338 F  
HETATM   18  N   UNL     1     -10.172   8.513  69.452  1.00  0.00    -0.206 NA 
HETATM   19  C   UNL     1      -8.973   7.280  71.142  1.00  0.00    -0.147 A  
HETATM   20  C   UNL     1     -10.986   6.234  70.071  1.00  0.00    -0.358 C  
HETATM   21  C   UNL     1      -8.214   9.455  70.470  1.00  0.00    -0.221 A  
HETATM   22  C   UNL     1      -8.063   8.321  71.264  1.00  0.00    -0.138 A  
HETATM   23  F   UNL     1     -11.958   6.425  69.136  1.00  0.00    -0.302 F  
HETATM   24  F   UNL     1     -10.354   5.075  69.716  1.00  0.00    -0.307 F  
ENDBRANCH  11  15
BRANCH  14  25
HETATM   25  N   UNL     1      -7.784  13.725  67.875  1.00  0.00    -0.143 NA 
HETATM   26  H   UNL     1      -6.892  13.401  67.501  1.00  0.00     0.000 HD 
BRANCH  25  27
HETATM   27  C   UNL     1      -7.829  15.084  68.199  1.00  0.00    -0.120 A  
HETATM   28  C   UNL     1      -8.778  17.286  67.882  1.00  0.00    -0.231 A  
HETATM   29  C   UNL     1      -8.802  15.909  67.629  1.00  0.00    -0.180 A  
HETATM   30  N   UNL     1      -7.845  17.848  68.705  1.00  0.00    -0.298 NA 
HETATM   31  C   UNL     1      -9.782  18.203  67.201  1.00  0.00    -0.301 C  
HETATM   32  C   UNL     1      -6.919  17.036  69.247  1.00  0.00    -0.198 A  
HETATM   33  F   UNL     1      -9.193  19.154  66.419  1.00  0.00    -0.306 F  
HETATM   34  F   UNL     1     -10.645  17.542  66.371  1.00  0.00    -0.329 F  
HETATM   35  F   UNL     1     -10.577  18.879  68.081  1.00  0.00    -0.398 F  
HETATM   36  C   UNL     1      -6.860  15.676  69.009  1.00  0.00    -0.140 A  
ENDBRANCH  25  27
ENDBRANCH  14  25
ENDBRANCH   7   9
ENDBRANCH   5   7
TORSDOF 5
ENDMDL
MODEL       92
REMARK 921   NORMALIZED FREE ENERGY PREDICTED BY IDOCK:   -6.84 KCAL/MOL
REMARK 922        TOTAL FREE ENERGY PREDICTED BY IDOCK:  -10.00 KCAL/MOL
REMARK 923 INTER-LIGAND FREE ENERGY PREDICTED BY IDOCK:   -8.75 KCAL/MOL
REMARK 924 INTRA-LIGAND FREE ENERGY PREDICTED BY IDOCK:   -1.26 KCAL/MOL
REMARK 927      BINDING AFFINITY PREDICTED BY RF-SCORE:    0.00 PKD
ROOT
HETATM    1  C   UNL     1     -13.627   8.348  72.033  1.00  0.00    -0.389 C  
HETATM    2  C   UNL     1     -12.170   8.098  71.630  1.00  0.00    -0.308 C  
HETATM    3  C   UNL     1     -11.526   7.103  72.602  1.00  0.00    -0.274 C  
HETATM    4  O   UNL     1     -12.158   7.508  70.321  1.00  0.00    -0.502 OA 
HETATM    5  C   UNL     1     -11.405   9.447  71.569  1.00  0.00    -0.394 C  
HETATM    6  H   UNL     1     -11.254   7.352  70.071  1.00  0.00     0.000 HD 
ENDROOT
BRANCH   5   7
HETATM    7  N   UNL     1      -9.990   9.213  71.316  1.00  0.00    -0.302 NA 
HETATM    8  H   UNL     1      -9.355   8.969  72.077  1.00  0.00     0.000 HD 
BRANCH   7   9
HETATM    9  C   UNL     1      -9.531   9.330  70.019  1.00  0.00    -0.211 A  
HETATM   10  N   UNL     1      -9.141   8.262  69.341  1.00  0.00    -0.153 NA 
HETATM   11  C   UNL     1      -8.704   8.491  68.102  1.00  0.00    -0.142 A  
HETATM   12  N   UNL     1      -9.547  10.560  69.521  1.00  0.00    -0.154 NA 
HETATM   13  N   UNL     1      -8.674   9.696  67.531  1.00  0.00    -0.126 NA 
HETATM   14  C   UNL     1      -9.138  10.695  68.269  1.00  0.00    -0.153 A  
BRANCH  11  15
HETATM   15  C   UNL     1      -8.231   7.340  67.286  1.00  0.00    -0.115 A  
HETATM   16  C   UNL     1      -8.776   5.407  66.056  1.00  0.00    -0.137 A  
HETATM   17  F   UNL     1      -9.649   3.171  65.924  1.00  0.00    -0.159 F  
HETATM   18  N   UNL     1      -9.171   6.476  66.807  1.00  0.00    -0.142 NA 
HETATM   19  C   UNL     1      -7.432   5.162  65.773  1.00  0.00    -0.082 A  
HETATM   20  C   UNL     1      -9.822   4.455  65.491  1.00  0.00    -0.216 C  
HETATM   21  C   UNL     1      -6.874   7.141  67.011  1.00  0.00    -0.072 A  
HETATM   22  C   UNL     1      -6.473   6.042  66.256  1.00  0.00    -0.046 A  
HETATM   23  F   UNL     1     -11.109   4.780  65.798  1.00  0.00    -0.339 F  
HETATM   24  F   UNL     1      -9.774   4.384  64.127  1.00  0.00    -0.159 F  
ENDBRANCH  11  15
BRANCH  14  25
HETATM   25  N   UNL     1      -9.296  11.959  67.698  1.00  0.00    -0.178 NA 
HETATM   26  H   UNL     1      -8.472  12.559  67.744  1.00  0.00     0.000 HD 
BRANCH  25  27
HETATM   27  C   UNL     1     -10.408  12.530  67.074  1.00  0.00    -0.224 A  
HETATM   28  C   UNL     1     -11.898  12.686  65.175  1.00  0.00    -0.396 A  
HETATM   29  C   UNL     1     -10.845  12.045  65.839  1.00  0.00    -0.329 A  
HETATM   30  N   UNL     1     -12.539  13.761  65.719  1.00  0.00    -0.492 NA 
HETATM   31  C   UNL     1     -12.327  12.215  63.793  1.00  0.00    -0.532 C  
HETATM   32  C   UNL     1     -12.106  14.212  66.910  1.00  0.00    -0.432 A  
HETATM   33  F   UNL     1     -12.204  13.182  62.838  1.00  0.00    -0.589 F  
HETATM   34  F   UNL     1     -11.593  11.158  63.329  1.00  0.00    -0.357 F  
HETATM   35  F   UNL     1     -13.626  11.802  63.744  1.00  0.00    -0.348 F  
HETATM   36  C   UNL     1     -11.049  13.651  67.601  1.00  0.00    -0.293 A  
ENDBRANCH  25  27
ENDBRANCH  14  25
ENDBRANCH   7   9
ENDBRANCH   5   7
TORSDOF 5
ENDMDL
MODEL       93
REMARK 921   NORMALIZED FREE ENERGY PREDICTED BY IDOCK:   -6.84 KCAL/MOL
REMARK 922        TOTAL FREE ENERGY PREDICTED BY IDOCK:  -10.00 KCAL/MOL
REMARK 923 INTER-LIGAND FREE ENERGY PREDICTED BY IDOCK:   -9.26 KCAL/MOL
REMARK 924 INTRA-LIGAND FREE ENERGY PREDICTED BY IDOCK:   -0.73 KCAL/MOL
REMARK 927      BINDING AFFINITY PREDICTED BY RF-SCORE:    0.00 PKD
ROOT
HETATM    1  C   UNL     1      -9.675   6.222  72.271  1.00  0.00    -0.165 C  
HETATM    2  C   UNL     1     -10.785   7.194  71.860  1.00  0.00    -0.216 C  
HETATM    3  C   UNL     1     -11.901   6.432  71.135  1.00  0.00    -0.325 C  
HETATM    4  O   UNL     1     -11.345   7.771  73.050  1.00  0.00    -0.517 OA 
HETATM    5  C   UNL     1     -10.188   8.335  70.994  1.00  0.00    -0.191 C  
HETATM    6  H   UNL     1     -12.034   8.374  72.795  1.00  0.00     0.000 HD 
ENDROOT
BRANCH   5   7
HETATM    7  N   UNL     1     -11.250   9.192  70.487  1.00  0.00    -0.258 NA 
HETATM    8  H   UNL     1     -12.149   9.253  70.966  1.00  0.00     0.000 HD 
BRANCH   7   9
HETATM    9  C   UNL     1     -11.008   9.921  69.339  1.00  0.00    -0.230 A  
HETATM   10  N   UNL     1     -10.457   9.351  68.280  1.00  0.00    -0.213 NA 
HETATM   11  C   UNL     1     -10.257  10.150  67.231  1.00  0.00    -0.222 A  
HETATM   12  N   UNL     1     -11.394  11.190  69.382  1.00  0.00    -0.257 NA 
HETATM   13  N   UNL     1     -10.602  11.438  67.196  1.00  0.00    -0.230 NA 
HETATM   14  C   UNL     1     -11.200  11.904  68.284  1.00  0.00    -0.261 A  
BRANCH  11  15
HETATM   15  C   UNL     1      -9.624   9.583  66.009  1.00  0.00    -0.251 A  
HETATM   16  C   UNL     1      -8.480   7.786  65.003  1.00  0.00    -0.036 A  
HETATM   17  F   UNL     1      -6.554   6.361  64.807  1.00  0.00    -0.035 F  
HETATM   18  N   UNL     1      -9.072   8.339  66.102  1.00  0.00    -0.183 NA 
HETATM   19  C   UNL     1      -8.410   8.463  63.786  1.00  0.00    -0.059 A  
HETATM   20  C   UNL     1      -7.890   6.384  65.091  1.00  0.00    -0.111 C  
HETATM   21  C   UNL     1      -9.590  10.289  64.802  1.00  0.00    -0.369 A  
HETATM   22  C   UNL     1      -8.974   9.727  63.687  1.00  0.00    -0.270 A  
HETATM   23  F   UNL     1      -8.021   5.789  66.309  1.00  0.00    -0.096 F  
HETATM   24  F   UNL     1      -8.463   5.525  64.196  1.00  0.00    -0.132 F  
ENDBRANCH  11  15
BRANCH  14  25
HETATM   25  N   UNL     1     -11.740  13.191  68.277  1.00  0.00    -0.330 NA 
HETATM   26  H   UNL     1     -12.206  13.458  67.410  1.00  0.00     0.000 HD 
BRANCH  25  27
HETATM   27  C   UNL     1     -11.741  14.170  69.275  1.00  0.00    -0.323 A  
HETATM   28  C   UNL     1     -12.491  14.966  71.432  1.00  0.00    -0.337 A  
HETATM   29  C   UNL     1     -12.411  13.943  70.480  1.00  0.00    -0.422 A  
HETATM   30  N   UNL     1     -11.899  16.179  71.232  1.00  0.00    -0.439 NA 
HETATM   31  C   UNL     1     -13.288  14.756  72.711  1.00  0.00    -0.486 C  
HETATM   32  C   UNL     1     -11.255  16.377  70.067  1.00  0.00    -0.258 A  
HETATM   33  F   UNL     1     -14.314  15.644  72.852  1.00  0.00    -0.568 F  
HETATM   34  F   UNL     1     -13.870  13.521  72.791  1.00  0.00    -0.604 F  
HETATM   35  F   UNL     1     -12.532  14.872  73.841  1.00  0.00    -0.574 F  
HETATM   36  C   UNL     1     -11.171  15.426  69.068  1.00  0.00    -0.295 A  
ENDBRANCH  25  27
ENDBRANCH  14  25
ENDBRANCH   7   9
ENDBRANCH   5   7
TORSDOF 5
ENDMDL
MODEL       94
REMARK 921   NORMALIZED FREE ENERGY PREDICTED BY IDOCK:   -6.83 KCAL/MOL
REMARK 922        TOTAL FREE ENERGY PREDICTED BY IDOCK:   -9.99 KCAL/MOL
REMARK 923 INTER-LIGAND FREE ENERGY PREDICTED BY IDOCK:   -8.81 KCAL/MOL
REMARK 924 INTRA-LIGAND FREE ENERGY PREDICTED BY IDOCK:   -1.18 KCAL/MOL
REMARK 927      BINDING AFFINITY PREDICTED BY RF-SCORE:    0.00 PKD
ROOT
HETATM    1  C   UNL     1     -11.143   4.507  73.169  1.00  0.00    -0.350 C  
HETATM    2  C   UNL     1     -10.706   5.967  73.017  1.00  0.00    -0.256 C  
HETATM    3  C   UNL     1     -10.160   6.488  74.352  1.00  0.00    -0.371 C  
HETATM    4  O   UNL     1      -9.643   6.023  72.053  1.00  0.00    -0.154 OA 
HETATM    5  C   UNL     1     -11.893   6.816  72.491  1.00  0.00    -0.106 C  
HETATM    6  H   UNL     1      -9.372   6.929  71.958  1.00  0.00     0.000 HD 
ENDROOT
BRANCH   5   7
HETATM    7  N   UNL     1     -11.533   8.227  72.466  1.00  0.00    -0.392 NA 
HETATM    8  H   UNL     1     -11.381   8.745  73.332  1.00  0.00     0.000 HD 
BRANCH   7   9
HETATM    9  C   UNL     1     -11.402   8.845  71.238  1.00  0.00    -0.300 A  
HETATM   10  N   UNL     1     -11.588  10.150  71.116  1.00  0.00    -0.364 NA 
HETATM   11  C   UNL     1     -11.449  10.641  69.884  1.00  0.00    -0.317 A  
HETATM   12  N   UNL     1     -11.053   8.048  70.237  1.00  0.00    -0.250 NA 
HETATM   13  N   UNL     1     -11.115   9.908  68.821  1.00  0.00    -0.179 NA 
HETATM   14  C   UNL     1     -10.893   8.621  69.054  1.00  0.00    -0.019 A  
BRANCH  11  15
HETATM   15  C   UNL     1     -11.662  12.097  69.665  1.00  0.00    -0.325 A  
HETATM   16  C   UNL     1     -12.406  14.159  70.529  1.00  0.00    -0.364 A  
HETATM   17  F   UNL     1     -14.151  15.585  71.363  1.00  0.00    -0.539 F  
HETATM   18  N   UNL     1     -12.194  12.820  70.692  1.00  0.00    -0.357 NA 
HETATM   19  C   UNL     1     -12.107  14.811  69.333  1.00  0.00    -0.305 A  
HETATM   20  C   UNL     1     -12.970  14.978  71.682  1.00  0.00    -0.353 C  
HETATM   21  C   UNL     1     -11.332  12.716  68.455  1.00  0.00    -0.329 A  
HETATM   22  C   UNL     1     -11.561  14.079  68.287  1.00  0.00    -0.364 A  
HETATM   23  F   UNL     1     -13.214  14.266  72.818  1.00  0.00    -0.456 F  
HETATM   24  F   UNL     1     -12.133  15.992  72.054  1.00  0.00    -0.420 F  
ENDBRANCH  11  15
BRANCH  14  25
HETATM   25  N   UNL     1     -10.383   7.813  68.037  1.00  0.00    -0.208 NA 
HETATM   26  H   UNL     1     -10.860   6.920  67.915  1.00  0.00     0.000 HD 
BRANCH  25  27
HETATM   27  C   UNL     1      -9.319   8.039  67.159  1.00  0.00    -0.149 A  
HETATM   28  C   UNL     1      -8.480   8.872  65.049  1.00  0.00    -0.176 A  
HETATM   29  C   UNL     1      -9.528   8.737  65.967  1.00  0.00    -0.302 A  
HETATM   30  N   UNL     1      -7.237   8.367  65.301  1.00  0.00    -0.081 NA 
HETATM   31  C   UNL     1      -8.721   9.559  63.713  1.00  0.00    -0.217 C  
HETATM   32  C   UNL     1      -7.054   7.702  66.456  1.00  0.00    -0.075 A  
HETATM   33  F   UNL     1      -8.479   8.746  62.644  1.00  0.00    -0.175 F  
HETATM   34  F   UNL     1     -10.008   9.991  63.550  1.00  0.00    -0.293 F  
HETATM   35  F   UNL     1      -7.943  10.665  63.528  1.00  0.00    -0.151 F  
HETATM   36  C   UNL     1      -8.054   7.498  67.388  1.00  0.00    -0.116 A  
ENDBRANCH  25  27
ENDBRANCH  14  25
ENDBRANCH   7   9
ENDBRANCH   5   7
TORSDOF 5
ENDMDL
MODEL       95
REMARK 921   NORMALIZED FREE ENERGY PREDICTED BY IDOCK:   -6.81 KCAL/MOL
REMARK 922        TOTAL FREE ENERGY PREDICTED BY IDOCK:   -9.96 KCAL/MOL
REMARK 923 INTER-LIGAND FREE ENERGY PREDICTED BY IDOCK:   -9.10 KCAL/MOL
REMARK 924 INTRA-LIGAND FREE ENERGY PREDICTED BY IDOCK:   -0.85 KCAL/MOL
REMARK 927      BINDING AFFINITY PREDICTED BY RF-SCORE:    0.00 PKD
ROOT
HETATM    1  C   UNL     1     -14.410  15.009  72.077  1.00  0.00    -0.666 C  
HETATM    2  C   UNL     1     -12.981  14.496  71.873  1.00  0.00    -0.341 C  
HETATM    3  C   UNL     1     -12.101  14.925  73.053  1.00  0.00    -0.369 C  
HETATM    4  O   UNL     1     -13.016  13.060  71.847  1.00  0.00    -0.353 OA 
HETATM    5  C   UNL     1     -12.434  15.000  70.511  1.00  0.00    -0.371 C  
HETATM    6  H   UNL     1     -12.129  12.742  71.720  1.00  0.00     0.000 HD 
ENDROOT
BRANCH   5   7
HETATM    7  N   UNL     1     -11.033  14.631  70.363  1.00  0.00    -0.486 NA 
HETATM    8  H   UNL     1     -10.533  14.158  71.116  1.00  0.00     0.000 HD 
BRANCH   7   9
HETATM    9  C   UNL     1     -10.400  14.938  69.174  1.00  0.00    -0.245 A  
HETATM   10  N   UNL     1     -10.304  16.192  68.764  1.00  0.00    -0.235 NA 
HETATM   11  C   UNL     1      -9.684  16.374  67.598  1.00  0.00    -0.238 A  
HETATM   12  N   UNL     1      -9.887  13.903  68.522  1.00  0.00    -0.227 NA 
HETATM   13  N   UNL     1      -9.153  15.389  66.872  1.00  0.00    -0.225 NA 
HETATM   14  C   UNL     1      -9.250  14.173  67.393  1.00  0.00    -0.204 A  
BRANCH  11  15
HETATM   15  C   UNL     1      -9.554  17.757  67.063  1.00  0.00    -0.284 A  
HETATM   16  C   UNL     1      -8.151  19.584  66.570  1.00  0.00    -0.310 A  
HETATM   17  F   UNL     1      -6.674  21.351  67.259  1.00  0.00    -0.395 F  
HETATM   18  N   UNL     1      -8.310  18.316  67.051  1.00  0.00    -0.242 NA 
HETATM   19  C   UNL     1      -9.230  20.334  66.102  1.00  0.00    -0.267 A  
HETATM   20  C   UNL     1      -6.760  20.203  66.523  1.00  0.00    -0.221 C  
HETATM   21  C   UNL     1     -10.660  18.469  66.587  1.00  0.00    -0.383 A  
HETATM   22  C   UNL     1     -10.497  19.767  66.110  1.00  0.00    -0.613 A  
HETATM   23  F   UNL     1      -5.764  19.394  66.980  1.00  0.00    -0.172 F  
HETATM   24  F   UNL     1      -6.395  20.560  65.256  1.00  0.00    -0.237 F  
ENDBRANCH  11  15
BRANCH  14  25
HETATM   25  N   UNL     1      -8.583  13.107  66.786  1.00  0.00    -0.417 NA 
HETATM   26  H   UNL     1      -7.577  13.076  66.954  1.00  0.00     0.000 HD 
BRANCH  25  27
HETATM   27  C   UNL     1      -9.080  12.077  65.984  1.00  0.00    -0.092 A  
HETATM   28  C   UNL     1      -8.801   9.921  64.925  1.00  0.00    -0.193 A  
HETATM   29  C   UNL     1      -8.340  10.905  65.808  1.00  0.00    -0.133 A  
HETATM   30  N   UNL     1      -9.979  10.057  64.250  1.00  0.00    -0.121 NA 
HETATM   31  C   UNL     1      -7.961   8.678  64.665  1.00  0.00    -0.141 C  
HETATM   32  C   UNL     1     -10.679  11.191  64.436  1.00  0.00    -0.318 A  
HETATM   33  F   UNL     1      -7.602   8.542  63.356  1.00  0.00    -0.101 F  
HETATM   34  F   UNL     1      -6.785   8.663  65.363  1.00  0.00    -0.063 F  
HETATM   35  F   UNL     1      -8.596   7.519  65.003  1.00  0.00    -0.132 F  
HETATM   36  C   UNL     1     -10.265  12.219  65.261  1.00  0.00    -0.305 A  
ENDBRANCH  25  27
ENDBRANCH  14  25
ENDBRANCH   7   9
ENDBRANCH   5   7
TORSDOF 5
ENDMDL
MODEL       96
REMARK 921   NORMALIZED FREE ENERGY PREDICTED BY IDOCK:   -6.78 KCAL/MOL
REMARK 922        TOTAL FREE ENERGY PREDICTED BY IDOCK:   -9.92 KCAL/MOL
REMARK 923 INTER-LIGAND FREE ENERGY PREDICTED BY IDOCK:   -8.92 KCAL/MOL
REMARK 924 INTRA-LIGAND FREE ENERGY PREDICTED BY IDOCK:   -1.00 KCAL/MOL
REMARK 927      BINDING AFFINITY PREDICTED BY RF-SCORE:    0.00 PKD
ROOT
HETATM    1  C   UNL     1      -7.456  17.504  68.813  1.00  0.00    -0.258 C  
HETATM    2  C   UNL     1      -6.653  16.200  68.781  1.00  0.00    -0.129 C  
HETATM    3  C   UNL     1      -5.966  16.046  67.419  1.00  0.00    -0.160 C  
HETATM    4  O   UNL     1      -5.630  16.274  69.786  1.00  0.00    -0.137 OA 
HETATM    5  C   UNL     1      -7.584  15.003  69.113  1.00  0.00    -0.176 C  
HETATM    6  H   UNL     1      -5.132  15.464  69.766  1.00  0.00     0.000 HD 
ENDROOT
BRANCH   5   7
HETATM    7  N   UNL     1      -6.866  13.747  68.957  1.00  0.00    -0.110 NA 
HETATM    8  H   UNL     1      -5.866  13.687  69.152  1.00  0.00     0.000 HD 
BRANCH   7   9
HETATM    9  C   UNL     1      -7.575  12.638  68.538  1.00  0.00    -0.121 A  
HETATM   10  N   UNL     1      -8.024  12.552  67.297  1.00  0.00    -0.179 NA 
HETATM   11  C   UNL     1      -8.706  11.445  67.003  1.00  0.00    -0.160 A  
HETATM   12  N   UNL     1      -7.729  11.687  69.450  1.00  0.00     0.174 NA 
HETATM   13  N   UNL     1      -8.919  10.448  67.863  1.00  0.00    -0.128 NA 
HETATM   14  C   UNL     1      -8.380  10.600  69.065  1.00  0.00    -0.152 A  
BRANCH  11  15
HETATM   15  C   UNL     1      -9.259  11.287  65.630  1.00  0.00    -0.213 A  
HETATM   16  C   UNL     1     -10.989  11.771  64.106  1.00  0.00    -0.374 A  
HETATM   17  F   UNL     1     -13.279  11.600  63.397  1.00  0.00    -0.581 F  
HETATM   18  N   UNL     1     -10.449  11.894  65.354  1.00  0.00    -0.259 NA 
HETATM   19  C   UNL     1     -10.365  11.027  63.105  1.00  0.00    -0.251 A  
HETATM   20  C   UNL     1     -12.301  12.472  63.781  1.00  0.00    -0.502 C  
HETATM   21  C   UNL     1      -8.593  10.546  64.649  1.00  0.00    -0.167 A  
HETATM   22  C   UNL     1      -9.153  10.411  63.381  1.00  0.00    -0.278 A  
HETATM   23  F   UNL     1     -12.830  13.193  64.809  1.00  0.00    -0.441 F  
HETATM   24  F   UNL     1     -12.174  13.351  62.742  1.00  0.00    -0.498 F  
ENDBRANCH  11  15
BRANCH  14  25
HETATM   25  N   UNL     1      -8.412   9.541  69.975  1.00  0.00    -0.177 NA 
HETATM   26  H   UNL     1      -7.563   8.977  70.011  1.00  0.00     0.000 HD 
BRANCH  25  27
HETATM   27  C   UNL     1      -9.428   9.134  70.844  1.00  0.00    -0.276 A  
HETATM   28  C   UNL     1     -11.725   9.256  71.590  1.00  0.00    -0.392 A  
HETATM   29  C   UNL     1     -10.736   9.590  70.657  1.00  0.00    -0.375 A  
HETATM   30  N   UNL     1     -11.457   8.464  72.668  1.00  0.00    -0.357 NA 
HETATM   31  C   UNL     1     -13.133   9.815  71.439  1.00  0.00    -0.400 C  
HETATM   32  C   UNL     1     -10.193   8.032  72.828  1.00  0.00    -0.319 A  
HETATM   33  F   UNL     1     -13.522  10.575  72.504  1.00  0.00    -0.440 F  
HETATM   34  F   UNL     1     -13.280  10.626  70.347  1.00  0.00    -0.359 F  
HETATM   35  F   UNL     1     -14.084   8.847  71.300  1.00  0.00    -0.424 F  
HETATM   36  C   UNL     1      -9.160   8.355  71.969  1.00  0.00    -0.296 A  
ENDBRANCH  25  27
ENDBRANCH  14  25
ENDBRANCH   7   9
ENDBRANCH   5   7
TORSDOF 5
ENDMDL
MODEL       97
REMARK 921   NORMALIZED FREE ENERGY PREDICTED BY IDOCK:   -6.74 KCAL/MOL
REMARK 922        TOTAL FREE ENERGY PREDICTED BY IDOCK:   -9.88 KCAL/MOL
REMARK 923 INTER-LIGAND FREE ENERGY PREDICTED BY IDOCK:   -9.06 KCAL/MOL
REMARK 924 INTRA-LIGAND FREE ENERGY PREDICTED BY IDOCK:   -0.82 KCAL/MOL
REMARK 927      BINDING AFFINITY PREDICTED BY RF-SCORE:    0.00 PKD
ROOT
HETATM    1  C   UNL     1     -14.405   7.270  71.696  1.00  0.00    -0.583 C  
HETATM    2  C   UNL     1     -13.163   8.164  71.630  1.00  0.00    -0.332 C  
HETATM    3  C   UNL     1     -12.212   7.819  72.782  1.00  0.00    -0.023 C  
HETATM    4  O   UNL     1     -12.478   7.896  70.396  1.00  0.00    -0.350 OA 
HETATM    5  C   UNL     1     -13.591   9.656  71.641  1.00  0.00    -0.324 C  
HETATM    6  H   UNL     1     -11.707   8.451  70.355  1.00  0.00     0.000 HD 
ENDROOT
BRANCH   5   7
HETATM    7  N   UNL     1     -12.419  10.516  71.711  1.00  0.00    -0.333 NA 
HETATM    8  H   UNL     1     -12.178  11.006  72.574  1.00  0.00     0.000 HD 
BRANCH   7   9
HETATM    9  C   UNL     1     -11.641  10.653  70.579  1.00  0.00    -0.350 A  
HETATM   10  N   UNL     1     -12.018  11.448  69.591  1.00  0.00    -0.334 NA 
HETATM   11  C   UNL     1     -11.199  11.495  68.540  1.00  0.00    -0.258 A  
HETATM   12  N   UNL     1     -10.506   9.965  70.585  1.00  0.00    -0.280 NA 
HETATM   13  N   UNL     1     -10.048  10.826  68.459  1.00  0.00    -0.168 NA 
HETATM   14  C   UNL     1      -9.728  10.101  69.522  1.00  0.00    -0.229 A  
BRANCH  11  15
HETATM   15  C   UNL     1     -11.568  12.355  67.382  1.00  0.00    -0.365 A  
HETATM   16  C   UNL     1     -11.742  12.589  65.045  1.00  0.00    -0.362 A  
HETATM   17  F   UNL     1     -10.744  12.713  62.861  1.00  0.00    -0.280 F  
HETATM   18  N   UNL     1     -11.416  11.831  66.132  1.00  0.00    -0.387 NA 
HETATM   19  C   UNL     1     -12.214  13.895  65.173  1.00  0.00    -0.443 A  
HETATM   20  C   UNL     1     -11.605  12.000  63.647  1.00  0.00    -0.486 C  
HETATM   21  C   UNL     1     -12.055  13.654  67.555  1.00  0.00    -0.352 A  
HETATM   22  C   UNL     1     -12.374  14.430  66.444  1.00  0.00    -0.298 A  
HETATM   23  F   UNL     1     -11.156  10.714  63.615  1.00  0.00    -0.131 F  
HETATM   24  F   UNL     1     -12.791  11.995  62.969  1.00  0.00    -0.635 F  
ENDBRANCH  11  15
BRANCH  14  25
HETATM   25  N   UNL     1      -8.470   9.498  69.593  1.00  0.00    -0.152 NA 
HETATM   26  H   UNL     1      -7.680  10.138  69.507  1.00  0.00     0.000 HD 
BRANCH  25  27
HETATM   27  C   UNL     1      -8.127   8.154  69.764  1.00  0.00    -0.116 A  
HETATM   28  C   UNL     1      -8.776   5.841  70.038  1.00  0.00    -0.132 A  
HETATM   29  C   UNL     1      -9.119   7.171  69.767  1.00  0.00    -0.141 A  
HETATM   30  N   UNL     1      -7.484   5.466  70.266  1.00  0.00    -0.070 NA 
HETATM   31  C   UNL     1      -9.861   4.777  70.124  1.00  0.00    -0.238 C  
HETATM   32  C   UNL     1      -6.542   6.426  70.255  1.00  0.00    -0.045 A  
HETATM   33  F   UNL     1      -9.912   4.166  71.343  1.00  0.00    -0.235 F  
HETATM   34  F   UNL     1     -11.121   5.269  69.917  1.00  0.00    -0.332 F  
HETATM   35  F   UNL     1      -9.709   3.777  69.208  1.00  0.00    -0.245 F  
HETATM   36  C   UNL     1      -6.815   7.763  70.034  1.00  0.00    -0.049 A  
ENDBRANCH  25  27
ENDBRANCH  14  25
ENDBRANCH   7   9
ENDBRANCH   5   7
TORSDOF 5
ENDMDL
MODEL       98
REMARK 921   NORMALIZED FREE ENERGY PREDICTED BY IDOCK:   -6.74 KCAL/MOL
REMARK 922        TOTAL FREE ENERGY PREDICTED BY IDOCK:   -9.87 KCAL/MOL
REMARK 923 INTER-LIGAND FREE ENERGY PREDICTED BY IDOCK:   -9.03 KCAL/MOL
REMARK 924 INTRA-LIGAND FREE ENERGY PREDICTED BY IDOCK:   -0.84 KCAL/MOL
REMARK 927      BINDING AFFINITY PREDICTED BY RF-SCORE:    0.00 PKD
ROOT
HETATM    1  C   UNL     1     -12.253  13.830  62.832  1.00  0.00     0.853 C  
HETATM    2  C   UNL     1     -12.017  12.690  63.828  1.00  0.00    -0.510 C  
HETATM    3  C   UNL     1     -12.911  12.881  65.059  1.00  0.00    -0.348 C  
HETATM    4  O   UNL     1     -12.390  11.455  63.198  1.00  0.00    -0.895 OA 
HETATM    5  C   UNL     1     -10.510  12.620  64.195  1.00  0.00    -0.413 C  
HETATM    6  H   UNL     1     -12.243  10.748  63.816  1.00  0.00     0.000 HD 
ENDROOT
BRANCH   5   7
HETATM    7  N   UNL     1     -10.291  11.629  65.238  1.00  0.00    -0.258 NA 
HETATM    8  H   UNL     1     -10.218  10.636  65.012  1.00  0.00     0.000 HD 
BRANCH   7   9
HETATM    9  C   UNL     1     -10.185  12.068  66.544  1.00  0.00    -0.206 A  
HETATM   10  N   UNL     1     -10.908  11.515  67.504  1.00  0.00    -0.222 NA 
HETATM   11  C   UNL     1     -10.736  12.023  68.725  1.00  0.00    -0.220 A  
HETATM   12  N   UNL     1      -9.300  13.035  66.745  1.00  0.00    -0.240 NA 
HETATM   13  N   UNL     1      -9.879  13.005  69.011  1.00  0.00     0.174 NA 
HETATM   14  C   UNL     1      -9.158  13.455  67.993  1.00  0.00    -0.205 A  
BRANCH  11  15
HETATM   15  C   UNL     1     -11.530  11.464  69.852  1.00  0.00    -0.273 A  
HETATM   16  C   UNL     1     -12.169   9.570  71.098  1.00  0.00    -0.338 A  
HETATM   17  F   UNL     1     -13.270   7.440  71.277  1.00  0.00    -0.373 F  
HETATM   18  N   UNL     1     -11.454  10.121  70.074  1.00  0.00    -0.270 NA 
HETATM   19  C   UNL     1     -12.992  10.341  71.919  1.00  0.00    -0.554 A  
HETATM   20  C   UNL     1     -12.064   8.075  71.372  1.00  0.00    -0.305 C  
HETATM   21  C   UNL     1     -12.330  12.276  70.664  1.00  0.00    -0.375 A  
HETATM   22  C   UNL     1     -13.068  11.709  71.699  1.00  0.00    -0.456 A  
HETATM   23  F   UNL     1     -11.225   7.403  70.535  1.00  0.00    -0.262 F  
HETATM   24  F   UNL     1     -11.617   7.811  72.635  1.00  0.00    -0.338 F  
ENDBRANCH  11  15
BRANCH  14  25
HETATM   25  N   UNL     1      -8.125  14.364  68.229  1.00  0.00    -0.131 NA 
HETATM   26  H   UNL     1      -7.404  14.040  68.874  1.00  0.00     0.000 HD 
BRANCH  25  27
HETATM   27  C   UNL     1      -7.926  15.649  67.717  1.00  0.00    -0.144 A  
HETATM   28  C   UNL     1      -8.795  17.819  67.097  1.00  0.00    -0.246 A  
HETATM   29  C   UNL     1      -8.977  16.569  67.701  1.00  0.00    -0.198 A  
HETATM   30  N   UNL     1      -7.600  18.183  66.548  1.00  0.00    -0.227 NA 
HETATM   31  C   UNL     1      -9.958  18.796  67.002  1.00  0.00    -0.341 C  
HETATM   32  C   UNL     1      -6.599  17.285  66.576  1.00  0.00    -0.248 A  
HETATM   33  F   UNL     1     -10.279  19.120  65.716  1.00  0.00    -0.423 F  
HETATM   34  F   UNL     1     -11.116  18.315  67.550  1.00  0.00    -0.403 F  
HETATM   35  F   UNL     1      -9.722  19.978  67.641  1.00  0.00    -0.430 F  
HETATM   36  C   UNL     1      -6.721  16.021  67.120  1.00  0.00    -0.205 A  
ENDBRANCH  25  27
ENDBRANCH  14  25
ENDBRANCH   7   9
ENDBRANCH   5   7
TORSDOF 5
ENDMDL
MODEL       99
REMARK 921   NORMALIZED FREE ENERGY PREDICTED BY IDOCK:   -6.73 KCAL/MOL
REMARK 922        TOTAL FREE ENERGY PREDICTED BY IDOCK:   -9.86 KCAL/MOL
REMARK 923 INTER-LIGAND FREE ENERGY PREDICTED BY IDOCK:   -8.76 KCAL/MOL
REMARK 924 INTRA-LIGAND FREE ENERGY PREDICTED BY IDOCK:   -1.10 KCAL/MOL
REMARK 927      BINDING AFFINITY PREDICTED BY RF-SCORE:    0.00 PKD
ROOT
HETATM    1  C   UNL     1     -10.682  16.778  67.648  1.00  0.00    -0.305 C  
HETATM    2  C   UNL     1     -10.553  15.404  66.985  1.00  0.00    -0.309 C  
HETATM    3  C   UNL     1      -9.761  15.529  65.678  1.00  0.00    -0.355 C  
HETATM    4  O   UNL     1      -9.817  14.542  67.868  1.00  0.00    -0.217 OA 
HETATM    5  C   UNL     1     -11.964  14.794  66.765  1.00  0.00    -0.192 C  
HETATM    6  H   UNL     1      -9.737  13.690  67.456  1.00  0.00     0.000 HD 
ENDROOT
BRANCH   5   7
HETATM    7  N   UNL     1     -11.864  13.549  66.018  1.00  0.00    -0.359 NA 
HETATM    8  H   UNL     1     -12.020  13.528  65.010  1.00  0.00     0.000 HD 
BRANCH   7   9
HETATM    9  C   UNL     1     -11.553  12.395  66.711  1.00  0.00    -0.379 A  
HETATM   10  N   UNL     1     -10.838  11.438  66.143  1.00  0.00    -0.273 NA 
HETATM   11  C   UNL     1     -10.606  10.362  66.897  1.00  0.00    -0.230 A  
HETATM   12  N   UNL     1     -11.991  12.350  67.962  1.00  0.00    -0.412 NA 
HETATM   13  N   UNL     1     -11.022  10.231  68.157  1.00  0.00    -0.269 NA 
HETATM   14  C   UNL     1     -11.682  11.267  68.658  1.00  0.00    -0.324 A  
BRANCH  11  15
HETATM   15  C   UNL     1      -9.824   9.236  66.318  1.00  0.00    -0.291 A  
HETATM   16  C   UNL     1      -9.439   6.915  66.222  1.00  0.00    -0.070 A  
HETATM   17  F   UNL     1      -8.757   4.849  67.245  1.00  0.00    -0.106 F  
HETATM   18  N   UNL     1     -10.135   7.974  66.729  1.00  0.00    -0.277 NA 
HETATM   19  C   UNL     1      -8.404   7.087  65.303  1.00  0.00    -0.100 A  
HETATM   20  C   UNL     1      -9.802   5.499  66.652  1.00  0.00    -0.170 C  
HETATM   21  C   UNL     1      -8.805   9.451  65.385  1.00  0.00    -0.220 A  
HETATM   22  C   UNL     1      -8.087   8.370  64.880  1.00  0.00    -0.149 A  
HETATM   23  F   UNL     1     -10.837   5.422  67.535  1.00  0.00    -0.262 F  
HETATM   24  F   UNL     1     -10.160   4.713  65.593  1.00  0.00    -0.181 F  
ENDBRANCH  11  15
BRANCH  14  25
HETATM   25  N   UNL     1     -12.013  11.284  70.014  1.00  0.00    -0.337 NA 
HETATM   26  H   UNL     1     -12.035  12.211  70.440  1.00  0.00     0.000 HD 
BRANCH  25  27
HETATM   27  C   UNL     1     -12.318  10.229  70.878  1.00  0.00    -0.373 A  
HETATM   28  C   UNL     1     -11.613   8.343  72.217  1.00  0.00    -0.383 A  
HETATM   29  C   UNL     1     -11.294   9.458  71.433  1.00  0.00    -0.451 A  
HETATM   30  N   UNL     1     -12.906   8.003  72.487  1.00  0.00    -0.095 NA 
HETATM   31  C   UNL     1     -10.506   7.450  72.758  1.00  0.00    -0.275 C  
HETATM   32  C   UNL     1     -13.879   8.759  71.946  1.00  0.00    -0.442 A  
HETATM   33  F   UNL     1     -10.598   6.161  72.321  1.00  0.00    -0.217 F  
HETATM   34  F   UNL     1      -9.252   7.861  72.397  1.00  0.00    -0.168 F  
HETATM   35  F   UNL     1     -10.484   7.385  74.121  1.00  0.00    -0.345 F  
HETATM   36  C   UNL     1     -13.636   9.849  71.132  1.00  0.00    -0.223 A  
ENDBRANCH  25  27
ENDBRANCH  14  25
ENDBRANCH   7   9
ENDBRANCH   5   7
TORSDOF 5
ENDMDL
MODEL      100
REMARK 921   NORMALIZED FREE ENERGY PREDICTED BY IDOCK:   -6.72 KCAL/MOL
REMARK 922        TOTAL FREE ENERGY PREDICTED BY IDOCK:   -9.85 KCAL/MOL
REMARK 923 INTER-LIGAND FREE ENERGY PREDICTED BY IDOCK:   -8.66 KCAL/MOL
REMARK 924 INTRA-LIGAND FREE ENERGY PREDICTED BY IDOCK:   -1.19 KCAL/MOL
REMARK 927      BINDING AFFINITY PREDICTED BY RF-SCORE:    0.00 PKD
ROOT
HETATM    1  C   UNL     1      -8.269   3.370  68.255  1.00  0.00    -0.088 C  
HETATM    2  C   UNL     1      -8.640   4.376  67.161  1.00  0.00    -0.104 C  
HETATM    3  C   UNL     1      -8.563   3.702  65.786  1.00  0.00    -0.114 C  
HETATM    4  O   UNL     1      -9.997   4.796  67.373  1.00  0.00    -0.179 OA 
HETATM    5  C   UNL     1      -7.718   5.621  67.262  1.00  0.00    -0.101 C  
HETATM    6  H   UNL     1     -10.226   5.420  66.695  1.00  0.00     0.000 HD 
ENDROOT
BRANCH   5   7
HETATM    7  N   UNL     1      -7.970   6.527  66.151  1.00  0.00    -0.105 NA 
HETATM    8  H   UNL     1      -7.575   6.346  65.227  1.00  0.00     0.000 HD 
BRANCH   7   9
HETATM    9  C   UNL     1      -8.758   7.638  66.380  1.00  0.00    -0.151 A  
HETATM   10  N   UNL     1      -9.311   7.842  67.565  1.00  0.00    -0.138 NA 
HETATM   11  C   UNL     1     -10.062   8.939  67.672  1.00  0.00    -0.218 A  
HETATM   12  N   UNL     1      -8.879   8.468  65.352  1.00  0.00    -0.164 NA 
HETATM   13  N   UNL     1     -10.247   9.817  66.686  1.00  0.00    -0.233 NA 
HETATM   14  C   UNL     1      -9.606   9.556  65.555  1.00  0.00    -0.279 A  
BRANCH  11  15
HETATM   15  C   UNL     1     -10.731   9.224  68.971  1.00  0.00    -0.167 A  
HETATM   16  C   UNL     1     -11.667   8.383  70.962  1.00  0.00    -0.267 A  
HETATM   17  F   UNL     1     -13.337   7.106  72.128  1.00  0.00    -0.269 F  
HETATM   18  N   UNL     1     -11.051   8.162  69.764  1.00  0.00    -0.127 NA 
HETATM   19  C   UNL     1     -11.995   9.668  71.394  1.00  0.00    -0.480 A  
HETATM   20  C   UNL     1     -12.000   7.204  71.867  1.00  0.00    -0.307 C  
HETATM   21  C   UNL     1     -11.026  10.530  69.375  1.00  0.00    -0.297 A  
HETATM   22  C   UNL     1     -11.666  10.752  70.591  1.00  0.00    -0.442 A  
HETATM   23  F   UNL     1     -11.627   5.989  71.376  1.00  0.00    -0.344 F  
HETATM   24  F   UNL     1     -11.400   7.308  73.091  1.00  0.00    -0.319 F  
ENDBRANCH  11  15
BRANCH  14  25
HETATM   25  N   UNL     1      -9.610  10.500  64.526  1.00  0.00    -0.273 NA 
HETATM   26  H   UNL     1      -8.960  10.309  63.763  1.00  0.00     0.000 HD 
BRANCH  25  27
HETATM   27  C   UNL     1     -10.366  11.666  64.380  1.00  0.00    -0.313 A  
HETATM   28  C   UNL     1     -10.881  13.931  65.055  1.00  0.00    -0.382 A  
HETATM   29  C   UNL     1     -10.058  12.801  65.135  1.00  0.00    -0.246 A  
HETATM   30  N   UNL     1     -11.966  13.971  64.228  1.00  0.00    -0.442 NA 
HETATM   31  C   UNL     1     -10.601  15.141  65.934  1.00  0.00    -0.337 C  
HETATM   32  C   UNL     1     -12.243  12.870  63.506  1.00  0.00    -0.512 A  
HETATM   33  F   UNL     1     -11.635  15.442  66.772  1.00  0.00    -0.271 F  
HETATM   34  F   UNL     1      -9.515  14.979  66.751  1.00  0.00    -0.210 F  
HETATM   35  F   UNL     1     -10.350  16.277  65.222  1.00  0.00    -0.357 F  
HETATM   36  C   UNL     1     -11.497  11.708  63.566  1.00  0.00    -0.427 A  
ENDBRANCH  25  27
ENDBRANCH  14  25
ENDBRANCH   7   9
ENDBRANCH   5   7
TORSDOF 5
ENDMDL
MODEL      101
REMARK 921   NORMALIZED FREE ENERGY PREDICTED BY IDOCK:   -6.72 KCAL/MOL
REMARK 922        TOTAL FREE ENERGY PREDICTED BY IDOCK:   -9.84 KCAL/MOL
REMARK 923 INTER-LIGAND FREE ENERGY PREDICTED BY IDOCK:   -8.65 KCAL/MOL
REMARK 924 INTRA-LIGAND FREE ENERGY PREDICTED BY IDOCK:   -1.19 KCAL/MOL
REMARK 927      BINDING AFFINITY PREDICTED BY RF-SCORE:    0.00 PKD
ROOT
HETATM    1  C   UNL     1     -13.447   8.999  71.907  1.00  0.00    -0.481 C  
HETATM    2  C   UNL     1     -12.029   8.883  71.341  1.00  0.00    -0.311 C  
HETATM    3  C   UNL     1     -11.070   8.401  72.436  1.00  0.00    -0.431 C  
HETATM    4  O   UNL     1     -12.038   7.898  70.296  1.00  0.00    -0.462 OA 
HETATM    5  C   UNL     1     -11.596  10.244  70.731  1.00  0.00    -0.355 C  
HETATM    6  H   UNL     1     -11.157   7.827  69.945  1.00  0.00     0.000 HD 
ENDROOT
BRANCH   5   7
HETATM    7  N   UNL     1     -10.204  10.187  70.308  1.00  0.00    -0.411 NA 
HETATM    8  H   UNL     1      -9.448  10.401  70.960  1.00  0.00     0.000 HD 
BRANCH   7   9
HETATM    9  C   UNL     1      -9.934   9.835  69.000  1.00  0.00    -0.184 A  
HETATM   10  N   UNL     1     -10.240  10.650  68.004  1.00  0.00    -0.169 NA 
HETATM   11  C   UNL     1      -9.947  10.206  66.781  1.00  0.00    -0.211 A  
HETATM   12  N   UNL     1      -9.331   8.664  68.842  1.00  0.00    -0.145 NA 
HETATM   13  N   UNL     1      -9.355   9.037  66.533  1.00  0.00    -0.175 NA 
HETATM   14  C   UNL     1      -9.034   8.316  67.599  1.00  0.00    -0.135 A  
BRANCH  11  15
HETATM   15  C   UNL     1     -10.280  11.061  65.610  1.00  0.00    -0.260 A  
HETATM   16  C   UNL     1     -11.044  13.139  64.807  1.00  0.00    -0.330 A  
HETATM   17  F   UNL     1     -12.762  14.805  64.576  1.00  0.00    -0.445 F  
HETATM   18  N   UNL     1     -10.727  12.326  65.856  1.00  0.00    -0.251 NA 
HETATM   19  C   UNL     1     -10.940  12.709  63.484  1.00  0.00    -0.413 A  
HETATM   20  C   UNL     1     -11.513  14.564  65.074  1.00  0.00    -0.382 C  
HETATM   21  C   UNL     1     -10.145  10.596  64.297  1.00  0.00    -0.411 A  
HETATM   22  C   UNL     1     -10.482  11.424  63.230  1.00  0.00    -0.397 A  
HETATM   23  F   UNL     1     -11.566  14.906  66.391  1.00  0.00    -0.351 F  
HETATM   24  F   UNL     1     -10.704  15.493  64.482  1.00  0.00    -0.405 F  
ENDBRANCH  11  15
BRANCH  14  25
HETATM   25  N   UNL     1      -8.269   7.158  67.445  1.00  0.00    -0.115 NA 
HETATM   26  H   UNL     1      -7.266   7.283  67.582  1.00  0.00     0.000 HD 
BRANCH  25  27
HETATM   27  C   UNL     1      -8.665   5.855  67.132  1.00  0.00    -0.108 A  
HETATM   28  C   UNL     1      -9.429   4.225  65.517  1.00  0.00    -0.176 A  
HETATM   29  C   UNL     1      -8.939   5.504  65.808  1.00  0.00    -0.158 A  
HETATM   30  N   UNL     1      -9.617   3.290  66.494  1.00  0.00    -0.081 NA 
HETATM   31  C   UNL     1      -9.808   3.861  64.089  1.00  0.00    -0.181 C  
HETATM   32  C   UNL     1      -9.344   3.646  67.762  1.00  0.00    -0.194 A  
HETATM   33  F   UNL     1     -11.121   3.515  63.957  1.00  0.00    -0.269 F  
HETATM   34  F   UNL     1      -9.615   4.882  63.200  1.00  0.00    -0.048 F  
HETATM   35  F   UNL     1      -9.091   2.811  63.593  1.00  0.00    -0.095 F  
HETATM   36  C   UNL     1      -8.895   4.902  68.124  1.00  0.00    -0.113 A  
ENDBRANCH  25  27
ENDBRANCH  14  25
ENDBRANCH   7   9
ENDBRANCH   5   7
TORSDOF 5
ENDMDL
MODEL      102
REMARK 921   NORMALIZED FREE ENERGY PREDICTED BY IDOCK:   -6.71 KCAL/MOL
REMARK 922        TOTAL FREE ENERGY PREDICTED BY IDOCK:   -9.84 KCAL/MOL
REMARK 923 INTER-LIGAND FREE ENERGY PREDICTED BY IDOCK:   -8.88 KCAL/MOL
REMARK 924 INTRA-LIGAND FREE ENERGY PREDICTED BY IDOCK:   -0.96 KCAL/MOL
REMARK 927      BINDING AFFINITY PREDICTED BY RF-SCORE:    0.00 PKD
ROOT
HETATM    1  C   UNL     1     -13.494   8.854  72.332  1.00  0.00    -0.499 C  
HETATM    2  C   UNL     1     -12.181   8.887  71.543  1.00  0.00    -0.327 C  
HETATM    3  C   UNL     1     -11.025   8.425  72.438  1.00  0.00    -0.425 C  
HETATM    4  O   UNL     1     -12.288   7.964  70.448  1.00  0.00    -0.426 OA 
HETATM    5  C   UNL     1     -11.952  10.310  70.968  1.00  0.00    -0.385 C  
HETATM    6  H   UNL     1     -11.473   7.985  69.959  1.00  0.00     0.000 HD 
ENDROOT
BRANCH   5   7
HETATM    7  N   UNL     1     -10.647  10.392  70.328  1.00  0.00    -0.447 NA 
HETATM    8  H   UNL     1      -9.789  10.290  70.871  1.00  0.00     0.000 HD 
BRANCH   7   9
HETATM    9  C   UNL     1     -10.601  10.611  68.965  1.00  0.00    -0.219 A  
HETATM   10  N   UNL     1     -10.633  11.841  68.477  1.00  0.00    -0.210 NA 
HETATM   11  C   UNL     1     -10.596  11.938  67.148  1.00  0.00    -0.231 A  
HETATM   12  N   UNL     1     -10.491   9.520  68.219  1.00  0.00    -0.214 NA 
HETATM   13  N   UNL     1     -10.500  10.892  66.325  1.00  0.00    -0.256 NA 
HETATM   14  C   UNL     1     -10.416   9.705  66.910  1.00  0.00    -0.212 A  
BRANCH  11  15
HETATM   15  C   UNL     1     -10.648  13.288  66.526  1.00  0.00    -0.286 A  
HETATM   16  C   UNL     1     -10.357  15.613  66.773  1.00  0.00    -0.287 A  
HETATM   17  F   UNL     1     -10.971  17.719  67.755  1.00  0.00    -0.381 F  
HETATM   18  N   UNL     1     -10.319  14.357  67.307  1.00  0.00    -0.259 NA 
HETATM   19  C   UNL     1     -10.736  15.839  65.450  1.00  0.00    -0.420 A  
HETATM   20  C   UNL     1      -9.961  16.808  67.630  1.00  0.00    -0.262 C  
HETATM   21  C   UNL     1     -11.017  13.470  65.189  1.00  0.00    -0.328 A  
HETATM   22  C   UNL     1     -11.067  14.753  64.651  1.00  0.00    -0.337 A  
HETATM   23  F   UNL     1      -9.585  16.495  68.901  1.00  0.00    -0.222 F  
HETATM   24  F   UNL     1      -8.913  17.503  67.095  1.00  0.00    -0.224 F  
ENDBRANCH  11  15
BRANCH  14  25
HETATM   25  N   UNL     1     -10.151   8.572  66.138  1.00  0.00    -0.448 NA 
HETATM   26  H   UNL     1     -10.490   8.616  65.177  1.00  0.00     0.000 HD 
BRANCH  25  27
HETATM   27  C   UNL     1      -9.491   7.388  66.477  1.00  0.00    -0.172 A  
HETATM   28  C   UNL     1      -9.207   5.494  67.954  1.00  0.00    -0.108 A  
HETATM   29  C   UNL     1      -9.933   6.625  67.562  1.00  0.00    -0.171 A  
HETATM   30  N   UNL     1      -8.090   5.090  67.283  1.00  0.00    -0.106 NA 
HETATM   31  C   UNL     1      -9.633   4.705  69.183  1.00  0.00    -0.175 C  
HETATM   32  C   UNL     1      -7.683   5.835  66.239  1.00  0.00    -0.099 A  
HETATM   33  F   UNL     1      -8.672   4.663  70.151  1.00  0.00    -0.081 F  
HETATM   34  F   UNL     1     -10.741   5.218  69.801  1.00  0.00    -0.363 F  
HETATM   35  F   UNL     1      -9.946   3.405  68.907  1.00  0.00    -0.158 F  
HETATM   36  C   UNL     1      -8.328   6.984  65.822  1.00  0.00    -0.143 A  
ENDBRANCH  25  27
ENDBRANCH  14  25
ENDBRANCH   7   9
ENDBRANCH   5   7
TORSDOF 5
ENDMDL
MODEL      103
REMARK 921   NORMALIZED FREE ENERGY PREDICTED BY IDOCK:   -6.69 KCAL/MOL
REMARK 922        TOTAL FREE ENERGY PREDICTED BY IDOCK:   -9.81 KCAL/MOL
REMARK 923 INTER-LIGAND FREE ENERGY PREDICTED BY IDOCK:   -8.64 KCAL/MOL
REMARK 924 INTRA-LIGAND FREE ENERGY PREDICTED BY IDOCK:   -1.17 KCAL/MOL
REMARK 927      BINDING AFFINITY PREDICTED BY RF-SCORE:    0.00 PKD
ROOT
HETATM    1  C   UNL     1     -11.063   4.361  73.197  1.00  0.00    -0.326 C  
HETATM    2  C   UNL     1     -10.608   5.818  73.067  1.00  0.00    -0.242 C  
HETATM    3  C   UNL     1     -10.162   6.348  74.434  1.00  0.00    -0.343 C  
HETATM    4  O   UNL     1      -9.476   5.862  72.184  1.00  0.00    -0.150 OA 
HETATM    5  C   UNL     1     -11.749   6.669  72.446  1.00  0.00    -0.225 C  
HETATM    6  H   UNL     1      -9.194   6.766  72.104  1.00  0.00     0.000 HD 
ENDROOT
BRANCH   5   7
HETATM    7  N   UNL     1     -11.381   8.077  72.437  1.00  0.00    -0.354 NA 
HETATM    8  H   UNL     1     -11.252   8.591  73.309  1.00  0.00     0.000 HD 
BRANCH   7   9
HETATM    9  C   UNL     1     -11.209   8.699  71.216  1.00  0.00    -0.276 A  
HETATM   10  N   UNL     1     -11.519   9.976  71.059  1.00  0.00    -0.374 NA 
HETATM   11  C   UNL     1     -11.326  10.472  69.836  1.00  0.00    -0.309 A  
HETATM   12  N   UNL     1     -10.694   7.938  70.260  1.00  0.00    -0.233 NA 
HETATM   13  N   UNL     1     -10.827   9.773  68.816  1.00  0.00    -0.212 NA 
HETATM   14  C   UNL     1     -10.493   8.518  69.087  1.00  0.00    -0.205 A  
BRANCH  11  15
HETATM   15  C   UNL     1     -11.671  11.897  69.579  1.00  0.00    -0.345 A  
HETATM   16  C   UNL     1     -11.889  13.648  68.019  1.00  0.00    -0.362 A  
HETATM   17  F   UNL     1     -10.942  15.181  66.427  1.00  0.00    -0.318 F  
HETATM   18  N   UNL     1     -11.583  12.347  68.294  1.00  0.00    -0.312 NA 
HETATM   19  C   UNL     1     -12.276  14.541  69.018  1.00  0.00    -0.215 A  
HETATM   20  C   UNL     1     -11.825  14.150  66.582  1.00  0.00    -0.424 C  
HETATM   21  C   UNL     1     -12.071  12.755  70.608  1.00  0.00    -0.316 A  
HETATM   22  C   UNL     1     -12.370  14.085  70.326  1.00  0.00    -0.425 A  
HETATM   23  F   UNL     1     -11.458  13.207  65.668  1.00  0.00    -0.316 F  
HETATM   24  F   UNL     1     -13.026  14.636  66.149  1.00  0.00    -0.239 F  
ENDBRANCH  11  15
BRANCH  14  25
HETATM   25  N   UNL     1      -9.814   7.763  68.129  1.00  0.00    -0.161 NA 
HETATM   26  H   UNL     1      -9.865   6.752  68.260  1.00  0.00     0.000 HD 
BRANCH  25  27
HETATM   27  C   UNL     1      -9.076   8.177  67.016  1.00  0.00    -0.143 A  
HETATM   28  C   UNL     1      -8.934   9.376  64.921  1.00  0.00    -0.209 A  
HETATM   29  C   UNL     1      -9.644   9.046  66.082  1.00  0.00    -0.341 A  
HETATM   30  N   UNL     1      -7.677   8.897  64.689  1.00  0.00    -0.111 NA 
HETATM   31  C   UNL     1      -9.577  10.257  63.859  1.00  0.00    -0.293 C  
HETATM   32  C   UNL     1      -7.146   8.064  65.602  1.00  0.00    -0.063 A  
HETATM   33  F   UNL     1      -9.685   9.638  62.648  1.00  0.00    -0.210 F  
HETATM   34  F   UNL     1     -10.848  10.649  64.177  1.00  0.00    -0.394 F  
HETATM   35  F   UNL     1      -8.890  11.413  63.631  1.00  0.00    -0.088 F  
HETATM   36  C   UNL     1      -7.806   7.666  66.749  1.00  0.00    -0.107 A  
ENDBRANCH  25  27
ENDBRANCH  14  25
ENDBRANCH   7   9
ENDBRANCH   5   7
TORSDOF 5
ENDMDL
MODEL      104
REMARK 921   NORMALIZED FREE ENERGY PREDICTED BY IDOCK:   -6.68 KCAL/MOL
REMARK 922        TOTAL FREE ENERGY PREDICTED BY IDOCK:   -9.80 KCAL/MOL
REMARK 923 INTER-LIGAND FREE ENERGY PREDICTED BY IDOCK:   -8.93 KCAL/MOL
REMARK 924 INTRA-LIGAND FREE ENERGY PREDICTED BY IDOCK:   -0.88 KCAL/MOL
REMARK 927      BINDING AFFINITY PREDICTED BY RF-SCORE:    0.00 PKD
ROOT
HETATM    1  C   UNL     1      -9.538   4.339  68.472  1.00  0.00    -0.202 C  
HETATM    2  C   UNL     1      -9.329   5.635  69.262  1.00  0.00    -0.121 C  
HETATM    3  C   UNL     1      -8.391   5.376  70.446  1.00  0.00    -0.113 C  
HETATM    4  O   UNL     1      -8.698   6.594  68.399  1.00  0.00    -0.123 OA 
HETATM    5  C   UNL     1     -10.703   6.203  69.708  1.00  0.00    -0.310 C  
HETATM    6  H   UNL     1      -8.569   7.398  68.889  1.00  0.00     0.000 HD 
ENDROOT
BRANCH   5   7
HETATM    7  N   UNL     1     -10.514   7.361  70.570  1.00  0.00    -0.215 NA 
HETATM    8  H   UNL     1     -10.123   7.259  71.507  1.00  0.00     0.000 HD 
BRANCH   7   9
HETATM    9  C   UNL     1     -10.879   8.602  70.085  1.00  0.00    -0.233 A  
HETATM   10  N   UNL     1     -10.630   8.937  68.829  1.00  0.00    -0.194 NA 
HETATM   11  C   UNL     1     -11.013  10.163  68.470  1.00  0.00    -0.232 A  
HETATM   12  N   UNL     1     -11.509   9.385  70.951  1.00  0.00    -0.293 NA 
HETATM   13  N   UNL     1     -11.639  11.017  69.281  1.00  0.00    -0.285 NA 
HETATM   14  C   UNL     1     -11.895  10.570  70.503  1.00  0.00    -0.347 A  
BRANCH  11  15
HETATM   15  C   UNL     1     -10.749  10.617  67.078  1.00  0.00    -0.259 A  
HETATM   16  C   UNL     1      -9.619  10.261  65.042  1.00  0.00    -0.285 A  
HETATM   17  F   UNL     1      -7.594  10.123  63.753  1.00  0.00    -0.138 F  
HETATM   18  N   UNL     1      -9.888   9.875  66.323  1.00  0.00    -0.228 NA 
HETATM   19  C   UNL     1     -10.189  11.404  64.482  1.00  0.00    -0.352 A  
HETATM   20  C   UNL     1      -8.684   9.419  64.183  1.00  0.00    -0.198 C  
HETATM   21  C   UNL     1     -11.355  11.761  66.549  1.00  0.00    -0.370 A  
HETATM   22  C   UNL     1     -11.068  12.159  65.246  1.00  0.00    -0.367 A  
HETATM   23  F   UNL     1      -8.189   8.311  64.801  1.00  0.00    -0.132 F  
HETATM   24  F   UNL     1      -9.292   8.968  63.046  1.00  0.00    -0.079 F  
ENDBRANCH  11  15
BRANCH  14  25
HETATM   25  N   UNL     1     -12.687  11.331  71.365  1.00  0.00    -0.406 NA 
HETATM   26  H   UNL     1     -13.135  10.807  72.116  1.00  0.00     0.000 HD 
BRANCH  25  27
HETATM   27  C   UNL     1     -12.960  12.702  71.357  1.00  0.00    -0.258 A  
HETATM   28  C   UNL     1     -12.422  14.945  70.630  1.00  0.00    -0.352 A  
HETATM   29  C   UNL     1     -12.206  13.563  70.556  1.00  0.00    -0.433 A  
HETATM   30  N   UNL     1     -13.379  15.479  71.443  1.00  0.00    -0.510 NA 
HETATM   31  C   UNL     1     -11.550  15.896  69.823  1.00  0.00    -0.338 C  
HETATM   32  C   UNL     1     -14.097  14.633  72.204  1.00  0.00    -0.510 A  
HETATM   33  F   UNL     1     -10.858  16.776  70.603  1.00  0.00    -0.209 F  
HETATM   34  F   UNL     1     -10.600  15.257  69.074  1.00  0.00    -0.214 F  
HETATM   35  F   UNL     1     -12.258  16.654  68.937  1.00  0.00     0.020 F  
HETATM   36  C   UNL     1     -13.910  13.263  72.210  1.00  0.00    -0.637 A  
ENDBRANCH  25  27
ENDBRANCH  14  25
ENDBRANCH   7   9
ENDBRANCH   5   7
TORSDOF 5
ENDMDL
MODEL      105
REMARK 921   NORMALIZED FREE ENERGY PREDICTED BY IDOCK:   -6.68 KCAL/MOL
REMARK 922        TOTAL FREE ENERGY PREDICTED BY IDOCK:   -9.80 KCAL/MOL
REMARK 923 INTER-LIGAND FREE ENERGY PREDICTED BY IDOCK:   -8.56 KCAL/MOL
REMARK 924 INTRA-LIGAND FREE ENERGY PREDICTED BY IDOCK:   -1.24 KCAL/MOL
REMARK 927      BINDING AFFINITY PREDICTED BY RF-SCORE:    0.00 PKD
ROOT
HETATM    1  C   UNL     1      -6.472   9.117  62.658  1.00  0.00    -0.094 C  
HETATM    2  C   UNL     1      -6.779   9.144  64.159  1.00  0.00    -0.088 C  
HETATM    3  C   UNL     1      -5.754   8.290  64.915  1.00  0.00    -0.044 C  
HETATM    4  O   UNL     1      -6.653  10.498  64.621  1.00  0.00    -0.313 OA 
HETATM    5  C   UNL     1      -8.238   8.673  64.403  1.00  0.00    -0.162 C  
HETATM    6  H   UNL     1      -6.844  10.515  65.552  1.00  0.00     0.000 HD 
ENDROOT
BRANCH   5   7
HETATM    7  N   UNL     1      -8.501   8.569  65.831  1.00  0.00    -0.143 NA 
HETATM    8  H   UNL     1      -7.966   7.928  66.418  1.00  0.00     0.000 HD 
BRANCH   7   9
HETATM    9  C   UNL     1      -9.496   9.361  66.371  1.00  0.00    -0.201 A  
HETATM   10  N   UNL     1      -9.894   9.187  67.621  1.00  0.00    -0.163 NA 
HETATM   11  C   UNL     1     -10.869   9.998  68.036  1.00  0.00    -0.260 A  
HETATM   12  N   UNL     1      -9.975  10.298  65.563  1.00  0.00    -0.286 NA 
HETATM   13  N   UNL     1     -11.415  10.955  67.284  1.00  0.00    -0.451 NA 
HETATM   14  C   UNL     1     -10.910  11.089  66.065  1.00  0.00    -0.122 A  
BRANCH  11  15
HETATM   15  C   UNL     1     -11.382   9.849  69.424  1.00  0.00    -0.095 A  
HETATM   16  C   UNL     1     -11.275   8.705  71.481  1.00  0.00    -0.290 A  
HETATM   17  F   UNL     1     -11.547   6.712  72.799  1.00  0.00    -0.269 F  
HETATM   18  N   UNL     1     -10.830   8.873  70.201  1.00  0.00    -0.230 NA 
HETATM   19  C   UNL     1     -12.293   9.494  72.016  1.00  0.00    -0.404 A  
HETATM   20  C   UNL     1     -10.641   7.638  72.365  1.00  0.00    -0.260 C  
HETATM   21  C   UNL     1     -12.393  10.674  69.928  1.00  0.00    -0.304 A  
HETATM   22  C   UNL     1     -12.854  10.490  71.229  1.00  0.00    -0.532 A  
HETATM   23  F   UNL     1      -9.642   6.928  71.769  1.00  0.00    -0.160 F  
HETATM   24  F   UNL     1     -10.093   8.166  73.500  1.00  0.00    -0.354 F  
ENDBRANCH  11  15
BRANCH  14  25
HETATM   25  N   UNL     1     -11.305  12.166  65.269  1.00  0.00    -0.333 NA 
HETATM   26  H   UNL     1     -12.019  11.949  64.574  1.00  0.00     0.000 HD 
BRANCH  25  27
HETATM   27  C   UNL     1     -10.874  13.495  65.278  1.00  0.00    -0.310 A  
HETATM   28  C   UNL     1      -9.427  15.226  66.151  1.00  0.00    -0.326 A  
HETATM   29  C   UNL     1      -9.789  13.876  66.073  1.00  0.00    -0.306 A  
HETATM   30  N   UNL     1     -10.086  16.187  65.441  1.00  0.00    -0.521 NA 
HETATM   31  C   UNL     1      -8.300  15.660  67.076  1.00  0.00    -0.228 C  
HETATM   32  C   UNL     1     -11.125  15.801  64.678  1.00  0.00    -0.361 A  
HETATM   33  F   UNL     1      -8.706  16.547  68.031  1.00  0.00    -0.179 F  
HETATM   34  F   UNL     1      -7.736  14.623  67.767  1.00  0.00    -0.108 F  
HETATM   35  F   UNL     1      -7.266  16.261  66.420  1.00  0.00    -0.248 F  
HETATM   36  C   UNL     1     -11.561  14.492  64.586  1.00  0.00    -0.413 A  
ENDBRANCH  25  27
ENDBRANCH  14  25
ENDBRANCH   7   9
ENDBRANCH   5   7
TORSDOF 5
ENDMDL
MODEL      106
REMARK 921   NORMALIZED FREE ENERGY PREDICTED BY IDOCK:   -6.67 KCAL/MOL
REMARK 922        TOTAL FREE ENERGY PREDICTED BY IDOCK:   -9.78 KCAL/MOL
REMARK 923 INTER-LIGAND FREE ENERGY PREDICTED BY IDOCK:   -8.58 KCAL/MOL
REMARK 924 INTRA-LIGAND FREE ENERGY PREDICTED BY IDOCK:   -1.20 KCAL/MOL
REMARK 927      BINDING AFFINITY PREDICTED BY RF-SCORE:    0.00 PKD
ROOT
HETATM    1  C   UNL     1      -8.961   9.427  62.350  1.00  0.00    -0.258 C  
HETATM    2  C   UNL     1      -8.162   9.783  63.608  1.00  0.00    -0.158 C  
HETATM    3  C   UNL     1      -6.670   9.528  63.365  1.00  0.00    -0.102 C  
HETATM    4  O   UNL     1      -8.335  11.184  63.872  1.00  0.00    -0.355 OA 
HETATM    5  C   UNL     1      -8.710   8.982  64.819  1.00  0.00    -0.153 C  
HETATM    6  H   UNL     1      -7.839  11.404  64.652  1.00  0.00     0.000 HD 
ENDROOT
BRANCH   5   7
HETATM    7  N   UNL     1      -7.878   9.210  65.992  1.00  0.00    -0.101 NA 
HETATM    8  H   UNL     1      -6.922   8.856  66.034  1.00  0.00     0.000 HD 
BRANCH   7   9
HETATM    9  C   UNL     1      -8.418   9.919  67.047  1.00  0.00    -0.121 A  
HETATM   10  N   UNL     1      -9.139  11.008  66.831  1.00  0.00    -0.154 NA 
HETATM   11  C   UNL     1      -9.601  11.622  67.921  1.00  0.00    -0.180 A  
HETATM   12  N   UNL     1      -8.184   9.411  68.250  1.00  0.00    -0.117 NA 
HETATM   13  N   UNL     1      -9.401  11.186  69.165  1.00  0.00    -0.041 NA 
HETATM   14  C   UNL     1      -8.715  10.056  69.277  1.00  0.00    -0.177 A  
BRANCH  11  15
HETATM   15  C   UNL     1     -10.405  12.863  67.757  1.00  0.00    -0.222 A  
HETATM   16  C   UNL     1     -11.177  14.881  68.695  1.00  0.00    -0.275 A  
HETATM   17  F   UNL     1     -12.467  16.087  70.327  1.00  0.00    -0.372 F  
HETATM   18  N   UNL     1     -10.449  13.732  68.807  1.00  0.00    -0.237 NA 
HETATM   19  C   UNL     1     -11.894  15.188  67.539  1.00  0.00    -0.113 A  
HETATM   20  C   UNL     1     -11.204  15.871  69.853  1.00  0.00    -0.348 C  
HETATM   21  C   UNL     1     -11.097  13.142  66.573  1.00  0.00    -0.317 A  
HETATM   22  C   UNL     1     -11.849  14.308  66.467  1.00  0.00    -0.433 A  
HETATM   23  F   UNL     1     -10.461  15.502  70.933  1.00  0.00    -0.325 F  
HETATM   24  F   UNL     1     -10.740  17.104  69.489  1.00  0.00    -0.322 F  
ENDBRANCH  11  15
BRANCH  14  25
HETATM   25  N   UNL     1      -8.596   9.441  70.525  1.00  0.00    -0.221 NA 
HETATM   26  H   UNL     1      -7.647   9.392  70.893  1.00  0.00     0.000 HD 
BRANCH  25  27
HETATM   27  C   UNL     1      -9.578   8.883  71.348  1.00  0.00    -0.289 A  
HETATM   28  C   UNL     1     -11.901   8.646  71.979  1.00  0.00    -0.372 A  
HETATM   29  C   UNL     1     -10.930   9.128  71.093  1.00  0.00    -0.390 A  
HETATM   30  N   UNL     1     -11.566   7.908  73.077  1.00  0.00    -0.265 NA 
HETATM   31  C   UNL     1     -13.369   8.978  71.754  1.00  0.00    -0.397 C  
HETATM   32  C   UNL     1     -10.260   7.679  73.303  1.00  0.00    -0.339 A  
HETATM   33  F   UNL     1     -13.924   9.670  72.791  1.00  0.00    -0.371 F  
HETATM   34  F   UNL     1     -13.587   9.753  70.649  1.00  0.00    -0.344 F  
HETATM   35  F   UNL     1     -14.150   7.872  71.579  1.00  0.00    -0.391 F  
HETATM   36  C   UNL     1      -9.248   8.157  72.492  1.00  0.00    -0.319 A  
ENDBRANCH  25  27
ENDBRANCH  14  25
ENDBRANCH   7   9
ENDBRANCH   5   7
TORSDOF 5
ENDMDL
MODEL      107
REMARK 921   NORMALIZED FREE ENERGY PREDICTED BY IDOCK:   -6.66 KCAL/MOL
REMARK 922        TOTAL FREE ENERGY PREDICTED BY IDOCK:   -9.76 KCAL/MOL
REMARK 923 INTER-LIGAND FREE ENERGY PREDICTED BY IDOCK:   -8.87 KCAL/MOL
REMARK 924 INTRA-LIGAND FREE ENERGY PREDICTED BY IDOCK:   -0.89 KCAL/MOL
REMARK 927      BINDING AFFINITY PREDICTED BY RF-SCORE:    0.00 PKD
ROOT
HETATM    1  C   UNL     1      -9.503  19.869  68.363  1.00  0.00    -0.368 C  
HETATM    2  C   UNL     1      -9.271  18.509  67.697  1.00  0.00    -0.281 C  
HETATM    3  C   UNL     1      -8.329  18.671  66.499  1.00  0.00    -0.304 C  
HETATM    4  O   UNL     1      -8.633  17.642  68.648  1.00  0.00    -0.290 OA 
HETATM    5  C   UNL     1     -10.634  17.883  67.298  1.00  0.00    -0.332 C  
HETATM    6  H   UNL     1      -8.490  16.799  68.235  1.00  0.00     0.000 HD 
ENDROOT
BRANCH   5   7
HETATM    7  N   UNL     1     -10.424  16.654  66.547  1.00  0.00    -0.290 NA 
HETATM    8  H   UNL     1     -10.322  16.670  65.532  1.00  0.00     0.000 HD 
BRANCH   7   9
HETATM    9  C   UNL     1     -10.367  15.464  67.246  1.00  0.00    -0.271 A  
HETATM   10  N   UNL     1     -11.129  15.267  68.310  1.00  0.00    -0.286 NA 
HETATM   11  C   UNL     1     -10.984  14.089  68.916  1.00  0.00    -0.259 A  
HETATM   12  N   UNL     1      -9.532  14.557  66.754  1.00  0.00    -0.257 NA 
HETATM   13  N   UNL     1     -10.159  13.129  68.496  1.00  0.00    -0.229 NA 
HETATM   14  C   UNL     1      -9.479  13.397  67.390  1.00  0.00    -0.222 A  
BRANCH  11  15
HETATM   15  C   UNL     1     -11.796  13.803  70.131  1.00  0.00    -0.290 A  
HETATM   16  C   UNL     1     -12.662  14.575  72.181  1.00  0.00    -0.333 A  
HETATM   17  F   UNL     1     -12.359  15.356  74.434  1.00  0.00    -0.627 F  
HETATM   18  N   UNL     1     -11.926  14.799  71.053  1.00  0.00    -0.313 NA 
HETATM   19  C   UNL     1     -13.275  13.347  72.427  1.00  0.00    -0.564 A  
HETATM   20  C   UNL     1     -12.838  15.693  73.200  1.00  0.00    -0.509 C  
HETATM   21  C   UNL     1     -12.410  12.562  70.331  1.00  0.00    -0.311 A  
HETATM   22  C   UNL     1     -13.148  12.332  71.489  1.00  0.00    -0.356 A  
HETATM   23  F   UNL     1     -12.223  16.863  72.870  1.00  0.00    -0.406 F  
HETATM   24  F   UNL     1     -14.152  16.010  73.398  1.00  0.00    -0.532 F  
ENDBRANCH  11  15
BRANCH  14  25
HETATM   25  N   UNL     1      -8.717  12.394  66.787  1.00  0.00    -0.297 NA 
HETATM   26  H   UNL     1      -8.255  12.666  65.919  1.00  0.00     0.000 HD 
BRANCH  25  27
HETATM   27  C   UNL     1      -8.489  11.075  67.190  1.00  0.00    -0.137 A  
HETATM   28  C   UNL     1      -7.532   9.494  68.749  1.00  0.00    -0.075 A  
HETATM   29  C   UNL     1      -7.844  10.814  68.402  1.00  0.00    -0.120 A  
HETATM   30  N   UNL     1      -7.873   8.442  67.950  1.00  0.00    -0.106 NA 
HETATM   31  C   UNL     1      -6.758   9.206  70.027  1.00  0.00    -0.047 C  
HETATM   32  C   UNL     1      -8.497   8.714  66.789  1.00  0.00    -0.115 A  
HETATM   33  F   UNL     1      -5.569   8.574  69.800  1.00  0.00    -0.028 F  
HETATM   34  F   UNL     1      -6.435  10.333  70.732  1.00  0.00    -0.111 F  
HETATM   35  F   UNL     1      -7.441   8.416  70.905  1.00  0.00    -0.050 F  
HETATM   36  C   UNL     1      -8.800   9.994  66.366  1.00  0.00    -0.158 A  
ENDBRANCH  25  27
ENDBRANCH  14  25
ENDBRANCH   7   9
ENDBRANCH   5   7
TORSDOF 5
ENDMDL
MODEL      108
REMARK 921   NORMALIZED FREE ENERGY PREDICTED BY IDOCK:   -6.61 KCAL/MOL
REMARK 922        TOTAL FREE ENERGY PREDICTED BY IDOCK:   -9.71 KCAL/MOL
REMARK 923 INTER-LIGAND FREE ENERGY PREDICTED BY IDOCK:   -8.46 KCAL/MOL
REMARK 924 INTRA-LIGAND FREE ENERGY PREDICTED BY IDOCK:   -1.24 KCAL/MOL
REMARK 927      BINDING AFFINITY PREDICTED BY RF-SCORE:    0.00 PKD
ROOT
HETATM    1  C   UNL     1      -6.625  15.229  68.317  1.00  0.00    -0.116 C  
HETATM    2  C   UNL     1      -6.810  13.883  69.024  1.00  0.00    -0.111 C  
HETATM    3  C   UNL     1      -6.151  13.926  70.407  1.00  0.00    -0.143 C  
HETATM    4  O   UNL     1      -8.217  13.660  69.212  1.00  0.00    -0.312 OA 
HETATM    5  C   UNL     1      -6.246  12.742  68.135  1.00  0.00    -0.088 C  
HETATM    6  H   UNL     1      -8.332  12.825  69.651  1.00  0.00     0.000 HD 
ENDROOT
BRANCH   5   7
HETATM    7  N   UNL     1      -6.296  11.475  68.849  1.00  0.00    -0.055 NA 
HETATM    8  H   UNL     1      -5.547  11.201  69.486  1.00  0.00     0.000 HD 
BRANCH   7   9
HETATM    9  C   UNL     1      -7.384  10.650  68.640  1.00  0.00    -0.094 A  
HETATM   10  N   UNL     1      -8.258  10.427  69.608  1.00  0.00    -0.130 NA 
HETATM   11  C   UNL     1      -9.264   9.606  69.302  1.00  0.00    -0.183 A  
HETATM   12  N   UNL     1      -7.488  10.148  67.416  1.00  0.00    -0.093 NA 
HETATM   13  N   UNL     1      -9.434   9.048  68.103  1.00  0.00    -0.142 NA 
HETATM   14  C   UNL     1      -8.539   9.378  67.182  1.00  0.00    -0.128 A  
BRANCH  11  15
HETATM   15  C   UNL     1     -10.276   9.293  70.347  1.00  0.00    -0.233 A  
HETATM   16  C   UNL     1     -11.031   7.813  72.017  1.00  0.00    -0.257 A  
HETATM   17  F   UNL     1     -11.904   5.680  72.702  1.00  0.00    -0.339 F  
HETATM   18  N   UNL     1     -10.122   8.135  71.051  1.00  0.00    -0.186 NA 
HETATM   19  C   UNL     1     -12.127   8.628  72.297  1.00  0.00    -0.443 A  
HETATM   20  C   UNL     1     -10.847   6.537  72.829  1.00  0.00    -0.249 C  
HETATM   21  C   UNL     1     -11.352  10.148  70.609  1.00  0.00    -0.433 A  
HETATM   22  C   UNL     1     -12.285   9.810  71.586  1.00  0.00    -0.488 A  
HETATM   23  F   UNL     1      -9.741   5.812  72.503  1.00  0.00    -0.160 F  
HETATM   24  F   UNL     1     -10.744   6.787  74.168  1.00  0.00    -0.355 F  
ENDBRANCH  11  15
BRANCH  14  25
HETATM   25  N   UNL     1      -8.728   8.972  65.859  1.00  0.00    -0.155 NA 
HETATM   26  H   UNL     1      -8.535   7.988  65.678  1.00  0.00     0.000 HD 
BRANCH  25  27
HETATM   27  C   UNL     1      -9.143   9.708  64.745  1.00  0.00    -0.231 A  
HETATM   28  C   UNL     1     -10.690  11.250  63.707  1.00  0.00    -0.379 A  
HETATM   29  C   UNL     1     -10.219  10.593  64.850  1.00  0.00    -0.395 A  
HETATM   30  N   UNL     1     -10.103  11.077  62.488  1.00  0.00     0.042 NA 
HETATM   31  C   UNL     1     -11.912  12.153  63.796  1.00  0.00    -0.513 C  
HETATM   32  C   UNL     1      -9.066  10.223  62.408  1.00  0.00    -0.288 A  
HETATM   33  F   UNL     1     -12.939  11.740  62.998  1.00  0.00    -0.685 F  
HETATM   34  F   UNL     1     -12.443  12.224  65.055  1.00  0.00    -0.483 F  
HETATM   35  F   UNL     1     -11.654  13.444  63.440  1.00  0.00    -0.416 F  
HETATM   36  C   UNL     1      -8.575   9.513  63.487  1.00  0.00    -0.221 A  
ENDBRANCH  25  27
ENDBRANCH  14  25
ENDBRANCH   7   9
ENDBRANCH   5   7
TORSDOF 5
ENDMDL
MODEL      109
REMARK 921   NORMALIZED FREE ENERGY PREDICTED BY IDOCK:   -6.61 KCAL/MOL
REMARK 922        TOTAL FREE ENERGY PREDICTED BY IDOCK:   -9.70 KCAL/MOL
REMARK 923 INTER-LIGAND FREE ENERGY PREDICTED BY IDOCK:   -8.72 KCAL/MOL
REMARK 924 INTRA-LIGAND FREE ENERGY PREDICTED BY IDOCK:   -0.98 KCAL/MOL
REMARK 927      BINDING AFFINITY PREDICTED BY RF-SCORE:    0.00 PKD
ROOT
HETATM    1  C   UNL     1     -11.705   6.215  72.277  1.00  0.00    -0.352 C  
HETATM    2  C   UNL     1     -12.327   7.533  71.805  1.00  0.00    -0.326 C  
HETATM    3  C   UNL     1     -13.760   7.286  71.318  1.00  0.00    -0.328 C  
HETATM    4  O   UNL     1     -12.389   8.431  72.924  1.00  0.00    -0.587 OA 
HETATM    5  C   UNL     1     -11.432   8.172  70.709  1.00  0.00    -0.261 C  
HETATM    6  H   UNL     1     -12.775   9.248  72.630  1.00  0.00     0.000 HD 
ENDROOT
BRANCH   5   7
HETATM    7  N   UNL     1     -12.077   9.355  70.158  1.00  0.00    -0.445 NA 
HETATM    8  H   UNL     1     -12.983   9.669  70.506  1.00  0.00     0.000 HD 
BRANCH   7   9
HETATM    9  C   UNL     1     -11.427  10.042  69.151  1.00  0.00    -0.033 A  
HETATM   10  N   UNL     1     -10.363   9.526  68.558  1.00  0.00    -0.200 NA 
HETATM   11  C   UNL     1      -9.807  10.279  67.608  1.00  0.00    -0.171 A  
HETATM   12  N   UNL     1     -11.967  11.209  68.822  1.00  0.00    -0.523 NA 
HETATM   13  N   UNL     1     -10.277  11.468  67.227  1.00  0.00    -0.199 NA 
HETATM   14  C   UNL     1     -11.380  11.875  67.840  1.00  0.00    -0.291 A  
BRANCH  11  15
HETATM   15  C   UNL     1      -8.595   9.772  66.910  1.00  0.00    -0.124 A  
HETATM   16  C   UNL     1      -7.385   9.576  64.898  1.00  0.00    -0.111 A  
HETATM   17  F   UNL     1      -7.154   8.753  62.651  1.00  0.00    -0.097 F  
HETATM   18  N   UNL     1      -8.482  10.026  65.575  1.00  0.00    -0.141 NA 
HETATM   19  C   UNL     1      -6.379   8.846  65.531  1.00  0.00    -0.063 A  
HETATM   20  C   UNL     1      -7.236   9.884  63.414  1.00  0.00    -0.131 C  
HETATM   21  C   UNL     1      -7.600   9.059  67.586  1.00  0.00    -0.093 A  
HETATM   22  C   UNL     1      -6.489   8.589  66.891  1.00  0.00    -0.057 A  
HETATM   23  F   UNL     1      -8.253  10.617  62.882  1.00  0.00    -0.153 F  
HETATM   24  F   UNL     1      -6.094  10.584  63.143  1.00  0.00    -0.137 F  
ENDBRANCH  11  15
BRANCH  14  25
HETATM   25  N   UNL     1     -12.033  13.026  67.395  1.00  0.00    -0.351 NA 
HETATM   26  H   UNL     1     -13.034  13.056  67.586  1.00  0.00     0.000 HD 
BRANCH  25  27
HETATM   27  C   UNL     1     -11.526  14.144  66.727  1.00  0.00    -0.369 A  
HETATM   28  C   UNL     1     -10.612  16.382  66.778  1.00  0.00    -0.238 A  
HETATM   29  C   UNL     1     -11.026  15.228  67.453  1.00  0.00    -0.321 A  
HETATM   30  N   UNL     1     -10.650  16.470  65.416  1.00  0.00    -0.563 NA 
HETATM   31  C   UNL     1     -10.143  17.598  67.564  1.00  0.00    -0.337 C  
HETATM   32  C   UNL     1     -11.132  15.414  64.735  1.00  0.00    -0.403 A  
HETATM   33  F   UNL     1     -10.901  18.708  67.333  1.00  0.00    -0.443 F  
HETATM   34  F   UNL     1     -10.180  17.414  68.920  1.00  0.00    -0.290 F  
HETATM   35  F   UNL     1      -8.856  17.956  67.285  1.00  0.00    -0.233 F  
HETATM   36  C   UNL     1     -11.593  14.260  65.338  1.00  0.00    -0.346 A  
ENDBRANCH  25  27
ENDBRANCH  14  25
ENDBRANCH   7   9
ENDBRANCH   5   7
TORSDOF 5
ENDMDL
MODEL      110
REMARK 921   NORMALIZED FREE ENERGY PREDICTED BY IDOCK:   -6.58 KCAL/MOL
REMARK 922        TOTAL FREE ENERGY PREDICTED BY IDOCK:   -9.67 KCAL/MOL
REMARK 923 INTER-LIGAND FREE ENERGY PREDICTED BY IDOCK:   -8.72 KCAL/MOL
REMARK 924 INTRA-LIGAND FREE ENERGY PREDICTED BY IDOCK:   -0.95 KCAL/MOL
REMARK 927      BINDING AFFINITY PREDICTED BY RF-SCORE:    0.00 PKD
ROOT
HETATM    1  C   UNL     1      -7.639   7.928  64.125  1.00  0.00    -0.112 C  
HETATM    2  C   UNL     1      -7.377   9.236  64.877  1.00  0.00    -0.103 C  
HETATM    3  C   UNL     1      -6.283  10.037  64.162  1.00  0.00    -0.132 C  
HETATM    4  O   UNL     1      -8.582  10.018  64.857  1.00  0.00    -0.152 OA 
HETATM    5  C   UNL     1      -7.015   8.927  66.354  1.00  0.00    -0.079 C  
HETATM    6  H   UNL     1      -8.419  10.830  65.324  1.00  0.00     0.000 HD 
ENDROOT
BRANCH   5   7
HETATM    7  N   UNL     1      -6.636  10.150  67.047  1.00  0.00    -0.072 NA 
HETATM    8  H   UNL     1      -5.654  10.391  67.187  1.00  0.00     0.000 HD 
BRANCH   7   9
HETATM    9  C   UNL     1      -7.641  10.975  67.512  1.00  0.00    -0.106 A  
HETATM   10  N   UNL     1      -8.605  10.498  68.283  1.00  0.00    -0.123 NA 
HETATM   11  C   UNL     1      -9.531  11.379  68.664  1.00  0.00    -0.163 A  
HETATM   12  N   UNL     1      -7.539  12.249  67.155  1.00  0.00    -0.143 NA 
HETATM   13  N   UNL     1      -9.511  12.672  68.338  1.00  0.00    -0.198 NA 
HETATM   14  C   UNL     1      -8.474  13.067  67.611  1.00  0.00    -0.187 A  
BRANCH  11  15
HETATM   15  C   UNL     1     -10.657  10.911  69.517  1.00  0.00    -0.175 A  
HETATM   16  C   UNL     1     -11.527   9.245  70.938  1.00  0.00    -0.303 A  
HETATM   17  F   UNL     1     -12.319   7.009  71.322  1.00  0.00    -0.343 F  
HETATM   18  N   UNL     1     -10.515   9.710  70.148  1.00  0.00    -0.252 NA 
HETATM   19  C   UNL     1     -12.713   9.959  71.109  1.00  0.00    -0.462 A  
HETATM   20  C   UNL     1     -11.363   7.920  71.671  1.00  0.00    -0.258 C  
HETATM   21  C   UNL     1     -11.823  11.666  69.676  1.00  0.00    -0.419 A  
HETATM   22  C   UNL     1     -12.859  11.183  70.472  1.00  0.00    -0.213 A  
HETATM   23  F   UNL     1     -10.168   7.301  71.463  1.00  0.00    -0.192 F  
HETATM   24  F   UNL     1     -11.476   8.061  73.025  1.00  0.00    -0.446 F  
ENDBRANCH  11  15
BRANCH  14  25
HETATM   25  N   UNL     1      -8.285  14.427  67.361  1.00  0.00    -0.187 NA 
HETATM   26  H   UNL     1      -7.440  14.827  67.769  1.00  0.00     0.000 HD 
BRANCH  25  27
HETATM   27  C   UNL     1      -9.074  15.326  66.638  1.00  0.00    -0.282 A  
HETATM   28  C   UNL     1      -9.934  17.561  66.300  1.00  0.00    -0.308 A  
HETATM   29  C   UNL     1      -9.067  16.685  66.964  1.00  0.00    -0.232 A  
HETATM   30  N   UNL     1     -10.769  17.131  65.311  1.00  0.00    -0.619 NA 
HETATM   31  C   UNL     1      -9.991  19.027  66.704  1.00  0.00    -0.374 C  
HETATM   32  C   UNL     1     -10.759  15.820  65.009  1.00  0.00    -0.421 A  
HETATM   33  F   UNL     1     -11.227  19.413  67.135  1.00  0.00    -0.558 F  
HETATM   34  F   UNL     1      -9.141  19.341  67.729  1.00  0.00    -0.309 F  
HETATM   35  F   UNL     1      -9.663  19.879  65.690  1.00  0.00    -0.410 F  
HETATM   36  C   UNL     1      -9.958  14.894  65.651  1.00  0.00    -0.389 A  
ENDBRANCH  25  27
ENDBRANCH  14  25
ENDBRANCH   7   9
ENDBRANCH   5   7
TORSDOF 5
ENDMDL
MODEL      111
REMARK 921   NORMALIZED FREE ENERGY PREDICTED BY IDOCK:   -6.53 KCAL/MOL
REMARK 922        TOTAL FREE ENERGY PREDICTED BY IDOCK:   -9.60 KCAL/MOL
REMARK 923 INTER-LIGAND FREE ENERGY PREDICTED BY IDOCK:   -8.78 KCAL/MOL
REMARK 924 INTRA-LIGAND FREE ENERGY PREDICTED BY IDOCK:   -0.82 KCAL/MOL
REMARK 927      BINDING AFFINITY PREDICTED BY RF-SCORE:    0.00 PKD
ROOT
HETATM    1  C   UNL     1     -10.830   7.010  73.200  1.00  0.00    -0.350 C  
HETATM    2  C   UNL     1     -11.694   7.993  72.404  1.00  0.00    -0.386 C  
HETATM    3  C   UNL     1     -12.394   7.257  71.255  1.00  0.00    -0.401 C  
HETATM    4  O   UNL     1     -12.707   8.515  73.277  1.00  0.00    -0.506 OA 
HETATM    5  C   UNL     1     -10.818   9.173  71.904  1.00  0.00    -0.283 C  
HETATM    6  H   UNL     1     -13.243   9.125  72.783  1.00  0.00     0.000 HD 
ENDROOT
BRANCH   5   7
HETATM    7  N   UNL     1     -11.596  10.046  71.036  1.00  0.00    -0.372 NA 
HETATM    8  H   UNL     1     -12.346  10.627  71.412  1.00  0.00     0.000 HD 
BRANCH   7   9
HETATM    9  C   UNL     1     -11.291  10.066  69.689  1.00  0.00    -0.202 A  
HETATM   10  N   UNL     1     -10.657   9.052  69.124  1.00  0.00    -0.224 NA 
HETATM   11  C   UNL     1     -10.402   9.181  67.821  1.00  0.00    -0.245 A  
HETATM   12  N   UNL     1     -11.707  11.141  69.031  1.00  0.00    -0.314 NA 
HETATM   13  N   UNL     1     -10.772  10.233  67.089  1.00  0.00    -0.257 NA 
HETATM   14  C   UNL     1     -11.452  11.172  67.732  1.00  0.00    -0.272 A  
BRANCH  11  15
HETATM   15  C   UNL     1      -9.675   8.088  67.122  1.00  0.00    -0.195 A  
HETATM   16  C   UNL     1      -9.080   5.810  67.054  1.00  0.00    -0.114 A  
HETATM   17  F   UNL     1      -7.945   3.901  67.976  1.00  0.00    -0.078 F  
HETATM   18  N   UNL     1      -9.735   6.839  67.666  1.00  0.00    -0.124 NA 
HETATM   19  C   UNL     1      -8.334   6.001  65.891  1.00  0.00    -0.138 A  
HETATM   20  C   UNL     1      -9.169   4.406  67.638  1.00  0.00    -0.143 C  
HETATM   21  C   UNL     1      -8.952   8.319  65.947  1.00  0.00    -0.208 A  
HETATM   22  C   UNL     1      -8.273   7.270  65.332  1.00  0.00    -0.137 A  
HETATM   23  F   UNL     1      -9.934   4.306  68.761  1.00  0.00    -0.225 F  
HETATM   24  F   UNL     1      -9.696   3.509  66.751  1.00  0.00    -0.218 F  
ENDBRANCH  11  15
BRANCH  14  25
HETATM   25  N   UNL     1     -12.018  12.228  67.014  1.00  0.00    -0.590 NA 
HETATM   26  H   UNL     1     -13.023  12.152  66.857  1.00  0.00     0.000 HD 
BRANCH  25  27
HETATM   27  C   UNL     1     -11.421  13.372  66.478  1.00  0.00    -0.341 A  
HETATM   28  C   UNL     1      -9.811  15.169  66.639  1.00  0.00    -0.252 A  
HETATM   29  C   UNL     1     -10.339  13.969  67.130  1.00  0.00    -0.265 A  
HETATM   30  N   UNL     1     -10.303  15.761  65.512  1.00  0.00    -0.381 NA 
HETATM   31  C   UNL     1      -8.687  15.870  67.388  1.00  0.00    -0.181 C  
HETATM   32  C   UNL     1     -11.343  15.169  64.896  1.00  0.00    -0.399 A  
HETATM   33  F   UNL     1      -9.025  17.125  67.804  1.00  0.00    -0.215 F  
HETATM   34  F   UNL     1      -8.297  15.210  68.522  1.00  0.00    -0.135 F  
HETATM   35  F   UNL     1      -7.552  16.012  66.645  1.00  0.00    -0.243 F  
HETATM   36  C   UNL     1     -11.937  14.006  65.348  1.00  0.00    -0.386 A  
ENDBRANCH  25  27
ENDBRANCH  14  25
ENDBRANCH   7   9
ENDBRANCH   5   7
TORSDOF 5
ENDMDL
MODEL      112
REMARK 921   NORMALIZED FREE ENERGY PREDICTED BY IDOCK:   -6.52 KCAL/MOL
REMARK 922        TOTAL FREE ENERGY PREDICTED BY IDOCK:   -9.58 KCAL/MOL
REMARK 923 INTER-LIGAND FREE ENERGY PREDICTED BY IDOCK:   -8.88 KCAL/MOL
REMARK 924 INTRA-LIGAND FREE ENERGY PREDICTED BY IDOCK:   -0.70 KCAL/MOL
REMARK 927      BINDING AFFINITY PREDICTED BY RF-SCORE:    0.00 PKD
ROOT
HETATM    1  C   UNL     1      -5.244  13.655  69.206  1.00  0.00    -0.077 C  
HETATM    2  C   UNL     1      -6.114  12.535  68.629  1.00  0.00    -0.066 C  
HETATM    3  C   UNL     1      -5.234  11.338  68.247  1.00  0.00    -0.039 C  
HETATM    4  O   UNL     1      -7.030  12.103  69.647  1.00  0.00    -0.338 OA 
HETATM    5  C   UNL     1      -6.933  13.075  67.426  1.00  0.00    -0.116 C  
HETATM    6  H   UNL     1      -7.570  11.408  69.289  1.00  0.00     0.000 HD 
ENDROOT
BRANCH   5   7
HETATM    7  N   UNL     1      -7.664  11.991  66.786  1.00  0.00    -0.355 NA 
HETATM    8  H   UNL     1      -7.343  11.590  65.904  1.00  0.00     0.000 HD 
BRANCH   7   9
HETATM    9  C   UNL     1      -8.805  11.519  67.405  1.00  0.00    -0.157 A  
HETATM   10  N   UNL     1      -8.966  10.224  67.628  1.00  0.00    -0.134 NA 
HETATM   11  C   UNL     1     -10.110   9.877  68.220  1.00  0.00    -0.161 A  
HETATM   12  N   UNL     1      -9.677  12.449  67.772  1.00  0.00    -0.195 NA 
HETATM   13  N   UNL     1     -11.044  10.746  68.607  1.00  0.00    -0.239 NA 
HETATM   14  C   UNL     1     -10.766  12.025  68.392  1.00  0.00    -0.229 A  
BRANCH  11  15
HETATM   15  C   UNL     1     -10.370   8.436  68.486  1.00  0.00    -0.200 A  
HETATM   16  C   UNL     1     -10.241   6.210  67.726  1.00  0.00    -0.172 A  
HETATM   17  F   UNL     1     -10.872   4.468  66.194  1.00  0.00    -0.300 F  
HETATM   18  N   UNL     1     -10.017   7.541  67.519  1.00  0.00    -0.160 NA 
HETATM   19  C   UNL     1     -10.837   5.737  68.895  1.00  0.00    -0.305 A  
HETATM   20  C   UNL     1      -9.820   5.201  66.665  1.00  0.00    -0.189 C  
HETATM   21  C   UNL     1     -10.954   8.001  69.680  1.00  0.00    -0.106 A  
HETATM   22  C   UNL     1     -11.193   6.645  69.882  1.00  0.00    -0.421 A  
HETATM   23  F   UNL     1      -9.229   5.748  65.566  1.00  0.00    -0.163 F  
HETATM   24  F   UNL     1      -8.929   4.285  67.147  1.00  0.00    -0.109 F  
ENDBRANCH  11  15
BRANCH  14  25
HETATM   25  N   UNL     1     -11.609  13.010  68.910  1.00  0.00    -0.290 NA 
HETATM   26  H   UNL     1     -11.806  13.786  68.277  1.00  0.00     0.000 HD 
BRANCH  25  27
HETATM   27  C   UNL     1     -12.226  13.098  70.161  1.00  0.00    -0.290 A  
HETATM   28  C   UNL     1     -12.755  14.360  72.155  1.00  0.00    -0.323 A  
HETATM   29  C   UNL     1     -12.222  14.307  70.862  1.00  0.00    -0.425 A  
HETATM   30  N   UNL     1     -13.315  13.264  72.745  1.00  0.00    -0.512 NA 
HETATM   31  C   UNL     1     -12.681  15.651  72.957  1.00  0.00    -0.471 C  
HETATM   32  C   UNL     1     -13.313  12.110  72.053  1.00  0.00    -0.365 A  
HETATM   33  F   UNL     1     -11.981  15.517  74.121  1.00  0.00    -0.565 F  
HETATM   34  F   UNL     1     -12.067  16.672  72.285  1.00  0.00    -0.508 F  
HETATM   35  F   UNL     1     -13.907  16.137  73.310  1.00  0.00    -0.673 F  
HETATM   36  C   UNL     1     -12.769  11.978  70.790  1.00  0.00    -0.231 A  
ENDBRANCH  25  27
ENDBRANCH  14  25
ENDBRANCH   7   9
ENDBRANCH   5   7
TORSDOF 5
ENDMDL
MODEL      113
REMARK 921   NORMALIZED FREE ENERGY PREDICTED BY IDOCK:   -6.50 KCAL/MOL
REMARK 922        TOTAL FREE ENERGY PREDICTED BY IDOCK:   -9.56 KCAL/MOL
REMARK 923 INTER-LIGAND FREE ENERGY PREDICTED BY IDOCK:   -8.52 KCAL/MOL
REMARK 924 INTRA-LIGAND FREE ENERGY PREDICTED BY IDOCK:   -1.04 KCAL/MOL
REMARK 927      BINDING AFFINITY PREDICTED BY RF-SCORE:    0.00 PKD
ROOT
HETATM    1  C   UNL     1     -13.092  11.625  63.791  1.00  0.00     0.111 C  
HETATM    2  C   UNL     1     -11.747  12.339  63.629  1.00  0.00    -0.504 C  
HETATM    3  C   UNL     1     -10.640  11.310  63.371  1.00  0.00    -0.393 C  
HETATM    4  O   UNL     1     -11.827  13.200  62.482  1.00  0.00    -0.316 OA 
HETATM    5  C   UNL     1     -11.464  13.212  64.881  1.00  0.00    -0.309 C  
HETATM    6  H   UNL     1     -10.993  13.643  62.382  1.00  0.00     0.000 HD 
ENDROOT
BRANCH   5   7
HETATM    7  N   UNL     1     -10.131  13.792  64.800  1.00  0.00    -0.619 NA 
HETATM    8  H   UNL     1      -9.699  13.990  63.897  1.00  0.00     0.000 HD 
BRANCH   7   9
HETATM    9  C   UNL     1      -9.467  14.068  65.980  1.00  0.00    -0.136 A  
HETATM   10  N   UNL     1      -9.246  15.318  66.354  1.00  0.00    -0.287 NA 
HETATM   11  C   UNL     1      -8.586  15.470  67.503  1.00  0.00    -0.170 A  
HETATM   12  N   UNL     1      -9.113  13.006  66.692  1.00  0.00    -0.212 NA 
HETATM   13  N   UNL     1      -8.182  14.458  68.272  1.00  0.00    -0.141 NA 
HETATM   14  C   UNL     1      -8.500  13.244  67.841  1.00  0.00    -0.177 A  
BRANCH  11  15
HETATM   15  C   UNL     1      -8.284  16.847  67.979  1.00  0.00    -0.203 A  
HETATM   16  C   UNL     1      -9.015  19.069  68.254  1.00  0.00    -0.332 A  
HETATM   17  F   UNL     1      -9.718  21.183  67.348  1.00  0.00    -0.616 F  
HETATM   18  N   UNL     1      -9.254  17.794  67.831  1.00  0.00    -0.260 NA 
HETATM   19  C   UNL     1      -7.796  19.439  68.823  1.00  0.00    -0.392 A  
HETATM   20  C   UNL     1     -10.105  20.125  68.121  1.00  0.00    -0.359 C  
HETATM   21  C   UNL     1      -7.054  17.172  68.561  1.00  0.00    -0.213 A  
HETATM   22  C   UNL     1      -6.808  18.477  68.979  1.00  0.00    -0.292 A  
HETATM   23  F   UNL     1     -11.268  19.673  67.574  1.00  0.00    -0.533 F  
HETATM   24  F   UNL     1     -10.450  20.667  69.327  1.00  0.00    -0.342 F  
ENDBRANCH  11  15
BRANCH  14  25
HETATM   25  N   UNL     1      -8.262  12.138  68.658  1.00  0.00    -0.315 NA 
HETATM   26  H   UNL     1      -7.486  12.242  69.312  1.00  0.00     0.000 HD 
BRANCH  25  27
HETATM   27  C   UNL     1      -8.924  10.908  68.720  1.00  0.00    -0.164 A  
HETATM   28  C   UNL     1      -9.119   8.594  68.047  1.00  0.00    -0.140 A  
HETATM   29  C   UNL     1      -8.398   9.794  68.061  1.00  0.00    -0.110 A  
HETATM   30  N   UNL     1     -10.314   8.467  68.692  1.00  0.00    -0.205 NA 
HETATM   31  C   UNL     1      -8.593   7.400  67.263  1.00  0.00    -0.118 C  
HETATM   32  C   UNL     1     -10.803   9.550  69.324  1.00  0.00    -0.191 A  
HETATM   33  F   UNL     1      -9.448   6.987  66.283  1.00  0.00    -0.204 F  
HETATM   34  F   UNL     1      -7.409   7.648  66.625  1.00  0.00    -0.079 F  
HETATM   35  F   UNL     1      -8.359   6.305  68.043  1.00  0.00    -0.112 F  
HETATM   36  C   UNL     1     -10.164  10.775  69.345  1.00  0.00    -0.187 A  
ENDBRANCH  25  27
ENDBRANCH  14  25
ENDBRANCH   7   9
ENDBRANCH   5   7
TORSDOF 5
ENDMDL
MODEL      114
REMARK 921   NORMALIZED FREE ENERGY PREDICTED BY IDOCK:   -6.49 KCAL/MOL
REMARK 922        TOTAL FREE ENERGY PREDICTED BY IDOCK:   -9.55 KCAL/MOL
REMARK 923 INTER-LIGAND FREE ENERGY PREDICTED BY IDOCK:   -8.44 KCAL/MOL
REMARK 924 INTRA-LIGAND FREE ENERGY PREDICTED BY IDOCK:   -1.10 KCAL/MOL
REMARK 927      BINDING AFFINITY PREDICTED BY RF-SCORE:    0.00 PKD
ROOT
HETATM    1  C   UNL     1     -14.162   6.805  71.865  1.00  0.00    -0.234 C  
HETATM    2  C   UNL     1     -12.793   7.344  71.437  1.00  0.00    -0.365 C  
HETATM    3  C   UNL     1     -11.697   6.743  72.325  1.00  0.00    -0.300 C  
HETATM    4  O   UNL     1     -12.545   6.927  70.085  1.00  0.00    -0.533 OA 
HETATM    5  C   UNL     1     -12.805   8.895  71.479  1.00  0.00    -0.334 C  
HETATM    6  H   UNL     1     -11.696   7.261  69.820  1.00  0.00     0.000 HD 
ENDROOT
BRANCH   5   7
HETATM    7  N   UNL     1     -11.475   9.418  71.202  1.00  0.00    -0.321 NA 
HETATM    8  H   UNL     1     -10.775   9.489  71.941  1.00  0.00     0.000 HD 
BRANCH   7   9
HETATM    9  C   UNL     1     -11.186   9.816  69.912  1.00  0.00    -0.229 A  
HETATM   10  N   UNL     1     -10.484   9.036  69.105  1.00  0.00    -0.226 NA 
HETATM   11  C   UNL     1     -10.252   9.523  67.886  1.00  0.00    -0.205 A  
HETATM   12  N   UNL     1     -11.685  10.992  69.556  1.00  0.00    -0.299 NA 
HETATM   13  N   UNL     1     -10.704  10.701  67.453  1.00  0.00    -0.256 NA 
HETATM   14  C   UNL     1     -11.446  11.384  68.314  1.00  0.00    -0.299 A  
BRANCH  11  15
HETATM   15  C   UNL     1      -9.453   8.709  66.930  1.00  0.00    -0.180 A  
HETATM   16  C   UNL     1      -7.940   8.663  65.125  1.00  0.00    -0.127 A  
HETATM   17  F   UNL     1      -7.383   9.119  62.831  1.00  0.00    -0.100 F  
HETATM   18  N   UNL     1      -8.685   9.375  66.020  1.00  0.00    -0.144 NA 
HETATM   19  C   UNL     1      -7.951   7.269  65.103  1.00  0.00    -0.128 A  
HETATM   20  C   UNL     1      -7.055   9.400  64.127  1.00  0.00    -0.102 C  
HETATM   21  C   UNL     1      -9.479   7.311  66.952  1.00  0.00    -0.208 A  
HETATM   22  C   UNL     1      -8.728   6.588  66.029  1.00  0.00    -0.155 A  
HETATM   23  F   UNL     1      -7.090  10.757  64.233  1.00  0.00    -0.002 F  
HETATM   24  F   UNL     1      -5.739   9.053  64.249  1.00  0.00    -0.064 F  
ENDBRANCH  11  15
BRANCH  14  25
HETATM   25  N   UNL     1     -12.094  12.547  67.895  1.00  0.00    -0.373 NA 
HETATM   26  H   UNL     1     -12.938  12.395  67.341  1.00  0.00     0.000 HD 
BRANCH  25  27
HETATM   27  C   UNL     1     -11.767  13.888  68.117  1.00  0.00    -0.353 A  
HETATM   28  C   UNL     1     -10.756  15.952  67.367  1.00  0.00    -0.313 A  
HETATM   29  C   UNL     1     -11.170  14.641  67.103  1.00  0.00    -0.349 A  
HETATM   30  N   UNL     1     -10.951  16.535  68.585  1.00  0.00    -0.344 NA 
HETATM   31  C   UNL     1     -10.031  16.752  66.294  1.00  0.00    -0.320 C  
HETATM   32  C   UNL     1     -11.532  15.795  69.547  1.00  0.00    -0.353 A  
HETATM   33  F   UNL     1      -8.778  17.138  66.672  1.00  0.00    -0.219 F  
HETATM   34  F   UNL     1      -9.855  16.060  65.127  1.00  0.00    -0.274 F  
HETATM   35  F   UNL     1     -10.686  17.895  65.939  1.00  0.00    -0.373 F  
HETATM   36  C   UNL     1     -11.928  14.483  69.368  1.00  0.00    -0.362 A  
ENDBRANCH  25  27
ENDBRANCH  14  25
ENDBRANCH   7   9
ENDBRANCH   5   7
TORSDOF 5
ENDMDL
MODEL      115
REMARK 921   NORMALIZED FREE ENERGY PREDICTED BY IDOCK:   -6.48 KCAL/MOL
REMARK 922        TOTAL FREE ENERGY PREDICTED BY IDOCK:   -9.54 KCAL/MOL
REMARK 923 INTER-LIGAND FREE ENERGY PREDICTED BY IDOCK:   -8.58 KCAL/MOL
REMARK 924 INTRA-LIGAND FREE ENERGY PREDICTED BY IDOCK:   -0.95 KCAL/MOL
REMARK 927      BINDING AFFINITY PREDICTED BY RF-SCORE:    0.00 PKD
ROOT
HETATM    1  C   UNL     1      -7.327  10.297  63.045  1.00  0.00    -0.125 C  
HETATM    2  C   UNL     1      -8.811  10.252  63.422  1.00  0.00    -0.221 C  
HETATM    3  C   UNL     1      -9.594  11.263  62.576  1.00  0.00    -0.116 C  
HETATM    4  O   UNL     1      -9.315   8.941  63.121  1.00  0.00    -0.322 OA 
HETATM    5  C   UNL     1      -8.972  10.504  64.945  1.00  0.00    -0.199 C  
HETATM    6  H   UNL     1     -10.236   8.913  63.355  1.00  0.00     0.000 HD 
ENDROOT
BRANCH   5   7
HETATM    7  N   UNL     1     -10.382  10.594  65.295  1.00  0.00    -0.279 NA 
HETATM    8  H   UNL     1     -11.104  10.580  64.573  1.00  0.00     0.000 HD 
BRANCH   7   9
HETATM    9  C   UNL     1     -10.718  10.700  66.631  1.00  0.00    -0.181 A  
HETATM   10  N   UNL     1     -11.049  11.869  67.154  1.00  0.00    -0.275 NA 
HETATM   11  C   UNL     1     -11.343  11.860  68.454  1.00  0.00    -0.276 A  
HETATM   12  N   UNL     1     -10.710   9.560  67.309  1.00  0.00    -0.246 NA 
HETATM   13  N   UNL     1     -11.345  10.762  69.211  1.00  0.00    -0.263 NA 
HETATM   14  C   UNL     1     -11.055   9.629  68.585  1.00  0.00    -0.038 A  
BRANCH  11  15
HETATM   15  C   UNL     1     -11.707  13.142  69.116  1.00  0.00    -0.325 A  
HETATM   16  C   UNL     1     -12.573  14.234  71.015  1.00  0.00    -0.358 A  
HETATM   17  F   UNL     1     -14.377  14.707  72.532  1.00  0.00    -0.506 F  
HETATM   18  N   UNL     1     -12.225  13.079  70.376  1.00  0.00    -0.347 NA 
HETATM   19  C   UNL     1     -12.427  15.482  70.411  1.00  0.00    -0.443 A  
HETATM   20  C   UNL     1     -13.123  14.173  72.434  1.00  0.00    -0.434 C  
HETATM   21  C   UNL     1     -11.528  14.375  68.481  1.00  0.00    -0.326 A  
HETATM   22  C   UNL     1     -11.896  15.550  69.130  1.00  0.00    -0.373 A  
HETATM   23  F   UNL     1     -13.213  12.917  72.954  1.00  0.00    -0.453 F  
HETATM   24  F   UNL     1     -12.359  14.884  73.316  1.00  0.00    -0.424 F  
ENDBRANCH  11  15
BRANCH  14  25
HETATM   25  N   UNL     1     -11.192   8.414  69.258  1.00  0.00    -0.410 NA 
HETATM   26  H   UNL     1     -12.136   8.028  69.264  1.00  0.00     0.000 HD 
BRANCH  25  27
HETATM   27  C   UNL     1     -10.235   7.644  69.925  1.00  0.00    -0.215 A  
HETATM   28  C   UNL     1      -9.158   6.949  71.976  1.00  0.00    -0.136 A  
HETATM   29  C   UNL     1     -10.182   7.645  71.321  1.00  0.00    -0.204 A  
HETATM   30  N   UNL     1      -8.222   6.235  71.287  1.00  0.00    -0.121 NA 
HETATM   31  C   UNL     1      -9.044   7.012  73.492  1.00  0.00    -0.156 C  
HETATM   32  C   UNL     1      -8.292   6.243  69.943  1.00  0.00    -0.129 A  
HETATM   33  F   UNL     1      -7.859   7.539  73.916  1.00  0.00    -0.124 F  
HETATM   34  F   UNL     1     -10.010   7.785  74.077  1.00  0.00    -0.297 F  
HETATM   35  F   UNL     1      -9.149   5.790  74.091  1.00  0.00    -0.124 F  
HETATM   36  C   UNL     1      -9.251   6.939  69.232  1.00  0.00    -0.139 A  
ENDBRANCH  25  27
ENDBRANCH  14  25
ENDBRANCH   7   9
ENDBRANCH   5   7
TORSDOF 5
ENDMDL
MODEL      116
REMARK 921   NORMALIZED FREE ENERGY PREDICTED BY IDOCK:   -6.48 KCAL/MOL
REMARK 922        TOTAL FREE ENERGY PREDICTED BY IDOCK:   -9.54 KCAL/MOL
REMARK 923 INTER-LIGAND FREE ENERGY PREDICTED BY IDOCK:   -8.49 KCAL/MOL
REMARK 924 INTRA-LIGAND FREE ENERGY PREDICTED BY IDOCK:   -1.05 KCAL/MOL
REMARK 927      BINDING AFFINITY PREDICTED BY RF-SCORE:    0.00 PKD
ROOT
HETATM    1  C   UNL     1      -9.484   5.657  73.022  1.00  0.00    -0.155 C  
HETATM    2  C   UNL     1     -10.583   6.713  72.872  1.00  0.00    -0.245 C  
HETATM    3  C   UNL     1     -11.852   6.067  72.304  1.00  0.00    -0.305 C  
HETATM    4  O   UNL     1     -10.895   7.230  74.175  1.00  0.00    -0.536 OA 
HETATM    5  C   UNL     1     -10.068   7.882  71.989  1.00  0.00    -0.202 C  
HETATM    6  H   UNL     1     -11.576   7.885  74.081  1.00  0.00     0.000 HD 
ENDROOT
BRANCH   5   7
HETATM    7  N   UNL     1     -11.142   8.829  71.729  1.00  0.00    -0.322 NA 
HETATM    8  H   UNL     1     -11.910   8.947  72.392  1.00  0.00     0.000 HD 
BRANCH   7   9
HETATM    9  C   UNL     1     -11.095   9.565  70.562  1.00  0.00    -0.283 A  
HETATM   10  N   UNL     1     -10.537   9.066  69.470  1.00  0.00    -0.226 NA 
HETATM   11  C   UNL     1     -10.535   9.866  68.403  1.00  0.00    -0.208 A  
HETATM   12  N   UNL     1     -11.669  10.760  70.621  1.00  0.00    -0.342 NA 
HETATM   13  N   UNL     1     -11.076  11.085  68.383  1.00  0.00    -0.228 NA 
HETATM   14  C   UNL     1     -11.662  11.474  69.507  1.00  0.00    -0.346 A  
BRANCH  11  15
HETATM   15  C   UNL     1      -9.907   9.380  67.145  1.00  0.00    -0.187 A  
HETATM   16  C   UNL     1      -9.351   9.807  64.896  1.00  0.00    -0.265 A  
HETATM   17  F   UNL     1      -9.982  10.234  62.615  1.00  0.00    -0.303 F  
HETATM   18  N   UNL     1      -9.916  10.218  66.069  1.00  0.00    -0.233 NA 
HETATM   19  C   UNL     1      -8.776   8.544  64.759  1.00  0.00    -0.055 A  
HETATM   20  C   UNL     1      -9.329  10.749  63.699  1.00  0.00    -0.273 C  
HETATM   21  C   UNL     1      -9.325   8.111  67.055  1.00  0.00    -0.197 A  
HETATM   22  C   UNL     1      -8.761   7.690  65.853  1.00  0.00    -0.176 A  
HETATM   23  F   UNL     1      -9.894  11.968  63.927  1.00  0.00    -0.290 F  
HETATM   24  F   UNL     1      -8.059  11.006  63.267  1.00  0.00    -0.062 F  
ENDBRANCH  11  15
BRANCH  14  25
HETATM   25  N   UNL     1     -12.394  12.663  69.527  1.00  0.00    -0.050 NA 
HETATM   26  H   UNL     1     -13.403  12.547  69.620  1.00  0.00     0.000 HD 
BRANCH  25  27
HETATM   27  C   UNL     1     -11.957  13.988  69.441  1.00  0.00    -0.343 A  
HETATM   28  C   UNL     1     -10.861  15.760  68.213  1.00  0.00    -0.305 A  
HETATM   29  C   UNL     1     -11.385  14.462  68.258  1.00  0.00    -0.311 A  
HETATM   30  N   UNL     1     -10.924  16.596  69.290  1.00  0.00    -0.297 NA 
HETATM   31  C   UNL     1     -10.163  16.256  66.956  1.00  0.00    -0.280 C  
HETATM   32  C   UNL     1     -11.483  16.122  70.419  1.00  0.00    -0.328 A  
HETATM   33  F   UNL     1      -8.861  16.605  67.171  1.00  0.00    -0.185 F  
HETATM   34  F   UNL     1     -10.123  15.326  65.954  1.00  0.00    -0.267 F  
HETATM   35  F   UNL     1     -10.760  17.353  66.405  1.00  0.00    -0.308 F  
HETATM   36  C   UNL     1     -11.983  14.840  70.544  1.00  0.00    -0.373 A  
ENDBRANCH  25  27
ENDBRANCH  14  25
ENDBRANCH   7   9
ENDBRANCH   5   7
TORSDOF 5
ENDMDL
MODEL      117
REMARK 921   NORMALIZED FREE ENERGY PREDICTED BY IDOCK:   -6.48 KCAL/MOL
REMARK 922        TOTAL FREE ENERGY PREDICTED BY IDOCK:   -9.54 KCAL/MOL
REMARK 923 INTER-LIGAND FREE ENERGY PREDICTED BY IDOCK:   -8.68 KCAL/MOL
REMARK 924 INTRA-LIGAND FREE ENERGY PREDICTED BY IDOCK:   -0.86 KCAL/MOL
REMARK 927      BINDING AFFINITY PREDICTED BY RF-SCORE:    0.00 PKD
ROOT
HETATM    1  C   UNL     1      -6.408   7.046  64.040  1.00  0.00    -0.043 C  
HETATM    2  C   UNL     1      -7.781   7.722  64.095  1.00  0.00    -0.125 C  
HETATM    3  C   UNL     1      -8.270   8.020  62.673  1.00  0.00    -0.129 C  
HETATM    4  O   UNL     1      -8.711   6.810  64.700  1.00  0.00    -0.347 OA 
HETATM    5  C   UNL     1      -7.701   8.999  64.973  1.00  0.00    -0.109 C  
HETATM    6  H   UNL     1      -9.563   7.230  64.734  1.00  0.00     0.000 HD 
ENDROOT
BRANCH   5   7
HETATM    7  N   UNL     1      -8.963   9.723  64.927  1.00  0.00    -0.200 NA 
HETATM    8  H   UNL     1      -9.354  10.041  64.040  1.00  0.00     0.000 HD 
BRANCH   7   9
HETATM    9  C   UNL     1      -9.618   9.969  66.118  1.00  0.00    -0.210 A  
HETATM   10  N   UNL     1      -9.995  11.195  66.442  1.00  0.00    -0.210 NA 
HETATM   11  C   UNL     1     -10.608  11.321  67.619  1.00  0.00    -0.213 A  
HETATM   12  N   UNL     1      -9.856   8.899  66.865  1.00  0.00    -0.201 NA 
HETATM   13  N   UNL     1     -10.873  10.301  68.436  1.00  0.00    -0.229 NA 
HETATM   14  C   UNL     1     -10.508   9.103  67.999  1.00  0.00    -0.224 A  
BRANCH  11  15
HETATM   15  C   UNL     1     -11.045  12.674  68.059  1.00  0.00    -0.251 A  
HETATM   16  C   UNL     1     -12.092  14.000  69.701  1.00  0.00    -0.355 A  
HETATM   17  F   UNL     1     -14.031  14.637  70.971  1.00  0.00    -0.420 F  
HETATM   18  N   UNL     1     -11.675  12.775  69.264  1.00  0.00    -0.307 NA 
HETATM   19  C   UNL     1     -11.905  15.154  68.941  1.00  0.00    -0.337 A  
HETATM   20  C   UNL     1     -12.768  14.125  71.060  1.00  0.00    -0.362 C  
HETATM   21  C   UNL     1     -10.822  13.811  67.274  1.00  0.00    -0.292 A  
HETATM   22  C   UNL     1     -11.260  15.056  67.716  1.00  0.00    -0.327 A  
HETATM   23  F   UNL     1     -12.891  12.952  71.742  1.00  0.00    -0.417 F  
HETATM   24  F   UNL     1     -12.094  14.970  71.896  1.00  0.00    -0.337 F  
ENDBRANCH  11  15
BRANCH  14  25
HETATM   25  N   UNL     1     -10.888   7.963  68.711  1.00  0.00    -0.418 NA 
HETATM   26  H   UNL     1     -11.183   7.175  68.135  1.00  0.00     0.000 HD 
BRANCH  25  27
HETATM   27  C   UNL     1     -10.927   7.736  70.089  1.00  0.00    -0.241 A  
HETATM   28  C   UNL     1     -10.686   6.245  71.977  1.00  0.00    -0.228 A  
HETATM   29  C   UNL     1     -10.549   6.495  70.606  1.00  0.00    -0.280 A  
HETATM   30  N   UNL     1     -11.147   7.198  72.837  1.00  0.00    -0.303 NA 
HETATM   31  C   UNL     1     -10.355   4.869  72.537  1.00  0.00    -0.201 C  
HETATM   32  C   UNL     1     -11.502   8.389  72.321  1.00  0.00    -0.384 A  
HETATM   33  F   UNL     1     -11.420   4.269  73.142  1.00  0.00    -0.301 F  
HETATM   34  F   UNL     1      -9.938   3.981  71.583  1.00  0.00    -0.230 F  
HETATM   35  F   UNL     1      -9.357   4.892  73.468  1.00  0.00    -0.124 F  
HETATM   36  C   UNL     1     -11.431   8.689  70.974  1.00  0.00    -0.324 A  
ENDBRANCH  25  27
ENDBRANCH  14  25
ENDBRANCH   7   9
ENDBRANCH   5   7
TORSDOF 5
ENDMDL
MODEL      118
REMARK 921   NORMALIZED FREE ENERGY PREDICTED BY IDOCK:   -6.46 KCAL/MOL
REMARK 922        TOTAL FREE ENERGY PREDICTED BY IDOCK:   -9.51 KCAL/MOL
REMARK 923 INTER-LIGAND FREE ENERGY PREDICTED BY IDOCK:   -8.59 KCAL/MOL
REMARK 924 INTRA-LIGAND FREE ENERGY PREDICTED BY IDOCK:   -0.92 KCAL/MOL
REMARK 927      BINDING AFFINITY PREDICTED BY RF-SCORE:    0.00 PKD
ROOT
HETATM    1  C   UNL     1      -6.444   7.726  62.696  1.00  0.00    -0.076 C  
HETATM    2  C   UNL     1      -7.871   8.087  63.121  1.00  0.00    -0.148 C  
HETATM    3  C   UNL     1      -8.273   9.432  62.503  1.00  0.00    -0.153 C  
HETATM    4  O   UNL     1      -8.763   7.083  62.613  1.00  0.00    -0.350 OA 
HETATM    5  C   UNL     1      -7.970   8.095  64.670  1.00  0.00    -0.149 C  
HETATM    6  H   UNL     1      -9.648   7.307  62.876  1.00  0.00     0.000 HD 
ENDROOT
BRANCH   5   7
HETATM    7  N   UNL     1      -9.283   8.564  65.089  1.00  0.00    -0.418 NA 
HETATM    8  H   UNL     1     -10.134   8.130  64.731  1.00  0.00     0.000 HD 
BRANCH   7   9
HETATM    9  C   UNL     1      -9.345   9.613  65.985  1.00  0.00    -0.207 A  
HETATM   10  N   UNL     1      -9.671  10.830  65.580  1.00  0.00    -0.223 NA 
HETATM   11  C   UNL     1      -9.689  11.770  66.525  1.00  0.00    -0.206 A  
HETATM   12  N   UNL     1      -9.091   9.295  67.248  1.00  0.00    -0.126 NA 
HETATM   13  N   UNL     1      -9.432  11.539  67.814  1.00  0.00    -0.164 NA 
HETATM   14  C   UNL     1      -9.172  10.278  68.132  1.00  0.00    -0.136 A  
BRANCH  11  15
HETATM   15  C   UNL     1     -10.028  13.167  66.140  1.00  0.00    -0.291 A  
HETATM   16  C   UNL     1     -10.062  15.448  66.727  1.00  0.00    -0.262 A  
HETATM   17  F   UNL     1     -10.849  17.258  68.100  1.00  0.00    -0.353 F  
HETATM   18  N   UNL     1      -9.763  14.154  67.043  1.00  0.00    -0.250 NA 
HETATM   19  C   UNL     1     -10.647  15.791  65.509  1.00  0.00    -0.424 A  
HETATM   20  C   UNL     1      -9.739  16.560  67.718  1.00  0.00    -0.235 C  
HETATM   21  C   UNL     1     -10.599  13.471  64.900  1.00  0.00    -0.409 A  
HETATM   22  C   UNL     1     -10.915  14.790  64.586  1.00  0.00    -0.332 A  
HETATM   23  F   UNL     1      -9.151  16.137  68.872  1.00  0.00    -0.197 F  
HETATM   24  F   UNL     1      -8.891  17.492  67.190  1.00  0.00    -0.222 F  
ENDBRANCH  11  15
BRANCH  14  25
HETATM   25  N   UNL     1      -9.053   9.916  69.475  1.00  0.00    -0.209 NA 
HETATM   26  H   UNL     1      -8.096   9.868  69.826  1.00  0.00     0.000 HD 
BRANCH  25  27
HETATM   27  C   UNL     1     -10.042   9.609  70.414  1.00  0.00    -0.276 A  
HETATM   28  C   UNL     1     -10.949   8.129  72.098  1.00  0.00    -0.306 A  
HETATM   29  C   UNL     1      -9.908   8.483  71.231  1.00  0.00    -0.279 A  
HETATM   30  N   UNL     1     -12.087   8.876  72.195  1.00  0.00    -0.366 NA 
HETATM   31  C   UNL     1     -10.848   6.860  72.931  1.00  0.00    -0.285 C  
HETATM   32  C   UNL     1     -12.195   9.959  71.403  1.00  0.00    -0.408 A  
HETATM   33  F   UNL     1     -11.845   5.967  72.666  1.00  0.00    -0.325 F  
HETATM   34  F   UNL     1      -9.685   6.169  72.727  1.00  0.00    -0.158 F  
HETATM   35  F   UNL     1     -10.898   7.092  74.275  1.00  0.00    -0.249 F  
HETATM   36  C   UNL     1     -11.225  10.343  70.498  1.00  0.00    -0.395 A  
ENDBRANCH  25  27
ENDBRANCH  14  25
ENDBRANCH   7   9
ENDBRANCH   5   7
TORSDOF 5
ENDMDL
MODEL      119
REMARK 921   NORMALIZED FREE ENERGY PREDICTED BY IDOCK:   -6.44 KCAL/MOL
REMARK 922        TOTAL FREE ENERGY PREDICTED BY IDOCK:   -9.48 KCAL/MOL
REMARK 923 INTER-LIGAND FREE ENERGY PREDICTED BY IDOCK:   -8.36 KCAL/MOL
REMARK 924 INTRA-LIGAND FREE ENERGY PREDICTED BY IDOCK:   -1.12 KCAL/MOL
REMARK 927      BINDING AFFINITY PREDICTED BY RF-SCORE:    0.00 PKD
ROOT
HETATM    1  C   UNL     1     -14.249   6.861  71.605  1.00  0.00    -0.352 C  
HETATM    2  C   UNL     1     -12.793   7.329  71.526  1.00  0.00    -0.388 C  
HETATM    3  C   UNL     1     -11.919   6.466  72.444  1.00  0.00    -0.213 C  
HETATM    4  O   UNL     1     -12.332   7.149  70.178  1.00  0.00    -0.565 OA 
HETATM    5  C   UNL     1     -12.708   8.839  71.877  1.00  0.00    -0.374 C  
HETATM    6  H   UNL     1     -11.428   7.439  70.130  1.00  0.00     0.000 HD 
ENDROOT
BRANCH   5   7
HETATM    7  N   UNL     1     -11.318   9.266  71.935  1.00  0.00    -0.359 NA 
HETATM    8  H   UNL     1     -10.806   9.269  72.818  1.00  0.00     0.000 HD 
BRANCH   7   9
HETATM    9  C   UNL     1     -10.710   9.668  70.762  1.00  0.00    -0.331 A  
HETATM   10  N   UNL     1     -11.270  10.585  69.990  1.00  0.00    -0.295 NA 
HETATM   11  C   UNL     1     -10.604  10.890  68.875  1.00  0.00    -0.210 A  
HETATM   12  N   UNL     1      -9.540   9.098  70.507  1.00  0.00    -0.223 NA 
HETATM   13  N   UNL     1      -9.431  10.353  68.537  1.00  0.00    -0.153 NA 
HETATM   14  C   UNL     1      -8.922   9.486  69.402  1.00  0.00    -0.172 A  
BRANCH  11  15
HETATM   15  C   UNL     1     -11.182  11.899  67.948  1.00  0.00    -0.263 A  
HETATM   16  C   UNL     1     -11.713  12.505  65.734  1.00  0.00    -0.426 A  
HETATM   17  F   UNL     1     -11.060  13.062  63.489  1.00  0.00    -0.429 F  
HETATM   18  N   UNL     1     -11.192  11.603  66.617  1.00  0.00    -0.310 NA 
HETATM   19  C   UNL     1     -12.225  13.733  66.153  1.00  0.00    -0.499 A  
HETATM   20  C   UNL     1     -11.757  12.167  64.250  1.00  0.00    -0.373 C  
HETATM   21  C   UNL     1     -11.701  13.113  68.411  1.00  0.00    -0.386 A  
HETATM   22  C   UNL     1     -12.220  14.036  67.508  1.00  0.00    -0.258 A  
HETATM   23  F   UNL     1     -11.256  10.940  63.932  1.00  0.00    -0.352 F  
HETATM   24  F   UNL     1     -13.030  12.186  63.753  1.00  0.00    -0.551 F  
ENDBRANCH  11  15
BRANCH  14  25
HETATM   25  N   UNL     1      -7.627   8.999  69.211  1.00  0.00    -0.077 NA 
HETATM   26  H   UNL     1      -6.881   9.655  69.441  1.00  0.00     0.000 HD 
BRANCH  25  27
HETATM   27  C   UNL     1      -7.196   7.751  68.752  1.00  0.00    -0.081 A  
HETATM   28  C   UNL     1      -7.360   5.923  67.177  1.00  0.00    -0.077 A  
HETATM   29  C   UNL     1      -7.724   7.216  67.575  1.00  0.00    -0.111 A  
HETATM   30  N   UNL     1      -6.470   5.177  67.893  1.00  0.00    -0.046 NA 
HETATM   31  C   UNL     1      -7.992   5.301  65.941  1.00  0.00    -0.105 C  
HETATM   32  C   UNL     1      -5.969   5.712  69.022  1.00  0.00    -0.024 A  
HETATM   33  F   UNL     1      -8.678   4.153  66.213  1.00  0.00    -0.111 F  
HETATM   34  F   UNL     1      -8.897   6.120  65.323  1.00  0.00    -0.153 F  
HETATM   35  F   UNL     1      -7.083   4.976  64.977  1.00  0.00    -0.056 F  
HETATM   36  C   UNL     1      -6.315   6.964  69.493  1.00  0.00    -0.039 A  
ENDBRANCH  25  27
ENDBRANCH  14  25
ENDBRANCH   7   9
ENDBRANCH   5   7
TORSDOF 5
ENDMDL
MODEL      120
REMARK 921   NORMALIZED FREE ENERGY PREDICTED BY IDOCK:   -6.43 KCAL/MOL
REMARK 922        TOTAL FREE ENERGY PREDICTED BY IDOCK:   -9.48 KCAL/MOL
REMARK 923 INTER-LIGAND FREE ENERGY PREDICTED BY IDOCK:   -8.29 KCAL/MOL
REMARK 924 INTRA-LIGAND FREE ENERGY PREDICTED BY IDOCK:   -1.19 KCAL/MOL
REMARK 927      BINDING AFFINITY PREDICTED BY RF-SCORE:    0.00 PKD
ROOT
HETATM    1  C   UNL     1     -11.041   4.481  73.126  1.00  0.00    -0.350 C  
HETATM    2  C   UNL     1     -10.576   5.926  72.921  1.00  0.00    -0.235 C  
HETATM    3  C   UNL     1     -10.067   6.502  74.247  1.00  0.00    -0.379 C  
HETATM    4  O   UNL     1      -9.481   5.921  71.991  1.00  0.00    -0.151 OA 
HETATM    5  C   UNL     1     -11.732   6.767  72.316  1.00  0.00    -0.263 C  
HETATM    6  H   UNL     1      -9.193   6.818  71.864  1.00  0.00     0.000 HD 
ENDROOT
BRANCH   5   7
HETATM    7  N   UNL     1     -11.349   8.169  72.237  1.00  0.00    -0.337 NA 
HETATM    8  H   UNL     1     -11.229   8.729  73.082  1.00  0.00     0.000 HD 
BRANCH   7   9
HETATM    9  C   UNL     1     -11.151   8.723  70.987  1.00  0.00    -0.270 A  
HETATM   10  N   UNL     1     -11.483   9.981  70.745  1.00  0.00    -0.330 NA 
HETATM   11  C   UNL     1     -11.261  10.409  69.502  1.00  0.00    -0.269 A  
HETATM   12  N   UNL     1     -10.589   7.919  70.094  1.00  0.00    -0.233 NA 
HETATM   13  N   UNL     1     -10.713   9.663  68.541  1.00  0.00    -0.217 NA 
HETATM   14  C   UNL     1     -10.362   8.434  68.896  1.00  0.00    -0.215 A  
BRANCH  11  15
HETATM   15  C   UNL     1     -11.626  11.808  69.150  1.00  0.00    -0.310 A  
HETATM   16  C   UNL     1     -11.995  13.413  67.465  1.00  0.00    -0.339 A  
HETATM   17  F   UNL     1     -11.207  14.784  65.655  1.00  0.00    -0.318 F  
HETATM   18  N   UNL     1     -11.665  12.138  67.828  1.00  0.00    -0.446 NA 
HETATM   19  C   UNL     1     -12.279  14.396  68.412  1.00  0.00    -0.178 A  
HETATM   20  C   UNL     1     -12.072  13.780  65.989  1.00  0.00    -0.436 C  
HETATM   21  C   UNL     1     -11.922  12.761  70.131  1.00  0.00    -0.371 A  
HETATM   22  C   UNL     1     -12.244  14.063  69.759  1.00  0.00    -0.396 A  
HETATM   23  F   UNL     1     -11.798  12.755  65.134  1.00  0.00    -0.350 F  
HETATM   24  F   UNL     1     -13.309  14.238  65.634  1.00  0.00    -0.526 F  
ENDBRANCH  11  15
BRANCH  14  25
HETATM   25  N   UNL     1      -9.637   7.640  68.006  1.00  0.00    -0.143 NA 
HETATM   26  H   UNL     1      -8.896   8.125  67.500  1.00  0.00     0.000 HD 
BRANCH  25  27
HETATM   27  C   UNL     1      -9.770   6.282  67.701  1.00  0.00    -0.119 A  
HETATM   28  C   UNL     1      -9.345   3.962  68.233  1.00  0.00    -0.164 A  
HETATM   29  C   UNL     1      -9.298   5.314  68.591  1.00  0.00    -0.155 A  
HETATM   30  N   UNL     1      -9.875   3.553  67.043  1.00  0.00     0.001 NA 
HETATM   31  C   UNL     1      -8.759   2.907  69.160  1.00  0.00    -0.083 C  
HETATM   32  C   UNL     1     -10.327   4.500  66.201  1.00  0.00    -0.223 A  
HETATM   33  F   UNL     1      -7.749   2.193  68.585  1.00  0.00    -0.049 F  
HETATM   34  F   UNL     1      -8.222   3.430  70.305  1.00  0.00    -0.049 F  
HETATM   35  F   UNL     1      -9.677   1.989  69.580  1.00  0.00    -0.170 F  
HETATM   36  C   UNL     1     -10.275   5.853  66.474  1.00  0.00    -0.217 A  
ENDBRANCH  25  27
ENDBRANCH  14  25
ENDBRANCH   7   9
ENDBRANCH   5   7
TORSDOF 5
ENDMDL
MODEL      121
REMARK 921   NORMALIZED FREE ENERGY PREDICTED BY IDOCK:   -6.43 KCAL/MOL
REMARK 922        TOTAL FREE ENERGY PREDICTED BY IDOCK:   -9.47 KCAL/MOL
REMARK 923 INTER-LIGAND FREE ENERGY PREDICTED BY IDOCK:   -8.66 KCAL/MOL
REMARK 924 INTRA-LIGAND FREE ENERGY PREDICTED BY IDOCK:   -0.80 KCAL/MOL
REMARK 927      BINDING AFFINITY PREDICTED BY RF-SCORE:    0.00 PKD
ROOT
HETATM    1  C   UNL     1      -5.803  15.899  70.063  1.00  0.00    -0.168 C  
HETATM    2  C   UNL     1      -6.027  14.407  69.794  1.00  0.00    -0.119 C  
HETATM    3  C   UNL     1      -5.264  13.572  70.829  1.00  0.00    -0.129 C  
HETATM    4  O   UNL     1      -7.428  14.126  69.945  1.00  0.00    -0.355 OA 
HETATM    5  C   UNL     1      -5.612  14.069  68.338  1.00  0.00    -0.105 C  
HETATM    6  H   UNL     1      -7.567  13.201  69.779  1.00  0.00     0.000 HD 
ENDROOT
BRANCH   5   7
HETATM    7  N   UNL     1      -5.695  12.634  68.109  1.00  0.00    -0.067 NA 
HETATM    8  H   UNL     1      -4.852  12.073  67.980  1.00  0.00     0.000 HD 
BRANCH   7   9
HETATM    9  C   UNL     1      -6.946  12.050  68.073  1.00  0.00    -0.084 A  
HETATM   10  N   UNL     1      -7.960  12.662  67.482  1.00  0.00    -0.163 NA 
HETATM   11  C   UNL     1      -9.126  12.015  67.516  1.00  0.00    -0.177 A  
HETATM   12  N   UNL     1      -7.029  10.851  68.635  1.00  0.00    -0.068 NA 
HETATM   13  N   UNL     1      -9.298  10.815  68.072  1.00  0.00    -0.147 NA 
HETATM   14  C   UNL     1      -8.211  10.258  68.588  1.00  0.00    -0.116 A  
BRANCH  11  15
HETATM   15  C   UNL     1     -10.316  12.650  66.888  1.00  0.00    -0.233 A  
HETATM   16  C   UNL     1     -11.749  12.799  65.024  1.00  0.00    -0.354 A  
HETATM   17  F   UNL     1     -12.152  13.328  62.714  1.00  0.00    -0.499 F  
HETATM   18  N   UNL     1     -10.665  12.239  65.635  1.00  0.00    -0.259 NA 
HETATM   19  C   UNL     1     -12.507  13.795  65.640  1.00  0.00    -0.541 A  
HETATM   20  C   UNL     1     -12.164  12.322  63.638  1.00  0.00    -0.567 C  
HETATM   21  C   UNL     1     -11.060  13.634  67.547  1.00  0.00    -0.296 A  
HETATM   22  C   UNL     1     -12.158  14.213  66.916  1.00  0.00    -0.466 A  
HETATM   23  F   UNL     1     -11.381  11.334  63.121  1.00  0.00    -0.387 F  
HETATM   24  F   UNL     1     -13.439  11.831  63.620  1.00  0.00    -0.440 F  
ENDBRANCH  11  15
BRANCH  14  25
HETATM   25  N   UNL     1      -8.262   8.939  69.044  1.00  0.00    -0.115 NA 
HETATM   26  H   UNL     1      -7.358   8.528  69.277  1.00  0.00     0.000 HD 
BRANCH  25  27
HETATM   27  C   UNL     1      -9.360   8.094  69.229  1.00  0.00    -0.151 A  
HETATM   28  C   UNL     1     -11.014   7.092  70.681  1.00  0.00    -0.260 A  
HETATM   29  C   UNL     1      -9.979   8.013  70.479  1.00  0.00    -0.193 A  
HETATM   30  N   UNL     1     -11.464   6.287  69.675  1.00  0.00    -0.429 NA 
HETATM   31  C   UNL     1     -11.638   6.938  72.060  1.00  0.00    -0.285 C  
HETATM   32  C   UNL     1     -10.858   6.383  68.477  1.00  0.00    -0.314 A  
HETATM   33  F   UNL     1     -11.505   5.679  72.569  1.00  0.00    -0.305 F  
HETATM   34  F   UNL     1     -11.086   7.764  73.001  1.00  0.00    -0.381 F  
HETATM   35  F   UNL     1     -12.975   7.212  72.080  1.00  0.00    -0.328 F  
HETATM   36  C   UNL     1      -9.806   7.241  68.220  1.00  0.00    -0.165 A  
ENDBRANCH  25  27
ENDBRANCH  14  25
ENDBRANCH   7   9
ENDBRANCH   5   7
TORSDOF 5
ENDMDL
MODEL      122
REMARK 921   NORMALIZED FREE ENERGY PREDICTED BY IDOCK:   -6.41 KCAL/MOL
REMARK 922        TOTAL FREE ENERGY PREDICTED BY IDOCK:   -9.45 KCAL/MOL
REMARK 923 INTER-LIGAND FREE ENERGY PREDICTED BY IDOCK:   -8.49 KCAL/MOL
REMARK 924 INTRA-LIGAND FREE ENERGY PREDICTED BY IDOCK:   -0.96 KCAL/MOL
REMARK 927      BINDING AFFINITY PREDICTED BY RF-SCORE:    0.00 PKD
ROOT
HETATM    1  C   UNL     1      -7.768   4.088  63.436  1.00  0.00    -0.066 C  
HETATM    2  C   UNL     1      -7.747   4.527  64.904  1.00  0.00    -0.081 C  
HETATM    3  C   UNL     1      -8.961   3.946  65.638  1.00  0.00    -0.133 C  
HETATM    4  O   UNL     1      -6.562   3.995  65.518  1.00  0.00    -0.039 OA 
HETATM    5  C   UNL     1      -7.691   6.076  64.985  1.00  0.00    -0.097 C  
HETATM    6  H   UNL     1      -6.549   4.268  66.428  1.00  0.00     0.000 HD 
ENDROOT
BRANCH   5   7
HETATM    7  N   UNL     1      -7.802   6.513  66.370  1.00  0.00    -0.102 NA 
HETATM    8  H   UNL     1      -7.155   6.172  67.081  1.00  0.00     0.000 HD 
BRANCH   7   9
HETATM    9  C   UNL     1      -8.809   7.401  66.694  1.00  0.00    -0.143 A  
HETATM   10  N   UNL     1      -9.022   8.480  65.958  1.00  0.00    -0.174 NA 
HETATM   11  C   UNL     1     -10.010   9.275  66.369  1.00  0.00    -0.286 A  
HETATM   12  N   UNL     1      -9.537   7.069  67.753  1.00  0.00    -0.123 NA 
HETATM   13  N   UNL     1     -10.780   9.024  67.429  1.00  0.00    -0.232 NA 
HETATM   14  C   UNL     1     -10.527   7.890  68.069  1.00  0.00    -0.185 A  
BRANCH  11  15
HETATM   15  C   UNL     1     -10.296  10.518  65.601  1.00  0.00    -0.204 A  
HETATM   16  C   UNL     1     -11.272  12.661  65.562  1.00  0.00    -0.302 A  
HETATM   17  F   UNL     1     -13.194  14.102  65.656  1.00  0.00    -0.568 F  
HETATM   18  N   UNL     1     -10.989  11.507  66.234  1.00  0.00    -0.289 NA 
HETATM   19  C   UNL     1     -10.885  12.854  64.237  1.00  0.00    -0.423 A  
HETATM   20  C   UNL     1     -12.018  13.783  66.273  1.00  0.00    -0.429 C  
HETATM   21  C   UNL     1      -9.874  10.678  64.277  1.00  0.00    -0.391 A  
HETATM   22  C   UNL     1     -10.176  11.851  63.590  1.00  0.00    -0.466 A  
HETATM   23  F   UNL     1     -12.339  13.518  67.570  1.00  0.00    -0.365 F  
HETATM   24  F   UNL     1     -11.299  14.945  66.300  1.00  0.00    -0.335 F  
ENDBRANCH  11  15
BRANCH  14  25
HETATM   25  N   UNL     1     -11.383   7.466  69.087  1.00  0.00    -0.407 NA 
HETATM   26  H   UNL     1     -12.344   7.285  68.795  1.00  0.00     0.000 HD 
BRANCH  25  27
HETATM   27  C   UNL     1     -11.128   7.251  70.444  1.00  0.00    -0.268 A  
HETATM   28  C   UNL     1     -10.638   5.748  72.274  1.00  0.00    -0.218 A  
HETATM   29  C   UNL     1     -10.795   5.974  70.901  1.00  0.00    -0.349 A  
HETATM   30  N   UNL     1     -10.768   6.755  73.186  1.00  0.00    -0.280 NA 
HETATM   31  C   UNL     1     -10.356   4.344  72.788  1.00  0.00    -0.184 C  
HETATM   32  C   UNL     1     -11.085   7.979  72.725  1.00  0.00    -0.381 A  
HETATM   33  F   UNL     1     -11.317   3.885  73.641  1.00  0.00    -0.312 F  
HETATM   34  F   UNL     1     -10.284   3.407  71.794  1.00  0.00    -0.242 F  
HETATM   35  F   UNL     1      -9.175   4.245  73.463  1.00  0.00    -0.102 F  
HETATM   36  C   UNL     1     -11.293   8.263  71.389  1.00  0.00    -0.309 A  
ENDBRANCH  25  27
ENDBRANCH  14  25
ENDBRANCH   7   9
ENDBRANCH   5   7
TORSDOF 5
ENDMDL
MODEL      123
REMARK 921   NORMALIZED FREE ENERGY PREDICTED BY IDOCK:   -6.40 KCAL/MOL
REMARK 922        TOTAL FREE ENERGY PREDICTED BY IDOCK:   -9.44 KCAL/MOL
REMARK 923 INTER-LIGAND FREE ENERGY PREDICTED BY IDOCK:   -8.49 KCAL/MOL
REMARK 924 INTRA-LIGAND FREE ENERGY PREDICTED BY IDOCK:   -0.95 KCAL/MOL
REMARK 927      BINDING AFFINITY PREDICTED BY RF-SCORE:    0.00 PKD
ROOT
HETATM    1  C   UNL     1     -14.021  15.537  71.797  1.00  0.00    -0.569 C  
HETATM    2  C   UNL     1     -12.990  14.417  71.967  1.00  0.00    -0.353 C  
HETATM    3  C   UNL     1     -11.577  14.977  71.766  1.00  0.00    -0.425 C  
HETATM    4  O   UNL     1     -13.081  13.918  73.311  1.00  0.00    -0.501 OA 
HETATM    5  C   UNL     1     -13.312  13.256  70.988  1.00  0.00     0.110 C  
HETATM    6  H   UNL     1     -12.441  13.224  73.416  1.00  0.00     0.000 HD 
ENDROOT
BRANCH   5   7
HETATM    7  N   UNL     1     -12.267  12.244  71.045  1.00  0.00    -0.374 NA 
HETATM    8  H   UNL     1     -11.874  11.945  71.939  1.00  0.00     0.000 HD 
BRANCH   7   9
HETATM    9  C   UNL     1     -11.821  11.699  69.857  1.00  0.00    -0.358 A  
HETATM   10  N   UNL     1     -11.262  10.499  69.832  1.00  0.00    -0.286 NA 
HETATM   11  C   UNL     1     -10.857  10.075  68.634  1.00  0.00    -0.229 A  
HETATM   12  N   UNL     1     -12.025  12.445  68.780  1.00  0.00    -0.282 NA 
HETATM   13  N   UNL     1     -11.011  10.767  67.505  1.00  0.00    -0.294 NA 
HETATM   14  C   UNL     1     -11.632  11.933  67.624  1.00  0.00    -0.312 A  
BRANCH  11  15
HETATM   15  C   UNL     1     -10.202   8.742  68.530  1.00  0.00    -0.195 A  
HETATM   16  C   UNL     1      -8.222   7.474  68.664  1.00  0.00    -0.129 A  
HETATM   17  F   UNL     1      -6.022   6.915  67.871  1.00  0.00    -0.025 F  
HETATM   18  N   UNL     1      -8.858   8.679  68.751  1.00  0.00    -0.138 NA 
HETATM   19  C   UNL     1      -8.905   6.303  68.338  1.00  0.00    -0.114 A  
HETATM   20  C   UNL     1      -6.726   7.390  68.941  1.00  0.00    -0.049 C  
HETATM   21  C   UNL     1     -10.928   7.588  68.218  1.00  0.00     0.047 A  
HETATM   22  C   UNL     1     -10.274   6.363  68.116  1.00  0.00    -0.196 A  
HETATM   23  F   UNL     1      -6.143   8.577  69.270  1.00  0.00    -0.038 F  
HETATM   24  F   UNL     1      -6.438   6.538  69.969  1.00  0.00    -0.035 F  
ENDBRANCH  11  15
BRANCH  14  25
HETATM   25  N   UNL     1     -11.982  12.649  66.477  1.00  0.00    -0.533 NA 
HETATM   26  H   UNL     1     -12.683  12.202  65.886  1.00  0.00     0.000 HD 
BRANCH  25  27
HETATM   27  C   UNL     1     -11.519  13.884  66.014  1.00  0.00    -0.340 A  
HETATM   28  C   UNL     1     -10.367  15.974  66.405  1.00  0.00    -0.305 A  
HETATM   29  C   UNL     1     -10.742  14.697  66.842  1.00  0.00    -0.294 A  
HETATM   30  N   UNL     1     -10.712  16.439  65.169  1.00  0.00    -0.628 NA 
HETATM   31  C   UNL     1      -9.590  16.898  67.331  1.00  0.00    -0.241 C  
HETATM   32  C   UNL     1     -11.458  15.639  64.385  1.00  0.00    -0.262 A  
HETATM   33  F   UNL     1     -10.249  18.063  67.596  1.00  0.00    -0.303 F  
HETATM   34  F   UNL     1      -9.331  16.346  68.556  1.00  0.00    -0.197 F  
HETATM   35  F   UNL     1      -8.372  17.259  66.833  1.00  0.00    -0.205 F  
HETATM   36  C   UNL     1     -11.895  14.385  64.768  1.00  0.00    -0.439 A  
ENDBRANCH  25  27
ENDBRANCH  14  25
ENDBRANCH   7   9
ENDBRANCH   5   7
TORSDOF 5
ENDMDL
MODEL      124
REMARK 921   NORMALIZED FREE ENERGY PREDICTED BY IDOCK:   -6.40 KCAL/MOL
REMARK 922        TOTAL FREE ENERGY PREDICTED BY IDOCK:   -9.43 KCAL/MOL
REMARK 923 INTER-LIGAND FREE ENERGY PREDICTED BY IDOCK:   -8.42 KCAL/MOL
REMARK 924 INTRA-LIGAND FREE ENERGY PREDICTED BY IDOCK:   -1.01 KCAL/MOL
REMARK 927      BINDING AFFINITY PREDICTED BY RF-SCORE:    0.00 PKD
ROOT
HETATM    1  C   UNL     1     -11.042   7.376  73.231  1.00  0.00    -0.303 C  
HETATM    2  C   UNL     1     -11.953   8.028  72.186  1.00  0.00    -0.348 C  
HETATM    3  C   UNL     1     -12.485   6.960  71.223  1.00  0.00    -0.409 C  
HETATM    4  O   UNL     1     -13.076   8.611  72.864  1.00  0.00    -0.671 OA 
HETATM    5  C   UNL     1     -11.181   9.156  71.451  1.00  0.00    -0.349 C  
HETATM    6  H   UNL     1     -13.641   9.015  72.215  1.00  0.00     0.000 HD 
ENDROOT
BRANCH   5   7
HETATM    7  N   UNL     1     -11.989   9.696  70.366  1.00  0.00    -0.444 NA 
HETATM    8  H   UNL     1     -12.996   9.819  70.473  1.00  0.00     0.000 HD 
BRANCH   7   9
HETATM    9  C   UNL     1     -11.355  10.036  69.187  1.00  0.00    -0.094 A  
HETATM   10  N   UNL     1     -11.670  11.151  68.548  1.00  0.00    -0.445 NA 
HETATM   11  C   UNL     1     -11.005  11.375  67.414  1.00  0.00    -0.273 A  
HETATM   12  N   UNL     1     -10.413   9.192  68.786  1.00  0.00    -0.218 NA 
HETATM   13  N   UNL     1     -10.055  10.572  66.933  1.00  0.00    -0.208 NA 
HETATM   14  C   UNL     1      -9.770   9.509  67.674  1.00  0.00    -0.154 A  
BRANCH  11  15
HETATM   15  C   UNL     1     -11.319  12.601  66.630  1.00  0.00    -0.326 A  
HETATM   16  C   UNL     1     -10.976  14.909  66.309  1.00  0.00    -0.338 A  
HETATM   17  F   UNL     1     -11.156  17.188  67.053  1.00  0.00    -0.168 F  
HETATM   18  N   UNL     1     -10.711  13.763  67.003  1.00  0.00    -0.281 NA 
HETATM   19  C   UNL     1     -11.864  14.930  65.235  1.00  0.00    -0.217 A  
HETATM   20  C   UNL     1     -10.276  16.204  66.700  1.00  0.00    -0.287 C  
HETATM   21  C   UNL     1     -12.204  12.575  65.547  1.00  0.00    -0.442 A  
HETATM   22  C   UNL     1     -12.482  13.748  64.850  1.00  0.00    -0.420 A  
HETATM   23  F   UNL     1      -9.411  16.089  67.746  1.00  0.00    -0.205 F  
HETATM   24  F   UNL     1      -9.544  16.727  65.671  1.00  0.00    -0.263 F  
ENDBRANCH  11  15
BRANCH  14  25
HETATM   25  N   UNL     1      -8.682   8.703  67.334  1.00  0.00    -0.133 NA 
HETATM   26  H   UNL     1      -7.867   8.802  67.939  1.00  0.00     0.000 HD 
BRANCH  25  27
HETATM   27  C   UNL     1      -8.537   7.782  66.293  1.00  0.00    -0.150 A  
HETATM   28  C   UNL     1      -8.998   5.610  65.335  1.00  0.00    -0.069 A  
HETATM   29  C   UNL     1      -9.226   6.567  66.331  1.00  0.00    -0.178 A  
HETATM   30  N   UNL     1      -8.142   5.844  64.298  1.00  0.00    -0.129 NA 
HETATM   31  C   UNL     1      -9.682   4.253  65.412  1.00  0.00    -0.200 C  
HETATM   32  C   UNL     1      -7.491   7.021  64.277  1.00  0.00    -0.098 A  
HETATM   33  F   UNL     1      -8.799   3.214  65.482  1.00  0.00    -0.115 F  
HETATM   34  F   UNL     1     -10.487   4.112  66.509  1.00  0.00    -0.192 F  
HETATM   35  F   UNL     1     -10.485   3.992  64.340  1.00  0.00    -0.210 F  
HETATM   36  C   UNL     1      -7.638   7.993  65.248  1.00  0.00    -0.085 A  
ENDBRANCH  25  27
ENDBRANCH  14  25
ENDBRANCH   7   9
ENDBRANCH   5   7
TORSDOF 5
ENDMDL
MODEL      125
REMARK 921   NORMALIZED FREE ENERGY PREDICTED BY IDOCK:   -6.38 KCAL/MOL
REMARK 922        TOTAL FREE ENERGY PREDICTED BY IDOCK:   -9.40 KCAL/MOL
REMARK 923 INTER-LIGAND FREE ENERGY PREDICTED BY IDOCK:   -8.15 KCAL/MOL
REMARK 924 INTRA-LIGAND FREE ENERGY PREDICTED BY IDOCK:   -1.25 KCAL/MOL
REMARK 927      BINDING AFFINITY PREDICTED BY RF-SCORE:    0.00 PKD
ROOT
HETATM    1  C   UNL     1     -13.371   9.867  70.625  1.00  0.00    -0.071 C  
HETATM    2  C   UNL     1     -12.024  10.426  70.157  1.00  0.00    -0.276 C  
HETATM    3  C   UNL     1     -10.912   9.965  71.106  1.00  0.00    -0.298 C  
HETATM    4  O   UNL     1     -11.741   9.894  68.853  1.00  0.00    -0.484 OA 
HETATM    5  C   UNL     1     -12.108  11.972  70.051  1.00  0.00    -0.280 C  
HETATM    6  H   UNL     1     -10.906  10.242  68.563  1.00  0.00     0.000 HD 
ENDROOT
BRANCH   5   7
HETATM    7  N   UNL     1     -10.800  12.528  69.735  1.00  0.00    -0.276 NA 
HETATM    8  H   UNL     1     -10.062  12.567  70.439  1.00  0.00     0.000 HD 
BRANCH   7   9
HETATM    9  C   UNL     1     -10.584  13.002  68.456  1.00  0.00    -0.258 A  
HETATM   10  N   UNL     1     -10.335  12.167  67.459  1.00  0.00    -0.204 NA 
HETATM   11  C   UNL     1     -10.130  12.732  66.269  1.00  0.00    -0.259 A  
HETATM   12  N   UNL     1     -10.678  14.318  68.316  1.00  0.00    -0.241 NA 
HETATM   13  N   UNL     1     -10.191  14.046  66.045  1.00  0.00    -0.295 NA 
HETATM   14  C   UNL     1     -10.503  14.795  67.094  1.00  0.00    -0.265 A  
BRANCH  11  15
HETATM   15  C   UNL     1      -9.826  11.858  65.104  1.00  0.00    -0.218 A  
HETATM   16  C   UNL     1      -8.729   9.945  64.275  1.00  0.00    -0.209 A  
HETATM   17  F   UNL     1      -6.722   8.721  63.771  1.00  0.00    -0.085 F  
HETATM   18  N   UNL     1      -9.031  10.771  65.319  1.00  0.00    -0.191 NA 
HETATM   19  C   UNL     1      -9.198  10.190  62.984  1.00  0.00    -0.317 A  
HETATM   20  C   UNL     1      -7.868   8.711  64.514  1.00  0.00    -0.132 C  
HETATM   21  C   UNL     1     -10.331  12.129  63.828  1.00  0.00    -0.465 A  
HETATM   22  C   UNL     1     -10.010  11.293  62.762  1.00  0.00    -0.197 A  
HETATM   23  F   UNL     1      -7.471   8.539  65.806  1.00  0.00    -0.076 F  
HETATM   24  F   UNL     1      -8.512   7.557  64.168  1.00  0.00    -0.072 F  
ENDBRANCH  11  15
BRANCH  14  25
HETATM   25  N   UNL     1     -10.749  16.159  66.919  1.00  0.00    -0.290 NA 
HETATM   26  H   UNL     1     -11.542  16.380  66.317  1.00  0.00     0.000 HD 
BRANCH  25  27
HETATM   27  C   UNL     1     -10.076  17.267  67.441  1.00  0.00    -0.307 A  
HETATM   28  C   UNL     1      -8.028  18.326  68.170  1.00  0.00    -0.284 A  
HETATM   29  C   UNL     1      -8.684  17.253  67.555  1.00  0.00    -0.212 A  
HETATM   30  N   UNL     1      -8.711  19.412  68.636  1.00  0.00    -0.368 NA 
HETATM   31  C   UNL     1      -6.521  18.283  68.372  1.00  0.00    -0.208 C  
HETATM   32  C   UNL     1     -10.051  19.408  68.514  1.00  0.00    -0.437 A  
HETATM   33  F   UNL     1      -6.156  18.355  69.685  1.00  0.00    -0.232 F  
HETATM   34  F   UNL     1      -5.943  17.135  67.903  1.00  0.00    -0.119 F  
HETATM   35  F   UNL     1      -5.864  19.300  67.743  1.00  0.00    -0.189 F  
HETATM   36  C   UNL     1     -10.765  18.366  67.954  1.00  0.00    -0.334 A  
ENDBRANCH  25  27
ENDBRANCH  14  25
ENDBRANCH   7   9
ENDBRANCH   5   7
TORSDOF 5
ENDMDL
MODEL      126
REMARK 921   NORMALIZED FREE ENERGY PREDICTED BY IDOCK:   -6.36 KCAL/MOL
REMARK 922        TOTAL FREE ENERGY PREDICTED BY IDOCK:   -9.38 KCAL/MOL
REMARK 923 INTER-LIGAND FREE ENERGY PREDICTED BY IDOCK:   -8.36 KCAL/MOL
REMARK 924 INTRA-LIGAND FREE ENERGY PREDICTED BY IDOCK:   -1.01 KCAL/MOL
REMARK 927      BINDING AFFINITY PREDICTED BY RF-SCORE:    0.00 PKD
ROOT
HETATM    1  C   UNL     1      -5.438  12.068  70.004  1.00  0.00    -0.109 C  
HETATM    2  C   UNL     1      -6.212  10.853  69.484  1.00  0.00    -0.073 C  
HETATM    3  C   UNL     1      -5.294   9.625  69.452  1.00  0.00    -0.035 C  
HETATM    4  O   UNL     1      -7.287  10.577  70.397  1.00  0.00    -0.451 OA 
HETATM    5  C   UNL     1      -6.819  11.175  68.092  1.00  0.00    -0.067 C  
HETATM    6  H   UNL     1      -7.767   9.823  70.074  1.00  0.00     0.000 HD 
ENDROOT
BRANCH   5   7
HETATM    7  N   UNL     1      -7.446   9.988  67.529  1.00  0.00    -0.090 NA 
HETATM    8  H   UNL     1      -7.049   9.523  66.712  1.00  0.00     0.000 HD 
BRANCH   7   9
HETATM    9  C   UNL     1      -8.594   9.509  68.129  1.00  0.00    -0.120 A  
HETATM   10  N   UNL     1      -8.602   8.329  68.726  1.00  0.00    -0.132 NA 
HETATM   11  C   UNL     1      -9.766   7.959  69.262  1.00  0.00    -0.159 A  
HETATM   12  N   UNL     1      -9.640  10.324  68.082  1.00  0.00    -0.139 NA 
HETATM   13  N   UNL     1     -10.868   8.710  69.247  1.00  0.00    -0.131 NA 
HETATM   14  C   UNL     1     -10.746   9.901  68.675  1.00  0.00    -0.226 A  
BRANCH  11  15
HETATM   15  C   UNL     1      -9.856   6.635  69.935  1.00  0.00    -0.167 A  
HETATM   16  C   UNL     1     -10.256   5.424  71.916  1.00  0.00    -0.203 A  
HETATM   17  F   UNL     1      -9.670   4.817  74.167  1.00  0.00    -0.122 F  
HETATM   18  N   UNL     1     -10.166   6.620  71.263  1.00  0.00    -0.199 NA 
HETATM   19  C   UNL     1     -10.025   4.212  71.266  1.00  0.00    -0.216 A  
HETATM   20  C   UNL     1     -10.632   5.398  73.392  1.00  0.00    -0.258 C  
HETATM   21  C   UNL     1      -9.635   5.440  69.242  1.00  0.00    -0.198 A  
HETATM   22  C   UNL     1      -9.714   4.223  69.914  1.00  0.00    -0.291 A  
HETATM   23  F   UNL     1     -10.859   6.624  73.941  1.00  0.00    -0.313 F  
HETATM   24  F   UNL     1     -11.767   4.674  73.623  1.00  0.00    -0.351 F  
ENDBRANCH  11  15
BRANCH  14  25
HETATM   25  N   UNL     1     -11.796  10.817  68.757  1.00  0.00    -0.631 NA 
HETATM   26  H   UNL     1     -12.291  10.985  67.881  1.00  0.00     0.000 HD 
BRANCH  25  27
HETATM   27  C   UNL     1     -12.275  11.539  69.853  1.00  0.00    -0.258 A  
HETATM   28  C   UNL     1     -12.557  13.636  71.023  1.00  0.00    -0.363 A  
HETATM   29  C   UNL     1     -12.165  12.931  69.879  1.00  0.00    -0.258 A  
HETATM   30  N   UNL     1     -13.081  13.002  72.112  1.00  0.00    -0.383 NA 
HETATM   31  C   UNL     1     -12.364  15.144  71.092  1.00  0.00    -0.341 C  
HETATM   32  C   UNL     1     -13.183  11.661  72.066  1.00  0.00    -0.338 A  
HETATM   33  F   UNL     1     -11.549  15.531  72.115  1.00  0.00    -0.414 F  
HETATM   34  F   UNL     1     -11.796  15.670  69.964  1.00  0.00    -0.284 F  
HETATM   35  F   UNL     1     -13.532  15.829  71.261  1.00  0.00    -0.537 F  
HETATM   36  C   UNL     1     -12.780  10.900  70.986  1.00  0.00    -0.505 A  
ENDBRANCH  25  27
ENDBRANCH  14  25
ENDBRANCH   7   9
ENDBRANCH   5   7
TORSDOF 5
ENDMDL
MODEL      127
REMARK 921   NORMALIZED FREE ENERGY PREDICTED BY IDOCK:   -6.34 KCAL/MOL
REMARK 922        TOTAL FREE ENERGY PREDICTED BY IDOCK:   -9.36 KCAL/MOL
REMARK 923 INTER-LIGAND FREE ENERGY PREDICTED BY IDOCK:   -8.21 KCAL/MOL
REMARK 924 INTRA-LIGAND FREE ENERGY PREDICTED BY IDOCK:   -1.15 KCAL/MOL
REMARK 927      BINDING AFFINITY PREDICTED BY RF-SCORE:    0.00 PKD
ROOT
HETATM    1  C   UNL     1      -6.155   6.390  65.991  1.00  0.00    -0.033 C  
HETATM    2  C   UNL     1      -7.667   6.572  66.147  1.00  0.00    -0.092 C  
HETATM    3  C   UNL     1      -8.406   5.652  65.168  1.00  0.00    -0.146 C  
HETATM    4  O   UNL     1      -8.034   6.184  67.481  1.00  0.00    -0.104 OA 
HETATM    5  C   UNL     1      -8.038   8.067  65.950  1.00  0.00    -0.117 C  
HETATM    6  H   UNL     1      -8.973   6.298  67.577  1.00  0.00     0.000 HD 
ENDROOT
BRANCH   5   7
HETATM    7  N   UNL     1      -9.483   8.235  65.965  1.00  0.00    -0.399 NA 
HETATM    8  H   UNL     1     -10.061   7.876  65.205  1.00  0.00     0.000 HD 
BRANCH   7   9
HETATM    9  C   UNL     1     -10.053   8.893  67.038  1.00  0.00    -0.261 A  
HETATM   10  N   UNL     1      -9.839   8.478  68.276  1.00  0.00    -0.163 NA 
HETATM   11  C   UNL     1     -10.447   9.178  69.235  1.00  0.00    -0.221 A  
HETATM   12  N   UNL     1     -10.778   9.959  66.728  1.00  0.00    -0.137 NA 
HETATM   13  N   UNL     1     -11.204  10.253  69.008  1.00  0.00    -0.226 NA 
HETATM   14  C   UNL     1     -11.312  10.625  67.740  1.00  0.00    -0.244 A  
BRANCH  11  15
HETATM   15  C   UNL     1     -10.268   8.759  70.651  1.00  0.00    -0.202 A  
HETATM   16  C   UNL     1      -8.789   8.197  72.396  1.00  0.00    -0.197 A  
HETATM   17  F   UNL     1      -7.118   6.762  73.361  1.00  0.00    -0.075 F  
HETATM   18  N   UNL     1      -8.993   8.583  71.103  1.00  0.00    -0.169 NA 
HETATM   19  C   UNL     1      -9.850   7.962  73.270  1.00  0.00    -0.345 A  
HETATM   20  C   UNL     1      -7.367   8.030  72.916  1.00  0.00    -0.112 C  
HETATM   21  C   UNL     1     -11.360   8.550  71.500  1.00  0.00    -0.348 A  
HETATM   22  C   UNL     1     -11.148   8.143  72.815  1.00  0.00    -0.407 A  
HETATM   23  F   UNL     1      -6.393   8.300  72.003  1.00  0.00    -0.043 F  
HETATM   24  F   UNL     1      -7.108   8.843  73.984  1.00  0.00    -0.138 F  
ENDBRANCH  11  15
BRANCH  14  25
HETATM   25  N   UNL     1     -11.948  11.827  67.425  1.00  0.00    -0.612 NA 
HETATM   26  H   UNL     1     -12.790  12.024  67.966  1.00  0.00     0.000 HD 
BRANCH  25  27
HETATM   27  C   UNL     1     -11.609  12.803  66.484  1.00  0.00    -0.376 A  
HETATM   28  C   UNL     1     -10.646  14.955  65.947  1.00  0.00    -0.325 A  
HETATM   29  C   UNL     1     -10.894  13.937  66.876  1.00  0.00    -0.286 A  
HETATM   30  N   UNL     1     -11.055  14.857  64.650  1.00  0.00    -0.355 NA 
HETATM   31  C   UNL     1      -9.939  16.230  66.385  1.00  0.00    -0.300 C  
HETATM   32  C   UNL     1     -11.739  13.756  64.290  1.00  0.00    -0.395 A  
HETATM   33  F   UNL     1     -10.696  17.350  66.200  1.00  0.00    -0.317 F  
HETATM   34  F   UNL     1      -9.607  16.238  67.713  1.00  0.00    -0.217 F  
HETATM   35  F   UNL     1      -8.768  16.452  65.720  1.00  0.00    -0.350 F  
HETATM   36  C   UNL     1     -12.053  12.732  65.164  1.00  0.00    -0.498 A  
ENDBRANCH  25  27
ENDBRANCH  14  25
ENDBRANCH   7   9
ENDBRANCH   5   7
TORSDOF 5
ENDMDL
MODEL      128
REMARK 921   NORMALIZED FREE ENERGY PREDICTED BY IDOCK:   -6.34 KCAL/MOL
REMARK 922        TOTAL FREE ENERGY PREDICTED BY IDOCK:   -9.35 KCAL/MOL
REMARK 923 INTER-LIGAND FREE ENERGY PREDICTED BY IDOCK:   -8.34 KCAL/MOL
REMARK 924 INTRA-LIGAND FREE ENERGY PREDICTED BY IDOCK:   -1.00 KCAL/MOL
REMARK 927      BINDING AFFINITY PREDICTED BY RF-SCORE:    0.00 PKD
ROOT
HETATM    1  C   UNL     1     -11.155   7.701  73.047  1.00  0.00    -0.437 C  
HETATM    2  C   UNL     1     -12.029   8.034  71.834  1.00  0.00    -0.314 C  
HETATM    3  C   UNL     1     -11.967   6.888  70.817  1.00  0.00    -0.424 C  
HETATM    4  O   UNL     1     -13.390   8.159  72.277  1.00  0.00    -0.494 OA 
HETATM    5  C   UNL     1     -11.584   9.391  71.224  1.00  0.00    -0.364 C  
HETATM    6  H   UNL     1     -13.932   8.366  71.525  1.00  0.00     0.000 HD 
ENDROOT
BRANCH   5   7
HETATM    7  N   UNL     1     -12.317   9.657  69.995  1.00  0.00    -0.343 NA 
HETATM    8  H   UNL     1     -13.335   9.591  69.967  1.00  0.00     0.000 HD 
BRANCH   7   9
HETATM    9  C   UNL     1     -11.598  10.001  68.868  1.00  0.00     0.093 A  
HETATM   10  N   UNL     1     -11.826  11.145  68.244  1.00  0.00    -0.577 NA 
HETATM   11  C   UNL     1     -11.084  11.371  67.159  1.00  0.00    -0.305 A  
HETATM   12  N   UNL     1     -10.669   9.128  68.500  1.00  0.00    -0.164 NA 
HETATM   13  N   UNL     1     -10.140  10.541  66.713  1.00  0.00    -0.211 NA 
HETATM   14  C   UNL     1      -9.946   9.447  67.438  1.00  0.00    -0.199 A  
BRANCH  11  15
HETATM   15  C   UNL     1     -11.297  12.630  66.394  1.00  0.00    -0.331 A  
HETATM   16  C   UNL     1     -10.811  14.921  66.144  1.00  0.00    -0.327 A  
HETATM   17  F   UNL     1     -10.892  17.190  66.936  1.00  0.00    -0.276 F  
HETATM   18  N   UNL     1     -10.640  13.747  66.819  1.00  0.00    -0.272 NA 
HETATM   19  C   UNL     1     -11.655  15.018  65.038  1.00  0.00    -0.332 A  
HETATM   20  C   UNL     1     -10.055  16.165  66.593  1.00  0.00    -0.276 C  
HETATM   21  C   UNL     1     -12.139  12.680  65.279  1.00  0.00    -0.519 A  
HETATM   22  C   UNL     1     -12.323  13.882  64.601  1.00  0.00    -0.421 A  
HETATM   23  F   UNL     1      -9.240  15.977  67.667  1.00  0.00    -0.199 F  
HETATM   24  F   UNL     1      -9.256  16.668  65.605  1.00  0.00    -0.271 F  
ENDBRANCH  11  15
BRANCH  14  25
HETATM   25  N   UNL     1      -8.874   8.604  67.141  1.00  0.00    -0.127 NA 
HETATM   26  H   UNL     1      -8.334   8.866  66.316  1.00  0.00     0.000 HD 
BRANCH  25  27
HETATM   27  C   UNL     1      -8.425   7.456  67.799  1.00  0.00    -0.118 A  
HETATM   28  C   UNL     1      -8.551   5.071  68.180  1.00  0.00    -0.102 A  
HETATM   29  C   UNL     1      -8.933   6.202  67.449  1.00  0.00    -0.112 A  
HETATM   30  N   UNL     1      -7.663   5.151  69.213  1.00  0.00    -0.075 NA 
HETATM   31  C   UNL     1      -9.161   3.715  67.859  1.00  0.00    -0.176 C  
HETATM   32  C   UNL     1      -7.182   6.366  69.532  1.00  0.00    -0.078 A  
HETATM   33  F   UNL     1      -9.839   3.172  68.911  1.00  0.00    -0.206 F  
HETATM   34  F   UNL     1     -10.066   3.756  66.833  1.00  0.00    -0.206 F  
HETATM   35  F   UNL     1      -8.237   2.783  67.486  1.00  0.00    -0.076 F  
HETATM   36  C   UNL     1      -7.545   7.528  68.879  1.00  0.00    -0.105 A  
ENDBRANCH  25  27
ENDBRANCH  14  25
ENDBRANCH   7   9
ENDBRANCH   5   7
TORSDOF 5
ENDMDL
MODEL      129
REMARK 921   NORMALIZED FREE ENERGY PREDICTED BY IDOCK:   -6.33 KCAL/MOL
REMARK 922        TOTAL FREE ENERGY PREDICTED BY IDOCK:   -9.34 KCAL/MOL
REMARK 923 INTER-LIGAND FREE ENERGY PREDICTED BY IDOCK:   -8.37 KCAL/MOL
REMARK 924 INTRA-LIGAND FREE ENERGY PREDICTED BY IDOCK:   -0.97 KCAL/MOL
REMARK 927      BINDING AFFINITY PREDICTED BY RF-SCORE:    0.00 PKD
ROOT
HETATM    1  C   UNL     1     -14.374   8.294  72.102  1.00  0.00    -0.498 C  
HETATM    2  C   UNL     1     -13.048   8.978  71.753  1.00  0.00    -0.381 C  
HETATM    3  C   UNL     1     -11.975   8.584  72.775  1.00  0.00    -0.159 C  
HETATM    4  O   UNL     1     -12.624   8.511  70.463  1.00  0.00    -0.379 OA 
HETATM    5  C   UNL     1     -13.257  10.515  71.676  1.00  0.00    -0.391 C  
HETATM    6  H   UNL     1     -11.802   8.936  70.247  1.00  0.00     0.000 HD 
ENDROOT
BRANCH   5   7
HETATM    7  N   UNL     1     -11.982  11.187  71.475  1.00  0.00     0.045 NA 
HETATM    8  H   UNL     1     -11.415  11.485  72.270  1.00  0.00     0.000 HD 
BRANCH   7   9
HETATM    9  C   UNL     1     -11.560  11.412  70.180  1.00  0.00    -0.280 A  
HETATM   10  N   UNL     1     -10.861  10.496  69.528  1.00  0.00    -0.240 NA 
HETATM   11  C   UNL     1     -10.494  10.821  68.288  1.00  0.00    -0.181 A  
HETATM   12  N   UNL     1     -11.933  12.572  69.655  1.00  0.00    -0.296 NA 
HETATM   13  N   UNL     1     -10.814  11.970  67.692  1.00  0.00    -0.222 NA 
HETATM   14  C   UNL     1     -11.565  12.800  68.404  1.00  0.00    -0.325 A  
BRANCH  11  15
HETATM   15  C   UNL     1      -9.690   9.848  67.501  1.00  0.00    -0.160 A  
HETATM   16  C   UNL     1      -7.559   9.066  66.869  1.00  0.00    -0.094 A  
HETATM   17  F   UNL     1      -5.443   9.374  65.770  1.00  0.00    -0.038 F  
HETATM   18  N   UNL     1      -8.331   9.940  67.579  1.00  0.00    -0.115 NA 
HETATM   19  C   UNL     1      -8.120   8.086  66.051  1.00  0.00    -0.110 A  
HETATM   20  C   UNL     1      -6.042   9.143  66.977  1.00  0.00    -0.057 C  
HETATM   21  C   UNL     1     -10.292   8.868  66.705  1.00  0.00    -0.317 A  
HETATM   22  C   UNL     1      -9.502   7.986  65.972  1.00  0.00    -0.123 A  
HETATM   23  F   UNL     1      -5.581  10.115  67.812  1.00  0.00    -0.041 F  
HETATM   24  F   UNL     1      -5.496   7.975  67.431  1.00  0.00    -0.032 F  
ENDBRANCH  11  15
BRANCH  14  25
HETATM   25  N   UNL     1     -12.082  13.950  67.805  1.00  0.00    -0.467 NA 
HETATM   26  H   UNL     1     -12.997  14.241  68.148  1.00  0.00     0.000 HD 
BRANCH  25  27
HETATM   27  C   UNL     1     -11.539  14.764  66.807  1.00  0.00    -0.324 A  
HETATM   28  C   UNL     1     -10.401  16.792  66.143  1.00  0.00    -0.330 A  
HETATM   29  C   UNL     1     -10.854  15.933  67.151  1.00  0.00    -0.267 A  
HETATM   30  N   UNL     1     -10.578  16.504  64.821  1.00  0.00    -0.645 NA 
HETATM   31  C   UNL     1      -9.726  18.106  66.509  1.00  0.00    -0.344 C  
HETATM   32  C   UNL     1     -11.237  15.372  64.510  1.00  0.00    -0.299 A  
HETATM   33  F   UNL     1     -10.388  19.197  66.026  1.00  0.00    -0.423 F  
HETATM   34  F   UNL     1      -9.634  18.311  67.858  1.00  0.00    -0.266 F  
HETATM   35  F   UNL     1      -8.448  18.204  66.042  1.00  0.00    -0.261 F  
HETATM   36  C   UNL     1     -11.745  14.500  65.453  1.00  0.00    -0.354 A  
ENDBRANCH  25  27
ENDBRANCH  14  25
ENDBRANCH   7   9
ENDBRANCH   5   7
TORSDOF 5
ENDMDL
MODEL      130
REMARK 921   NORMALIZED FREE ENERGY PREDICTED BY IDOCK:   -6.32 KCAL/MOL
REMARK 922        TOTAL FREE ENERGY PREDICTED BY IDOCK:   -9.32 KCAL/MOL
REMARK 923 INTER-LIGAND FREE ENERGY PREDICTED BY IDOCK:   -8.26 KCAL/MOL
REMARK 924 INTRA-LIGAND FREE ENERGY PREDICTED BY IDOCK:   -1.07 KCAL/MOL
REMARK 927      BINDING AFFINITY PREDICTED BY RF-SCORE:    0.00 PKD
ROOT
HETATM    1  C   UNL     1      -6.581   8.732  63.555  1.00  0.00    -0.089 C  
HETATM    2  C   UNL     1      -6.922   9.705  64.688  1.00  0.00    -0.112 C  
HETATM    3  C   UNL     1      -5.705  10.584  65.001  1.00  0.00    -0.131 C  
HETATM    4  O   UNL     1      -7.984  10.563  64.243  1.00  0.00    -0.299 OA 
HETATM    5  C   UNL     1      -7.415   8.913  65.928  1.00  0.00    -0.093 C  
HETATM    6  H   UNL     1      -8.195  11.167  64.946  1.00  0.00     0.000 HD 
ENDROOT
BRANCH   5   7
HETATM    7  N   UNL     1      -7.617   9.813  67.054  1.00  0.00    -0.092 NA 
HETATM    8  H   UNL     1      -6.874  10.440  67.365  1.00  0.00     0.000 HD 
BRANCH   7   9
HETATM    9  C   UNL     1      -8.842   9.797  67.691  1.00  0.00    -0.125 A  
HETATM   10  N   UNL     1      -9.035   9.048  68.765  1.00  0.00    -0.136 NA 
HETATM   11  C   UNL     1     -10.259   9.097  69.293  1.00  0.00    -0.210 A  
HETATM   12  N   UNL     1      -9.763  10.596  67.169  1.00  0.00    -0.168 NA 
HETATM   13  N   UNL     1     -11.245   9.862  68.822  1.00  0.00    -0.130 NA 
HETATM   14  C   UNL     1     -10.938  10.620  67.778  1.00  0.00    -0.306 A  
BRANCH  11  15
HETATM   15  C   UNL     1     -10.556   8.267  70.492  1.00  0.00    -0.219 A  
HETATM   16  C   UNL     1     -10.289   6.213  71.615  1.00  0.00    -0.216 A  
HETATM   17  F   UNL     1     -10.637   3.840  71.775  1.00  0.00    -0.137 F  
HETATM   18  N   UNL     1     -10.037   7.006  70.532  1.00  0.00    -0.191 NA 
HETATM   19  C   UNL     1     -11.077   6.650  72.679  1.00  0.00    -0.291 A  
HETATM   20  C   UNL     1      -9.686   4.816  71.682  1.00  0.00    -0.169 C  
HETATM   21  C   UNL     1     -11.338   8.749  71.547  1.00  0.00    -0.375 A  
HETATM   22  C   UNL     1     -11.604   7.934  72.643  1.00  0.00    -0.435 A  
HETATM   23  F   UNL     1      -8.914   4.480  70.611  1.00  0.00    -0.115 F  
HETATM   24  F   UNL     1      -8.889   4.649  72.779  1.00  0.00    -0.113 F  
ENDBRANCH  11  15
BRANCH  14  25
HETATM   25  N   UNL     1     -11.855  11.568  67.321  1.00  0.00    -0.604 NA 
HETATM   26  H   UNL     1     -12.808  11.448  67.665  1.00  0.00     0.000 HD 
BRANCH  25  27
HETATM   27  C   UNL     1     -11.670  12.656  66.464  1.00  0.00    -0.400 A  
HETATM   28  C   UNL     1     -10.785  14.867  66.041  1.00  0.00    -0.323 A  
HETATM   29  C   UNL     1     -10.884  13.739  66.865  1.00  0.00    -0.286 A  
HETATM   30  N   UNL     1     -11.411  14.927  64.830  1.00  0.00    -0.410 NA 
HETATM   31  C   UNL     1      -9.999  16.083  66.506  1.00  0.00    -0.279 C  
HETATM   32  C   UNL     1     -12.160  13.872  64.459  1.00  0.00    -0.443 A  
HETATM   33  F   UNL     1     -10.762  17.211  66.592  1.00  0.00    -0.299 F  
HETATM   34  F   UNL     1      -9.445  15.929  67.748  1.00  0.00    -0.209 F  
HETATM   35  F   UNL     1      -8.956  16.397  65.684  1.00  0.00    -0.306 F  
HETATM   36  C   UNL     1     -12.333  12.745  65.240  1.00  0.00    -0.546 A  
ENDBRANCH  25  27
ENDBRANCH  14  25
ENDBRANCH   7   9
ENDBRANCH   5   7
TORSDOF 5
ENDMDL
MODEL      131
REMARK 921   NORMALIZED FREE ENERGY PREDICTED BY IDOCK:   -6.31 KCAL/MOL
REMARK 922        TOTAL FREE ENERGY PREDICTED BY IDOCK:   -9.32 KCAL/MOL
REMARK 923 INTER-LIGAND FREE ENERGY PREDICTED BY IDOCK:   -8.30 KCAL/MOL
REMARK 924 INTRA-LIGAND FREE ENERGY PREDICTED BY IDOCK:   -1.02 KCAL/MOL
REMARK 927      BINDING AFFINITY PREDICTED BY RF-SCORE:    0.00 PKD
ROOT
HETATM    1  C   UNL     1     -10.934   7.414  73.306  1.00  0.00    -0.367 C  
HETATM    2  C   UNL     1     -11.672   7.836  72.032  1.00  0.00    -0.304 C  
HETATM    3  C   UNL     1     -11.794   6.640  71.080  1.00  0.00    -0.414 C  
HETATM    4  O   UNL     1     -12.999   8.250  72.394  1.00  0.00    -0.515 OA 
HETATM    5  C   UNL     1     -10.942   9.040  71.379  1.00  0.00    -0.324 C  
HETATM    6  H   UNL     1     -13.457   8.513  71.603  1.00  0.00     0.000 HD 
ENDROOT
BRANCH   5   7
HETATM    7  N   UNL     1     -11.554   9.369  70.100  1.00  0.00    -0.439 NA 
HETATM    8  H   UNL     1     -12.551   9.580  70.034  1.00  0.00     0.000 HD 
BRANCH   7   9
HETATM    9  C   UNL     1     -10.751   9.386  68.977  1.00  0.00    -0.187 A  
HETATM   10  N   UNL     1     -11.025  10.189  67.962  1.00  0.00    -0.277 NA 
HETATM   11  C   UNL     1     -10.191  10.116  66.923  1.00  0.00    -0.236 A  
HETATM   12  N   UNL     1      -9.699   8.578  69.020  1.00  0.00    -0.167 NA 
HETATM   13  N   UNL     1      -9.121   9.322  66.880  1.00  0.00    -0.129 NA 
HETATM   14  C   UNL     1      -8.897   8.597  67.967  1.00  0.00    -0.141 A  
BRANCH  11  15
HETATM   15  C   UNL     1     -10.448  10.977  65.737  1.00  0.00    -0.228 A  
HETATM   16  C   UNL     1     -11.176  13.053  64.896  1.00  0.00    -0.302 A  
HETATM   17  F   UNL     1     -12.893  14.700  64.551  1.00  0.00    -0.396 F  
HETATM   18  N   UNL     1     -10.927  12.234  65.959  1.00  0.00    -0.281 NA 
HETATM   19  C   UNL     1     -10.968  12.636  63.581  1.00  0.00    -0.464 A  
HETATM   20  C   UNL     1     -11.681  14.470  65.138  1.00  0.00    -0.376 C  
HETATM   21  C   UNL     1     -10.209  10.526  64.435  1.00  0.00    -0.337 A  
HETATM   22  C   UNL     1     -10.476  11.359  63.352  1.00  0.00    -0.452 A  
HETATM   23  F   UNL     1     -11.837  14.800  66.451  1.00  0.00    -0.368 F  
HETATM   24  F   UNL     1     -10.843  15.414  64.616  1.00  0.00    -0.399 F  
ENDBRANCH  11  15
BRANCH  14  25
HETATM   25  N   UNL     1      -7.714   7.862  68.075  1.00  0.00    -0.122 NA 
HETATM   26  H   UNL     1      -6.882   8.412  68.289  1.00  0.00     0.000 HD 
BRANCH  25  27
HETATM   27  C   UNL     1      -7.494   6.489  67.936  1.00  0.00    -0.094 A  
HETATM   28  C   UNL     1      -8.067   4.206  68.490  1.00  0.00    -0.076 A  
HETATM   29  C   UNL     1      -8.352   5.575  68.553  1.00  0.00    -0.101 A  
HETATM   30  N   UNL     1      -6.985   3.729  67.809  1.00  0.00    -0.054 NA 
HETATM   31  C   UNL     1      -8.949   3.209  69.228  1.00  0.00    -0.117 C  
HETATM   32  C   UNL     1      -6.173   4.625  67.218  1.00  0.00    -0.039 A  
HETATM   33  F   UNL     1      -8.269   2.486  70.165  1.00  0.00    -0.048 F  
HETATM   34  F   UNL     1      -9.980   3.797  69.908  1.00  0.00    -0.269 F  
HETATM   35  F   UNL     1      -9.537   2.296  68.402  1.00  0.00    -0.240 F  
HETATM   36  C   UNL     1      -6.373   5.991  67.273  1.00  0.00    -0.038 A  
ENDBRANCH  25  27
ENDBRANCH  14  25
ENDBRANCH   7   9
ENDBRANCH   5   7
TORSDOF 5
ENDMDL
MODEL      132
REMARK 921   NORMALIZED FREE ENERGY PREDICTED BY IDOCK:   -6.31 KCAL/MOL
REMARK 922        TOTAL FREE ENERGY PREDICTED BY IDOCK:   -9.32 KCAL/MOL
REMARK 923 INTER-LIGAND FREE ENERGY PREDICTED BY IDOCK:   -8.27 KCAL/MOL
REMARK 924 INTRA-LIGAND FREE ENERGY PREDICTED BY IDOCK:   -1.05 KCAL/MOL
REMARK 927      BINDING AFFINITY PREDICTED BY RF-SCORE:    0.00 PKD
ROOT
HETATM    1  C   UNL     1      -6.332  13.365  67.556  1.00  0.00    -0.112 C  
HETATM    2  C   UNL     1      -6.709  12.024  68.195  1.00  0.00    -0.064 C  
HETATM    3  C   UNL     1      -5.491  11.428  68.910  1.00  0.00    -0.039 C  
HETATM    4  O   UNL     1      -7.727  12.263  69.179  1.00  0.00    -0.331 OA 
HETATM    5  C   UNL     1      -7.285  11.073  67.112  1.00  0.00    -0.112 C  
HETATM    6  H   UNL     1      -7.961  11.431  69.575  1.00  0.00     0.000 HD 
ENDROOT
BRANCH   5   7
HETATM    7  N   UNL     1      -7.525   9.753  67.677  1.00  0.00    -0.090 NA 
HETATM    8  H   UNL     1      -6.840   9.004  67.570  1.00  0.00     0.000 HD 
BRANCH   7   9
HETATM    9  C   UNL     1      -8.706   9.541  68.361  1.00  0.00    -0.124 A  
HETATM   10  N   UNL     1      -8.748   8.723  69.400  1.00  0.00    -0.140 NA 
HETATM   11  C   UNL     1      -9.941   8.582  69.979  1.00  0.00    -0.188 A  
HETATM   12  N   UNL     1      -9.749  10.232  67.918  1.00  0.00    -0.145 NA 
HETATM   13  N   UNL     1     -11.041   9.228  69.588  1.00  0.00    -0.172 NA 
HETATM   14  C   UNL     1     -10.887  10.068  68.574  1.00  0.00    -0.231 A  
BRANCH  11  15
HETATM   15  C   UNL     1     -10.069   7.664  71.143  1.00  0.00    -0.184 A  
HETATM   16  C   UNL     1      -9.845   5.481  71.998  1.00  0.00    -0.166 A  
HETATM   17  F   UNL     1     -10.480   3.163  72.047  1.00  0.00    -0.202 F  
HETATM   18  N   UNL     1      -9.739   6.354  70.954  1.00  0.00    -0.176 NA 
HETATM   19  C   UNL     1     -10.297   5.886  73.254  1.00  0.00    -0.234 A  
HETATM   20  C   UNL     1      -9.447   4.023  71.804  1.00  0.00    -0.145 C  
HETATM   21  C   UNL     1     -10.510   8.115  72.391  1.00  0.00    -0.389 A  
HETATM   22  C   UNL     1     -10.630   7.219  73.450  1.00  0.00    -0.435 A  
HETATM   23  F   UNL     1      -8.999   3.719  70.554  1.00  0.00    -0.108 F  
HETATM   24  F   UNL     1      -8.451   3.641  72.657  1.00  0.00    -0.084 F  
ENDBRANCH  11  15
BRANCH  14  25
HETATM   25  N   UNL     1     -11.942  10.904  68.204  1.00  0.00    -0.796 NA 
HETATM   26  H   UNL     1     -12.861  10.461  68.194  1.00  0.00     0.000 HD 
BRANCH  25  27
HETATM   27  C   UNL     1     -11.935  12.255  67.846  1.00  0.00    -0.173 A  
HETATM   28  C   UNL     1     -11.853  13.975  66.147  1.00  0.00    -0.407 A  
HETATM   29  C   UNL     1     -11.961  12.623  66.499  1.00  0.00    -0.401 A  
HETATM   30  N   UNL     1     -11.758  14.955  67.091  1.00  0.00    -0.327 NA 
HETATM   31  C   UNL     1     -11.799  14.378  64.681  1.00  0.00    -0.451 C  
HETATM   32  C   UNL     1     -11.738  14.581  68.384  1.00  0.00    -0.333 A  
HETATM   33  F   UNL     1     -10.648  15.033  64.351  1.00  0.00    -0.335 F  
HETATM   34  F   UNL     1     -11.864  13.315  63.823  1.00  0.00    -0.434 F  
HETATM   35  F   UNL     1     -12.821  15.203  64.311  1.00  0.00    -0.374 F  
HETATM   36  C   UNL     1     -11.800  13.264  68.799  1.00  0.00    -0.371 A  
ENDBRANCH  25  27
ENDBRANCH  14  25
ENDBRANCH   7   9
ENDBRANCH   5   7
TORSDOF 5
ENDMDL
MODEL      133
REMARK 921   NORMALIZED FREE ENERGY PREDICTED BY IDOCK:   -6.30 KCAL/MOL
REMARK 922        TOTAL FREE ENERGY PREDICTED BY IDOCK:   -9.31 KCAL/MOL
REMARK 923 INTER-LIGAND FREE ENERGY PREDICTED BY IDOCK:   -8.34 KCAL/MOL
REMARK 924 INTRA-LIGAND FREE ENERGY PREDICTED BY IDOCK:   -0.97 KCAL/MOL
REMARK 927      BINDING AFFINITY PREDICTED BY RF-SCORE:    0.00 PKD
ROOT
HETATM    1  C   UNL     1     -14.175  15.892  72.519  1.00  0.00    -0.283 C  
HETATM    2  C   UNL     1     -13.012  14.960  72.164  1.00  0.00    -0.334 C  
HETATM    3  C   UNL     1     -11.699  15.535  72.708  1.00  0.00    -0.545 C  
HETATM    4  O   UNL     1     -13.238  13.693  72.801  1.00  0.00    -0.501 OA 
HETATM    5  C   UNL     1     -12.970  14.738  70.628  1.00  0.00    -0.324 C  
HETATM    6  H   UNL     1     -12.517  13.114  72.580  1.00  0.00     0.000 HD 
ENDROOT
BRANCH   5   7
HETATM    7  N   UNL     1     -11.794  13.962  70.263  1.00  0.00    -0.415 NA 
HETATM    8  H   UNL     1     -11.401  13.272  70.904  1.00  0.00     0.000 HD 
BRANCH   7   9
HETATM    9  C   UNL     1     -11.224  14.183  69.024  1.00  0.00    -0.271 A  
HETATM   10  N   UNL     1     -10.761  15.379  68.697  1.00  0.00    -0.238 NA 
HETATM   11  C   UNL     1     -10.244  15.485  67.473  1.00  0.00    -0.254 A  
HETATM   12  N   UNL     1     -11.156  13.120  68.234  1.00  0.00    -0.253 NA 
HETATM   13  N   UNL     1     -10.150  14.471  66.612  1.00  0.00    -0.266 NA 
HETATM   14  C   UNL     1     -10.588  13.299  67.051  1.00  0.00    -0.259 A  
BRANCH  11  15
HETATM   15  C   UNL     1      -9.720  16.805  67.028  1.00  0.00    -0.251 A  
HETATM   16  C   UNL     1      -7.877  18.082  66.307  1.00  0.00    -0.253 A  
HETATM   17  F   UNL     1      -5.722  19.075  66.694  1.00  0.00    -0.156 F  
HETATM   18  N   UNL     1      -8.395  16.887  66.717  1.00  0.00    -0.213 NA 
HETATM   19  C   UNL     1      -8.662  19.230  66.210  1.00  0.00    -0.333 A  
HETATM   20  C   UNL     1      -6.405  18.174  65.926  1.00  0.00    -0.257 C  
HETATM   21  C   UNL     1     -10.546  17.929  66.928  1.00  0.00    -0.271 A  
HETATM   22  C   UNL     1     -10.012  19.149  66.523  1.00  0.00    -0.448 A  
HETATM   23  F   UNL     1      -5.718  17.002  66.031  1.00  0.00    -0.194 F  
HETATM   24  F   UNL     1      -6.229  18.592  64.638  1.00  0.00    -0.311 F  
ENDBRANCH  11  15
BRANCH  14  25
HETATM   25  N   UNL     1     -10.381  12.152  66.282  1.00  0.00    -0.217 NA 
HETATM   26  H   UNL     1     -10.925  12.107  65.420  1.00  0.00     0.000 HD 
BRANCH  25  27
HETATM   27  C   UNL     1      -9.544  11.057  66.510  1.00  0.00    -0.195 A  
HETATM   28  C   UNL     1      -9.204   8.816  67.352  1.00  0.00    -0.136 A  
HETATM   29  C   UNL     1     -10.066   9.872  67.035  1.00  0.00    -0.275 A  
HETATM   30  N   UNL     1      -7.860   8.896  67.130  1.00  0.00    -0.095 NA 
HETATM   31  C   UNL     1      -9.753   7.553  68.000  1.00  0.00    -0.146 C  
HETATM   32  C   UNL     1      -7.376  10.043  66.621  1.00  0.00    -0.103 A  
HETATM   33  F   UNL     1      -9.208   7.302  69.225  1.00  0.00    -0.143 F  
HETATM   34  F   UNL     1     -11.104   7.595  68.211  1.00  0.00    -0.122 F  
HETATM   35  F   UNL     1      -9.540   6.429  67.255  1.00  0.00    -0.119 F  
HETATM   36  C   UNL     1      -8.164  11.139  66.322  1.00  0.00    -0.153 A  
ENDBRANCH  25  27
ENDBRANCH  14  25
ENDBRANCH   7   9
ENDBRANCH   5   7
TORSDOF 5
ENDMDL
MODEL      134
REMARK 921   NORMALIZED FREE ENERGY PREDICTED BY IDOCK:   -6.29 KCAL/MOL
REMARK 922        TOTAL FREE ENERGY PREDICTED BY IDOCK:   -9.29 KCAL/MOL
REMARK 923 INTER-LIGAND FREE ENERGY PREDICTED BY IDOCK:   -8.52 KCAL/MOL
REMARK 924 INTRA-LIGAND FREE ENERGY PREDICTED BY IDOCK:   -0.76 KCAL/MOL
REMARK 927      BINDING AFFINITY PREDICTED BY RF-SCORE:    0.00 PKD
ROOT
HETATM    1  C   UNL     1     -12.994  13.847  64.963  1.00  0.00    -0.201 C  
HETATM    2  C   UNL     1     -11.477  13.714  64.799  1.00  0.00    -0.352 C  
HETATM    3  C   UNL     1     -11.160  12.771  63.633  1.00  0.00    -0.443 C  
HETATM    4  O   UNL     1     -10.941  15.008  64.481  1.00  0.00    -0.611 OA 
HETATM    5  C   UNL     1     -10.847  13.235  66.135  1.00  0.00    -0.280 C  
HETATM    6  H   UNL     1      -9.999  14.925  64.380  1.00  0.00     0.000 HD 
ENDROOT
BRANCH   5   7
HETATM    7  N   UNL     1      -9.425  12.978  65.959  1.00  0.00    -0.454 NA 
HETATM    8  H   UNL     1      -9.090  12.386  65.198  1.00  0.00     0.000 HD 
BRANCH   7   9
HETATM    9  C   UNL     1      -8.542  13.558  66.848  1.00  0.00    -0.099 A  
HETATM   10  N   UNL     1      -8.592  14.855  67.102  1.00  0.00    -0.211 NA 
HETATM   11  C   UNL     1      -7.685  15.312  67.966  1.00  0.00    -0.126 A  
HETATM   12  N   UNL     1      -7.692  12.721  67.429  1.00  0.00    -0.170 NA 
HETATM   13  N   UNL     1      -6.787  14.542  68.583  1.00  0.00    -0.088 NA 
HETATM   14  C   UNL     1      -6.853  13.247  68.307  1.00  0.00    -0.105 A  
BRANCH  11  15
HETATM   15  C   UNL     1      -7.669  16.765  68.287  1.00  0.00    -0.187 A  
HETATM   16  C   UNL     1      -8.804  18.829  68.260  1.00  0.00    -0.333 A  
HETATM   17  F   UNL     1      -9.816  20.661  67.077  1.00  0.00    -0.559 F  
HETATM   18  N   UNL     1      -8.782  17.492  67.983  1.00  0.00    -0.247 NA 
HETATM   19  C   UNL     1      -7.712  19.480  68.833  1.00  0.00    -0.369 A  
HETATM   20  C   UNL     1     -10.056  19.641  67.953  1.00  0.00    -0.422 C  
HETATM   21  C   UNL     1      -6.558  17.376  68.878  1.00  0.00    -0.218 A  
HETATM   22  C   UNL     1      -6.579  18.742  69.147  1.00  0.00    -0.309 A  
HETATM   23  F   UNL     1     -11.080  18.923  67.414  1.00  0.00    -0.499 F  
HETATM   24  F   UNL     1     -10.571  20.239  69.069  1.00  0.00    -0.511 F  
ENDBRANCH  11  15
BRANCH  14  25
HETATM   25  N   UNL     1      -6.063  12.348  69.026  1.00  0.00    -0.071 NA 
HETATM   26  H   UNL     1      -5.062  12.542  69.006  1.00  0.00     0.000 HD 
BRANCH  25  27
HETATM   27  C   UNL     1      -6.432  11.223  69.770  1.00  0.00    -0.140 A  
HETATM   28  C   UNL     1      -8.124   9.669  70.523  1.00  0.00    -0.109 A  
HETATM   29  C   UNL     1      -7.739  10.734  69.701  1.00  0.00    -0.020 A  
HETATM   30  N   UNL     1      -7.245   9.065  71.374  1.00  0.00    -0.240 NA 
HETATM   31  C   UNL     1      -9.567   9.184  70.515  1.00  0.00    -0.243 C  
HETATM   32  C   UNL     1      -5.990   9.547  71.423  1.00  0.00    -0.052 A  
HETATM   33  F   UNL     1     -10.172   9.288  71.733  1.00  0.00    -0.384 F  
HETATM   34  F   UNL     1     -10.369   9.883  69.655  1.00  0.00    -0.193 F  
HETATM   35  F   UNL     1      -9.693   7.877  70.143  1.00  0.00    -0.175 F  
HETATM   36  C   UNL     1      -5.553  10.620  70.669  1.00  0.00    -0.105 A  
ENDBRANCH  25  27
ENDBRANCH  14  25
ENDBRANCH   7   9
ENDBRANCH   5   7
TORSDOF 5
ENDMDL
MODEL      135
REMARK 921   NORMALIZED FREE ENERGY PREDICTED BY IDOCK:   -6.26 KCAL/MOL
REMARK 922        TOTAL FREE ENERGY PREDICTED BY IDOCK:   -9.25 KCAL/MOL
REMARK 923 INTER-LIGAND FREE ENERGY PREDICTED BY IDOCK:   -8.31 KCAL/MOL
REMARK 924 INTRA-LIGAND FREE ENERGY PREDICTED BY IDOCK:   -0.94 KCAL/MOL
REMARK 927      BINDING AFFINITY PREDICTED BY RF-SCORE:    0.00 PKD
ROOT
HETATM    1  C   UNL     1     -13.951   6.271  72.233  1.00  0.00     0.416 C  
HETATM    2  C   UNL     1     -12.649   6.961  71.813  1.00  0.00    -0.344 C  
HETATM    3  C   UNL     1     -11.447   6.165  72.334  1.00  0.00    -0.349 C  
HETATM    4  O   UNL     1     -12.585   6.970  70.378  1.00  0.00    -0.618 OA 
HETATM    5  C   UNL     1     -12.649   8.430  72.315  1.00  0.00    -0.349 C  
HETATM    6  H   UNL     1     -11.778   7.398  70.117  1.00  0.00     0.000 HD 
ENDROOT
BRANCH   5   7
HETATM    7  N   UNL     1     -11.366   9.058  72.037  1.00  0.00    -0.363 NA 
HETATM    8  H   UNL     1     -10.611   9.035  72.724  1.00  0.00     0.000 HD 
BRANCH   7   9
HETATM    9  C   UNL     1     -11.197   9.687  70.819  1.00  0.00    -0.336 A  
HETATM   10  N   UNL     1     -10.626   9.055  69.806  1.00  0.00    -0.225 NA 
HETATM   11  C   UNL     1     -10.501   9.759  68.681  1.00  0.00    -0.208 A  
HETATM   12  N   UNL     1     -11.671  10.924  70.750  1.00  0.00    -0.312 NA 
HETATM   13  N   UNL     1     -10.937  11.011  68.531  1.00  0.00    -0.208 NA 
HETATM   14  C   UNL     1     -11.547  11.539  69.584  1.00  0.00    -0.333 A  
BRANCH  11  15
HETATM   15  C   UNL     1      -9.851   9.121  67.504  1.00  0.00    -0.177 A  
HETATM   16  C   UNL     1      -8.685   7.272  66.626  1.00  0.00    -0.132 A  
HETATM   17  F   UNL     1      -6.746   5.853  66.540  1.00  0.00    -0.050 F  
HETATM   18  N   UNL     1      -9.292   7.890  67.681  1.00  0.00    -0.142 NA 
HETATM   19  C   UNL     1      -8.606   7.872  65.369  1.00  0.00    -0.118 A  
HETATM   20  C   UNL     1      -8.086   5.884  66.808  1.00  0.00    -0.102 C  
HETATM   21  C   UNL     1      -9.810   9.749  66.255  1.00  0.00    -0.315 A  
HETATM   22  C   UNL     1      -9.178   9.123  65.184  1.00  0.00    -0.218 A  
HETATM   23  F   UNL     1      -8.225   5.366  68.061  1.00  0.00    -0.098 F  
HETATM   24  F   UNL     1      -8.643   4.965  65.964  1.00  0.00    -0.114 F  
ENDBRANCH  11  15
BRANCH  14  25
HETATM   25  N   UNL     1     -12.177  12.779  69.466  1.00  0.00    -0.171 NA 
HETATM   26  H   UNL     1     -12.992  12.907  70.066  1.00  0.00     0.000 HD 
BRANCH  25  27
HETATM   27  C   UNL     1     -11.864  13.872  68.653  1.00  0.00    -0.372 A  
HETATM   28  C   UNL     1     -11.423  14.801  66.465  1.00  0.00    -0.327 A  
HETATM   29  C   UNL     1     -11.834  13.727  67.264  1.00  0.00    -0.436 A  
HETATM   30  N   UNL     1     -11.081  16.007  67.003  1.00  0.00    -0.154 NA 
HETATM   31  C   UNL     1     -11.308  14.627  64.957  1.00  0.00    -0.390 C  
HETATM   32  C   UNL     1     -11.121  16.128  68.343  1.00  0.00    -0.359 A  
HETATM   33  F   UNL     1     -10.044  14.843  64.490  1.00  0.00    -0.304 F  
HETATM   34  F   UNL     1     -11.637  13.370  64.529  1.00  0.00    -0.330 F  
HETATM   35  F   UNL     1     -12.118  15.470  64.255  1.00  0.00    -0.452 F  
HETATM   36  C   UNL     1     -11.478  15.099  69.193  1.00  0.00    -0.322 A  
ENDBRANCH  25  27
ENDBRANCH  14  25
ENDBRANCH   7   9
ENDBRANCH   5   7
TORSDOF 5
ENDMDL
MODEL      136
REMARK 921   NORMALIZED FREE ENERGY PREDICTED BY IDOCK:   -6.21 KCAL/MOL
REMARK 922        TOTAL FREE ENERGY PREDICTED BY IDOCK:   -9.18 KCAL/MOL
REMARK 923 INTER-LIGAND FREE ENERGY PREDICTED BY IDOCK:   -8.00 KCAL/MOL
REMARK 924 INTRA-LIGAND FREE ENERGY PREDICTED BY IDOCK:   -1.18 KCAL/MOL
REMARK 927      BINDING AFFINITY PREDICTED BY RF-SCORE:    0.00 PKD
ROOT
HETATM    1  C   UNL     1      -8.646   8.024  63.158  1.00  0.00     0.228 C  
HETATM    2  C   UNL     1      -8.544   9.131  64.211  1.00  0.00    -0.175 C  
HETATM    3  C   UNL     1      -7.410  10.095  63.844  1.00  0.00    -0.111 C  
HETATM    4  O   UNL     1      -9.773   9.873  64.208  1.00  0.00    -0.388 OA 
HETATM    5  C   UNL     1      -8.353   8.501  65.617  1.00  0.00    -0.148 C  
HETATM    6  H   UNL     1      -9.710  10.560  64.862  1.00  0.00     0.000 HD 
ENDROOT
BRANCH   5   7
HETATM    7  N   UNL     1      -8.123   9.541  66.609  1.00  0.00    -0.108 NA 
HETATM    8  H   UNL     1      -7.251  10.070  66.622  1.00  0.00     0.000 HD 
BRANCH   7   9
HETATM    9  C   UNL     1      -9.118   9.792  67.534  1.00  0.00    -0.130 A  
HETATM   10  N   UNL     1      -9.146   9.148  68.689  1.00  0.00    -0.136 NA 
HETATM   11  C   UNL     1     -10.157   9.458  69.501  1.00  0.00    -0.205 A  
HETATM   12  N   UNL     1      -9.992  10.728  67.185  1.00  0.00    -0.188 NA 
HETATM   13  N   UNL     1     -11.085  10.375  69.222  1.00  0.00    -0.238 NA 
HETATM   14  C   UNL     1     -10.940  11.008  68.066  1.00  0.00    -0.258 A  
BRANCH  11  15
HETATM   15  C   UNL     1     -10.264   8.760  70.811  1.00  0.00    -0.211 A  
HETATM   16  C   UNL     1      -9.164   7.729  72.620  1.00  0.00    -0.180 A  
HETATM   17  F   UNL     1      -7.792   5.977  73.529  1.00  0.00    -0.099 F  
HETATM   18  N   UNL     1      -9.106   8.374  71.419  1.00  0.00    -0.168 NA 
HETATM   19  C   UNL     1     -10.378   7.438  73.242  1.00  0.00    -0.405 A  
HETATM   20  C   UNL     1      -7.873   7.324  73.321  1.00  0.00    -0.097 C  
HETATM   21  C   UNL     1     -11.502   8.502  71.408  1.00  0.00    -0.344 A  
HETATM   22  C   UNL     1     -11.558   7.832  72.627  1.00  0.00    -0.398 A  
HETATM   23  F   UNL     1      -6.735   7.666  72.654  1.00  0.00    -0.057 F  
HETATM   24  F   UNL     1      -7.759   7.888  74.560  1.00  0.00    -0.169 F  
ENDBRANCH  11  15
BRANCH  14  25
HETATM   25  N   UNL     1     -11.766  12.092  67.764  1.00  0.00    -0.446 NA 
HETATM   26  H   UNL     1     -12.506  11.897  67.090  1.00  0.00     0.000 HD 
BRANCH  25  27
HETATM   27  C   UNL     1     -11.737  13.405  68.244  1.00  0.00    -0.356 A  
HETATM   28  C   UNL     1     -12.109  14.995  70.027  1.00  0.00    -0.337 A  
HETATM   29  C   UNL     1     -12.045  13.670  69.581  1.00  0.00    -0.378 A  
HETATM   30  N   UNL     1     -11.844  16.045  69.197  1.00  0.00    -0.326 NA 
HETATM   31  C   UNL     1     -12.524  15.297  71.460  1.00  0.00    -0.361 C  
HETATM   32  C   UNL     1     -11.545  15.769  67.915  1.00  0.00    -0.151 A  
HETATM   33  F   UNL     1     -13.650  16.065  71.539  1.00  0.00    -0.466 F  
HETATM   34  F   UNL     1     -12.804  14.175  72.192  1.00  0.00    -0.375 F  
HETATM   35  F   UNL     1     -11.566  15.961  72.170  1.00  0.00    -0.432 F  
HETATM   36  C   UNL     1     -11.502  14.488  67.398  1.00  0.00    -0.385 A  
ENDBRANCH  25  27
ENDBRANCH  14  25
ENDBRANCH   7   9
ENDBRANCH   5   7
TORSDOF 5
ENDMDL
MODEL      137
REMARK 921   NORMALIZED FREE ENERGY PREDICTED BY IDOCK:   -6.20 KCAL/MOL
REMARK 922        TOTAL FREE ENERGY PREDICTED BY IDOCK:   -9.17 KCAL/MOL
REMARK 923 INTER-LIGAND FREE ENERGY PREDICTED BY IDOCK:   -8.12 KCAL/MOL
REMARK 924 INTRA-LIGAND FREE ENERGY PREDICTED BY IDOCK:   -1.05 KCAL/MOL
REMARK 927      BINDING AFFINITY PREDICTED BY RF-SCORE:    0.00 PKD
ROOT
HETATM    1  C   UNL     1     -13.978   8.182  71.380  1.00  0.00    -0.350 C  
HETATM    2  C   UNL     1     -12.493   8.517  71.214  1.00  0.00    -0.249 C  
HETATM    3  C   UNL     1     -11.753   8.266  72.533  1.00  0.00    -0.451 C  
HETATM    4  O   UNL     1     -11.939   7.638  70.222  1.00  0.00    -0.491 OA 
HETATM    5  C   UNL     1     -12.338   9.979  70.718  1.00  0.00    -0.303 C  
HETATM    6  H   UNL     1     -11.017   7.846  70.119  1.00  0.00     0.000 HD 
ENDROOT
BRANCH   5   7
HETATM    7  N   UNL     1     -10.931  10.354  70.681  1.00  0.00    -0.414 NA 
HETATM    8  H   UNL     1     -10.518  10.912  71.429  1.00  0.00     0.000 HD 
BRANCH   7   9
HETATM    9  C   UNL     1     -10.172   9.932  69.608  1.00  0.00    -0.237 A  
HETATM   10  N   UNL     1     -10.392  10.412  68.394  1.00  0.00    -0.165 NA 
HETATM   11  C   UNL     1      -9.609   9.928  67.429  1.00  0.00    -0.155 A  
HETATM   12  N   UNL     1      -9.215   9.060  69.898  1.00  0.00    -0.163 NA 
HETATM   13  N   UNL     1      -8.635   9.040  67.633  1.00  0.00    -0.120 NA 
HETATM   14  C   UNL     1      -8.454   8.661  68.891  1.00  0.00    -0.129 A  
BRANCH  11  15
HETATM   15  C   UNL     1      -9.810  10.407  66.035  1.00  0.00    -0.232 A  
HETATM   16  C   UNL     1     -11.105  11.669  64.525  1.00  0.00    -0.301 A  
HETATM   17  F   UNL     1     -13.154  12.074  63.334  1.00  0.00    -0.608 F  
HETATM   18  N   UNL     1     -10.885  11.211  65.792  1.00  0.00    -0.201 NA 
HETATM   19  C   UNL     1     -10.267  11.328  63.464  1.00  0.00    -0.456 A  
HETATM   20  C   UNL     1     -12.285  12.593  64.252  1.00  0.00    -0.445 C  
HETATM   21  C   UNL     1      -8.936  10.055  65.002  1.00  0.00    -0.234 A  
HETATM   22  C   UNL     1      -9.170  10.514  63.708  1.00  0.00    -0.292 A  
HETATM   23  F   UNL     1     -13.038  12.890  65.348  1.00  0.00    -0.464 F  
HETATM   24  F   UNL     1     -11.892  13.795  63.736  1.00  0.00    -0.432 F  
ENDBRANCH  11  15
BRANCH  14  25
HETATM   25  N   UNL     1      -7.357   7.863  69.221  1.00  0.00    -0.081 NA 
HETATM   26  H   UNL     1      -6.447   8.299  69.076  1.00  0.00     0.000 HD 
BRANCH  25  27
HETATM   27  C   UNL     1      -7.314   6.557  69.718  1.00  0.00    -0.079 A  
HETATM   28  C   UNL     1      -8.413   4.672  70.760  1.00  0.00    -0.096 A  
HETATM   29  C   UNL     1      -8.482   5.941  70.173  1.00  0.00    -0.126 A  
HETATM   30  N   UNL     1      -7.232   3.997  70.873  1.00  0.00    -0.037 NA 
HETATM   31  C   UNL     1      -9.667   4.027  71.332  1.00  0.00    -0.183 C  
HETATM   32  C   UNL     1      -6.118   4.606  70.426  1.00  0.00    -0.021 A  
HETATM   33  F   UNL     1      -9.571   3.765  72.667  1.00  0.00    -0.142 F  
HETATM   34  F   UNL     1     -10.785   4.805  71.200  1.00  0.00    -0.225 F  
HETATM   35  F   UNL     1      -9.982   2.840  70.737  1.00  0.00    -0.213 F  
HETATM   36  C   UNL     1      -6.109   5.872  69.872  1.00  0.00    -0.026 A  
ENDBRANCH  25  27
ENDBRANCH  14  25
ENDBRANCH   7   9
ENDBRANCH   5   7
TORSDOF 5
ENDMDL
MODEL      138
REMARK 921   NORMALIZED FREE ENERGY PREDICTED BY IDOCK:   -6.18 KCAL/MOL
REMARK 922        TOTAL FREE ENERGY PREDICTED BY IDOCK:   -9.14 KCAL/MOL
REMARK 923 INTER-LIGAND FREE ENERGY PREDICTED BY IDOCK:   -8.02 KCAL/MOL
REMARK 924 INTRA-LIGAND FREE ENERGY PREDICTED BY IDOCK:   -1.12 KCAL/MOL
REMARK 927      BINDING AFFINITY PREDICTED BY RF-SCORE:    0.00 PKD
ROOT
HETATM    1  C   UNL     1     -10.436   6.051  73.952  1.00  0.00    -0.286 C  
HETATM    2  C   UNL     1      -9.720   7.031  73.017  1.00  0.00    -0.169 C  
HETATM    3  C   UNL     1      -8.544   7.684  73.752  1.00  0.00    -0.277 C  
HETATM    4  O   UNL     1      -9.191   6.291  71.905  1.00  0.00    -0.147 OA 
HETATM    5  C   UNL     1     -10.734   8.074  72.476  1.00  0.00    -0.341 C  
HETATM    6  H   UNL     1      -8.747   6.899  71.326  1.00  0.00     0.000 HD 
ENDROOT
BRANCH   5   7
HETATM    7  N   UNL     1     -10.044   9.088  71.692  1.00  0.00    -0.338 NA 
HETATM    8  H   UNL     1      -9.384   9.732  72.131  1.00  0.00     0.000 HD 
BRANCH   7   9
HETATM    9  C   UNL     1     -10.307   9.157  70.338  1.00  0.00    -0.223 A  
HETATM   10  N   UNL     1     -10.159  10.295  69.678  1.00  0.00    -0.236 NA 
HETATM   11  C   UNL     1     -10.452  10.251  68.378  1.00  0.00    -0.200 A  
HETATM   12  N   UNL     1     -10.674   8.014  69.774  1.00  0.00    -0.245 NA 
HETATM   13  N   UNL     1     -10.842   9.149  67.736  1.00  0.00    -0.171 NA 
HETATM   14  C   UNL     1     -10.904   8.046  68.470  1.00  0.00     0.093 A  
BRANCH  11  15
HETATM   15  C   UNL     1     -10.328  11.498  67.574  1.00  0.00    -0.194 A  
HETATM   16  C   UNL     1     -11.149  12.827  65.811  1.00  0.00    -0.285 A  
HETATM   17  F   UNL     1     -11.599  13.185  63.477  1.00  0.00    -0.460 F  
HETATM   18  N   UNL     1     -11.232  11.696  66.572  1.00  0.00    -0.312 NA 
HETATM   19  C   UNL     1     -10.155  13.783  66.019  1.00  0.00    -0.320 A  
HETATM   20  C   UNL     1     -12.174  13.071  64.711  1.00  0.00    -0.435 C  
HETATM   21  C   UNL     1      -9.326  12.440  67.827  1.00  0.00    -0.196 A  
HETATM   22  C   UNL     1      -9.237  13.586  67.041  1.00  0.00    -0.248 A  
HETATM   23  F   UNL     1     -13.120  12.097  64.590  1.00  0.00    -0.501 F  
HETATM   24  F   UNL     1     -12.864  14.236  64.896  1.00  0.00    -0.419 F  
ENDBRANCH  11  15
BRANCH  14  25
HETATM   25  N   UNL     1     -11.144   6.818  67.852  1.00  0.00    -0.530 NA 
HETATM   26  H   UNL     1     -12.128   6.568  67.756  1.00  0.00     0.000 HD 
BRANCH  25  27
HETATM   27  C   UNL     1     -10.244   5.878  67.343  1.00  0.00    -0.194 A  
HETATM   28  C   UNL     1      -9.646   4.236  65.671  1.00  0.00    -0.189 A  
HETATM   29  C   UNL     1     -10.503   5.247  66.124  1.00  0.00    -0.259 A  
HETATM   30  N   UNL     1      -8.536   3.868  66.374  1.00  0.00    -0.109 NA 
HETATM   31  C   UNL     1      -9.965   3.486  64.386  1.00  0.00    -0.185 C  
HETATM   32  C   UNL     1      -8.301   4.490  67.544  1.00  0.00    -0.100 A  
HETATM   33  F   UNL     1     -10.133   2.146  64.578  1.00  0.00    -0.081 F  
HETATM   34  F   UNL     1     -11.119   3.909  63.783  1.00  0.00    -0.261 F  
HETATM   35  F   UNL     1      -8.995   3.612  63.434  1.00  0.00    -0.093 F  
HETATM   36  C   UNL     1      -9.126   5.468  68.069  1.00  0.00    -0.110 A  
ENDBRANCH  25  27
ENDBRANCH  14  25
ENDBRANCH   7   9
ENDBRANCH   5   7
TORSDOF 5
ENDMDL
MODEL      139
REMARK 921   NORMALIZED FREE ENERGY PREDICTED BY IDOCK:   -6.17 KCAL/MOL
REMARK 922        TOTAL FREE ENERGY PREDICTED BY IDOCK:   -9.14 KCAL/MOL
REMARK 923 INTER-LIGAND FREE ENERGY PREDICTED BY IDOCK:   -7.81 KCAL/MOL
REMARK 924 INTRA-LIGAND FREE ENERGY PREDICTED BY IDOCK:   -1.32 KCAL/MOL
REMARK 927      BINDING AFFINITY PREDICTED BY RF-SCORE:    0.00 PKD
ROOT
HETATM    1  C   UNL     1     -12.688   7.258  71.603  1.00  0.00    -0.410 C  
HETATM    2  C   UNL     1     -11.301   7.219  70.953  1.00  0.00    -0.280 C  
HETATM    3  C   UNL     1     -10.589   5.913  71.325  1.00  0.00    -0.311 C  
HETATM    4  O   UNL     1     -11.470   7.240  69.527  1.00  0.00    -0.487 OA 
HETATM    5  C   UNL     1     -10.491   8.475  71.372  1.00  0.00    -0.237 C  
HETATM    6  H   UNL     1     -10.609   7.216  69.124  1.00  0.00     0.000 HD 
ENDROOT
BRANCH   5   7
HETATM    7  N   UNL     1      -9.128   8.387  70.869  1.00  0.00    -0.150 NA 
HETATM    8  H   UNL     1      -8.461   7.729  71.273  1.00  0.00     0.000 HD 
BRANCH   7   9
HETATM    9  C   UNL     1      -8.761   9.219  69.830  1.00  0.00    -0.162 A  
HETATM   10  N   UNL     1      -8.069  10.324  70.060  1.00  0.00    -0.067 NA 
HETATM   11  C   UNL     1      -7.779  11.060  68.986  1.00  0.00    -0.132 A  
HETATM   12  N   UNL     1      -9.122   8.809  68.621  1.00  0.00    -0.141 NA 
HETATM   13  N   UNL     1      -8.116  10.727  67.739  1.00  0.00    -0.110 NA 
HETATM   14  C   UNL     1      -8.758   9.574  67.604  1.00  0.00    -0.122 A  
BRANCH  11  15
HETATM   15  C   UNL     1      -7.019  12.326  69.170  1.00  0.00    -0.041 A  
HETATM   16  C   UNL     1      -6.656  14.553  68.494  1.00  0.00    -0.093 A  
HETATM   17  F   UNL     1      -5.971  16.170  66.853  1.00  0.00    -0.175 F  
HETATM   18  N   UNL     1      -7.332  13.375  68.357  1.00  0.00    -0.104 NA 
HETATM   19  C   UNL     1      -5.639  14.712  69.435  1.00  0.00    -0.094 A  
HETATM   20  C   UNL     1      -7.022  15.739  67.611  1.00  0.00    -0.169 C  
HETATM   21  C   UNL     1      -6.017  12.449  70.138  1.00  0.00    -0.143 A  
HETATM   22  C   UNL     1      -5.320  13.648  70.267  1.00  0.00    -0.109 A  
HETATM   23  F   UNL     1      -8.039  15.502  66.736  1.00  0.00    -0.222 F  
HETATM   24  F   UNL     1      -7.410  16.827  68.342  1.00  0.00    -0.167 F  
ENDBRANCH  11  15
BRANCH  14  25
HETATM   25  N   UNL     1      -9.006   9.069  66.326  1.00  0.00    -0.152 NA 
HETATM   26  H   UNL     1      -8.936   8.055  66.242  1.00  0.00     0.000 HD 
BRANCH  25  27
HETATM   27  C   UNL     1      -9.337   9.738  65.145  1.00  0.00    -0.260 A  
HETATM   28  C   UNL     1     -10.754  11.276  63.930  1.00  0.00    -0.384 A  
HETATM   29  C   UNL     1     -10.364  10.685  65.138  1.00  0.00    -0.331 A  
HETATM   30  N   UNL     1     -10.131  10.979  62.753  1.00  0.00    -0.167 NA 
HETATM   31  C   UNL     1     -11.925  12.247  63.901  1.00  0.00    -0.491 C  
HETATM   32  C   UNL     1      -9.142  10.068  62.780  1.00  0.00    -0.289 A  
HETATM   33  F   UNL     1     -12.943  11.830  63.093  1.00  0.00    -0.708 F  
HETATM   34  F   UNL     1     -12.499  12.443  65.127  1.00  0.00    -0.489 F  
HETATM   35  F   UNL     1     -11.582  13.492  63.461  1.00  0.00    -0.392 F  
HETATM   36  C   UNL     1      -8.733   9.417  63.929  1.00  0.00    -0.225 A  
ENDBRANCH  25  27
ENDBRANCH  14  25
ENDBRANCH   7   9
ENDBRANCH   5   7
TORSDOF 5
ENDMDL
MODEL      140
REMARK 921   NORMALIZED FREE ENERGY PREDICTED BY IDOCK:   -6.15 KCAL/MOL
REMARK 922        TOTAL FREE ENERGY PREDICTED BY IDOCK:   -9.11 KCAL/MOL
REMARK 923 INTER-LIGAND FREE ENERGY PREDICTED BY IDOCK:   -7.97 KCAL/MOL
REMARK 924 INTRA-LIGAND FREE ENERGY PREDICTED BY IDOCK:   -1.14 KCAL/MOL
REMARK 927      BINDING AFFINITY PREDICTED BY RF-SCORE:    0.00 PKD
ROOT
HETATM    1  C   UNL     1      -7.990  10.868  62.336  1.00  0.00    -0.200 C  
HETATM    2  C   UNL     1      -8.655  10.176  63.530  1.00  0.00    -0.200 C  
HETATM    3  C   UNL     1      -9.986  10.864  63.855  1.00  0.00    -0.400 C  
HETATM    4  O   UNL     1      -8.937   8.816  63.166  1.00  0.00    -0.420 OA 
HETATM    5  C   UNL     1      -7.681  10.170  64.740  1.00  0.00    -0.141 C  
HETATM    6  H   UNL     1      -9.349   8.387  63.908  1.00  0.00     0.000 HD 
ENDROOT
BRANCH   5   7
HETATM    7  N   UNL     1      -8.345   9.635  65.919  1.00  0.00    -0.118 NA 
HETATM    8  H   UNL     1      -8.876   8.764  65.873  1.00  0.00     0.000 HD 
BRANCH   7   9
HETATM    9  C   UNL     1      -8.239  10.338  67.103  1.00  0.00    -0.121 A  
HETATM   10  N   UNL     1      -8.208  11.661  67.104  1.00  0.00    -0.158 NA 
HETATM   11  C   UNL     1      -8.091  12.237  68.301  1.00  0.00    -0.166 A  
HETATM   12  N   UNL     1      -8.205   9.595  68.202  1.00  0.00    -0.106 NA 
HETATM   13  N   UNL     1      -8.036  11.565  69.451  1.00  0.00     0.264 NA 
HETATM   14  C   UNL     1      -8.132  10.246  69.353  1.00  0.00    -0.163 A  
BRANCH  11  15
HETATM   15  C   UNL     1      -8.031  13.722  68.378  1.00  0.00    -0.144 A  
HETATM   16  C   UNL     1      -8.924  15.794  67.703  1.00  0.00    -0.187 A  
HETATM   17  F   UNL     1      -9.403  17.429  66.006  1.00  0.00    -0.264 F  
HETATM   18  N   UNL     1      -8.948  14.430  67.659  1.00  0.00    -0.184 NA 
HETATM   19  C   UNL     1      -7.976  16.490  68.453  1.00  0.00    -0.194 A  
HETATM   20  C   UNL     1      -9.965  16.592  66.928  1.00  0.00    -0.271 C  
HETATM   21  C   UNL     1      -7.074  14.381  69.157  1.00  0.00    -0.127 A  
HETATM   22  C   UNL     1      -7.043  15.772  69.189  1.00  0.00    -0.176 A  
HETATM   23  F   UNL     1     -10.864  15.833  66.241  1.00  0.00    -0.313 F  
HETATM   24  F   UNL     1     -10.709  17.399  67.742  1.00  0.00    -0.347 F  
ENDBRANCH  11  15
BRANCH  14  25
HETATM   25  N   UNL     1      -8.247   9.474  70.510  1.00  0.00    -0.188 NA 
HETATM   26  H   UNL     1      -7.362   9.186  70.927  1.00  0.00     0.000 HD 
BRANCH  25  27
HETATM   27  C   UNL     1      -9.389   9.035  71.187  1.00  0.00    -0.266 A  
HETATM   28  C   UNL     1     -11.761   9.200  71.625  1.00  0.00    -0.378 A  
HETATM   29  C   UNL     1     -10.640   9.573  70.875  1.00  0.00    -0.395 A  
HETATM   30  N   UNL     1     -11.675   8.292  72.640  1.00  0.00    -0.392 NA 
HETATM   31  C   UNL     1     -13.112   9.842  71.346  1.00  0.00    -0.400 C  
HETATM   32  C   UNL     1     -10.463   7.783  72.924  1.00  0.00    -0.350 A  
HETATM   33  F   UNL     1     -13.618  10.511  72.422  1.00  0.00    -0.464 F  
HETATM   34  F   UNL     1     -13.077  10.763  70.335  1.00  0.00    -0.359 F  
HETATM   35  F   UNL     1     -14.070   8.942  70.979  1.00  0.00    -0.354 F  
HETATM   36  C   UNL     1      -9.309   8.136  72.250  1.00  0.00    -0.290 A  
ENDBRANCH  25  27
ENDBRANCH  14  25
ENDBRANCH   7   9
ENDBRANCH   5   7
TORSDOF 5
ENDMDL
MODEL      141
REMARK 921   NORMALIZED FREE ENERGY PREDICTED BY IDOCK:   -6.15 KCAL/MOL
REMARK 922        TOTAL FREE ENERGY PREDICTED BY IDOCK:   -9.11 KCAL/MOL
REMARK 923 INTER-LIGAND FREE ENERGY PREDICTED BY IDOCK:   -8.35 KCAL/MOL
REMARK 924 INTRA-LIGAND FREE ENERGY PREDICTED BY IDOCK:   -0.76 KCAL/MOL
REMARK 927      BINDING AFFINITY PREDICTED BY RF-SCORE:    0.00 PKD
ROOT
HETATM    1  C   UNL     1      -7.455  10.399  63.252  1.00  0.00    -0.062 C  
HETATM    2  C   UNL     1      -8.865  10.434  63.848  1.00  0.00    -0.210 C  
HETATM    3  C   UNL     1      -9.753  11.377  63.027  1.00  0.00    -0.393 C  
HETATM    4  O   UNL     1      -9.425   9.114  63.763  1.00  0.00    -0.319 OA 
HETATM    5  C   UNL     1      -8.791  10.843  65.344  1.00  0.00    -0.180 C  
HETATM    6  H   UNL     1     -10.300   9.136  64.134  1.00  0.00     0.000 HD 
ENDROOT
BRANCH   5   7
HETATM    7  N   UNL     1     -10.131  11.008  65.888  1.00  0.00    -0.240 NA 
HETATM    8  H   UNL     1     -10.874  11.433  65.333  1.00  0.00     0.000 HD 
BRANCH   7   9
HETATM    9  C   UNL     1     -10.369  10.575  67.178  1.00  0.00    -0.235 A  
HETATM   10  N   UNL     1     -11.085  11.307  68.016  1.00  0.00    -0.243 NA 
HETATM   11  C   UNL     1     -11.243  10.801  69.239  1.00  0.00    -0.272 A  
HETATM   12  N   UNL     1      -9.862   9.386  67.479  1.00  0.00    -0.164 NA 
HETATM   13  N   UNL     1     -10.755   9.621  69.627  1.00  0.00    -0.229 NA 
HETATM   14  C   UNL     1     -10.100   8.935  68.700  1.00  0.00    -0.188 A  
BRANCH  11  15
HETATM   15  C   UNL     1     -12.020  11.578  70.242  1.00  0.00    -0.368 A  
HETATM   16  C   UNL     1     -12.694  13.685  71.049  1.00  0.00    -0.332 A  
HETATM   17  F   UNL     1     -12.197  15.817  72.044  1.00  0.00    -0.367 F  
HETATM   18  N   UNL     1     -11.995  12.938  70.146  1.00  0.00    -0.337 NA 
HETATM   19  C   UNL     1     -13.427  13.098  72.080  1.00  0.00    -0.653 A  
HETATM   20  C   UNL     1     -12.696  15.204  70.929  1.00  0.00    -0.401 C  
HETATM   21  C   UNL     1     -12.757  10.948  71.251  1.00  0.00    -0.542 A  
HETATM   22  C   UNL     1     -13.458  11.714  72.178  1.00  0.00    -0.238 A  
HETATM   23  F   UNL     1     -11.973  15.691  69.883  1.00  0.00    -0.303 F  
HETATM   24  F   UNL     1     -13.956  15.709  70.774  1.00  0.00    -0.444 F  
ENDBRANCH  11  15
BRANCH  14  25
HETATM   25  N   UNL     1      -9.697   7.625  68.968  1.00  0.00    -0.158 NA 
HETATM   26  H   UNL     1      -9.260   7.486  69.879  1.00  0.00     0.000 HD 
BRANCH  25  27
HETATM   27  C   UNL     1      -9.801   6.475  68.180  1.00  0.00    -0.131 A  
HETATM   28  C   UNL     1      -8.928   4.336  67.467  1.00  0.00    -0.117 A  
HETATM   29  C   UNL     1      -8.875   5.439  68.327  1.00  0.00    -0.105 A  
HETATM   30  N   UNL     1      -9.886   4.224  66.502  1.00  0.00    -0.219 NA 
HETATM   31  C   UNL     1      -7.875   3.242  67.566  1.00  0.00    -0.077 C  
HETATM   32  C   UNL     1     -10.771   5.231  66.378  1.00  0.00    -0.223 A  
HETATM   33  F   UNL     1      -7.158   3.085  66.415  1.00  0.00    -0.053 F  
HETATM   34  F   UNL     1      -6.943   3.473  68.540  1.00  0.00    -0.046 F  
HETATM   35  F   UNL     1      -8.399   2.015  67.852  1.00  0.00    -0.062 F  
HETATM   36  C   UNL     1     -10.752   6.365  67.167  1.00  0.00    -0.433 A  
ENDBRANCH  25  27
ENDBRANCH  14  25
ENDBRANCH   7   9
ENDBRANCH   5   7
TORSDOF 5
ENDMDL
MODEL      142
REMARK 921   NORMALIZED FREE ENERGY PREDICTED BY IDOCK:   -6.14 KCAL/MOL
REMARK 922        TOTAL FREE ENERGY PREDICTED BY IDOCK:   -9.10 KCAL/MOL
REMARK 923 INTER-LIGAND FREE ENERGY PREDICTED BY IDOCK:   -8.07 KCAL/MOL
REMARK 924 INTRA-LIGAND FREE ENERGY PREDICTED BY IDOCK:   -1.03 KCAL/MOL
REMARK 927      BINDING AFFINITY PREDICTED BY RF-SCORE:    0.00 PKD
ROOT
HETATM    1  C   UNL     1     -13.514   8.720  71.996  1.00  0.00    -0.461 C  
HETATM    2  C   UNL     1     -12.083   8.378  71.569  1.00  0.00    -0.301 C  
HETATM    3  C   UNL     1     -11.319   7.770  72.752  1.00  0.00    -0.446 C  
HETATM    4  O   UNL     1     -12.145   7.390  70.528  1.00  0.00    -0.513 OA 
HETATM    5  C   UNL     1     -11.388   9.646  71.004  1.00  0.00    -0.374 C  
HETATM    6  H   UNL     1     -11.257   7.178  70.264  1.00  0.00     0.000 HD 
ENDROOT
BRANCH   5   7
HETATM    7  N   UNL     1      -9.989   9.368  70.717  1.00  0.00    -0.284 NA 
HETATM    8  H   UNL     1      -9.385   8.937  71.417  1.00  0.00     0.000 HD 
BRANCH   7   9
HETATM    9  C   UNL     1      -9.499   9.705  69.470  1.00  0.00    -0.199 A  
HETATM   10  N   UNL     1      -9.854  10.840  68.889  1.00  0.00    -0.194 NA 
HETATM   11  C   UNL     1      -9.333  11.060  67.681  1.00  0.00    -0.157 A  
HETATM   12  N   UNL     1      -8.647   8.836  68.942  1.00  0.00    -0.135 NA 
HETATM   13  N   UNL     1      -8.481  10.233  67.074  1.00  0.00    -0.129 NA 
HETATM   14  C   UNL     1      -8.141   9.150  67.760  1.00  0.00    -0.105 A  
BRANCH  11  15
HETATM   15  C   UNL     1      -9.701  12.307  66.958  1.00  0.00    -0.205 A  
HETATM   16  C   UNL     1     -11.206  13.412  65.522  1.00  0.00    -0.288 A  
HETATM   17  F   UNL     1     -12.266  13.675  63.380  1.00  0.00    -0.543 F  
HETATM   18  N   UNL     1     -10.836  12.288  66.202  1.00  0.00    -0.269 NA 
HETATM   19  C   UNL     1     -10.448  14.582  65.566  1.00  0.00    -0.373 A  
HETATM   20  C   UNL     1     -12.490  13.408  64.701  1.00  0.00    -0.331 C  
HETATM   21  C   UNL     1      -8.921  13.465  67.043  1.00  0.00    -0.228 A  
HETATM   22  C   UNL     1      -9.294  14.606  66.338  1.00  0.00    -0.313 A  
HETATM   23  F   UNL     1     -13.178  12.233  64.731  1.00  0.00    -0.462 F  
HETATM   24  F   UNL     1     -13.372  14.364  65.117  1.00  0.00    -0.307 F  
ENDBRANCH  11  15
BRANCH  14  25
HETATM   25  N   UNL     1      -7.134   8.313  67.274  1.00  0.00    -0.078 NA 
HETATM   26  H   UNL     1      -6.183   8.617  67.481  1.00  0.00     0.000 HD 
BRANCH  25  27
HETATM   27  C   UNL     1      -7.228   7.123  66.548  1.00  0.00    -0.079 A  
HETATM   28  C   UNL     1      -8.519   5.221  65.794  1.00  0.00    -0.128 A  
HETATM   29  C   UNL     1      -8.455   6.462  66.439  1.00  0.00    -0.123 A  
HETATM   30  N   UNL     1      -7.416   4.647  65.233  1.00  0.00    -0.076 NA 
HETATM   31  C   UNL     1      -9.834   4.457  65.742  1.00  0.00    -0.225 C  
HETATM   32  C   UNL     1      -6.245   5.300  65.344  1.00  0.00    -0.034 A  
HETATM   33  F   UNL     1      -9.764   3.234  66.344  1.00  0.00    -0.169 F  
HETATM   34  F   UNL     1     -10.863   5.106  66.368  1.00  0.00    -0.322 F  
HETATM   35  F   UNL     1     -10.273   4.226  64.471  1.00  0.00    -0.187 F  
HETATM   36  C   UNL     1      -6.102   6.508  66.001  1.00  0.00    -0.033 A  
ENDBRANCH  25  27
ENDBRANCH  14  25
ENDBRANCH   7   9
ENDBRANCH   5   7
TORSDOF 5
ENDMDL
MODEL      143
REMARK 921   NORMALIZED FREE ENERGY PREDICTED BY IDOCK:   -6.13 KCAL/MOL
REMARK 922        TOTAL FREE ENERGY PREDICTED BY IDOCK:   -9.08 KCAL/MOL
REMARK 923 INTER-LIGAND FREE ENERGY PREDICTED BY IDOCK:   -8.10 KCAL/MOL
REMARK 924 INTRA-LIGAND FREE ENERGY PREDICTED BY IDOCK:   -0.98 KCAL/MOL
REMARK 927      BINDING AFFINITY PREDICTED BY RF-SCORE:    0.00 PKD
ROOT
HETATM    1  C   UNL     1     -10.081   8.722  72.006  1.00  0.00    -0.397 C  
HETATM    2  C   UNL     1     -10.419   9.402  70.676  1.00  0.00    -0.290 C  
HETATM    3  C   UNL     1     -11.640  10.313  70.853  1.00  0.00    -0.454 C  
HETATM    4  O   UNL     1      -9.306  10.225  70.292  1.00  0.00    -0.345 OA 
HETATM    5  C   UNL     1     -10.638   8.326  69.578  1.00  0.00    -0.213 C  
HETATM    6  H   UNL     1      -9.516  10.646  69.467  1.00  0.00     0.000 HD 
ENDROOT
BRANCH   5   7
HETATM    7  N   UNL     1     -11.088   8.950  68.343  1.00  0.00    -0.439 NA 
HETATM    8  H   UNL     1     -11.963   9.475  68.308  1.00  0.00     0.000 HD 
BRANCH   7   9
HETATM    9  C   UNL     1     -10.299   8.814  67.217  1.00  0.00    -0.290 A  
HETATM   10  N   UNL     1      -9.680   7.673  66.961  1.00  0.00    -0.179 NA 
HETATM   11  C   UNL     1      -8.934   7.655  65.855  1.00  0.00    -0.103 A  
HETATM   12  N   UNL     1     -10.247   9.880  66.429  1.00  0.00    -0.239 NA 
HETATM   13  N   UNL     1      -8.816   8.686  65.017  1.00  0.00    -0.126 NA 
HETATM   14  C   UNL     1      -9.520   9.766  65.329  1.00  0.00    -0.279 A  
BRANCH  11  15
HETATM   15  C   UNL     1      -8.193   6.411  65.512  1.00  0.00    -0.142 A  
HETATM   16  C   UNL     1      -8.266   4.205  64.691  1.00  0.00    -0.098 A  
HETATM   17  F   UNL     1      -8.969   1.913  64.872  1.00  0.00    -0.102 F  
HETATM   18  N   UNL     1      -8.911   5.363  65.016  1.00  0.00    -0.125 NA 
HETATM   19  C   UNL     1      -6.891   4.054  64.864  1.00  0.00    -0.049 A  
HETATM   20  C   UNL     1      -9.057   3.041  64.107  1.00  0.00    -0.111 C  
HETATM   21  C   UNL     1      -6.808   6.308  65.685  1.00  0.00    -0.052 A  
HETATM   22  C   UNL     1      -6.156   5.120  65.365  1.00  0.00    -0.033 A  
HETATM   23  F   UNL     1     -10.389   3.281  63.952  1.00  0.00    -0.159 F  
HETATM   24  F   UNL     1      -8.601   2.675  62.871  1.00  0.00    -0.079 F  
ENDBRANCH  11  15
BRANCH  14  25
HETATM   25  N   UNL     1      -9.586  10.830  64.428  1.00  0.00    -0.253 NA 
HETATM   26  H   UNL     1      -8.875  10.821  63.697  1.00  0.00     0.000 HD 
BRANCH  25  27
HETATM   27  C   UNL     1     -10.476  11.907  64.373  1.00  0.00    -0.311 A  
HETATM   28  C   UNL     1     -11.019  14.208  64.882  1.00  0.00    -0.397 A  
HETATM   29  C   UNL     1     -10.089  13.162  64.850  1.00  0.00    -0.236 A  
HETATM   30  N   UNL     1     -12.295  14.047  64.425  1.00  0.00    -0.627 NA 
HETATM   31  C   UNL     1     -10.630  15.554  65.475  1.00  0.00    -0.396 C  
HETATM   32  C   UNL     1     -12.647  12.832  63.967  1.00  0.00    -0.291 A  
HETATM   33  F   UNL     1     -11.403  15.910  66.542  1.00  0.00    -0.187 F  
HETATM   34  F   UNL     1      -9.343  15.593  65.936  1.00  0.00    -0.313 F  
HETATM   35  F   UNL     1     -10.724  16.582  64.583  1.00  0.00    -0.339 F  
HETATM   36  C   UNL     1     -11.793  11.746  63.943  1.00  0.00    -0.449 A  
ENDBRANCH  25  27
ENDBRANCH  14  25
ENDBRANCH   7   9
ENDBRANCH   5   7
TORSDOF 5
ENDMDL
MODEL      144
REMARK 921   NORMALIZED FREE ENERGY PREDICTED BY IDOCK:   -6.12 KCAL/MOL
REMARK 922        TOTAL FREE ENERGY PREDICTED BY IDOCK:   -9.07 KCAL/MOL
REMARK 923 INTER-LIGAND FREE ENERGY PREDICTED BY IDOCK:   -8.03 KCAL/MOL
REMARK 924 INTRA-LIGAND FREE ENERGY PREDICTED BY IDOCK:   -1.04 KCAL/MOL
REMARK 927      BINDING AFFINITY PREDICTED BY RF-SCORE:    0.00 PKD
ROOT
HETATM    1  C   UNL     1     -12.570  11.819  64.074  1.00  0.00    -0.291 C  
HETATM    2  C   UNL     1     -11.071  12.133  64.080  1.00  0.00    -0.364 C  
HETATM    3  C   UNL     1     -10.304  11.022  63.354  1.00  0.00    -0.373 C  
HETATM    4  O   UNL     1     -10.863  13.358  63.360  1.00  0.00    -0.357 OA 
HETATM    5  C   UNL     1     -10.584  12.331  65.541  1.00  0.00    -0.269 C  
HETATM    6  H   UNL     1      -9.932  13.553  63.365  1.00  0.00     0.000 HD 
ENDROOT
BRANCH   5   7
HETATM    7  N   UNL     1      -9.139  12.500  65.572  1.00  0.00    -0.309 NA 
HETATM    8  H   UNL     1      -8.606  12.622  64.710  1.00  0.00     0.000 HD 
BRANCH   7   9
HETATM    9  C   UNL     1      -8.507  12.490  66.800  1.00  0.00    -0.070 A  
HETATM   10  N   UNL     1      -7.982  13.598  67.299  1.00  0.00    -0.150 NA 
HETATM   11  C   UNL     1      -7.385  13.473  68.485  1.00  0.00    -0.114 A  
HETATM   12  N   UNL     1      -8.503  11.320  67.426  1.00  0.00    -0.134 NA 
HETATM   13  N   UNL     1      -7.324  12.332  69.174  1.00  0.00     0.019 NA 
HETATM   14  C   UNL     1      -7.928  11.290  68.618  1.00  0.00    -0.145 A  
BRANCH  11  15
HETATM   15  C   UNL     1      -6.756  14.673  69.100  1.00  0.00    -0.117 A  
HETATM   16  C   UNL     1      -6.469  17.011  69.078  1.00  0.00    -0.202 A  
HETATM   17  F   UNL     1      -5.683  19.026  68.029  1.00  0.00    -0.186 F  
HETATM   18  N   UNL     1      -7.029  15.887  68.542  1.00  0.00    -0.119 NA 
HETATM   19  C   UNL     1      -5.610  16.954  70.175  1.00  0.00    -0.222 A  
HETATM   20  C   UNL     1      -6.795  18.373  68.480  1.00  0.00    -0.253 C  
HETATM   21  C   UNL     1      -5.913  14.573  70.212  1.00  0.00    -0.158 A  
HETATM   22  C   UNL     1      -5.332  15.720  70.748  1.00  0.00    -0.130 A  
HETATM   23  F   UNL     1      -7.658  18.338  67.426  1.00  0.00    -0.207 F  
HETATM   24  F   UNL     1      -7.362  19.216  69.393  1.00  0.00    -0.347 F  
ENDBRANCH  11  15
BRANCH  14  25
HETATM   25  N   UNL     1      -8.055  10.101  69.339  1.00  0.00    -0.147 NA 
HETATM   26  H   UNL     1      -7.293   9.436  69.211  1.00  0.00     0.000 HD 
BRANCH  25  27
HETATM   27  C   UNL     1      -9.065   9.682  70.209  1.00  0.00    -0.225 A  
HETATM   28  C   UNL     1     -11.302   9.920  71.097  1.00  0.00    -0.370 A  
HETATM   29  C   UNL     1     -10.329  10.277  70.156  1.00  0.00    -0.210 A  
HETATM   30  N   UNL     1     -11.065   8.975  72.051  1.00  0.00    -0.355 NA 
HETATM   31  C   UNL     1     -12.653  10.621  71.098  1.00  0.00    -0.423 C  
HETATM   32  C   UNL     1      -9.844   8.411  72.084  1.00  0.00    -0.302 A  
HETATM   33  F   UNL     1     -12.915  11.271  72.269  1.00  0.00    -0.535 F  
HETATM   34  F   UNL     1     -12.770  11.576  70.125  1.00  0.00    -0.264 F  
HETATM   35  F   UNL     1     -13.701   9.772  70.896  1.00  0.00    -0.418 F  
HETATM   36  C   UNL     1      -8.824   8.744  71.212  1.00  0.00    -0.288 A  
ENDBRANCH  25  27
ENDBRANCH  14  25
ENDBRANCH   7   9
ENDBRANCH   5   7
TORSDOF 5
ENDMDL
MODEL      145
REMARK 921   NORMALIZED FREE ENERGY PREDICTED BY IDOCK:   -6.12 KCAL/MOL
REMARK 922        TOTAL FREE ENERGY PREDICTED BY IDOCK:   -9.07 KCAL/MOL
REMARK 923 INTER-LIGAND FREE ENERGY PREDICTED BY IDOCK:   -7.94 KCAL/MOL
REMARK 924 INTRA-LIGAND FREE ENERGY PREDICTED BY IDOCK:   -1.12 KCAL/MOL
REMARK 927      BINDING AFFINITY PREDICTED BY RF-SCORE:    0.00 PKD
ROOT
HETATM    1  C   UNL     1      -5.657   6.627  66.319  1.00  0.00    -0.018 C  
HETATM    2  C   UNL     1      -7.181   6.732  66.428  1.00  0.00    -0.072 C  
HETATM    3  C   UNL     1      -7.839   5.942  65.291  1.00  0.00    -0.105 C  
HETATM    4  O   UNL     1      -7.588   6.140  67.672  1.00  0.00    -0.093 OA 
HETATM    5  C   UNL     1      -7.604   8.226  66.433  1.00  0.00    -0.091 C  
HETATM    6  H   UNL     1      -8.534   6.205  67.739  1.00  0.00     0.000 HD 
ENDROOT
BRANCH   5   7
HETATM    7  N   UNL     1      -9.055   8.339  66.404  1.00  0.00    -0.171 NA 
HETATM    8  H   UNL     1      -9.578   8.157  65.546  1.00  0.00     0.000 HD 
BRANCH   7   9
HETATM    9  C   UNL     1      -9.705   8.701  67.567  1.00  0.00    -0.165 A  
HETATM   10  N   UNL     1      -9.390   8.134  68.721  1.00  0.00    -0.144 NA 
HETATM   11  C   UNL     1     -10.088   8.548  69.779  1.00  0.00    -0.197 A  
HETATM   12  N   UNL     1     -10.617   9.655  67.434  1.00  0.00    -0.272 NA 
HETATM   13  N   UNL     1     -11.031   9.491  69.730  1.00  0.00    -0.233 NA 
HETATM   14  C   UNL     1     -11.235  10.040  68.540  1.00  0.00    -0.123 A  
BRANCH  11  15
HETATM   15  C   UNL     1      -9.802   7.942  71.108  1.00  0.00    -0.165 A  
HETATM   16  C   UNL     1      -9.762   6.010  72.455  1.00  0.00    -0.158 A  
HETATM   17  F   UNL     1     -10.880   4.202  73.577  1.00  0.00    -0.224 F  
HETATM   18  N   UNL     1     -10.011   6.602  71.250  1.00  0.00    -0.181 NA 
HETATM   19  C   UNL     1      -9.312   6.740  73.554  1.00  0.00    -0.179 A  
HETATM   20  C   UNL     1      -9.962   4.508  72.612  1.00  0.00    -0.165 C  
HETATM   21  C   UNL     1      -9.335   8.708  72.181  1.00  0.00    -0.343 A  
HETATM   22  C   UNL     1      -9.094   8.104  73.412  1.00  0.00    -0.309 A  
HETATM   23  F   UNL     1     -10.384   3.871  71.484  1.00  0.00    -0.224 F  
HETATM   24  F   UNL     1      -8.815   3.870  72.990  1.00  0.00    -0.095 F  
ENDBRANCH  11  15
BRANCH  14  25
HETATM   25  N   UNL     1     -12.083  11.143  68.425  1.00  0.00    -0.727 NA 
HETATM   26  H   UNL     1     -13.062  10.959  68.645  1.00  0.00     0.000 HD 
BRANCH  25  27
HETATM   27  C   UNL     1     -11.797  12.461  68.057  1.00  0.00    -0.316 A  
HETATM   28  C   UNL     1     -11.400  14.121  66.344  1.00  0.00    -0.338 A  
HETATM   29  C   UNL     1     -11.783  12.824  66.708  1.00  0.00    -0.459 A  
HETATM   30  N   UNL     1     -11.069  15.060  67.277  1.00  0.00    -0.327 NA 
HETATM   31  C   UNL     1     -11.302  14.502  64.874  1.00  0.00    -0.394 C  
HETATM   32  C   UNL     1     -11.093  14.691  68.571  1.00  0.00    -0.260 A  
HETATM   33  F   UNL     1     -10.048  14.895  64.507  1.00  0.00    -0.304 F  
HETATM   34  F   UNL     1     -11.618  13.476  64.026  1.00  0.00    -0.386 F  
HETATM   35  F   UNL     1     -12.135  15.525  64.526  1.00  0.00    -0.359 F  
HETATM   36  C   UNL     1     -11.423  13.419  68.998  1.00  0.00    -0.348 A  
ENDBRANCH  25  27
ENDBRANCH  14  25
ENDBRANCH   7   9
ENDBRANCH   5   7
TORSDOF 5
ENDMDL
MODEL      146
REMARK 921   NORMALIZED FREE ENERGY PREDICTED BY IDOCK:   -6.12 KCAL/MOL
REMARK 922        TOTAL FREE ENERGY PREDICTED BY IDOCK:   -9.06 KCAL/MOL
REMARK 923 INTER-LIGAND FREE ENERGY PREDICTED BY IDOCK:   -8.03 KCAL/MOL
REMARK 924 INTRA-LIGAND FREE ENERGY PREDICTED BY IDOCK:   -1.03 KCAL/MOL
REMARK 927      BINDING AFFINITY PREDICTED BY RF-SCORE:    0.00 PKD
ROOT
HETATM    1  C   UNL     1     -10.603  14.697  64.955  1.00  0.00    -0.461 C  
HETATM    2  C   UNL     1     -11.015  13.248  64.676  1.00  0.00    -0.370 C  
HETATM    3  C   UNL     1     -12.413  12.986  65.248  1.00  0.00    -0.555 C  
HETATM    4  O   UNL     1     -11.077  13.062  63.253  1.00  0.00    -0.532 OA 
HETATM    5  C   UNL     1      -9.948  12.280  65.254  1.00  0.00    -0.230 C  
HETATM    6  H   UNL     1     -11.332  12.163  63.080  1.00  0.00     0.000 HD 
ENDROOT
BRANCH   5   7
HETATM    7  N   UNL     1     -10.390  10.900  65.112  1.00  0.00    -0.286 NA 
HETATM    8  H   UNL     1     -10.926  10.602  64.297  1.00  0.00     0.000 HD 
BRANCH   7   9
HETATM    9  C   UNL     1     -10.064  10.005  66.112  1.00  0.00    -0.247 A  
HETATM   10  N   UNL     1      -9.503   8.842  65.822  1.00  0.00    -0.230 NA 
HETATM   11  C   UNL     1      -9.243   8.050  66.863  1.00  0.00    -0.154 A  
HETATM   12  N   UNL     1     -10.325  10.416  67.347  1.00  0.00    -0.214 NA 
HETATM   13  N   UNL     1      -9.486   8.379  68.132  1.00  0.00    -0.137 NA 
HETATM   14  C   UNL     1      -9.996   9.588  68.326  1.00  0.00    -0.161 A  
BRANCH  11  15
HETATM   15  C   UNL     1      -8.629   6.718  66.612  1.00  0.00    -0.123 A  
HETATM   16  C   UNL     1      -8.818   4.584  65.633  1.00  0.00    -0.127 A  
HETATM   17  F   UNL     1      -9.870   2.428  65.468  1.00  0.00     0.052 F  
HETATM   18  N   UNL     1      -9.347   5.817  65.882  1.00  0.00    -0.123 NA 
HETATM   19  C   UNL     1      -7.565   4.209  66.117  1.00  0.00    -0.089 A  
HETATM   20  C   UNL     1      -9.602   3.584  64.791  1.00  0.00    -0.168 C  
HETATM   21  C   UNL     1      -7.360   6.388  67.101  1.00  0.00    -0.083 A  
HETATM   22  C   UNL     1      -6.829   5.124  66.856  1.00  0.00    -0.063 A  
HETATM   23  F   UNL     1     -10.805   4.040  64.343  1.00  0.00    -0.282 F  
HETATM   24  F   UNL     1      -8.914   3.197  63.676  1.00  0.00    -0.092 F  
ENDBRANCH  11  15
BRANCH  14  25
HETATM   25  N   UNL     1     -10.131  10.079  69.626  1.00  0.00    -0.223 NA 
HETATM   26  H   UNL     1      -9.255  10.207  70.132  1.00  0.00     0.000 HD 
BRANCH  25  27
HETATM   27  C   UNL     1     -11.282  10.423  70.341  1.00  0.00    -0.321 A  
HETATM   28  C   UNL     1     -12.685  12.097  71.378  1.00  0.00    -0.263 A  
HETATM   29  C   UNL     1     -11.586  11.766  70.577  1.00  0.00     0.033 A  
HETATM   30  N   UNL     1     -13.498  11.140  71.912  1.00  0.00    -0.288 NA 
HETATM   31  C   UNL     1     -12.976  13.554  71.709  1.00  0.00    -0.348 C  
HETATM   32  C   UNL     1     -13.191   9.852  71.670  1.00  0.00    -0.421 A  
HETATM   33  F   UNL     1     -12.945  13.814  73.048  1.00  0.00    -0.516 F  
HETATM   34  F   UNL     1     -12.078  14.425  71.154  1.00  0.00    -0.345 F  
HETATM   35  F   UNL     1     -14.199  13.971  71.272  1.00  0.00    -0.335 F  
HETATM   36  C   UNL     1     -12.099   9.454  70.922  1.00  0.00    -0.327 A  
ENDBRANCH  25  27
ENDBRANCH  14  25
ENDBRANCH   7   9
ENDBRANCH   5   7
TORSDOF 5
ENDMDL
MODEL      147
REMARK 921   NORMALIZED FREE ENERGY PREDICTED BY IDOCK:   -6.08 KCAL/MOL
REMARK 922        TOTAL FREE ENERGY PREDICTED BY IDOCK:   -9.01 KCAL/MOL
REMARK 923 INTER-LIGAND FREE ENERGY PREDICTED BY IDOCK:   -7.80 KCAL/MOL
REMARK 924 INTRA-LIGAND FREE ENERGY PREDICTED BY IDOCK:   -1.21 KCAL/MOL
REMARK 927      BINDING AFFINITY PREDICTED BY RF-SCORE:    0.00 PKD
ROOT
HETATM    1  C   UNL     1      -7.066   5.841  66.071  1.00  0.00    -0.071 C  
HETATM    2  C   UNL     1      -8.399   6.148  66.762  1.00  0.00    -0.110 C  
HETATM    3  C   UNL     1      -9.321   4.926  66.678  1.00  0.00    -0.140 C  
HETATM    4  O   UNL     1      -8.139   6.411  68.150  1.00  0.00    -0.111 OA 
HETATM    5  C   UNL     1      -9.035   7.415  66.131  1.00  0.00    -0.149 C  
HETATM    6  H   UNL     1      -8.966   6.601  68.578  1.00  0.00     0.000 HD 
ENDROOT
BRANCH   5   7
HETATM    7  N   UNL     1     -10.362   7.643  66.686  1.00  0.00    -0.485 NA 
HETATM    8  H   UNL     1     -11.156   7.071  66.397  1.00  0.00     0.000 HD 
BRANCH   7   9
HETATM    9  C   UNL     1     -10.516   8.654  67.614  1.00  0.00    -0.244 A  
HETATM   10  N   UNL     1     -10.812   9.885  67.229  1.00  0.00    -0.246 NA 
HETATM   11  C   UNL     1     -10.925  10.785  68.207  1.00  0.00    -0.255 A  
HETATM   12  N   UNL     1     -10.379   8.285  68.881  1.00  0.00    -0.217 NA 
HETATM   13  N   UNL     1     -10.789  10.502  69.503  1.00  0.00    -0.240 NA 
HETATM   14  C   UNL     1     -10.550   9.230  69.793  1.00  0.00    -0.231 A  
BRANCH  11  15
HETATM   15  C   UNL     1     -11.238  12.195  67.848  1.00  0.00    -0.272 A  
HETATM   16  C   UNL     1     -11.289  13.871  66.194  1.00  0.00    -0.320 A  
HETATM   17  F   UNL     1     -10.177  15.331  64.641  1.00  0.00    -0.357 F  
HETATM   18  N   UNL     1     -11.015  12.585  66.561  1.00  0.00    -0.257 NA 
HETATM   19  C   UNL     1     -11.777  14.808  67.105  1.00  0.00    -0.351 A  
HETATM   20  C   UNL     1     -11.073  14.305  64.750  1.00  0.00    -0.391 C  
HETATM   21  C   UNL     1     -11.744  13.099  68.789  1.00  0.00    -0.363 A  
HETATM   22  C   UNL     1     -12.009  14.414  68.415  1.00  0.00    -0.328 A  
HETATM   23  F   UNL     1     -10.614  13.323  63.925  1.00  0.00    -0.401 F  
HETATM   24  F   UNL     1     -12.221  14.767  64.172  1.00  0.00    -0.487 F  
ENDBRANCH  11  15
BRANCH  14  25
HETATM   25  N   UNL     1     -10.553   8.814  71.125  1.00  0.00    -0.222 NA 
HETATM   26  H   UNL     1     -10.619   9.565  71.812  1.00  0.00     0.000 HD 
BRANCH  25  27
HETATM   27  C   UNL     1     -10.481   7.526  71.664  1.00  0.00    -0.200 A  
HETATM   28  C   UNL     1      -9.248   5.485  72.062  1.00  0.00    -0.140 A  
HETATM   29  C   UNL     1      -9.284   6.809  71.609  1.00  0.00    -0.144 A  
HETATM   30  N   UNL     1     -10.349   4.878  72.592  1.00  0.00    -0.190 NA 
HETATM   31  C   UNL     1      -7.970   4.669  71.931  1.00  0.00    -0.100 C  
HETATM   32  C   UNL     1     -11.492   5.586  72.640  1.00  0.00    -0.272 A  
HETATM   33  F   UNL     1      -8.126   3.553  71.162  1.00  0.00    -0.061 F  
HETATM   34  F   UNL     1      -6.941   5.362  71.353  1.00  0.00    -0.055 F  
HETATM   35  F   UNL     1      -7.483   4.235  73.130  1.00  0.00    -0.070 F  
HETATM   36  C   UNL     1     -11.608   6.883  72.175  1.00  0.00    -0.322 A  
ENDBRANCH  25  27
ENDBRANCH  14  25
ENDBRANCH   7   9
ENDBRANCH   5   7
TORSDOF 5
ENDMDL
MODEL      148
REMARK 921   NORMALIZED FREE ENERGY PREDICTED BY IDOCK:   -6.07 KCAL/MOL
REMARK 922        TOTAL FREE ENERGY PREDICTED BY IDOCK:   -9.00 KCAL/MOL
REMARK 923 INTER-LIGAND FREE ENERGY PREDICTED BY IDOCK:   -7.76 KCAL/MOL
REMARK 924 INTRA-LIGAND FREE ENERGY PREDICTED BY IDOCK:   -1.24 KCAL/MOL
REMARK 927      BINDING AFFINITY PREDICTED BY RF-SCORE:    0.00 PKD
ROOT
HETATM    1  C   UNL     1     -13.807   6.787  72.201  1.00  0.00     0.020 C  
HETATM    2  C   UNL     1     -12.374   6.911  71.672  1.00  0.00    -0.371 C  
HETATM    3  C   UNL     1     -11.551   5.695  72.110  1.00  0.00    -0.202 C  
HETATM    4  O   UNL     1     -12.422   6.920  70.237  1.00  0.00    -0.613 OA 
HETATM    5  C   UNL     1     -11.754   8.250  72.152  1.00  0.00    -0.365 C  
HETATM    6  H   UNL     1     -11.533   6.997  69.909  1.00  0.00     0.000 HD 
ENDROOT
BRANCH   5   7
HETATM    7  N   UNL     1     -10.352   8.323  71.768  1.00  0.00    -0.234 NA 
HETATM    8  H   UNL     1      -9.621   7.955  72.378  1.00  0.00     0.000 HD 
BRANCH   7   9
HETATM    9  C   UNL     1     -10.037   8.903  70.555  1.00  0.00    -0.205 A  
HETATM   10  N   UNL     1      -9.465   8.194  69.594  1.00  0.00    -0.159 NA 
HETATM   11  C   UNL     1      -9.193   8.856  68.469  1.00  0.00    -0.137 A  
HETATM   12  N   UNL     1     -10.377  10.180  70.432  1.00  0.00    -0.204 NA 
HETATM   13  N   UNL     1      -9.488  10.142  68.269  1.00  0.00    -0.139 NA 
HETATM   14  C   UNL     1     -10.111  10.752  69.268  1.00  0.00    -0.177 A  
BRANCH  11  15
HETATM   15  C   UNL     1      -8.534   8.129  67.352  1.00  0.00    -0.126 A  
HETATM   16  C   UNL     1      -7.728   8.175  65.138  1.00  0.00    -0.107 A  
HETATM   17  F   UNL     1      -8.090   8.371  62.770  1.00  0.00    -0.140 F  
HETATM   18  N   UNL     1      -8.329   8.809  66.187  1.00  0.00    -0.119 NA 
HETATM   19  C   UNL     1      -7.328   6.841  65.216  1.00  0.00    -0.084 A  
HETATM   20  C   UNL     1      -7.468   8.938  63.846  1.00  0.00    -0.112 C  
HETATM   21  C   UNL     1      -8.132   6.795  67.477  1.00  0.00    -0.115 A  
HETATM   22  C   UNL     1      -7.531   6.147  66.401  1.00  0.00    -0.086 A  
HETATM   23  F   UNL     1      -7.872  10.239  63.864  1.00  0.00    -0.150 F  
HETATM   24  F   UNL     1      -6.141   8.967  63.521  1.00  0.00    -0.081 F  
ENDBRANCH  11  15
BRANCH  14  25
HETATM   25  N   UNL     1     -10.602  12.047  69.087  1.00  0.00    -0.419 NA 
HETATM   26  H   UNL     1     -11.152  12.412  69.865  1.00  0.00     0.000 HD 
BRANCH  25  27
HETATM   27  C   UNL     1     -10.456  12.919  68.005  1.00  0.00    -0.230 A  
HETATM   28  C   UNL     1     -11.038  13.587  65.755  1.00  0.00    -0.286 A  
HETATM   29  C   UNL     1     -11.259  12.771  66.871  1.00  0.00    -0.339 A  
HETATM   30  N   UNL     1     -10.076  14.554  65.752  1.00  0.00    -0.325 NA 
HETATM   31  C   UNL     1     -11.853  13.378  64.487  1.00  0.00    -0.398 C  
HETATM   32  C   UNL     1      -9.316  14.684  66.855  1.00  0.00    -0.243 A  
HETATM   33  F   UNL     1     -11.084  13.066  63.404  1.00  0.00    -0.419 F  
HETATM   34  F   UNL     1     -12.761  12.359  64.586  1.00  0.00    -0.523 F  
HETATM   35  F   UNL     1     -12.581  14.475  64.128  1.00  0.00    -0.464 F  
HETATM   36  C   UNL     1      -9.453  13.888  67.976  1.00  0.00    -0.208 A  
ENDBRANCH  25  27
ENDBRANCH  14  25
ENDBRANCH   7   9
ENDBRANCH   5   7
TORSDOF 5
ENDMDL
MODEL      149
REMARK 921   NORMALIZED FREE ENERGY PREDICTED BY IDOCK:   -6.07 KCAL/MOL
REMARK 922        TOTAL FREE ENERGY PREDICTED BY IDOCK:   -9.00 KCAL/MOL
REMARK 923 INTER-LIGAND FREE ENERGY PREDICTED BY IDOCK:   -8.01 KCAL/MOL
REMARK 924 INTRA-LIGAND FREE ENERGY PREDICTED BY IDOCK:   -0.99 KCAL/MOL
REMARK 927      BINDING AFFINITY PREDICTED BY RF-SCORE:    0.00 PKD
ROOT
HETATM    1  C   UNL     1     -11.163   5.214  72.635  1.00  0.00    -0.277 C  
HETATM    2  C   UNL     1     -11.249   6.736  72.493  1.00  0.00    -0.268 C  
HETATM    3  C   UNL     1     -12.604   7.127  71.891  1.00  0.00    -0.328 C  
HETATM    4  O   UNL     1     -11.163   7.318  73.803  1.00  0.00    -0.529 OA 
HETATM    5  C   UNL     1     -10.055   7.251  71.646  1.00  0.00    -0.184 C  
HETATM    6  H   UNL     1     -11.217   8.263  73.714  1.00  0.00     0.000 HD 
ENDROOT
BRANCH   5   7
HETATM    7  N   UNL     1     -10.194   8.678  71.392  1.00  0.00    -0.230 NA 
HETATM    8  H   UNL     1     -10.107   9.357  72.149  1.00  0.00     0.000 HD 
BRANCH   7   9
HETATM    9  C   UNL     1     -10.448   9.089  70.098  1.00  0.00    -0.214 A  
HETATM   10  N   UNL     1     -10.725  10.355  69.833  1.00  0.00    -0.281 NA 
HETATM   11  C   UNL     1     -10.966  10.640  68.553  1.00  0.00    -0.248 A  
HETATM   12  N   UNL     1     -10.359   8.140  69.175  1.00  0.00    -0.219 NA 
HETATM   13  N   UNL     1     -10.912   9.744  67.566  1.00  0.00    -0.225 NA 
HETATM   14  C   UNL     1     -10.570   8.514  67.922  1.00  0.00    -0.156 A  
BRANCH  11  15
HETATM   15  C   UNL     1     -11.303  12.041  68.181  1.00  0.00    -0.291 A  
HETATM   16  C   UNL     1     -11.677  13.619  66.473  1.00  0.00    -0.382 A  
HETATM   17  F   UNL     1     -10.906  14.929  64.610  1.00  0.00    -0.380 F  
HETATM   18  N   UNL     1     -11.372  12.344  66.853  1.00  0.00    -0.312 NA 
HETATM   19  C   UNL     1     -11.906  14.630  67.406  1.00  0.00    -0.374 A  
HETATM   20  C   UNL     1     -11.788  13.958  64.992  1.00  0.00    -0.373 C  
HETATM   21  C   UNL     1     -11.543  13.022  69.149  1.00  0.00    -0.368 A  
HETATM   22  C   UNL     1     -11.840  14.324  68.758  1.00  0.00    -0.377 A  
HETATM   23  F   UNL     1     -11.569  12.907  64.152  1.00  0.00    -0.351 F  
HETATM   24  F   UNL     1     -13.022  14.442  64.664  1.00  0.00    -0.310 F  
ENDBRANCH  11  15
BRANCH  14  25
HETATM   25  N   UNL     1     -10.331   7.552  66.939  1.00  0.00    -0.361 NA 
HETATM   26  H   UNL     1     -11.097   7.407  66.281  1.00  0.00     0.000 HD 
BRANCH  25  27
HETATM   27  C   UNL     1      -9.204   6.756  66.717  1.00  0.00    -0.150 A  
HETATM   28  C   UNL     1      -8.182   4.573  66.522  1.00  0.00    -0.103 A  
HETATM   29  C   UNL     1      -9.329   5.366  66.646  1.00  0.00    -0.143 A  
HETATM   30  N   UNL     1      -6.936   5.122  66.433  1.00  0.00    -0.066 NA 
HETATM   31  C   UNL     1      -8.301   3.056  66.528  1.00  0.00    -0.094 C  
HETATM   32  C   UNL     1      -6.837   6.462  66.498  1.00  0.00    -0.062 A  
HETATM   33  F   UNL     1      -7.615   2.470  67.551  1.00  0.00    -0.058 F  
HETATM   34  F   UNL     1      -9.589   2.613  66.660  1.00  0.00    -0.115 F  
HETATM   35  F   UNL     1      -7.837   2.475  65.383  1.00  0.00    -0.073 F  
HETATM   36  C   UNL     1      -7.922   7.303  66.660  1.00  0.00    -0.114 A  
ENDBRANCH  25  27
ENDBRANCH  14  25
ENDBRANCH   7   9
ENDBRANCH   5   7
TORSDOF 5
ENDMDL
MODEL      150
REMARK 921   NORMALIZED FREE ENERGY PREDICTED BY IDOCK:   -6.06 KCAL/MOL
REMARK 922        TOTAL FREE ENERGY PREDICTED BY IDOCK:   -8.99 KCAL/MOL
REMARK 923 INTER-LIGAND FREE ENERGY PREDICTED BY IDOCK:   -7.89 KCAL/MOL
REMARK 924 INTRA-LIGAND FREE ENERGY PREDICTED BY IDOCK:   -1.10 KCAL/MOL
REMARK 927      BINDING AFFINITY PREDICTED BY RF-SCORE:    0.00 PKD
ROOT
HETATM    1  C   UNL     1     -10.544   7.441  72.775  1.00  0.00    -0.345 C  
HETATM    2  C   UNL     1     -11.247   7.964  71.519  1.00  0.00    -0.249 C  
HETATM    3  C   UNL     1     -12.645   7.344  71.409  1.00  0.00    -0.405 C  
HETATM    4  O   UNL     1     -11.404   9.386  71.648  1.00  0.00    -0.372 OA 
HETATM    5  C   UNL     1     -10.371   7.676  70.270  1.00  0.00    -0.214 C  
HETATM    6  H   UNL     1     -11.840   9.711  70.868  1.00  0.00     0.000 HD 
ENDROOT
BRANCH   5   7
HETATM    7  N   UNL     1     -11.084   8.049  69.057  1.00  0.00    -0.412 NA 
HETATM    8  H   UNL     1     -11.836   7.464  68.690  1.00  0.00     0.000 HD 
BRANCH   7   9
HETATM    9  C   UNL     1     -10.717   9.216  68.417  1.00  0.00    -0.115 A  
HETATM   10  N   UNL     1     -11.157  10.389  68.844  1.00  0.00    -0.239 NA 
HETATM   11  C   UNL     1     -10.750  11.449  68.145  1.00  0.00    -0.202 A  
HETATM   12  N   UNL     1      -9.886   9.063  67.394  1.00  0.00    -0.177 NA 
HETATM   13  N   UNL     1      -9.929  11.383  67.096  1.00  0.00    -0.190 NA 
HETATM   14  C   UNL     1      -9.496  10.170  66.780  1.00  0.00    -0.168 A  
BRANCH  11  15
HETATM   15  C   UNL     1     -11.220  12.801  68.555  1.00  0.00    -0.279 A  
HETATM   16  C   UNL     1     -12.364  14.123  70.133  1.00  0.00    -0.351 A  
HETATM   17  F   UNL     1     -14.374  14.750  71.294  1.00  0.00    -0.468 F  
HETATM   18  N   UNL     1     -11.915  12.901  69.724  1.00  0.00    -0.315 NA 
HETATM   19  C   UNL     1     -12.146  15.277  69.380  1.00  0.00    -0.301 A  
HETATM   20  C   UNL     1     -13.113  14.248  71.454  1.00  0.00    -0.351 C  
HETATM   21  C   UNL     1     -10.965  13.936  67.779  1.00  0.00    -0.271 A  
HETATM   22  C   UNL     1     -11.436  15.179  68.192  1.00  0.00    -0.356 A  
HETATM   23  F   UNL     1     -13.264  13.076  72.133  1.00  0.00    -0.490 F  
HETATM   24  F   UNL     1     -12.492  15.101  72.321  1.00  0.00    -0.343 F  
ENDBRANCH  11  15
BRANCH  14  25
HETATM   25  N   UNL     1      -8.509  10.022  65.803  1.00  0.00    -0.134 NA 
HETATM   26  H   UNL     1      -7.735  10.683  65.868  1.00  0.00     0.000 HD 
BRANCH  25  27
HETATM   27  C   UNL     1      -8.418   9.109  64.749  1.00  0.00    -0.178 A  
HETATM   28  C   UNL     1      -7.826   6.916  63.918  1.00  0.00    -0.107 A  
HETATM   29  C   UNL     1      -8.009   7.795  64.993  1.00  0.00    -0.134 A  
HETATM   30  N   UNL     1      -8.071   7.296  62.631  1.00  0.00    -0.116 NA 
HETATM   31  C   UNL     1      -7.302   5.509  64.167  1.00  0.00    -0.058 C  
HETATM   32  C   UNL     1      -8.468   8.564  62.417  1.00  0.00    -0.174 A  
HETATM   33  F   UNL     1      -6.124   5.258  63.526  1.00  0.00    -0.020 F  
HETATM   34  F   UNL     1      -7.055   5.247  65.487  1.00  0.00    -0.060 F  
HETATM   35  F   UNL     1      -8.166   4.534  63.762  1.00  0.00    -0.086 F  
HETATM   36  C   UNL     1      -8.630   9.494  63.426  1.00  0.00    -0.215 A  
ENDBRANCH  25  27
ENDBRANCH  14  25
ENDBRANCH   7   9
ENDBRANCH   5   7
TORSDOF 5
ENDMDL
MODEL      151
REMARK 921   NORMALIZED FREE ENERGY PREDICTED BY IDOCK:   -6.05 KCAL/MOL
REMARK 922        TOTAL FREE ENERGY PREDICTED BY IDOCK:   -8.98 KCAL/MOL
REMARK 923 INTER-LIGAND FREE ENERGY PREDICTED BY IDOCK:   -8.24 KCAL/MOL
REMARK 924 INTRA-LIGAND FREE ENERGY PREDICTED BY IDOCK:   -0.74 KCAL/MOL
REMARK 927      BINDING AFFINITY PREDICTED BY RF-SCORE:    0.00 PKD
ROOT
HETATM    1  C   UNL     1      -6.502   6.959  63.865  1.00  0.00    -0.042 C  
HETATM    2  C   UNL     1      -7.930   7.503  63.972  1.00  0.00    -0.091 C  
HETATM    3  C   UNL     1      -8.497   7.757  62.570  1.00  0.00     0.032 C  
HETATM    4  O   UNL     1      -8.748   6.507  64.606  1.00  0.00    -0.345 OA 
HETATM    5  C   UNL     1      -7.938   8.781  64.854  1.00  0.00    -0.135 C  
HETATM    6  H   UNL     1      -9.633   6.845  64.673  1.00  0.00     0.000 HD 
ENDROOT
BRANCH   5   7
HETATM    7  N   UNL     1      -9.264   9.383  64.857  1.00  0.00    -0.371 NA 
HETATM    8  H   UNL     1      -9.763   9.557  63.985  1.00  0.00     0.000 HD 
BRANCH   7   9
HETATM    9  C   UNL     1      -9.827   9.713  66.074  1.00  0.00    -0.274 A  
HETATM   10  N   UNL     1     -10.069  10.976  66.387  1.00  0.00    -0.221 NA 
HETATM   11  C   UNL     1     -10.602  11.183  67.591  1.00  0.00    -0.211 A  
HETATM   12  N   UNL     1     -10.124   8.686  66.859  1.00  0.00    -0.258 NA 
HETATM   13  N   UNL     1     -10.918  10.209  68.446  1.00  0.00    -0.251 NA 
HETATM   14  C   UNL     1     -10.691   8.974  68.020  1.00  0.00    -0.125 A  
BRANCH  11  15
HETATM   15  C   UNL     1     -10.885  12.580  68.019  1.00  0.00    -0.225 A  
HETATM   16  C   UNL     1     -10.551  14.884  67.662  1.00  0.00    -0.264 A  
HETATM   17  F   UNL     1      -9.125  16.819  67.585  1.00  0.00    -0.210 F  
HETATM   18  N   UNL     1     -10.317  13.589  67.299  1.00  0.00    -0.241 NA 
HETATM   19  C   UNL     1     -11.345  15.208  68.761  1.00  0.00    -0.313 A  
HETATM   20  C   UNL     1      -9.946  16.018  66.843  1.00  0.00    -0.251 C  
HETATM   21  C   UNL     1     -11.702  12.862  69.119  1.00  0.00    -0.376 A  
HETATM   22  C   UNL     1     -11.928  14.184  69.494  1.00  0.00    -0.389 A  
HETATM   23  F   UNL     1      -9.202  15.612  65.776  1.00  0.00    -0.350 F  
HETATM   24  F   UNL     1     -10.899  16.853  66.332  1.00  0.00    -0.257 F  
ENDBRANCH  11  15
BRANCH  14  25
HETATM   25  N   UNL     1     -11.138   7.890  68.778  1.00  0.00    -0.395 NA 
HETATM   26  H   UNL     1     -11.598   7.151  68.245  1.00  0.00     0.000 HD 
BRANCH  25  27
HETATM   27  C   UNL     1     -11.053   7.660  70.154  1.00  0.00    -0.218 A  
HETATM   28  C   UNL     1     -10.722   6.148  72.012  1.00  0.00    -0.233 A  
HETATM   29  C   UNL     1     -10.708   6.394  70.634  1.00  0.00    -0.310 A  
HETATM   30  N   UNL     1     -11.032   7.125  72.912  1.00  0.00    -0.306 NA 
HETATM   31  C   UNL     1     -10.428   4.751  72.539  1.00  0.00    -0.203 C  
HETATM   32  C   UNL     1     -11.357   8.339  72.431  1.00  0.00    -0.388 A  
HETATM   33  F   UNL     1     -11.465   4.220  73.250  1.00  0.00    -0.323 F  
HETATM   34  F   UNL     1     -10.169   3.841  71.550  1.00  0.00    -0.245 F  
HETATM   35  F   UNL     1      -9.343   4.704  73.365  1.00  0.00    -0.118 F  
HETATM   36  C   UNL     1     -11.402   8.640  71.083  1.00  0.00    -0.329 A  
ENDBRANCH  25  27
ENDBRANCH  14  25
ENDBRANCH   7   9
ENDBRANCH   5   7
TORSDOF 5
ENDMDL
MODEL      152
REMARK 921   NORMALIZED FREE ENERGY PREDICTED BY IDOCK:   -6.04 KCAL/MOL
REMARK 922        TOTAL FREE ENERGY PREDICTED BY IDOCK:   -8.97 KCAL/MOL
REMARK 923 INTER-LIGAND FREE ENERGY PREDICTED BY IDOCK:   -8.24 KCAL/MOL
REMARK 924 INTRA-LIGAND FREE ENERGY PREDICTED BY IDOCK:   -0.73 KCAL/MOL
REMARK 927      BINDING AFFINITY PREDICTED BY RF-SCORE:    0.00 PKD
ROOT
HETATM    1  C   UNL     1      -8.513  10.844  65.075  1.00  0.00    -0.009 C  
HETATM    2  C   UNL     1      -9.916  11.032  65.661  1.00  0.00    -0.248 C  
HETATM    3  C   UNL     1     -10.079  12.470  66.167  1.00  0.00    -0.265 C  
HETATM    4  O   UNL     1     -10.875  10.821  64.613  1.00  0.00    -0.216 OA 
HETATM    5  C   UNL     1     -10.163   9.980  66.775  1.00  0.00    -0.232 C  
HETATM    6  H   UNL     1     -11.745  10.937  64.977  1.00  0.00     0.000 HD 
ENDROOT
BRANCH   5   7
HETATM    7  N   UNL     1     -11.439  10.230  67.429  1.00  0.00    -0.437 NA 
HETATM    8  H   UNL     1     -12.250  10.544  66.895  1.00  0.00     0.000 HD 
BRANCH   7   9
HETATM    9  C   UNL     1     -11.523  10.030  68.793  1.00  0.00     0.022 A  
HETATM   10  N   UNL     1     -10.829   9.068  69.380  1.00  0.00    -0.186 NA 
HETATM   11  C   UNL     1     -10.994   8.955  70.698  1.00  0.00    -0.241 A  
HETATM   12  N   UNL     1     -12.308  10.880  69.443  1.00  0.00    -0.358 NA 
HETATM   13  N   UNL     1     -11.774   9.758  71.424  1.00  0.00    -0.390 NA 
HETATM   14  C   UNL     1     -12.383  10.728  70.756  1.00  0.00    -0.383 A  
BRANCH  11  15
HETATM   15  C   UNL     1     -10.260   7.883  71.423  1.00  0.00    -0.190 A  
HETATM   16  C   UNL     1      -8.225   7.119  72.330  1.00  0.00    -0.104 A  
HETATM   17  F   UNL     1      -5.947   6.394  72.077  1.00  0.00    -0.034 F  
HETATM   18  N   UNL     1      -8.933   8.081  71.669  1.00  0.00    -0.140 NA 
HETATM   19  C   UNL     1      -8.816   5.928  72.751  1.00  0.00    -0.124 A  
HETATM   20  C   UNL     1      -6.750   7.346  72.637  1.00  0.00    -0.063 C  
HETATM   21  C   UNL     1     -10.895   6.710  71.843  1.00  0.00    -0.267 A  
HETATM   22  C   UNL     1     -10.168   5.725  72.506  1.00  0.00    -0.218 A  
HETATM   23  F   UNL     1      -6.260   8.543  72.209  1.00  0.00    -0.052 F  
HETATM   24  F   UNL     1      -6.487   7.297  73.977  1.00  0.00    -0.074 F  
ENDBRANCH  11  15
BRANCH  14  25
HETATM   25  N   UNL     1     -13.087  11.710  71.455  1.00  0.00    -0.381 NA 
HETATM   26  H   UNL     1     -13.777  11.357  72.118  1.00  0.00     0.000 HD 
BRANCH  25  27
HETATM   27  C   UNL     1     -12.992  13.103  71.387  1.00  0.00    -0.298 A  
HETATM   28  C   UNL     1     -12.045  15.095  70.396  1.00  0.00    -0.328 A  
HETATM   29  C   UNL     1     -12.213  13.706  70.396  1.00  0.00    -0.434 A  
HETATM   30  N   UNL     1     -12.652  15.891  71.324  1.00  0.00    -0.434 NA 
HETATM   31  C   UNL     1     -11.133  15.752  69.371  1.00  0.00    -0.314 C  
HETATM   32  C   UNL     1     -13.401  15.293  72.268  1.00  0.00    -0.428 A  
HETATM   33  F   UNL     1     -10.097  16.436  69.938  1.00  0.00    -0.229 F  
HETATM   34  F   UNL     1     -10.547  14.860  68.515  1.00  0.00    -0.226 F  
HETATM   35  F   UNL     1     -11.780  16.647  68.569  1.00  0.00    -0.283 F  
HETATM   36  C   UNL     1     -13.577  13.925  72.350  1.00  0.00    -0.676 A  
ENDBRANCH  25  27
ENDBRANCH  14  25
ENDBRANCH   7   9
ENDBRANCH   5   7
TORSDOF 5
ENDMDL
MODEL      153
REMARK 921   NORMALIZED FREE ENERGY PREDICTED BY IDOCK:   -6.04 KCAL/MOL
REMARK 922        TOTAL FREE ENERGY PREDICTED BY IDOCK:   -8.96 KCAL/MOL
REMARK 923 INTER-LIGAND FREE ENERGY PREDICTED BY IDOCK:   -7.97 KCAL/MOL
REMARK 924 INTRA-LIGAND FREE ENERGY PREDICTED BY IDOCK:   -0.99 KCAL/MOL
REMARK 927      BINDING AFFINITY PREDICTED BY RF-SCORE:    0.00 PKD
ROOT
HETATM    1  C   UNL     1     -12.897  14.198  65.171  1.00  0.00    -0.321 C  
HETATM    2  C   UNL     1     -11.745  13.251  64.823  1.00  0.00    -0.355 C  
HETATM    3  C   UNL     1     -12.185  12.278  63.723  1.00  0.00    -0.642 C  
HETATM    4  O   UNL     1     -10.655  14.034  64.310  1.00  0.00    -0.591 OA 
HETATM    5  C   UNL     1     -11.264  12.518  66.104  1.00  0.00    -0.321 C  
HETATM    6  H   UNL     1      -9.940  13.446  64.094  1.00  0.00     0.000 HD 
ENDROOT
BRANCH   5   7
HETATM    7  N   UNL     1     -10.260  11.520  65.767  1.00  0.00    -0.239 NA 
HETATM    8  H   UNL     1      -9.580  11.689  65.025  1.00  0.00     0.000 HD 
BRANCH   7   9
HETATM    9  C   UNL     1     -10.251  10.336  66.479  1.00  0.00    -0.226 A  
HETATM   10  N   UNL     1     -10.712  10.290  67.718  1.00  0.00    -0.254 NA 
HETATM   11  C   UNL     1     -10.646   9.100  68.317  1.00  0.00    -0.174 A  
HETATM   12  N   UNL     1      -9.787   9.282  65.820  1.00  0.00    -0.288 NA 
HETATM   13  N   UNL     1     -10.181   7.995  67.732  1.00  0.00    -0.208 NA 
HETATM   14  C   UNL     1      -9.795   8.129  66.471  1.00  0.00    -0.239 A  
BRANCH  11  15
HETATM   15  C   UNL     1     -11.129   8.976  69.719  1.00  0.00    -0.104 A  
HETATM   16  C   UNL     1     -11.328   7.643  71.651  1.00  0.00    -0.251 A  
HETATM   17  F   UNL     1     -12.190   5.715  72.800  1.00  0.00    -0.299 F  
HETATM   18  N   UNL     1     -10.899   7.796  70.364  1.00  0.00    -0.242 NA 
HETATM   19  C   UNL     1     -12.012   8.656  72.324  1.00  0.00    -0.438 A  
HETATM   20  C   UNL     1     -11.047   6.341  72.389  1.00  0.00    -0.270 C  
HETATM   21  C   UNL     1     -11.795  10.023  70.364  1.00  0.00    -0.343 A  
HETATM   22  C   UNL     1     -12.244   9.859  71.672  1.00  0.00    -0.482 A  
HETATM   23  F   UNL     1     -10.358   5.415  71.665  1.00  0.00    -0.237 F  
HETATM   24  F   UNL     1     -10.317   6.538  73.527  1.00  0.00    -0.197 F  
ENDBRANCH  11  15
BRANCH  14  25
HETATM   25  N   UNL     1      -9.449   6.997  65.731  1.00  0.00    -0.374 NA 
HETATM   26  H   UNL     1      -9.352   7.151  64.727  1.00  0.00     0.000 HD 
BRANCH  25  27
HETATM   27  C   UNL     1      -9.213   5.686  66.153  1.00  0.00    -0.159 A  
HETATM   28  C   UNL     1      -7.969   4.105  67.495  1.00  0.00    -0.091 A  
HETATM   29  C   UNL     1      -8.268   5.428  67.149  1.00  0.00    -0.104 A  
HETATM   30  N   UNL     1      -8.603   3.049  66.908  1.00  0.00    -0.105 NA 
HETATM   31  C   UNL     1      -6.883   3.813  68.520  1.00  0.00    -0.047 C  
HETATM   32  C   UNL     1      -9.513   3.318  65.953  1.00  0.00    -0.081 A  
HETATM   33  F   UNL     1      -5.861   3.063  68.015  1.00  0.00    -0.020 F  
HETATM   34  F   UNL     1      -6.287   4.941  69.016  1.00  0.00    -0.027 F  
HETATM   35  F   UNL     1      -7.341   3.138  69.613  1.00  0.00    -0.043 F  
HETATM   36  C   UNL     1      -9.828   4.597  65.536  1.00  0.00    -0.198 A  
ENDBRANCH  25  27
ENDBRANCH  14  25
ENDBRANCH   7   9
ENDBRANCH   5   7
TORSDOF 5
ENDMDL
MODEL      154
REMARK 921   NORMALIZED FREE ENERGY PREDICTED BY IDOCK:   -6.00 KCAL/MOL
REMARK 922        TOTAL FREE ENERGY PREDICTED BY IDOCK:   -8.91 KCAL/MOL
REMARK 923 INTER-LIGAND FREE ENERGY PREDICTED BY IDOCK:   -7.78 KCAL/MOL
REMARK 924 INTRA-LIGAND FREE ENERGY PREDICTED BY IDOCK:   -1.13 KCAL/MOL
REMARK 927      BINDING AFFINITY PREDICTED BY RF-SCORE:    0.00 PKD
ROOT
HETATM    1  C   UNL     1     -10.633   7.039  73.604  1.00  0.00    -0.383 C  
HETATM    2  C   UNL     1     -11.081   7.739  72.317  1.00  0.00    -0.301 C  
HETATM    3  C   UNL     1     -12.441   8.411  72.537  1.00  0.00    -0.337 C  
HETATM    4  O   UNL     1     -10.125   8.764  72.003  1.00  0.00    -0.313 OA 
HETATM    5  C   UNL     1     -11.108   6.717  71.149  1.00  0.00    -0.270 C  
HETATM    6  H   UNL     1     -10.404   9.198  71.205  1.00  0.00     0.000 HD 
ENDROOT
BRANCH   5   7
HETATM    7  N   UNL     1     -11.657   7.336  69.951  1.00  0.00    -0.514 NA 
HETATM    8  H   UNL     1     -12.665   7.417  69.817  1.00  0.00     0.000 HD 
BRANCH   7   9
HETATM    9  C   UNL     1     -10.776   7.810  68.999  1.00  0.00    -0.103 A  
HETATM   10  N   UNL     1     -10.317   7.014  68.046  1.00  0.00    -0.182 NA 
HETATM   11  C   UNL     1      -9.463   7.571  67.187  1.00  0.00    -0.154 A  
HETATM   12  N   UNL     1     -10.467   9.096  69.103  1.00  0.00    -0.216 NA 
HETATM   13  N   UNL     1      -9.090   8.851  67.229  1.00  0.00    -0.133 NA 
HETATM   14  C   UNL     1      -9.646   9.583  68.186  1.00  0.00    -0.137 A  
BRANCH  11  15
HETATM   15  C   UNL     1      -8.891   6.732  66.099  1.00  0.00    -0.148 A  
HETATM   16  C   UNL     1      -8.598   4.584  65.178  1.00  0.00    -0.131 A  
HETATM   17  F   UNL     1      -7.713   2.351  65.282  1.00  0.00    -0.071 F  
HETATM   18  N   UNL     1      -9.108   5.387  66.157  1.00  0.00    -0.147 NA 
HETATM   19  C   UNL     1      -7.845   5.098  64.123  1.00  0.00    -0.098 A  
HETATM   20  C   UNL     1      -8.864   3.085  65.219  1.00  0.00    -0.133 C  
HETATM   21  C   UNL     1      -8.155   7.290  65.048  1.00  0.00    -0.120 A  
HETATM   22  C   UNL     1      -7.625   6.467  64.059  1.00  0.00    -0.100 A  
HETATM   23  F   UNL     1      -9.624   2.672  66.272  1.00  0.00    -0.087 F  
HETATM   24  F   UNL     1      -9.512   2.644  64.100  1.00  0.00    -0.113 F  
ENDBRANCH  11  15
BRANCH  14  25
HETATM   25  N   UNL     1      -9.441  10.964  68.206  1.00  0.00    -0.161 NA 
HETATM   26  H   UNL     1      -8.499  11.256  68.466  1.00  0.00     0.000 HD 
BRANCH  25  27
HETATM   27  C   UNL     1     -10.327  12.007  67.924  1.00  0.00    -0.197 A  
HETATM   28  C   UNL     1     -11.237  13.626  66.376  1.00  0.00    -0.308 A  
HETATM   29  C   UNL     1     -10.421  12.516  66.627  1.00  0.00    -0.252 A  
HETATM   30  N   UNL     1     -11.977  14.210  67.362  1.00  0.00    -0.412 NA 
HETATM   31  C   UNL     1     -11.283  14.238  64.983  1.00  0.00    -0.364 C  
HETATM   32  C   UNL     1     -11.875  13.703  68.605  1.00  0.00    -0.374 A  
HETATM   33  F   UNL     1     -10.881  15.542  64.960  1.00  0.00    -0.353 F  
HETATM   34  F   UNL     1     -10.476  13.598  64.082  1.00  0.00    -0.424 F  
HETATM   35  F   UNL     1     -12.530  14.218  64.427  1.00  0.00    -0.441 F  
HETATM   36  C   UNL     1     -11.060  12.636  68.930  1.00  0.00    -0.307 A  
ENDBRANCH  25  27
ENDBRANCH  14  25
ENDBRANCH   7   9
ENDBRANCH   5   7
TORSDOF 5
ENDMDL
MODEL      155
REMARK 921   NORMALIZED FREE ENERGY PREDICTED BY IDOCK:   -5.99 KCAL/MOL
REMARK 922        TOTAL FREE ENERGY PREDICTED BY IDOCK:   -8.90 KCAL/MOL
REMARK 923 INTER-LIGAND FREE ENERGY PREDICTED BY IDOCK:   -7.91 KCAL/MOL
REMARK 924 INTRA-LIGAND FREE ENERGY PREDICTED BY IDOCK:   -1.00 KCAL/MOL
REMARK 927      BINDING AFFINITY PREDICTED BY RF-SCORE:    0.00 PKD
ROOT
HETATM    1  C   UNL     1     -13.093  11.723  63.885  1.00  0.00    -0.010 C  
HETATM    2  C   UNL     1     -11.813  12.517  63.608  1.00  0.00    -0.530 C  
HETATM    3  C   UNL     1     -10.678  11.558  63.227  1.00  0.00    -0.374 C  
HETATM    4  O   UNL     1     -12.052  13.385  62.489  1.00  0.00    -0.481 OA 
HETATM    5  C   UNL     1     -11.461  13.389  64.842  1.00  0.00    -0.325 C  
HETATM    6  H   UNL     1     -11.258  13.878  62.318  1.00  0.00     0.000 HD 
ENDROOT
BRANCH   5   7
HETATM    7  N   UNL     1     -10.178  14.048  64.645  1.00  0.00    -0.649 NA 
HETATM    8  H   UNL     1      -9.799  14.189  63.708  1.00  0.00     0.000 HD 
BRANCH   7   9
HETATM    9  C   UNL     1      -9.486  14.478  65.761  1.00  0.00    -0.123 A  
HETATM   10  N   UNL     1      -9.181  15.756  65.916  1.00  0.00    -0.333 NA 
HETATM   11  C   UNL     1      -8.501  16.058  67.023  1.00  0.00    -0.214 A  
HETATM   12  N   UNL     1      -9.196  13.533  66.645  1.00  0.00    -0.238 NA 
HETATM   13  N   UNL     1      -8.158  15.168  67.955  1.00  0.00    -0.130 NA 
HETATM   14  C   UNL     1      -8.558  13.923  67.738  1.00  0.00    -0.182 A  
BRANCH  11  15
HETATM   15  C   UNL     1      -8.106  17.474  67.257  1.00  0.00    -0.203 A  
HETATM   16  C   UNL     1      -7.099  19.431  66.417  1.00  0.00    -0.229 A  
HETATM   17  F   UNL     1      -5.180  20.631  65.607  1.00  0.00    -0.192 F  
HETATM   18  N   UNL     1      -7.479  18.132  66.240  1.00  0.00    -0.254 NA 
HETATM   19  C   UNL     1      -7.322  20.105  67.617  1.00  0.00    -0.328 A  
HETATM   20  C   UNL     1      -6.427  20.182  65.275  1.00  0.00    -0.278 C  
HETATM   21  C   UNL     1      -8.364  18.119  68.471  1.00  0.00    -0.314 A  
HETATM   22  C   UNL     1      -7.964  19.441  68.653  1.00  0.00    -0.403 A  
HETATM   23  F   UNL     1      -6.267  19.454  64.134  1.00  0.00    -0.312 F  
HETATM   24  F   UNL     1      -7.125  21.297  64.907  1.00  0.00     0.058 F  
ENDBRANCH  11  15
BRANCH  14  25
HETATM   25  N   UNL     1      -8.386  12.959  68.734  1.00  0.00    -0.357 NA 
HETATM   26  H   UNL     1      -8.328  13.326  69.684  1.00  0.00     0.000 HD 
BRANCH  25  27
HETATM   27  C   UNL     1      -8.281  11.570  68.630  1.00  0.00    -0.124 A  
HETATM   28  C   UNL     1      -9.120   9.359  69.136  1.00  0.00    -0.148 A  
HETATM   29  C   UNL     1      -9.282  10.749  69.156  1.00  0.00    -0.131 A  
HETATM   30  N   UNL     1      -8.020   8.773  68.580  1.00  0.00    -0.106 NA 
HETATM   31  C   UNL     1     -10.167   8.461  69.780  1.00  0.00    -0.207 C  
HETATM   32  C   UNL     1      -7.069   9.579  68.075  1.00  0.00    -0.080 A  
HETATM   33  F   UNL     1      -9.663   7.695  70.791  1.00  0.00    -0.172 F  
HETATM   34  F   UNL     1     -11.206   9.153  70.339  1.00  0.00    -0.245 F  
HETATM   35  F   UNL     1     -10.744   7.591  68.901  1.00  0.00    -0.214 F  
HETATM   36  C   UNL     1      -7.146  10.959  68.098  1.00  0.00    -0.077 A  
ENDBRANCH  25  27
ENDBRANCH  14  25
ENDBRANCH   7   9
ENDBRANCH   5   7
TORSDOF 5
ENDMDL
MODEL      156
REMARK 921   NORMALIZED FREE ENERGY PREDICTED BY IDOCK:   -5.98 KCAL/MOL
REMARK 922        TOTAL FREE ENERGY PREDICTED BY IDOCK:   -8.89 KCAL/MOL
REMARK 923 INTER-LIGAND FREE ENERGY PREDICTED BY IDOCK:   -7.91 KCAL/MOL
REMARK 924 INTRA-LIGAND FREE ENERGY PREDICTED BY IDOCK:   -0.98 KCAL/MOL
REMARK 927      BINDING AFFINITY PREDICTED BY RF-SCORE:    0.00 PKD
ROOT
HETATM    1  C   UNL     1      -5.210   4.565  70.011  1.00  0.00     0.000 C  
HETATM    2  C   UNL     1      -5.870   5.299  68.840  1.00  0.00    -0.020 C  
HETATM    3  C   UNL     1      -5.303   4.778  67.514  1.00  0.00    -0.012 C  
HETATM    4  O   UNL     1      -7.277   5.013  68.862  1.00  0.00    -0.056 OA 
HETATM    5  C   UNL     1      -5.677   6.830  69.006  1.00  0.00    -0.018 C  
HETATM    6  H   UNL     1      -7.687   5.468  68.136  1.00  0.00     0.000 HD 
ENDROOT
BRANCH   5   7
HETATM    7  N   UNL     1      -6.183   7.532  67.835  1.00  0.00    -0.046 NA 
HETATM    8  H   UNL     1      -5.575   7.737  67.042  1.00  0.00     0.000 HD 
BRANCH   7   9
HETATM    9  C   UNL     1      -7.510   7.915  67.828  1.00  0.00    -0.097 A  
HETATM   10  N   UNL     1      -8.208   7.959  68.952  1.00  0.00    -0.125 NA 
HETATM   11  C   UNL     1      -9.483   8.329  68.828  1.00  0.00    -0.148 A  
HETATM   12  N   UNL     1      -7.996   8.253  66.640  1.00  0.00    -0.097 NA 
HETATM   13  N   UNL     1     -10.052   8.671  67.672  1.00  0.00    -0.198 NA 
HETATM   14  C   UNL     1      -9.258   8.651  66.610  1.00  0.00    -0.181 A  
BRANCH  11  15
HETATM   15  C   UNL     1     -10.334   8.383  70.047  1.00  0.00    -0.211 A  
HETATM   16  C   UNL     1     -11.135   7.291  71.974  1.00  0.00    -0.244 A  
HETATM   17  F   UNL     1     -12.397   5.539  73.031  1.00  0.00    -0.192 F  
HETATM   18  N   UNL     1     -10.364   7.280  70.848  1.00  0.00    -0.201 NA 
HETATM   19  C   UNL     1     -11.909   8.397  72.326  1.00  0.00    -0.456 A  
HETATM   20  C   UNL     1     -11.148   6.074  72.890  1.00  0.00    -0.255 C  
HETATM   21  C   UNL     1     -11.082   9.520  70.373  1.00  0.00    -0.330 A  
HETATM   22  C   UNL     1     -11.878   9.523  71.515  1.00  0.00    -0.478 A  
HETATM   23  F   UNL     1     -10.349   5.048  72.482  1.00  0.00    -0.211 F  
HETATM   24  F   UNL     1     -10.742   6.377  74.159  1.00  0.00    -0.293 F  
ENDBRANCH  11  15
BRANCH  14  25
HETATM   25  N   UNL     1      -9.723   9.148  65.391  1.00  0.00    -0.457 NA 
HETATM   26  H   UNL     1      -9.837   8.450  64.655  1.00  0.00     0.000 HD 
BRANCH  25  27
HETATM   27  C   UNL     1     -10.057  10.454  65.022  1.00  0.00    -0.309 A  
HETATM   28  C   UNL     1     -11.105  12.574  65.528  1.00  0.00    -0.301 A  
HETATM   29  C   UNL     1     -10.685  11.302  65.937  1.00  0.00    -0.291 A  
HETATM   30  N   UNL     1     -10.886  13.028  64.261  1.00  0.00    -0.385 NA 
HETATM   31  C   UNL     1     -11.863  13.473  66.494  1.00  0.00    -0.399 C  
HETATM   32  C   UNL     1     -10.276  12.198  63.395  1.00  0.00    -0.388 A  
HETATM   33  F   UNL     1     -13.110  13.803  66.049  1.00  0.00    -0.429 F  
HETATM   34  F   UNL     1     -12.060  12.905  67.723  1.00  0.00    -0.378 F  
HETATM   35  F   UNL     1     -11.227  14.654  66.742  1.00  0.00    -0.310 F  
HETATM   36  C   UNL     1      -9.872  10.917  63.720  1.00  0.00    -0.391 A  
ENDBRANCH  25  27
ENDBRANCH  14  25
ENDBRANCH   7   9
ENDBRANCH   5   7
TORSDOF 5
ENDMDL
MODEL      157
REMARK 921   NORMALIZED FREE ENERGY PREDICTED BY IDOCK:   -5.96 KCAL/MOL
REMARK 922        TOTAL FREE ENERGY PREDICTED BY IDOCK:   -8.87 KCAL/MOL
REMARK 923 INTER-LIGAND FREE ENERGY PREDICTED BY IDOCK:   -7.94 KCAL/MOL
REMARK 924 INTRA-LIGAND FREE ENERGY PREDICTED BY IDOCK:   -0.93 KCAL/MOL
REMARK 927      BINDING AFFINITY PREDICTED BY RF-SCORE:    0.00 PKD
ROOT
HETATM    1  C   UNL     1      -6.708   9.648  63.610  1.00  0.00    -0.111 C  
HETATM    2  C   UNL     1      -7.710   9.118  64.641  1.00  0.00    -0.113 C  
HETATM    3  C   UNL     1      -8.004   7.639  64.368  1.00  0.00    -0.123 C  
HETATM    4  O   UNL     1      -7.114   9.218  65.944  1.00  0.00    -0.087 OA 
HETATM    5  C   UNL     1      -8.993   9.991  64.618  1.00  0.00    -0.214 C  
HETATM    6  H   UNL     1      -7.736   8.890  66.583  1.00  0.00     0.000 HD 
ENDROOT
BRANCH   5   7
HETATM    7  N   UNL     1     -10.005   9.422  65.497  1.00  0.00    -0.421 NA 
HETATM    8  H   UNL     1     -10.608   8.662  65.181  1.00  0.00     0.000 HD 
BRANCH   7   9
HETATM    9  C   UNL     1     -10.127   9.940  66.772  1.00  0.00    -0.230 A  
HETATM   10  N   UNL     1     -10.505   9.171  67.781  1.00  0.00    -0.246 NA 
HETATM   11  C   UNL     1     -10.602   9.775  68.965  1.00  0.00    -0.219 A  
HETATM   12  N   UNL     1      -9.811  11.222  66.896  1.00  0.00    -0.191 NA 
HETATM   13  N   UNL     1     -10.317  11.062  69.173  1.00  0.00    -0.210 NA 
HETATM   14  C   UNL     1      -9.892  11.736  68.113  1.00  0.00    -0.190 A  
BRANCH  11  15
HETATM   15  C   UNL     1     -11.040   8.977  70.143  1.00  0.00    -0.207 A  
HETATM   16  C   UNL     1     -10.858   6.982  71.382  1.00  0.00    -0.229 A  
HETATM   17  F   UNL     1     -11.130   4.603  71.594  1.00  0.00    -0.044 F  
HETATM   18  N   UNL     1     -10.481   7.745  70.314  1.00  0.00    -0.220 NA 
HETATM   19  C   UNL     1     -11.813   7.421  72.299  1.00  0.00    -0.307 A  
HETATM   20  C   UNL     1     -10.216   5.618  71.598  1.00  0.00    -0.208 C  
HETATM   21  C   UNL     1     -11.988   9.462  71.049  1.00  0.00    -0.389 A  
HETATM   22  C   UNL     1     -12.381   8.677  72.130  1.00  0.00    -0.452 A  
HETATM   23  F   UNL     1      -9.281   5.278  70.668  1.00  0.00    -0.145 F  
HETATM   24  F   UNL     1      -9.584   5.530  72.806  1.00  0.00    -0.148 F  
ENDBRANCH  11  15
BRANCH  14  25
HETATM   25  N   UNL     1      -9.418  13.040  68.270  1.00  0.00    -0.240 NA 
HETATM   26  H   UNL     1      -8.407  13.144  68.189  1.00  0.00     0.000 HD 
BRANCH  25  27
HETATM   27  C   UNL     1     -10.115  14.225  68.520  1.00  0.00    -0.246 A  
HETATM   28  C   UNL     1     -11.608  15.529  69.906  1.00  0.00    -0.335 A  
HETATM   29  C   UNL     1     -10.833  14.379  69.708  1.00  0.00    -0.087 A  
HETATM   30  N   UNL     1     -11.657  16.529  68.978  1.00  0.00    -0.143 NA 
HETATM   31  C   UNL     1     -12.457  15.668  71.160  1.00  0.00    -0.448 C  
HETATM   32  C   UNL     1     -10.956  16.363  67.842  1.00  0.00    -0.298 A  
HETATM   33  F   UNL     1     -13.789  15.795  70.892  1.00  0.00    -0.490 F  
HETATM   34  F   UNL     1     -12.363  14.594  72.002  1.00  0.00    -0.352 F  
HETATM   35  F   UNL     1     -12.122  16.751  71.920  1.00  0.00    -0.354 F  
HETATM   36  C   UNL     1     -10.203  15.238  67.565  1.00  0.00    -0.239 A  
ENDBRANCH  25  27
ENDBRANCH  14  25
ENDBRANCH   7   9
ENDBRANCH   5   7
TORSDOF 5
ENDMDL
MODEL      158
REMARK 921   NORMALIZED FREE ENERGY PREDICTED BY IDOCK:   -5.96 KCAL/MOL
REMARK 922        TOTAL FREE ENERGY PREDICTED BY IDOCK:   -8.86 KCAL/MOL
REMARK 923 INTER-LIGAND FREE ENERGY PREDICTED BY IDOCK:   -8.21 KCAL/MOL
REMARK 924 INTRA-LIGAND FREE ENERGY PREDICTED BY IDOCK:   -0.65 KCAL/MOL
REMARK 927      BINDING AFFINITY PREDICTED BY RF-SCORE:    0.00 PKD
ROOT
HETATM    1  C   UNL     1     -12.535  15.149  63.988  1.00  0.00     0.121 C  
HETATM    2  C   UNL     1     -12.092  13.867  64.699  1.00  0.00    -0.431 C  
HETATM    3  C   UNL     1     -12.549  13.899  66.162  1.00  0.00    -0.426 C  
HETATM    4  O   UNL     1     -12.732  12.750  64.060  1.00  0.00    -0.665 OA 
HETATM    5  C   UNL     1     -10.555  13.697  64.562  1.00  0.00    -0.411 C  
HETATM    6  H   UNL     1     -12.456  11.955  64.502  1.00  0.00     0.000 HD 
ENDROOT
BRANCH   5   7
HETATM    7  N   UNL     1     -10.102  12.555  65.343  1.00  0.00    -0.294 NA 
HETATM    8  H   UNL     1     -10.288  11.601  65.033  1.00  0.00     0.000 HD 
BRANCH   7   9
HETATM    9  C   UNL     1      -9.414  12.798  66.516  1.00  0.00    -0.253 A  
HETATM   10  N   UNL     1      -9.020  14.022  66.827  1.00  0.00    -0.228 NA 
HETATM   11  C   UNL     1      -8.353  14.142  67.975  1.00  0.00    -0.160 A  
HETATM   12  N   UNL     1      -9.220  11.738  67.289  1.00  0.00    -0.169 NA 
HETATM   13  N   UNL     1      -8.103  13.126  68.803  1.00  0.00    -0.002 NA 
HETATM   14  C   UNL     1      -8.588  11.949  68.433  1.00  0.00    -0.152 A  
BRANCH  11  15
HETATM   15  C   UNL     1      -7.862  15.486  68.382  1.00  0.00    -0.126 A  
HETATM   16  C   UNL     1      -8.226  17.813  68.437  1.00  0.00    -0.298 A  
HETATM   17  F   UNL     1      -8.488  19.930  67.328  1.00  0.00    -0.310 F  
HETATM   18  N   UNL     1      -8.643  16.563  68.081  1.00  0.00    -0.188 NA 
HETATM   19  C   UNL     1      -7.011  18.026  69.088  1.00  0.00    -0.212 A  
HETATM   20  C   UNL     1      -9.108  19.017  68.133  1.00  0.00    -0.320 C  
HETATM   21  C   UNL     1      -6.644  15.655  69.050  1.00  0.00    -0.130 A  
HETATM   22  C   UNL     1      -6.215  16.932  69.399  1.00  0.00    -0.226 A  
HETATM   23  F   UNL     1     -10.285  18.716  67.514  1.00  0.00    -0.327 F  
HETATM   24  F   UNL     1      -9.450  19.705  69.263  1.00  0.00    -0.422 F  
ENDBRANCH  11  15
BRANCH  14  25
HETATM   25  N   UNL     1      -8.517  10.866  69.312  1.00  0.00    -0.364 NA 
HETATM   26  H   UNL     1      -8.002  11.044  70.174  1.00  0.00     0.000 HD 
BRANCH  25  27
HETATM   27  C   UNL     1      -9.042   9.576  69.192  1.00  0.00    -0.152 A  
HETATM   28  C   UNL     1     -10.343   7.749  70.095  1.00  0.00    -0.218 A  
HETATM   29  C   UNL     1      -9.902   9.075  70.172  1.00  0.00    -0.213 A  
HETATM   30  N   UNL     1      -9.983   6.932  69.062  1.00  0.00    -0.155 NA 
HETATM   31  C   UNL     1     -11.214   7.170  71.200  1.00  0.00    -0.262 C  
HETATM   32  C   UNL     1      -9.157   7.434  68.126  1.00  0.00    -0.131 A  
HETATM   33  F   UNL     1     -10.644   6.097  71.821  1.00  0.00    -0.228 F  
HETATM   34  F   UNL     1     -11.482   8.062  72.202  1.00  0.00    -0.291 F  
HETATM   35  F   UNL     1     -12.434   6.746  70.759  1.00  0.00    -0.429 F  
HETATM   36  C   UNL     1      -8.652   8.720  68.162  1.00  0.00    -0.134 A  
ENDBRANCH  25  27
ENDBRANCH  14  25
ENDBRANCH   7   9
ENDBRANCH   5   7
TORSDOF 5
ENDMDL
MODEL      159
REMARK 921   NORMALIZED FREE ENERGY PREDICTED BY IDOCK:   -5.95 KCAL/MOL
REMARK 922        TOTAL FREE ENERGY PREDICTED BY IDOCK:   -8.85 KCAL/MOL
REMARK 923 INTER-LIGAND FREE ENERGY PREDICTED BY IDOCK:   -8.09 KCAL/MOL
REMARK 924 INTRA-LIGAND FREE ENERGY PREDICTED BY IDOCK:   -0.76 KCAL/MOL
REMARK 927      BINDING AFFINITY PREDICTED BY RF-SCORE:    0.00 PKD
ROOT
HETATM    1  C   UNL     1     -13.236  11.546  63.546  1.00  0.00     0.497 C  
HETATM    2  C   UNL     1     -12.084  12.212  64.304  1.00  0.00    -0.375 C  
HETATM    3  C   UNL     1     -11.761  13.570  63.671  1.00  0.00    -0.298 C  
HETATM    4  O   UNL     1     -12.507  12.444  65.657  1.00  0.00    -0.640 OA 
HETATM    5  C   UNL     1     -10.856  11.263  64.329  1.00  0.00    -0.328 C  
HETATM    6  H   UNL     1     -11.792  12.857  66.127  1.00  0.00     0.000 HD 
ENDROOT
BRANCH   5   7
HETATM    7  N   UNL     1      -9.713  11.933  64.931  1.00  0.00    -0.392 NA 
HETATM    8  H   UNL     1      -8.868  12.119  64.388  1.00  0.00     0.000 HD 
BRANCH   7   9
HETATM    9  C   UNL     1      -9.801  12.311  66.256  1.00  0.00    -0.241 A  
HETATM   10  N   UNL     1     -10.158  11.438  67.185  1.00  0.00    -0.195 NA 
HETATM   11  C   UNL     1     -10.223  11.912  68.430  1.00  0.00    -0.204 A  
HETATM   12  N   UNL     1      -9.476  13.572  66.509  1.00  0.00    -0.271 NA 
HETATM   13  N   UNL     1      -9.927  13.168  68.768  1.00  0.00    -0.100 NA 
HETATM   14  C   UNL     1      -9.525  13.951  67.776  1.00  0.00    -0.214 A  
BRANCH  11  15
HETATM   15  C   UNL     1     -10.636  10.993  69.525  1.00  0.00    -0.138 A  
HETATM   16  C   UNL     1     -10.087   9.178  70.922  1.00  0.00    -0.287 A  
HETATM   17  F   UNL     1      -9.551   6.857  71.247  1.00  0.00    -0.164 F  
HETATM   18  N   UNL     1      -9.744  10.040  69.922  1.00  0.00    -0.225 NA 
HETATM   19  C   UNL     1     -11.334   9.231  71.545  1.00  0.00    -0.455 A  
HETATM   20  C   UNL     1      -9.083   8.132  71.392  1.00  0.00    -0.153 C  
HETATM   21  C   UNL     1     -11.891  11.091  70.135  1.00  0.00    -0.441 A  
HETATM   22  C   UNL     1     -12.242  10.202  71.147  1.00  0.00    -0.490 A  
HETATM   23  F   UNL     1      -7.885   8.164  70.745  1.00  0.00    -0.078 F  
HETATM   24  F   UNL     1      -8.789   8.259  72.721  1.00  0.00    -0.222 F  
ENDBRANCH  11  15
BRANCH  14  25
HETATM   25  N   UNL     1      -9.040  15.230  68.061  1.00  0.00    -0.175 NA 
HETATM   26  H   UNL     1      -8.363  15.275  68.822  1.00  0.00     0.000 HD 
BRANCH  25  27
HETATM   27  C   UNL     1      -9.340  16.457  67.463  1.00  0.00    -0.214 A  
HETATM   28  C   UNL     1      -8.664  18.673  66.768  1.00  0.00    -0.292 A  
HETATM   29  C   UNL     1      -8.335  17.410  67.276  1.00  0.00    -0.221 A  
HETATM   30  N   UNL     1      -9.942  18.992  66.413  1.00  0.00    -0.373 NA 
HETATM   31  C   UNL     1      -7.591  19.744  66.639  1.00  0.00    -0.263 C  
HETATM   32  C   UNL     1     -10.895  18.060  66.597  1.00  0.00     0.004 A  
HETATM   33  F   UNL     1      -7.861  20.861  67.375  1.00  0.00    -0.372 F  
HETATM   34  F   UNL     1      -6.357  19.329  67.058  1.00  0.00    -0.184 F  
HETATM   35  F   UNL     1      -7.411  20.173  65.356  1.00  0.00    -0.333 F  
HETATM   36  C   UNL     1     -10.648  16.809  67.130  1.00  0.00    -0.256 A  
ENDBRANCH  25  27
ENDBRANCH  14  25
ENDBRANCH   7   9
ENDBRANCH   5   7
TORSDOF 5
ENDMDL
MODEL      160
REMARK 921   NORMALIZED FREE ENERGY PREDICTED BY IDOCK:   -5.95 KCAL/MOL
REMARK 922        TOTAL FREE ENERGY PREDICTED BY IDOCK:   -8.85 KCAL/MOL
REMARK 923 INTER-LIGAND FREE ENERGY PREDICTED BY IDOCK:   -7.57 KCAL/MOL
REMARK 924 INTRA-LIGAND FREE ENERGY PREDICTED BY IDOCK:   -1.28 KCAL/MOL
REMARK 927      BINDING AFFINITY PREDICTED BY RF-SCORE:    0.00 PKD
ROOT
HETATM    1  C   UNL     1     -11.391   6.045  73.162  1.00  0.00    -0.098 C  
HETATM    2  C   UNL     1     -11.694   6.814  71.872  1.00  0.00    -0.310 C  
HETATM    3  C   UNL     1     -13.208   6.847  71.630  1.00  0.00    -0.315 C  
HETATM    4  O   UNL     1     -11.243   8.167  72.036  1.00  0.00    -0.269 OA 
HETATM    5  C   UNL     1     -10.919   6.176  70.688  1.00  0.00    -0.311 C  
HETATM    6  H   UNL     1     -11.431   8.644  71.236  1.00  0.00     0.000 HD 
ENDROOT
BRANCH   5   7
HETATM    7  N   UNL     1     -11.299   6.813  69.436  1.00  0.00    -0.549 NA 
HETATM    8  H   UNL     1     -12.185   6.591  68.982  1.00  0.00     0.000 HD 
BRANCH   7   9
HETATM    9  C   UNL     1     -10.425   7.725  68.877  1.00  0.00    -0.194 A  
HETATM   10  N   UNL     1      -9.386   7.318  68.166  1.00  0.00    -0.132 NA 
HETATM   11  C   UNL     1      -8.601   8.283  67.684  1.00  0.00    -0.130 A  
HETATM   12  N   UNL     1     -10.730   9.000  69.082  1.00  0.00    -0.198 NA 
HETATM   13  N   UNL     1      -8.827   9.586  67.855  1.00  0.00    -0.120 NA 
HETATM   14  C   UNL     1      -9.925   9.896  68.533  1.00  0.00    -0.159 A  
BRANCH  11  15
HETATM   15  C   UNL     1      -7.402   7.900  66.890  1.00  0.00    -0.090 A  
HETATM   16  C   UNL     1      -6.348   7.803  64.785  1.00  0.00    -0.044 A  
HETATM   17  F   UNL     1      -6.214   6.971  62.534  1.00  0.00    -0.041 F  
HETATM   18  N   UNL     1      -7.429   8.141  65.548  1.00  0.00    -0.079 NA 
HETATM   19  C   UNL     1      -5.218   7.201  65.337  1.00  0.00    -0.028 A  
HETATM   20  C   UNL     1      -6.358   8.099  63.291  1.00  0.00    -0.080 C  
HETATM   21  C   UNL     1      -6.281   7.314  67.486  1.00  0.00    -0.046 A  
HETATM   22  C   UNL     1      -5.185   6.957  66.704  1.00  0.00    -0.017 A  
HETATM   23  F   UNL     1      -7.491   8.705  62.840  1.00  0.00    -0.096 F  
HETATM   24  F   UNL     1      -5.328   8.916  62.919  1.00  0.00    -0.067 F  
ENDBRANCH  11  15
BRANCH  14  25
HETATM   25  N   UNL     1     -10.327  11.230  68.622  1.00  0.00    -0.195 NA 
HETATM   26  H   UNL     1     -10.057  11.705  69.483  1.00  0.00     0.000 HD 
BRANCH  25  27
HETATM   27  C   UNL     1     -11.042  12.014  67.712  1.00  0.00    -0.249 A  
HETATM   28  C   UNL     1     -11.795  12.451  65.456  1.00  0.00    -0.412 A  
HETATM   29  C   UNL     1     -11.162  11.611  66.380  1.00  0.00    -0.349 A  
HETATM   30  N   UNL     1     -12.333  13.649  65.828  1.00  0.00    -0.463 NA 
HETATM   31  C   UNL     1     -11.858  12.058  63.988  1.00  0.00    -0.408 C  
HETATM   32  C   UNL     1     -12.210  14.018  67.116  1.00  0.00    -0.321 A  
HETATM   33  F   UNL     1     -11.243  12.957  63.167  1.00  0.00    -0.457 F  
HETATM   34  F   UNL     1     -11.256  10.859  63.721  1.00  0.00    -0.339 F  
HETATM   35  F   UNL     1     -13.134  11.932  63.519  1.00  0.00    -0.634 F  
HETATM   36  C   UNL     1     -11.565  13.257  68.071  1.00  0.00    -0.371 A  
ENDBRANCH  25  27
ENDBRANCH  14  25
ENDBRANCH   7   9
ENDBRANCH   5   7
TORSDOF 5
ENDMDL
MODEL      161
REMARK 921   NORMALIZED FREE ENERGY PREDICTED BY IDOCK:   -5.94 KCAL/MOL
REMARK 922        TOTAL FREE ENERGY PREDICTED BY IDOCK:   -8.84 KCAL/MOL
REMARK 923 INTER-LIGAND FREE ENERGY PREDICTED BY IDOCK:   -8.36 KCAL/MOL
REMARK 924 INTRA-LIGAND FREE ENERGY PREDICTED BY IDOCK:   -0.48 KCAL/MOL
REMARK 927      BINDING AFFINITY PREDICTED BY RF-SCORE:    0.00 PKD
ROOT
HETATM    1  C   UNL     1      -9.320   7.935  73.111  1.00  0.00    -0.337 C  
HETATM    2  C   UNL     1      -9.598   7.755  71.616  1.00  0.00    -0.155 C  
HETATM    3  C   UNL     1      -8.409   8.275  70.800  1.00  0.00    -0.127 C  
HETATM    4  O   UNL     1      -9.739   6.351  71.348  1.00  0.00    -0.172 OA 
HETATM    5  C   UNL     1     -10.928   8.463  71.242  1.00  0.00    -0.252 C  
HETATM    6  H   UNL     1      -9.911   6.239  70.420  1.00  0.00     0.000 HD 
ENDROOT
BRANCH   5   7
HETATM    7  N   UNL     1     -11.139   8.412  69.802  1.00  0.00    -0.433 NA 
HETATM    8  H   UNL     1     -11.328   7.527  69.330  1.00  0.00     0.000 HD 
BRANCH   7   9
HETATM    9  C   UNL     1     -11.075   9.595  69.092  1.00  0.00    -0.092 A  
HETATM   10  N   UNL     1     -10.854   9.588  67.787  1.00  0.00    -0.248 NA 
HETATM   11  C   UNL     1     -10.800  10.786  67.203  1.00  0.00    -0.277 A  
HETATM   12  N   UNL     1     -11.282  10.695  69.804  1.00  0.00    -0.275 NA 
HETATM   13  N   UNL     1     -10.982  11.940  67.847  1.00  0.00    -0.209 NA 
HETATM   14  C   UNL     1     -11.254  11.841  69.141  1.00  0.00    -0.264 A  
BRANCH  11  15
HETATM   15  C   UNL     1     -10.536  10.858  65.740  1.00  0.00    -0.210 A  
HETATM   16  C   UNL     1      -9.255  10.127  63.904  1.00  0.00    -0.280 A  
HETATM   17  F   UNL     1      -7.167   9.966  62.723  1.00  0.00    -0.107 F  
HETATM   18  N   UNL     1      -9.529  10.086  65.240  1.00  0.00    -0.241 NA 
HETATM   19  C   UNL     1      -9.968  10.949  63.031  1.00  0.00    -0.317 A  
HETATM   20  C   UNL     1      -8.153   9.243  63.333  1.00  0.00    -0.161 C  
HETATM   21  C   UNL     1     -11.286  11.684  64.897  1.00  0.00    -0.252 A  
HETATM   22  C   UNL     1     -10.996  11.733  63.536  1.00  0.00    -0.499 A  
HETATM   23  F   UNL     1      -7.523   8.458  64.251  1.00  0.00    -0.090 F  
HETATM   24  F   UNL     1      -8.620   8.389  62.375  1.00  0.00    -0.194 F  
ENDBRANCH  11  15
BRANCH  14  25
HETATM   25  N   UNL     1     -11.618  12.982  69.859  1.00  0.00    -0.507 NA 
HETATM   26  H   UNL     1     -12.185  12.807  70.688  1.00  0.00     0.000 HD 
BRANCH  25  27
HETATM   27  C   UNL     1     -11.326  14.327  69.616  1.00  0.00    -0.243 A  
HETATM   28  C   UNL     1     -10.539  16.069  68.134  1.00  0.00    -0.286 A  
HETATM   29  C   UNL     1     -10.925  14.739  68.343  1.00  0.00    -0.259 A  
HETATM   30  N   UNL     1     -10.575  16.992  69.139  1.00  0.00    -0.328 NA 
HETATM   31  C   UNL     1     -10.024  16.507  66.772  1.00  0.00    -0.276 C  
HETATM   32  C   UNL     1     -10.967  16.576  70.357  1.00  0.00    -0.122 A  
HETATM   33  F   UNL     1      -8.748  16.989  66.813  1.00  0.00    -0.214 F  
HETATM   34  F   UNL     1      -9.994  15.496  65.851  1.00  0.00    -0.274 F  
HETATM   35  F   UNL     1     -10.779  17.491  66.201  1.00  0.00    -0.317 F  
HETATM   36  C   UNL     1     -11.323  15.272  70.642  1.00  0.00    -0.345 A  
ENDBRANCH  25  27
ENDBRANCH  14  25
ENDBRANCH   7   9
ENDBRANCH   5   7
TORSDOF 5
ENDMDL
MODEL      162
REMARK 921   NORMALIZED FREE ENERGY PREDICTED BY IDOCK:   -5.94 KCAL/MOL
REMARK 922        TOTAL FREE ENERGY PREDICTED BY IDOCK:   -8.84 KCAL/MOL
REMARK 923 INTER-LIGAND FREE ENERGY PREDICTED BY IDOCK:   -7.97 KCAL/MOL
REMARK 924 INTRA-LIGAND FREE ENERGY PREDICTED BY IDOCK:   -0.87 KCAL/MOL
REMARK 927      BINDING AFFINITY PREDICTED BY RF-SCORE:    0.00 PKD
ROOT
HETATM    1  C   UNL     1     -10.555  17.519  67.479  1.00  0.00    -0.333 C  
HETATM    2  C   UNL     1      -9.845  16.234  67.042  1.00  0.00    -0.244 C  
HETATM    3  C   UNL     1      -8.637  16.580  66.163  1.00  0.00    -0.334 C  
HETATM    4  O   UNL     1      -9.359  15.564  68.216  1.00  0.00    -0.188 OA 
HETATM    5  C   UNL     1     -10.852  15.298  66.322  1.00  0.00    -0.312 C  
HETATM    6  H   UNL     1      -8.919  14.767  67.945  1.00  0.00     0.000 HD 
ENDROOT
BRANCH   5   7
HETATM    7  N   UNL     1     -10.163  14.132  65.786  1.00  0.00    -0.318 NA 
HETATM    8  H   UNL     1      -9.667  14.179  64.896  1.00  0.00     0.000 HD 
BRANCH   7   9
HETATM    9  C   UNL     1     -10.199  12.960  66.516  1.00  0.00    -0.259 A  
HETATM   10  N   UNL     1     -10.925  12.873  67.619  1.00  0.00    -0.241 NA 
HETATM   11  C   UNL     1     -10.878  11.700  68.252  1.00  0.00    -0.219 A  
HETATM   12  N   UNL     1      -9.493  11.957  66.012  1.00  0.00    -0.234 NA 
HETATM   13  N   UNL     1     -10.183  10.647  67.822  1.00  0.00    -0.173 NA 
HETATM   14  C   UNL     1      -9.534  10.813  66.677  1.00  0.00    -0.175 A  
BRANCH  11  15
HETATM   15  C   UNL     1     -11.654  11.534  69.511  1.00  0.00    -0.333 A  
HETATM   16  C   UNL     1     -12.629  10.069  71.077  1.00  0.00    -0.367 A  
HETATM   17  F   UNL     1     -14.235   8.379  71.664  1.00  0.00    -0.404 F  
HETATM   18  N   UNL     1     -11.918  10.262  69.928  1.00  0.00    -0.194 NA 
HETATM   19  C   UNL     1     -13.110  11.138  71.833  1.00  0.00    -0.513 A  
HETATM   20  C   UNL     1     -12.900   8.652  71.566  1.00  0.00    -0.319 C  
HETATM   21  C   UNL     1     -12.104  12.633  70.250  1.00  0.00    -0.372 A  
HETATM   22  C   UNL     1     -12.840  12.433  71.414  1.00  0.00    -0.360 A  
HETATM   23  F   UNL     1     -12.377   7.671  70.778  1.00  0.00    -0.290 F  
HETATM   24  F   UNL     1     -12.394   8.431  72.816  1.00  0.00    -0.435 F  
ENDBRANCH  11  15
BRANCH  14  25
HETATM   25  N   UNL     1      -8.915   9.719  66.070  1.00  0.00    -0.149 NA 
HETATM   26  H   UNL     1      -8.700   9.840  65.080  1.00  0.00     0.000 HD 
BRANCH  25  27
HETATM   27  C   UNL     1      -8.543   8.484  66.608  1.00  0.00    -0.115 A  
HETATM   28  C   UNL     1      -8.431   6.961  68.483  1.00  0.00    -0.123 A  
HETATM   29  C   UNL     1      -8.893   8.157  67.921  1.00  0.00    -0.131 A  
HETATM   30  N   UNL     1      -7.672   6.079  67.770  1.00  0.00    -0.099 NA 
HETATM   31  C   UNL     1      -8.738   6.635  69.937  1.00  0.00    -0.141 C  
HETATM   32  C   UNL     1      -7.349   6.410  66.507  1.00  0.00    -0.078 A  
HETATM   33  F   UNL     1      -7.616   6.486  70.699  1.00  0.00    -0.091 F  
HETATM   34  F   UNL     1      -9.472   7.603  70.567  1.00  0.00    -0.161 F  
HETATM   35  F   UNL     1      -9.454   5.484  70.092  1.00  0.00    -0.164 F  
HETATM   36  C   UNL     1      -7.737   7.591  65.903  1.00  0.00    -0.099 A  
ENDBRANCH  25  27
ENDBRANCH  14  25
ENDBRANCH   7   9
ENDBRANCH   5   7
TORSDOF 5
ENDMDL
MODEL      163
REMARK 921   NORMALIZED FREE ENERGY PREDICTED BY IDOCK:   -5.91 KCAL/MOL
REMARK 922        TOTAL FREE ENERGY PREDICTED BY IDOCK:   -8.81 KCAL/MOL
REMARK 923 INTER-LIGAND FREE ENERGY PREDICTED BY IDOCK:   -7.53 KCAL/MOL
REMARK 924 INTRA-LIGAND FREE ENERGY PREDICTED BY IDOCK:   -1.27 KCAL/MOL
REMARK 927      BINDING AFFINITY PREDICTED BY RF-SCORE:    0.00 PKD
ROOT
HETATM    1  C   UNL     1     -10.436   6.051  73.952  1.00  0.00    -0.286 C  
HETATM    2  C   UNL     1      -9.720   7.031  73.017  1.00  0.00    -0.169 C  
HETATM    3  C   UNL     1      -8.544   7.684  73.752  1.00  0.00    -0.277 C  
HETATM    4  O   UNL     1      -9.191   6.291  71.905  1.00  0.00    -0.147 OA 
HETATM    5  C   UNL     1     -10.734   8.074  72.476  1.00  0.00    -0.341 C  
HETATM    6  H   UNL     1      -8.747   6.899  71.326  1.00  0.00     0.000 HD 
ENDROOT
BRANCH   5   7
HETATM    7  N   UNL     1     -10.044   9.088  71.692  1.00  0.00    -0.338 NA 
HETATM    8  H   UNL     1      -9.384   9.732  72.131  1.00  0.00     0.000 HD 
BRANCH   7   9
HETATM    9  C   UNL     1     -10.307   9.157  70.338  1.00  0.00    -0.223 A  
HETATM   10  N   UNL     1     -10.159  10.295  69.678  1.00  0.00    -0.236 NA 
HETATM   11  C   UNL     1     -10.452  10.251  68.378  1.00  0.00    -0.200 A  
HETATM   12  N   UNL     1     -10.674   8.014  69.774  1.00  0.00    -0.245 NA 
HETATM   13  N   UNL     1     -10.842   9.149  67.736  1.00  0.00    -0.171 NA 
HETATM   14  C   UNL     1     -10.904   8.046  68.470  1.00  0.00     0.093 A  
BRANCH  11  15
HETATM   15  C   UNL     1     -10.328  11.498  67.574  1.00  0.00    -0.194 A  
HETATM   16  C   UNL     1     -11.149  12.827  65.811  1.00  0.00    -0.285 A  
HETATM   17  F   UNL     1     -11.599  13.185  63.477  1.00  0.00    -0.460 F  
HETATM   18  N   UNL     1     -11.232  11.696  66.572  1.00  0.00    -0.312 NA 
HETATM   19  C   UNL     1     -10.155  13.783  66.019  1.00  0.00    -0.320 A  
HETATM   20  C   UNL     1     -12.174  13.071  64.711  1.00  0.00    -0.435 C  
HETATM   21  C   UNL     1      -9.326  12.440  67.827  1.00  0.00    -0.196 A  
HETATM   22  C   UNL     1      -9.237  13.586  67.041  1.00  0.00    -0.248 A  
HETATM   23  F   UNL     1     -13.120  12.097  64.590  1.00  0.00    -0.501 F  
HETATM   24  F   UNL     1     -12.864  14.236  64.896  1.00  0.00    -0.419 F  
ENDBRANCH  11  15
BRANCH  14  25
HETATM   25  N   UNL     1     -11.144   6.818  67.852  1.00  0.00    -0.530 NA 
HETATM   26  H   UNL     1     -12.128   6.568  67.756  1.00  0.00     0.000 HD 
BRANCH  25  27
HETATM   27  C   UNL     1     -10.244   5.878  67.343  1.00  0.00    -0.194 A  
HETATM   28  C   UNL     1      -8.130   4.711  67.476  1.00  0.00    -0.101 A  
HETATM   29  C   UNL     1      -9.071   5.579  68.042  1.00  0.00    -0.110 A  
HETATM   30  N   UNL     1      -8.339   4.115  66.267  1.00  0.00    -0.105 NA 
HETATM   31  C   UNL     1      -6.814   4.444  68.192  1.00  0.00    -0.055 C  
HETATM   32  C   UNL     1      -9.476   4.412  65.611  1.00  0.00    -0.175 A  
HETATM   33  F   UNL     1      -5.723   4.810  67.458  1.00  0.00    -0.017 F  
HETATM   34  F   UNL     1      -6.692   5.122  69.375  1.00  0.00    -0.044 F  
HETATM   35  F   UNL     1      -6.630   3.130  68.509  1.00  0.00    -0.036 F  
HETATM   36  C   UNL     1     -10.429   5.289  66.092  1.00  0.00    -0.259 A  
ENDBRANCH  25  27
ENDBRANCH  14  25
ENDBRANCH   7   9
ENDBRANCH   5   7
TORSDOF 5
ENDMDL
MODEL      164
REMARK 921   NORMALIZED FREE ENERGY PREDICTED BY IDOCK:   -5.91 KCAL/MOL
REMARK 922        TOTAL FREE ENERGY PREDICTED BY IDOCK:   -8.79 KCAL/MOL
REMARK 923 INTER-LIGAND FREE ENERGY PREDICTED BY IDOCK:   -7.89 KCAL/MOL
REMARK 924 INTRA-LIGAND FREE ENERGY PREDICTED BY IDOCK:   -0.90 KCAL/MOL
REMARK 927      BINDING AFFINITY PREDICTED BY RF-SCORE:    0.00 PKD
ROOT
HETATM    1  C   UNL     1      -6.448   6.726  64.142  1.00  0.00    -0.038 C  
HETATM    2  C   UNL     1      -7.600   7.685  64.460  1.00  0.00    -0.112 C  
HETATM    3  C   UNL     1      -8.030   8.421  63.185  1.00  0.00    -0.161 C  
HETATM    4  O   UNL     1      -8.718   6.911  64.923  1.00  0.00    -0.354 OA 
HETATM    5  C   UNL     1      -7.173   8.659  65.591  1.00  0.00    -0.084 C  
HETATM    6  H   UNL     1      -9.432   7.507  65.120  1.00  0.00     0.000 HD 
ENDROOT
BRANCH   5   7
HETATM    7  N   UNL     1      -8.207   9.659  65.812  1.00  0.00    -0.117 NA 
HETATM    8  H   UNL     1      -8.217  10.530  65.281  1.00  0.00     0.000 HD 
BRANCH   7   9
HETATM    9  C   UNL     1      -9.175   9.397  66.762  1.00  0.00    -0.143 A  
HETATM   10  N   UNL     1      -9.099   8.319  67.525  1.00  0.00    -0.136 NA 
HETATM   11  C   UNL     1     -10.093   8.157  68.400  1.00  0.00    -0.200 A  
HETATM   12  N   UNL     1     -10.136  10.307  66.858  1.00  0.00    -0.211 NA 
HETATM   13  N   UNL     1     -11.102   9.015  68.551  1.00  0.00     0.106 NA 
HETATM   14  C   UNL     1     -11.061  10.094  67.780  1.00  0.00    -0.227 A  
BRANCH  11  15
HETATM   15  C   UNL     1     -10.084   6.957  69.280  1.00  0.00    -0.170 A  
HETATM   16  C   UNL     1     -10.633   6.005  71.363  1.00  0.00    -0.246 A  
HETATM   17  F   UNL     1     -10.375   5.868  73.750  1.00  0.00    -0.189 F  
HETATM   18  N   UNL     1     -10.624   7.083  70.526  1.00  0.00    -0.219 NA 
HETATM   19  C   UNL     1     -10.090   4.776  70.987  1.00  0.00    -0.269 A  
HETATM   20  C   UNL     1     -11.263   6.129  72.745  1.00  0.00    -0.243 C  
HETATM   21  C   UNL     1      -9.544   5.738  68.857  1.00  0.00    -0.163 A  
HETATM   22  C   UNL     1      -9.543   4.644  69.719  1.00  0.00    -0.258 A  
HETATM   23  F   UNL     1     -11.786   7.356  73.021  1.00  0.00    -0.222 F  
HETATM   24  F   UNL     1     -12.285   5.241  72.928  1.00  0.00    -0.340 F  
ENDBRANCH  11  15
BRANCH  14  25
HETATM   25  N   UNL     1     -11.984  11.122  67.983  1.00  0.00    -0.700 NA 
HETATM   26  H   UNL     1     -12.845  10.842  68.452  1.00  0.00     0.000 HD 
BRANCH  25  27
HETATM   27  C   UNL     1     -11.909  12.476  67.643  1.00  0.00    -0.317 A  
HETATM   28  C   UNL     1     -11.909  14.221  65.969  1.00  0.00    -0.391 A  
HETATM   29  C   UNL     1     -12.084  12.876  66.316  1.00  0.00    -0.433 A  
HETATM   30  N   UNL     1     -11.605  15.169  66.903  1.00  0.00    -0.229 NA 
HETATM   31  C   UNL     1     -12.016  14.653  64.514  1.00  0.00    -0.460 C  
HETATM   32  C   UNL     1     -11.445  14.764  68.176  1.00  0.00    -0.323 A  
HETATM   33  F   UNL     1     -10.868  15.218  64.040  1.00  0.00    -0.030 F  
HETATM   34  F   UNL     1     -12.286  13.619  63.660  1.00  0.00    -0.497 F  
HETATM   35  F   UNL     1     -13.005  15.568  64.295  1.00  0.00    -0.151 F  
HETATM   36  C   UNL     1     -11.564  13.448  68.581  1.00  0.00    -0.362 A  
ENDBRANCH  25  27
ENDBRANCH  14  25
ENDBRANCH   7   9
ENDBRANCH   5   7
TORSDOF 5
ENDMDL
MODEL      165
REMARK 921   NORMALIZED FREE ENERGY PREDICTED BY IDOCK:   -5.90 KCAL/MOL
REMARK 922        TOTAL FREE ENERGY PREDICTED BY IDOCK:   -8.79 KCAL/MOL
REMARK 923 INTER-LIGAND FREE ENERGY PREDICTED BY IDOCK:   -7.83 KCAL/MOL
REMARK 924 INTRA-LIGAND FREE ENERGY PREDICTED BY IDOCK:   -0.96 KCAL/MOL
REMARK 927      BINDING AFFINITY PREDICTED BY RF-SCORE:    0.00 PKD
ROOT
HETATM    1  C   UNL     1      -7.464   8.708  63.194  1.00  0.00    -0.106 C  
HETATM    2  C   UNL     1      -7.070   9.448  64.476  1.00  0.00    -0.101 C  
HETATM    3  C   UNL     1      -6.249   8.521  65.380  1.00  0.00    -0.049 C  
HETATM    4  O   UNL     1      -6.240  10.564  64.117  1.00  0.00    -0.310 OA 
HETATM    5  C   UNL     1      -8.343   9.988  65.182  1.00  0.00    -0.153 C  
HETATM    6  H   UNL     1      -5.996  11.023  64.912  1.00  0.00     0.000 HD 
ENDROOT
BRANCH   5   7
HETATM    7  N   UNL     1      -7.996  10.578  66.466  1.00  0.00    -0.127 NA 
HETATM    8  H   UNL     1      -7.040  10.877  66.665  1.00  0.00     0.000 HD 
BRANCH   7   9
HETATM    9  C   UNL     1      -8.995  10.724  67.409  1.00  0.00    -0.139 A  
HETATM   10  N   UNL     1      -8.997   9.989  68.510  1.00  0.00    -0.121 NA 
HETATM   11  C   UNL     1     -10.014  10.202  69.345  1.00  0.00    -0.228 A  
HETATM   12  N   UNL     1      -9.899  11.655  67.136  1.00  0.00    -0.188 NA 
HETATM   13  N   UNL     1     -10.972  11.107  69.141  1.00  0.00    -0.227 NA 
HETATM   14  C   UNL     1     -10.852  11.834  68.038  1.00  0.00    -0.213 A  
BRANCH  11  15
HETATM   15  C   UNL     1     -10.094   9.400  70.596  1.00  0.00    -0.291 A  
HETATM   16  C   UNL     1      -8.964   8.431  72.422  1.00  0.00    -0.239 A  
HETATM   17  F   UNL     1      -7.384   6.863  73.329  1.00  0.00    -0.075 F  
HETATM   18  N   UNL     1      -8.932   9.164  71.271  1.00  0.00    -0.296 NA 
HETATM   19  C   UNL     1     -10.152   7.899  72.923  1.00  0.00    -0.376 A  
HETATM   20  C   UNL     1      -7.676   8.191  73.199  1.00  0.00    -0.153 C  
HETATM   21  C   UNL     1     -11.309   8.899  71.074  1.00  0.00    -0.350 A  
HETATM   22  C   UNL     1     -11.337   8.140  72.240  1.00  0.00    -0.429 A  
HETATM   23  F   UNL     1      -6.568   8.762  72.649  1.00  0.00    -0.098 F  
HETATM   24  F   UNL     1      -7.745   8.671  74.476  1.00  0.00    -0.269 F  
ENDBRANCH  11  15
BRANCH  14  25
HETATM   25  N   UNL     1     -11.714  12.911  67.824  1.00  0.00    -0.352 NA 
HETATM   26  H   UNL     1     -12.612  12.669  67.404  1.00  0.00     0.000 HD 
BRANCH  25  27
HETATM   27  C   UNL     1     -11.538  14.270  68.097  1.00  0.00    -0.332 A  
HETATM   28  C   UNL     1     -10.754  16.460  67.433  1.00  0.00    -0.278 A  
HETATM   29  C   UNL     1     -11.019  15.121  67.118  1.00  0.00    -0.326 A  
HETATM   30  N   UNL     1     -11.022  16.972  68.669  1.00  0.00    -0.275 NA 
HETATM   31  C   UNL     1     -10.113  17.373  66.398  1.00  0.00    -0.327 C  
HETATM   32  C   UNL     1     -11.525  16.138  69.597  1.00  0.00    -0.290 A  
HETATM   33  F   UNL     1      -8.913  17.880  66.805  1.00  0.00    -0.233 F  
HETATM   34  F   UNL     1      -9.853  16.747  65.209  1.00  0.00    -0.137 F  
HETATM   35  F   UNL     1     -10.887  18.449  66.077  1.00  0.00    -0.384 F  
HETATM   36  C   UNL     1     -11.774  14.798  69.366  1.00  0.00    -0.358 A  
ENDBRANCH  25  27
ENDBRANCH  14  25
ENDBRANCH   7   9
ENDBRANCH   5   7
TORSDOF 5
ENDMDL
MODEL      166
REMARK 921   NORMALIZED FREE ENERGY PREDICTED BY IDOCK:   -5.89 KCAL/MOL
REMARK 922        TOTAL FREE ENERGY PREDICTED BY IDOCK:   -8.77 KCAL/MOL
REMARK 923 INTER-LIGAND FREE ENERGY PREDICTED BY IDOCK:   -8.05 KCAL/MOL
REMARK 924 INTRA-LIGAND FREE ENERGY PREDICTED BY IDOCK:   -0.72 KCAL/MOL
REMARK 927      BINDING AFFINITY PREDICTED BY RF-SCORE:    0.00 PKD
ROOT
HETATM    1  C   UNL     1     -10.796   7.992  72.708  1.00  0.00    -0.438 C  
HETATM    2  C   UNL     1     -10.177   8.005  71.307  1.00  0.00    -0.192 C  
HETATM    3  C   UNL     1      -9.580   6.629  70.990  1.00  0.00    -0.178 C  
HETATM    4  O   UNL     1     -11.221   8.264  70.355  1.00  0.00    -0.270 OA 
HETATM    5  C   UNL     1      -9.127   9.144  71.209  1.00  0.00    -0.162 C  
HETATM    6  H   UNL     1     -10.837   8.272  69.485  1.00  0.00     0.000 HD 
ENDROOT
BRANCH   5   7
HETATM    7  N   UNL     1      -8.438   9.085  69.928  1.00  0.00    -0.127 NA 
HETATM    8  H   UNL     1      -7.565   8.567  69.825  1.00  0.00     0.000 HD 
BRANCH   7   9
HETATM    9  C   UNL     1      -8.998   9.751  68.855  1.00  0.00    -0.144 A  
HETATM   10  N   UNL     1      -8.683   9.417  67.614  1.00  0.00    -0.116 NA 
HETATM   11  C   UNL     1      -9.272  10.132  66.654  1.00  0.00    -0.155 A  
HETATM   12  N   UNL     1      -9.872  10.698  69.169  1.00  0.00    -0.212 NA 
HETATM   13  N   UNL     1     -10.150  11.110  66.884  1.00  0.00    -0.208 NA 
HETATM   14  C   UNL     1     -10.444  11.332  68.158  1.00  0.00    -0.189 A  
BRANCH  11  15
HETATM   15  C   UNL     1      -8.952   9.826  65.234  1.00  0.00    -0.193 A  
HETATM   16  C   UNL     1      -8.245   8.239  63.644  1.00  0.00    -0.082 A  
HETATM   17  F   UNL     1      -6.577   6.760  62.742  1.00  0.00    -0.039 F  
HETATM   18  N   UNL     1      -8.548   8.558  64.936  1.00  0.00    -0.149 NA 
HETATM   19  C   UNL     1      -8.321   9.179  62.616  1.00  0.00    -0.192 A  
HETATM   20  C   UNL     1      -7.824   6.816  63.298  1.00  0.00    -0.102 C  
HETATM   21  C   UNL     1      -9.058  10.794  64.230  1.00  0.00    -0.216 A  
HETATM   22  C   UNL     1      -8.735  10.469  62.915  1.00  0.00    -0.221 A  
HETATM   23  F   UNL     1      -7.796   5.960  64.357  1.00  0.00    -0.084 F  
HETATM   24  F   UNL     1      -8.654   6.240  62.379  1.00  0.00    -0.115 F  
ENDBRANCH  11  15
BRANCH  14  25
HETATM   25  N   UNL     1     -11.470  12.222  68.484  1.00  0.00    -0.277 NA 
HETATM   26  H   UNL     1     -11.772  12.829  67.722  1.00  0.00     0.000 HD 
BRANCH  25  27
HETATM   27  C   UNL     1     -12.147  12.408  69.692  1.00  0.00    -0.206 A  
HETATM   28  C   UNL     1     -12.943  13.868  71.448  1.00  0.00    -0.355 A  
HETATM   29  C   UNL     1     -12.352  13.697  70.190  1.00  0.00    -0.372 A  
HETATM   30  N   UNL     1     -13.360  12.805  72.195  1.00  0.00    -0.528 NA 
HETATM   31  C   UNL     1     -13.096  15.264  72.033  1.00  0.00    -0.384 C  
HETATM   32  C   UNL     1     -13.157  11.572  71.697  1.00  0.00    -0.373 A  
HETATM   33  F   UNL     1     -12.435  15.422  73.217  1.00  0.00    -0.410 F  
HETATM   34  F   UNL     1     -12.611  16.251  71.219  1.00  0.00    -0.446 F  
HETATM   35  F   UNL     1     -14.394  15.606  72.279  1.00  0.00    -0.585 F  
HETATM   36  C   UNL     1     -12.545  11.329  70.482  1.00  0.00    -0.331 A  
ENDBRANCH  25  27
ENDBRANCH  14  25
ENDBRANCH   7   9
ENDBRANCH   5   7
TORSDOF 5
ENDMDL
MODEL      167
REMARK 921   NORMALIZED FREE ENERGY PREDICTED BY IDOCK:   -5.88 KCAL/MOL
REMARK 922        TOTAL FREE ENERGY PREDICTED BY IDOCK:   -8.76 KCAL/MOL
REMARK 923 INTER-LIGAND FREE ENERGY PREDICTED BY IDOCK:   -7.77 KCAL/MOL
REMARK 924 INTRA-LIGAND FREE ENERGY PREDICTED BY IDOCK:   -1.00 KCAL/MOL
REMARK 927      BINDING AFFINITY PREDICTED BY RF-SCORE:    0.00 PKD
ROOT
HETATM    1  C   UNL     1     -11.911  13.459  67.403  1.00  0.00    -0.418 C  
HETATM    2  C   UNL     1     -11.044  12.354  66.790  1.00  0.00    -0.285 C  
HETATM    3  C   UNL     1     -11.549  12.019  65.382  1.00  0.00    -0.343 C  
HETATM    4  O   UNL     1      -9.700  12.847  66.672  1.00  0.00    -0.241 OA 
HETATM    5  C   UNL     1     -11.035  11.116  67.726  1.00  0.00    -0.262 C  
HETATM    6  H   UNL     1      -9.163  12.161  66.292  1.00  0.00     0.000 HD 
ENDROOT
BRANCH   5   7
HETATM    7  N   UNL     1     -10.324  10.013  67.096  1.00  0.00    -0.227 NA 
HETATM    8  H   UNL     1      -9.715  10.172  66.293  1.00  0.00     0.000 HD 
BRANCH   7   9
HETATM    9  C   UNL     1     -10.498   8.744  67.614  1.00  0.00    -0.244 A  
HETATM   10  N   UNL     1     -10.529   8.547  68.923  1.00  0.00    -0.211 NA 
HETATM   11  C   UNL     1     -10.689   7.282  69.314  1.00  0.00    -0.198 A  
HETATM   12  N   UNL     1     -10.657   7.782  66.715  1.00  0.00    -0.285 NA 
HETATM   13  N   UNL     1     -10.842   6.255  68.477  1.00  0.00    -0.294 NA 
HETATM   14  C   UNL     1     -10.854   6.560  67.186  1.00  0.00    -0.401 A  
BRANCH  11  15
HETATM   15  C   UNL     1     -10.715   6.981  70.771  1.00  0.00    -0.228 A  
HETATM   16  C   UNL     1     -10.622   5.360  72.477  1.00  0.00    -0.227 A  
HETATM   17  F   UNL     1     -11.535   3.453  73.622  1.00  0.00    -0.312 F  
HETATM   18  N   UNL     1     -10.601   5.676  71.149  1.00  0.00    -0.243 NA 
HETATM   19  C   UNL     1     -10.774   6.334  73.463  1.00  0.00    -0.262 A  
HETATM   20  C   UNL     1     -10.463   3.907  72.908  1.00  0.00    -0.168 C  
HETATM   21  C   UNL     1     -10.852   7.991  71.729  1.00  0.00    -0.297 A  
HETATM   22  C   UNL     1     -10.887   7.664  73.082  1.00  0.00    -0.440 A  
HETATM   23  F   UNL     1     -10.300   3.026  71.882  1.00  0.00    -0.225 F  
HETATM   24  F   UNL     1      -9.383   3.727  73.726  1.00  0.00    -0.096 F  
ENDBRANCH  11  15
BRANCH  14  25
HETATM   25  N   UNL     1     -11.170   5.577  66.247  1.00  0.00    -0.737 NA 
HETATM   26  H   UNL     1     -12.133   5.594  65.912  1.00  0.00     0.000 HD 
BRANCH  25  27
HETATM   27  C   UNL     1     -10.370   4.572  65.695  1.00  0.00    -0.247 A  
HETATM   28  C   UNL     1      -8.352   3.240  65.730  1.00  0.00    -0.103 A  
HETATM   29  C   UNL     1      -9.196   4.176  66.340  1.00  0.00    -0.161 A  
HETATM   30  N   UNL     1      -8.661   2.672  64.529  1.00  0.00    -0.097 NA 
HETATM   31  C   UNL     1      -7.031   2.865  66.386  1.00  0.00    -0.053 C  
HETATM   32  C   UNL     1      -9.798   3.063  63.926  1.00  0.00    -0.154 A  
HETATM   33  F   UNL     1      -5.948   3.148  65.606  1.00  0.00    -0.017 F  
HETATM   34  F   UNL     1      -6.805   3.521  67.565  1.00  0.00    -0.046 F  
HETATM   35  F   UNL     1      -6.939   1.538  66.690  1.00  0.00    -0.038 F  
HETATM   36  C   UNL     1     -10.657   4.009  64.452  1.00  0.00    -0.206 A  
ENDBRANCH  25  27
ENDBRANCH  14  25
ENDBRANCH   7   9
ENDBRANCH   5   7
TORSDOF 5
ENDMDL
MODEL      168
REMARK 921   NORMALIZED FREE ENERGY PREDICTED BY IDOCK:   -5.87 KCAL/MOL
REMARK 922        TOTAL FREE ENERGY PREDICTED BY IDOCK:   -8.75 KCAL/MOL
REMARK 923 INTER-LIGAND FREE ENERGY PREDICTED BY IDOCK:   -7.73 KCAL/MOL
REMARK 924 INTRA-LIGAND FREE ENERGY PREDICTED BY IDOCK:   -1.02 KCAL/MOL
REMARK 927      BINDING AFFINITY PREDICTED BY RF-SCORE:    0.00 PKD
ROOT
HETATM    1  C   UNL     1      -7.638  13.168  67.746  1.00  0.00    -0.155 C  
HETATM    2  C   UNL     1      -8.064  11.718  67.499  1.00  0.00    -0.152 C  
HETATM    3  C   UNL     1      -9.416  11.689  66.776  1.00  0.00    -0.197 C  
HETATM    4  O   UNL     1      -7.091  11.100  66.643  1.00  0.00    -0.133 OA 
HETATM    5  C   UNL     1      -8.097  10.946  68.845  1.00  0.00    -0.144 C  
HETATM    6  H   UNL     1      -7.355  10.200  66.490  1.00  0.00     0.000 HD 
ENDROOT
BRANCH   5   7
HETATM    7  N   UNL     1      -8.626   9.604  68.644  1.00  0.00    -0.118 NA 
HETATM    8  H   UNL     1      -8.283   9.013  67.886  1.00  0.00     0.000 HD 
BRANCH   7   9
HETATM    9  C   UNL     1      -9.605   9.153  69.508  1.00  0.00    -0.168 A  
HETATM   10  N   UNL     1      -9.412   8.068  70.241  1.00  0.00    -0.166 NA 
HETATM   11  C   UNL     1     -10.426   7.715  71.031  1.00  0.00    -0.211 A  
HETATM   12  N   UNL     1     -10.702   9.897  69.559  1.00  0.00    -0.228 NA 
HETATM   13  N   UNL     1     -11.568   8.397  71.131  1.00  0.00    -0.276 NA 
HETATM   14  C   UNL     1     -11.645   9.502  70.400  1.00  0.00    -0.212 A  
BRANCH  11  15
HETATM   15  C   UNL     1     -10.289   6.494  71.871  1.00  0.00    -0.200 A  
HETATM   16  C   UNL     1      -8.867   4.876  72.824  1.00  0.00    -0.121 A  
HETATM   17  F   UNL     1      -7.316   3.051  72.617  1.00  0.00    -0.042 F  
HETATM   18  N   UNL     1      -9.034   5.996  72.061  1.00  0.00    -0.140 NA 
HETATM   19  C   UNL     1      -9.948   4.215  73.406  1.00  0.00    -0.177 A  
HETATM   20  C   UNL     1      -7.465   4.332  73.068  1.00  0.00    -0.080 C  
HETATM   21  C   UNL     1     -11.398   5.871  72.451  1.00  0.00    -0.358 A  
HETATM   22  C   UNL     1     -11.227   4.722  73.218  1.00  0.00    -0.421 A  
HETATM   23  F   UNL     1      -6.468   5.050  72.480  1.00  0.00    -0.035 F  
HETATM   24  F   UNL     1      -7.153   4.285  74.397  1.00  0.00    -0.062 F  
ENDBRANCH  11  15
BRANCH  14  25
HETATM   25  N   UNL     1     -12.732  10.363  70.563  1.00  0.00    -0.464 NA 
HETATM   26  H   UNL     1     -13.646   9.936  70.415  1.00  0.00     0.000 HD 
BRANCH  25  27
HETATM   27  C   UNL     1     -12.760  11.719  70.898  1.00  0.00    -0.235 A  
HETATM   28  C   UNL     1     -12.039  13.993  70.504  1.00  0.00    -0.353 A  
HETATM   29  C   UNL     1     -12.087  12.652  70.106  1.00  0.00    -0.368 A  
HETATM   30  N   UNL     1     -12.665  14.428  71.636  1.00  0.00    -0.327 NA 
HETATM   31  C   UNL     1     -11.240  15.001  69.691  1.00  0.00    -0.275 C  
HETATM   32  C   UNL     1     -13.311  13.516  72.384  1.00  0.00    -0.540 A  
HETATM   33  F   UNL     1     -10.239  15.591  70.407  1.00  0.00    -0.312 F  
HETATM   34  F   UNL     1     -10.623  14.451  68.600  1.00  0.00    -0.223 F  
HETATM   35  F   UNL     1     -12.001  16.020  69.198  1.00  0.00    -0.365 F  
HETATM   36  C   UNL     1     -13.365  12.171  72.071  1.00  0.00    -0.470 A  
ENDBRANCH  25  27
ENDBRANCH  14  25
ENDBRANCH   7   9
ENDBRANCH   5   7
TORSDOF 5
ENDMDL
MODEL      169
REMARK 921   NORMALIZED FREE ENERGY PREDICTED BY IDOCK:   -5.87 KCAL/MOL
REMARK 922        TOTAL FREE ENERGY PREDICTED BY IDOCK:   -8.75 KCAL/MOL
REMARK 923 INTER-LIGAND FREE ENERGY PREDICTED BY IDOCK:   -7.87 KCAL/MOL
REMARK 924 INTRA-LIGAND FREE ENERGY PREDICTED BY IDOCK:   -0.88 KCAL/MOL
REMARK 927      BINDING AFFINITY PREDICTED BY RF-SCORE:    0.00 PKD
ROOT
HETATM    1  C   UNL     1      -6.897  10.076  63.697  1.00  0.00    -0.130 C  
HETATM    2  C   UNL     1      -7.856   9.468  64.724  1.00  0.00    -0.120 C  
HETATM    3  C   UNL     1      -7.974   7.956  64.494  1.00  0.00    -0.140 C  
HETATM    4  O   UNL     1      -7.306   9.674  66.034  1.00  0.00    -0.095 OA 
HETATM    5  C   UNL     1      -9.230  10.187  64.647  1.00  0.00    -0.252 C  
HETATM    6  H   UNL     1      -7.902   9.297  66.672  1.00  0.00     0.000 HD 
ENDROOT
BRANCH   5   7
HETATM    7  N   UNL     1     -10.191   9.534  65.524  1.00  0.00    -0.253 NA 
HETATM    8  H   UNL     1     -10.794   8.787  65.178  1.00  0.00     0.000 HD 
BRANCH   7   9
HETATM    9  C   UNL     1     -10.265   9.952  66.838  1.00  0.00    -0.240 A  
HETATM   10  N   UNL     1     -10.532   9.092  67.807  1.00  0.00    -0.246 NA 
HETATM   11  C   UNL     1     -10.592   9.605  69.037  1.00  0.00    -0.218 A  
HETATM   12  N   UNL     1     -10.019  11.241  67.037  1.00  0.00    -0.195 NA 
HETATM   13  N   UNL     1     -10.372  10.890  69.322  1.00  0.00    -0.213 NA 
HETATM   14  C   UNL     1     -10.055  11.662  68.292  1.00  0.00    -0.202 A  
BRANCH  11  15
HETATM   15  C   UNL     1     -10.906   8.701  70.176  1.00  0.00    -0.233 A  
HETATM   16  C   UNL     1     -10.444   6.693  71.319  1.00  0.00    -0.215 A  
HETATM   17  F   UNL     1     -10.387   4.292  71.418  1.00  0.00    -0.244 F  
HETATM   18  N   UNL     1     -10.184   7.550  70.288  1.00  0.00    -0.202 NA 
HETATM   19  C   UNL     1     -11.443   6.954  72.257  1.00  0.00    -0.313 A  
HETATM   20  C   UNL     1      -9.620   5.421  71.469  1.00  0.00    -0.152 C  
HETATM   21  C   UNL     1     -11.905   9.008  71.106  1.00  0.00    -0.362 A  
HETATM   22  C   UNL     1     -12.177   8.127  72.149  1.00  0.00    -0.398 A  
HETATM   23  F   UNL     1      -8.654   5.256  70.521  1.00  0.00    -0.110 F  
HETATM   24  F   UNL     1      -8.972   5.364  72.670  1.00  0.00    -0.130 F  
ENDBRANCH  11  15
BRANCH  14  25
HETATM   25  N   UNL     1      -9.652  12.980  68.516  1.00  0.00    -0.373 NA 
HETATM   26  H   UNL     1      -8.646  13.139  68.456  1.00  0.00     0.000 HD 
BRANCH  25  27
HETATM   27  C   UNL     1     -10.413  14.115  68.809  1.00  0.00    -0.247 A  
HETATM   28  C   UNL     1     -10.745  16.507  68.688  1.00  0.00    -0.334 A  
HETATM   29  C   UNL     1     -10.034  15.362  68.308  1.00  0.00    -0.214 A  
HETATM   30  N   UNL     1     -11.828  16.437  69.514  1.00  0.00     0.018 NA 
HETATM   31  C   UNL     1     -10.290  17.879  68.212  1.00  0.00    -0.383 C  
HETATM   32  C   UNL     1     -12.180  15.226  69.984  1.00  0.00    -0.349 A  
HETATM   33  F   UNL     1      -9.970  18.720  69.238  1.00  0.00    -0.382 F  
HETATM   34  F   UNL     1      -9.174  17.837  67.421  1.00  0.00    -0.241 F  
HETATM   35  F   UNL     1     -11.232  18.531  67.471  1.00  0.00    -0.386 F  
HETATM   36  C   UNL     1     -11.500  14.061  69.681  1.00  0.00    -0.317 A  
ENDBRANCH  25  27
ENDBRANCH  14  25
ENDBRANCH   7   9
ENDBRANCH   5   7
TORSDOF 5
ENDMDL
MODEL      170
REMARK 921   NORMALIZED FREE ENERGY PREDICTED BY IDOCK:   -5.87 KCAL/MOL
REMARK 922        TOTAL FREE ENERGY PREDICTED BY IDOCK:   -8.74 KCAL/MOL
REMARK 923 INTER-LIGAND FREE ENERGY PREDICTED BY IDOCK:   -7.66 KCAL/MOL
REMARK 924 INTRA-LIGAND FREE ENERGY PREDICTED BY IDOCK:   -1.08 KCAL/MOL
REMARK 927      BINDING AFFINITY PREDICTED BY RF-SCORE:    0.00 PKD
ROOT
HETATM    1  C   UNL     1      -6.128  13.546  67.786  1.00  0.00    -0.148 C  
HETATM    2  C   UNL     1      -6.524  12.202  68.407  1.00  0.00    -0.056 C  
HETATM    3  C   UNL     1      -5.431  11.735  69.375  1.00  0.00    -0.059 C  
HETATM    4  O   UNL     1      -7.732  12.391  69.162  1.00  0.00    -0.329 OA 
HETATM    5  C   UNL     1      -6.802  11.168  67.284  1.00  0.00    -0.095 C  
HETATM    6  H   UNL     1      -7.977  11.558  69.547  1.00  0.00     0.000 HD 
ENDROOT
BRANCH   5   7
HETATM    7  N   UNL     1      -7.051   9.854  67.859  1.00  0.00    -0.085 NA 
HETATM    8  H   UNL     1      -6.317   9.145  67.885  1.00  0.00     0.000 HD 
BRANCH   7   9
HETATM    9  C   UNL     1      -8.308   9.592  68.367  1.00  0.00    -0.118 A  
HETATM   10  N   UNL     1      -8.457   8.859  69.459  1.00  0.00    -0.124 NA 
HETATM   11  C   UNL     1      -9.714   8.658  69.855  1.00  0.00    -0.173 A  
HETATM   12  N   UNL     1      -9.315  10.148  67.704  1.00  0.00    -0.147 NA 
HETATM   13  N   UNL     1     -10.782   9.167  69.239  1.00  0.00    -0.213 NA 
HETATM   14  C   UNL     1     -10.529   9.935  68.188  1.00  0.00    -0.215 A  
BRANCH  11  15
HETATM   15  C   UNL     1      -9.959   7.828  71.066  1.00  0.00    -0.177 A  
HETATM   16  C   UNL     1      -9.802   5.721  72.108  1.00  0.00    -0.156 A  
HETATM   17  F   UNL     1     -10.407   3.400  72.266  1.00  0.00    -0.233 F  
HETATM   18  N   UNL     1      -9.592   6.515  71.018  1.00  0.00    -0.175 NA 
HETATM   19  C   UNL     1     -10.399   6.210  73.270  1.00  0.00    -0.242 A  
HETATM   20  C   UNL     1      -9.365   4.262  72.073  1.00  0.00    -0.129 C  
HETATM   21  C   UNL     1     -10.545   8.362  72.218  1.00  0.00    -0.412 A  
HETATM   22  C   UNL     1     -10.770   7.546  73.324  1.00  0.00    -0.437 A  
HETATM   23  F   UNL     1      -8.774   3.875  70.908  1.00  0.00    -0.084 F  
HETATM   24  F   UNL     1      -8.466   3.968  73.059  1.00  0.00    -0.089 F  
ENDBRANCH  11  15
BRANCH  14  25
HETATM   25  N   UNL     1     -11.570  10.640  67.581  1.00  0.00    -0.616 NA 
HETATM   26  H   UNL     1     -12.409  10.091  67.391  1.00  0.00     0.000 HD 
BRANCH  25  27
HETATM   27  C   UNL     1     -11.642  11.981  67.195  1.00  0.00    -0.316 A  
HETATM   28  C   UNL     1     -11.495  14.332  67.740  1.00  0.00    -0.329 A  
HETATM   29  C   UNL     1     -11.325  12.991  68.106  1.00  0.00    -0.329 A  
HETATM   30  N   UNL     1     -11.932  14.687  66.497  1.00  0.00    -0.324 NA 
HETATM   31  C   UNL     1     -11.231  15.437  68.753  1.00  0.00    -0.301 C  
HETATM   32  C   UNL     1     -12.228  13.699  65.633  1.00  0.00    -0.454 A  
HETATM   33  F   UNL     1     -12.330  16.205  69.004  1.00  0.00    -0.271 F  
HETATM   34  F   UNL     1     -10.835  14.968  69.976  1.00  0.00    -0.246 F  
HETATM   35  F   UNL     1     -10.249  16.301  68.364  1.00  0.00    -0.224 F  
HETATM   36  C   UNL     1     -12.121  12.356  65.940  1.00  0.00    -0.352 A  
ENDBRANCH  25  27
ENDBRANCH  14  25
ENDBRANCH   7   9
ENDBRANCH   5   7
TORSDOF 5
ENDMDL
MODEL      171
REMARK 921   NORMALIZED FREE ENERGY PREDICTED BY IDOCK:   -5.86 KCAL/MOL
REMARK 922        TOTAL FREE ENERGY PREDICTED BY IDOCK:   -8.73 KCAL/MOL
REMARK 923 INTER-LIGAND FREE ENERGY PREDICTED BY IDOCK:   -7.55 KCAL/MOL
REMARK 924 INTRA-LIGAND FREE ENERGY PREDICTED BY IDOCK:   -1.18 KCAL/MOL
REMARK 927      BINDING AFFINITY PREDICTED BY RF-SCORE:    0.00 PKD
ROOT
HETATM    1  C   UNL     1      -5.278   3.798  71.067  1.00  0.00    -0.004 C  
HETATM    2  C   UNL     1      -5.872   4.357  69.771  1.00  0.00    -0.017 C  
HETATM    3  C   UNL     1      -5.194   3.700  68.563  1.00  0.00    -0.012 C  
HETATM    4  O   UNL     1      -7.268   4.021  69.732  1.00  0.00    -0.042 OA 
HETATM    5  C   UNL     1      -5.737   5.903  69.757  1.00  0.00    -0.016 C  
HETATM    6  H   UNL     1      -7.636   4.368  68.927  1.00  0.00     0.000 HD 
ENDROOT
BRANCH   5   7
HETATM    7  N   UNL     1      -6.177   6.436  68.476  1.00  0.00    -0.031 NA 
HETATM    8  H   UNL     1      -5.549   6.455  67.672  1.00  0.00     0.000 HD 
BRANCH   7   9
HETATM    9  C   UNL     1      -7.468   6.917  68.379  1.00  0.00    -0.098 A  
HETATM   10  N   UNL     1      -8.217   7.066  69.459  1.00  0.00    -0.130 NA 
HETATM   11  C   UNL     1      -9.452   7.525  69.250  1.00  0.00    -0.154 A  
HETATM   12  N   UNL     1      -7.863   7.235  67.153  1.00  0.00    -0.108 NA 
HETATM   13  N   UNL     1      -9.932   7.855  68.050  1.00  0.00    -0.170 NA 
HETATM   14  C   UNL     1      -9.088   7.724  67.035  1.00  0.00    -0.138 A  
BRANCH  11  15
HETATM   15  C   UNL     1     -10.359   7.701  70.416  1.00  0.00    -0.214 A  
HETATM   16  C   UNL     1     -12.097   8.928  71.427  1.00  0.00    -0.322 A  
HETATM   17  F   UNL     1     -12.958  10.953  72.396  1.00  0.00    -0.494 F  
HETATM   18  N   UNL     1     -11.249   8.733  70.375  1.00  0.00    -0.247 NA 
HETATM   19  C   UNL     1     -12.069   8.109  72.556  1.00  0.00    -0.377 A  
HETATM   20  C   UNL     1     -13.116  10.059  71.375  1.00  0.00    -0.417 C  
HETATM   21  C   UNL     1     -10.310   6.845  71.522  1.00  0.00    -0.220 A  
HETATM   22  C   UNL     1     -11.167   7.055  72.599  1.00  0.00    -0.310 A  
HETATM   23  F   UNL     1     -13.086  10.796  70.229  1.00  0.00    -0.340 F  
HETATM   24  F   UNL     1     -14.399   9.604  71.489  1.00  0.00    -0.149 F  
ENDBRANCH  11  15
BRANCH  14  25
HETATM   25  N   UNL     1      -9.449   8.197  65.772  1.00  0.00    -0.432 NA 
HETATM   26  H   UNL     1      -9.615   7.474  65.072  1.00  0.00     0.000 HD 
BRANCH  25  27
HETATM   27  C   UNL     1      -9.617   9.508  65.318  1.00  0.00    -0.243 A  
HETATM   28  C   UNL     1     -10.599  11.704  65.566  1.00  0.00    -0.279 A  
HETATM   29  C   UNL     1     -10.353  10.424  66.075  1.00  0.00    -0.262 A  
HETATM   30  N   UNL     1     -10.108  12.102  64.356  1.00  0.00    -0.289 NA 
HETATM   31  C   UNL     1     -11.468  12.680  66.346  1.00  0.00    -0.356 C  
HETATM   32  C   UNL     1      -9.399  11.207  63.644  1.00  0.00    -0.211 A  
HETATM   33  F   UNL     1     -12.580  13.071  65.658  1.00  0.00    -0.492 F  
HETATM   34  F   UNL     1     -11.937  12.166  67.524  1.00  0.00    -0.399 F  
HETATM   35  F   UNL     1     -10.815  13.828  66.689  1.00  0.00    -0.281 F  
HETATM   36  C   UNL     1      -9.152   9.915  64.068  1.00  0.00    -0.300 A  
ENDBRANCH  25  27
ENDBRANCH  14  25
ENDBRANCH   7   9
ENDBRANCH   5   7
TORSDOF 5
ENDMDL
MODEL      172
REMARK 921   NORMALIZED FREE ENERGY PREDICTED BY IDOCK:   -5.85 KCAL/MOL
REMARK 922        TOTAL FREE ENERGY PREDICTED BY IDOCK:   -8.72 KCAL/MOL
REMARK 923 INTER-LIGAND FREE ENERGY PREDICTED BY IDOCK:   -7.55 KCAL/MOL
REMARK 924 INTRA-LIGAND FREE ENERGY PREDICTED BY IDOCK:   -1.17 KCAL/MOL
REMARK 927      BINDING AFFINITY PREDICTED BY RF-SCORE:    0.00 PKD
ROOT
HETATM    1  C   UNL     1      -6.877   6.059  66.254  1.00  0.00    -0.061 C  
HETATM    2  C   UNL     1      -8.206   6.586  66.803  1.00  0.00    -0.110 C  
HETATM    3  C   UNL     1      -9.202   5.429  66.951  1.00  0.00    -0.121 C  
HETATM    4  O   UNL     1      -7.970   7.136  68.109  1.00  0.00    -0.116 OA 
HETATM    5  C   UNL     1      -8.742   7.715  65.883  1.00  0.00    -0.152 C  
HETATM    6  H   UNL     1      -8.795   7.462  68.450  1.00  0.00     0.000 HD 
ENDROOT
BRANCH   5   7
HETATM    7  N   UNL     1     -10.067   8.134  66.319  1.00  0.00    -0.479 NA 
HETATM    8  H   UNL     1     -10.902   7.629  66.020  1.00  0.00     0.000 HD 
BRANCH   7   9
HETATM    9  C   UNL     1     -10.163   9.235  67.147  1.00  0.00    -0.257 A  
HETATM   10  N   UNL     1     -10.159  10.460  66.647  1.00  0.00    -0.216 NA 
HETATM   11  C   UNL     1     -10.245  11.449  67.537  1.00  0.00    -0.185 A  
HETATM   12  N   UNL     1     -10.289   8.962  68.440  1.00  0.00    -0.200 NA 
HETATM   13  N   UNL     1     -10.360  11.262  68.853  1.00  0.00    -0.205 NA 
HETATM   14  C   UNL     1     -10.412   9.999  69.253  1.00  0.00    -0.225 A  
BRANCH  11  15
HETATM   15  C   UNL     1     -10.227  12.855  67.050  1.00  0.00    -0.243 A  
HETATM   16  C   UNL     1     -10.108  15.149  67.573  1.00  0.00    -0.232 A  
HETATM   17  F   UNL     1     -11.019  17.126  68.592  1.00  0.00    -0.335 F  
HETATM   18  N   UNL     1     -10.126  13.846  67.981  1.00  0.00    -0.238 NA 
HETATM   19  C   UNL     1     -10.207  15.499  66.226  1.00  0.00    -0.308 A  
HETATM   20  C   UNL     1      -9.963  16.260  68.605  1.00  0.00    -0.233 C  
HETATM   21  C   UNL     1     -10.311  13.163  65.688  1.00  0.00    -0.291 A  
HETATM   22  C   UNL     1     -10.306  14.493  65.276  1.00  0.00    -0.435 A  
HETATM   23  F   UNL     1      -9.853  15.827  69.892  1.00  0.00    -0.264 F  
HETATM   24  F   UNL     1      -8.860  17.034  68.379  1.00  0.00    -0.213 F  
ENDBRANCH  11  15
BRANCH  14  25
HETATM   25  N   UNL     1     -10.694   9.709  70.590  1.00  0.00    -0.299 NA 
HETATM   26  H   UNL     1     -10.579  10.492  71.234  1.00  0.00     0.000 HD 
BRANCH  25  27
HETATM   27  C   UNL     1     -11.110   8.514  71.181  1.00  0.00    -0.260 A  
HETATM   28  C   UNL     1     -10.588   6.373  72.178  1.00  0.00    -0.220 A  
HETATM   29  C   UNL     1     -10.166   7.611  71.678  1.00  0.00    -0.217 A  
HETATM   30  N   UNL     1     -11.908   6.032  72.228  1.00  0.00    -0.304 NA 
HETATM   31  C   UNL     1      -9.562   5.351  72.645  1.00  0.00    -0.150 C  
HETATM   32  C   UNL     1     -12.802   6.916  71.749  1.00  0.00    -0.304 A  
HETATM   33  F   UNL     1      -9.619   4.180  71.947  1.00  0.00    -0.167 F  
HETATM   34  F   UNL     1      -8.269   5.782  72.516  1.00  0.00    -0.112 F  
HETATM   35  F   UNL     1      -9.698   5.013  73.960  1.00  0.00    -0.128 F  
HETATM   36  C   UNL     1     -12.453   8.138  71.205  1.00  0.00    -0.269 A  
ENDBRANCH  25  27
ENDBRANCH  14  25
ENDBRANCH   7   9
ENDBRANCH   5   7
TORSDOF 5
ENDMDL
MODEL      173
REMARK 921   NORMALIZED FREE ENERGY PREDICTED BY IDOCK:   -5.83 KCAL/MOL
REMARK 922        TOTAL FREE ENERGY PREDICTED BY IDOCK:   -8.70 KCAL/MOL
REMARK 923 INTER-LIGAND FREE ENERGY PREDICTED BY IDOCK:   -7.35 KCAL/MOL
REMARK 924 INTRA-LIGAND FREE ENERGY PREDICTED BY IDOCK:   -1.35 KCAL/MOL
REMARK 927      BINDING AFFINITY PREDICTED BY RF-SCORE:    0.00 PKD
ROOT
HETATM    1  C   UNL     1     -10.108   6.364  74.451  1.00  0.00    -0.367 C  
HETATM    2  C   UNL     1      -9.413   6.862  73.180  1.00  0.00    -0.150 C  
HETATM    3  C   UNL     1      -7.895   6.890  73.394  1.00  0.00    -0.103 C  
HETATM    4  O   UNL     1      -9.693   5.936  72.118  1.00  0.00    -0.156 OA 
HETATM    5  C   UNL     1      -9.981   8.251  72.783  1.00  0.00    -0.263 C  
HETATM    6  H   UNL     1      -9.262   6.245  71.330  1.00  0.00     0.000 HD 
ENDROOT
BRANCH   5   7
HETATM    7  N   UNL     1      -9.240   8.796  71.654  1.00  0.00    -0.253 NA 
HETATM    8  H   UNL     1      -8.262   9.070  71.752  1.00  0.00     0.000 HD 
BRANCH   7   9
HETATM    9  C   UNL     1      -9.897   8.931  70.447  1.00  0.00    -0.189 A  
HETATM   10  N   UNL     1     -10.173  10.129  69.958  1.00  0.00    -0.248 NA 
HETATM   11  C   UNL     1     -10.820  10.144  68.792  1.00  0.00    -0.225 A  
HETATM   12  N   UNL     1     -10.185   7.793  69.828  1.00  0.00    -0.206 NA 
HETATM   13  N   UNL     1     -11.160   9.048  68.112  1.00  0.00     0.100 NA 
HETATM   14  C   UNL     1     -10.789   7.896  68.655  1.00  0.00     0.068 A  
BRANCH  11  15
HETATM   15  C   UNL     1     -11.181  11.456  68.190  1.00  0.00    -0.278 A  
HETATM   16  C   UNL     1     -11.525  12.731  66.240  1.00  0.00    -0.354 A  
HETATM   17  F   UNL     1     -10.711  13.759  64.224  1.00  0.00    -0.401 F  
HETATM   18  N   UNL     1     -11.200  11.544  66.829  1.00  0.00    -0.329 NA 
HETATM   19  C   UNL     1     -11.826  13.868  66.990  1.00  0.00    -0.447 A  
HETATM   20  C   UNL     1     -11.580  12.828  64.720  1.00  0.00    -0.325 C  
HETATM   21  C   UNL     1     -11.493  12.568  68.980  1.00  0.00    -0.355 A  
HETATM   22  C   UNL     1     -11.811  13.781  68.376  1.00  0.00    -0.411 A  
HETATM   23  F   UNL     1     -11.292  11.667  64.067  1.00  0.00    -0.387 F  
HETATM   24  F   UNL     1     -12.812  13.210  64.271  1.00  0.00    -0.327 F  
ENDBRANCH  11  15
BRANCH  14  25
HETATM   25  N   UNL     1     -10.957   6.710  67.937  1.00  0.00    -0.443 NA 
HETATM   26  H   UNL     1     -11.849   6.237  68.087  1.00  0.00     0.000 HD 
BRANCH  25  27
HETATM   27  C   UNL     1     -10.093   6.070  67.044  1.00  0.00    -0.179 A  
HETATM   28  C   UNL     1      -8.376   6.178  65.345  1.00  0.00    -0.150 A  
HETATM   29  C   UNL     1      -9.168   6.815  66.308  1.00  0.00    -0.161 A  
HETATM   30  N   UNL     1      -8.455   4.834  65.126  1.00  0.00    -0.129 NA 
HETATM   31  C   UNL     1      -7.425   6.994  64.481  1.00  0.00    -0.099 C  
HETATM   32  C   UNL     1      -9.349   4.133  65.847  1.00  0.00    -0.163 A  
HETATM   33  F   UNL     1      -7.701   6.899  63.148  1.00  0.00    -0.082 F  
HETATM   34  F   UNL     1      -7.453   8.333  64.759  1.00  0.00    -0.079 F  
HETATM   35  F   UNL     1      -6.119   6.624  64.622  1.00  0.00    -0.031 F  
HETATM   36  C   UNL     1     -10.189   4.703  66.785  1.00  0.00    -0.226 A  
ENDBRANCH  25  27
ENDBRANCH  14  25
ENDBRANCH   7   9
ENDBRANCH   5   7
TORSDOF 5
ENDMDL
MODEL      174
REMARK 921   NORMALIZED FREE ENERGY PREDICTED BY IDOCK:   -5.82 KCAL/MOL
REMARK 922        TOTAL FREE ENERGY PREDICTED BY IDOCK:   -8.69 KCAL/MOL
REMARK 923 INTER-LIGAND FREE ENERGY PREDICTED BY IDOCK:   -7.65 KCAL/MOL
REMARK 924 INTRA-LIGAND FREE ENERGY PREDICTED BY IDOCK:   -1.04 KCAL/MOL
REMARK 927      BINDING AFFINITY PREDICTED BY RF-SCORE:    0.00 PKD
ROOT
HETATM    1  C   UNL     1     -10.373  14.256  64.790  1.00  0.00    -0.373 C  
HETATM    2  C   UNL     1     -10.921  12.831  64.674  1.00  0.00    -0.327 C  
HETATM    3  C   UNL     1     -12.337  12.769  65.258  1.00  0.00    -0.546 C  
HETATM    4  O   UNL     1     -11.001  12.489  63.282  1.00  0.00    -0.595 OA 
HETATM    5  C   UNL     1      -9.950  11.838  65.370  1.00  0.00    -0.253 C  
HETATM    6  H   UNL     1     -11.342  11.604  63.210  1.00  0.00     0.000 HD 
ENDROOT
BRANCH   5   7
HETATM    7  N   UNL     1     -10.522  10.500  65.382  1.00  0.00    -0.206 NA 
HETATM    8  H   UNL     1     -11.061  10.152  64.589  1.00  0.00     0.000 HD 
BRANCH   7   9
HETATM    9  C   UNL     1     -10.314   9.712  66.498  1.00  0.00    -0.194 A  
HETATM   10  N   UNL     1      -9.921   8.455  66.374  1.00  0.00    -0.254 NA 
HETATM   11  C   UNL     1      -9.763   7.782  67.515  1.00  0.00    -0.158 A  
HETATM   12  N   UNL     1     -10.505  10.318  67.663  1.00  0.00    -0.220 NA 
HETATM   13  N   UNL     1      -9.947   8.311  68.725  1.00  0.00    -0.178 NA 
HETATM   14  C   UNL     1     -10.284   9.593  68.748  1.00  0.00    -0.196 A  
BRANCH  11  15
HETATM   15  C   UNL     1      -9.341   6.357  67.453  1.00  0.00    -0.116 A  
HETATM   16  C   UNL     1      -7.978   4.639  68.314  1.00  0.00    -0.084 A  
HETATM   17  F   UNL     1      -5.815   3.671  68.723  1.00  0.00    -0.019 F  
HETATM   18  N   UNL     1      -8.393   5.939  68.340  1.00  0.00    -0.111 NA 
HETATM   19  C   UNL     1      -8.486   3.723  67.393  1.00  0.00    -0.104 A  
HETATM   20  C   UNL     1      -6.943   4.157  69.322  1.00  0.00    -0.046 C  
HETATM   21  C   UNL     1      -9.889   5.466  66.524  1.00  0.00    -0.195 A  
HETATM   22  C   UNL     1      -9.454   4.143  66.491  1.00  0.00    -0.201 A  
HETATM   23  F   UNL     1      -6.516   5.111  70.196  1.00  0.00    -0.026 F  
HETATM   24  F   UNL     1      -7.411   3.131  70.094  1.00  0.00    -0.040 F  
ENDBRANCH  11  15
BRANCH  14  25
HETATM   25  N   UNL     1     -10.339  10.270  69.968  1.00  0.00    -0.395 NA 
HETATM   26  H   UNL     1      -9.438  10.411  70.424  1.00  0.00     0.000 HD 
BRANCH  25  27
HETATM   27  C   UNL     1     -11.438  10.786  70.661  1.00  0.00    -0.219 A  
HETATM   28  C   UNL     1     -12.735  12.676  71.430  1.00  0.00    -0.247 A  
HETATM   29  C   UNL     1     -11.691  12.160  70.653  1.00  0.00     0.139 A  
HETATM   30  N   UNL     1     -13.543  11.867  72.175  1.00  0.00    -0.271 NA 
HETATM   31  C   UNL     1     -12.967  14.179  71.492  1.00  0.00    -0.344 C  
HETATM   32  C   UNL     1     -13.286  10.546  72.166  1.00  0.00    -0.293 A  
HETATM   33  F   UNL     1     -12.855  14.684  72.755  1.00  0.00    -0.383 F  
HETATM   34  F   UNL     1     -12.078  14.896  70.739  1.00  0.00    -0.287 F  
HETATM   35  F   UNL     1     -14.201  14.552  71.045  1.00  0.00    -0.394 F  
HETATM   36  C   UNL     1     -12.249   9.974  71.455  1.00  0.00    -0.510 A  
ENDBRANCH  25  27
ENDBRANCH  14  25
ENDBRANCH   7   9
ENDBRANCH   5   7
TORSDOF 5
ENDMDL
MODEL      175
REMARK 921   NORMALIZED FREE ENERGY PREDICTED BY IDOCK:   -5.82 KCAL/MOL
REMARK 922        TOTAL FREE ENERGY PREDICTED BY IDOCK:   -8.69 KCAL/MOL
REMARK 923 INTER-LIGAND FREE ENERGY PREDICTED BY IDOCK:   -7.55 KCAL/MOL
REMARK 924 INTRA-LIGAND FREE ENERGY PREDICTED BY IDOCK:   -1.14 KCAL/MOL
REMARK 927      BINDING AFFINITY PREDICTED BY RF-SCORE:    0.00 PKD
ROOT
HETATM    1  C   UNL     1     -12.052  14.849  65.440  1.00  0.00    -0.076 C  
HETATM    2  C   UNL     1     -11.695  13.369  65.608  1.00  0.00    -0.346 C  
HETATM    3  C   UNL     1     -12.530  12.520  64.642  1.00  0.00    -0.539 C  
HETATM    4  O   UNL     1     -10.311  13.195  65.266  1.00  0.00    -0.294 OA 
HETATM    5  C   UNL     1     -11.893  12.947  67.088  1.00  0.00    -0.362 C  
HETATM    6  H   UNL     1     -10.090  12.277  65.371  1.00  0.00     0.000 HD 
ENDROOT
BRANCH   5   7
HETATM    7  N   UNL     1     -11.685  11.514  67.237  1.00  0.00    -0.603 NA 
HETATM    8  H   UNL     1     -12.336  10.844  66.826  1.00  0.00     0.000 HD 
BRANCH   7   9
HETATM    9  C   UNL     1     -10.583  11.086  67.951  1.00  0.00    -0.205 A  
HETATM   10  N   UNL     1     -10.579   9.902  68.542  1.00  0.00    -0.208 NA 
HETATM   11  C   UNL     1      -9.469   9.594  69.214  1.00  0.00    -0.179 A  
HETATM   12  N   UNL     1      -9.554  11.924  67.962  1.00  0.00    -0.187 NA 
HETATM   13  N   UNL     1      -8.397  10.384  69.287  1.00  0.00    -0.158 NA 
HETATM   14  C   UNL     1      -8.474  11.524  68.615  1.00  0.00    -0.115 A  
BRANCH  11  15
HETATM   15  C   UNL     1      -9.399   8.286  69.920  1.00  0.00    -0.159 A  
HETATM   16  C   UNL     1     -10.075   6.965  71.749  1.00  0.00    -0.185 A  
HETATM   17  F   UNL     1     -10.127   6.502  74.107  1.00  0.00    -0.230 F  
HETATM   18  N   UNL     1     -10.116   8.149  71.072  1.00  0.00    -0.186 NA 
HETATM   19  C   UNL     1      -9.308   5.889  71.304  1.00  0.00    -0.172 A  
HETATM   20  C   UNL     1     -10.899   6.795  73.019  1.00  0.00    -0.283 C  
HETATM   21  C   UNL     1      -8.629   7.225  69.430  1.00  0.00    -0.134 A  
HETATM   22  C   UNL     1      -8.580   6.023  70.130  1.00  0.00    -0.135 A  
HETATM   23  F   UNL     1     -11.634   7.887  73.369  1.00  0.00    -0.349 F  
HETATM   24  F   UNL     1     -11.791   5.764  72.922  1.00  0.00    -0.291 F  
ENDBRANCH  11  15
BRANCH  14  25
HETATM   25  N   UNL     1      -7.344  12.336  68.501  1.00  0.00    -0.101 NA 
HETATM   26  H   UNL     1      -6.467  11.837  68.354  1.00  0.00     0.000 HD 
BRANCH  25  27
HETATM   27  C   UNL     1      -7.229  13.728  68.557  1.00  0.00    -0.108 A  
HETATM   28  C   UNL     1      -7.600  15.905  67.571  1.00  0.00    -0.161 A  
HETATM   29  C   UNL     1      -7.805  14.520  67.560  1.00  0.00    -0.212 A  
HETATM   30  N   UNL     1      -6.877  16.515  68.555  1.00  0.00    -0.145 NA 
HETATM   31  C   UNL     1      -8.153  16.766  66.445  1.00  0.00    -0.320 C  
HETATM   32  C   UNL     1      -6.334  15.736  69.508  1.00  0.00    -0.171 A  
HETATM   33  F   UNL     1      -7.183  17.440  65.762  1.00  0.00    -0.318 F  
HETATM   34  F   UNL     1      -8.827  16.049  65.495  1.00  0.00    -0.256 F  
HETATM   35  F   UNL     1      -9.037  17.713  66.875  1.00  0.00    -0.229 F  
HETATM   36  C   UNL     1      -6.463  14.360  69.536  1.00  0.00    -0.133 A  
ENDBRANCH  25  27
ENDBRANCH  14  25
ENDBRANCH   7   9
ENDBRANCH   5   7
TORSDOF 5
ENDMDL
MODEL      176
REMARK 921   NORMALIZED FREE ENERGY PREDICTED BY IDOCK:   -5.81 KCAL/MOL
REMARK 922        TOTAL FREE ENERGY PREDICTED BY IDOCK:   -8.67 KCAL/MOL
REMARK 923 INTER-LIGAND FREE ENERGY PREDICTED BY IDOCK:   -7.73 KCAL/MOL
REMARK 924 INTRA-LIGAND FREE ENERGY PREDICTED BY IDOCK:   -0.94 KCAL/MOL
REMARK 927      BINDING AFFINITY PREDICTED BY RF-SCORE:    0.00 PKD
ROOT
HETATM    1  C   UNL     1      -8.676   4.816  64.500  1.00  0.00    -0.153 C  
HETATM    2  C   UNL     1      -8.063   5.484  65.735  1.00  0.00    -0.112 C  
HETATM    3  C   UNL     1      -9.122   5.614  66.836  1.00  0.00    -0.116 C  
HETATM    4  O   UNL     1      -7.011   4.641  66.230  1.00  0.00    -0.066 OA 
HETATM    5  C   UNL     1      -7.450   6.854  65.338  1.00  0.00    -0.088 C  
HETATM    6  H   UNL     1      -6.631   5.056  66.996  1.00  0.00     0.000 HD 
ENDROOT
BRANCH   5   7
HETATM    7  N   UNL     1      -6.981   7.559  66.522  1.00  0.00    -0.068 NA 
HETATM    8  H   UNL     1      -6.103   7.301  66.973  1.00  0.00     0.000 HD 
BRANCH   7   9
HETATM    9  C   UNL     1      -7.758   8.587  67.020  1.00  0.00    -0.092 A  
HETATM   10  N   UNL     1      -8.417   9.393  66.203  1.00  0.00    -0.118 NA 
HETATM   11  C   UNL     1      -9.126  10.358  66.789  1.00  0.00    -0.143 A  
HETATM   12  N   UNL     1      -7.808   8.670  68.343  1.00  0.00    -0.104 NA 
HETATM   13  N   UNL     1      -9.218  10.520  68.110  1.00  0.00    -0.145 NA 
HETATM   14  C   UNL     1      -8.568   9.629  68.847  1.00  0.00    -0.127 A  
BRANCH  11  15
HETATM   15  C   UNL     1      -9.879  11.315  65.933  1.00  0.00    -0.232 A  
HETATM   16  C   UNL     1     -10.726  13.493  65.641  1.00  0.00    -0.281 A  
HETATM   17  F   UNL     1     -12.190  15.287  66.285  1.00  0.00     0.026 F  
HETATM   18  N   UNL     1     -10.039  12.587  66.397  1.00  0.00    -0.238 NA 
HETATM   19  C   UNL     1     -11.284  13.151  64.409  1.00  0.00    -0.403 A  
HETATM   20  C   UNL     1     -10.881  14.925  66.137  1.00  0.00    -0.327 C  
HETATM   21  C   UNL     1     -10.408  10.936  64.695  1.00  0.00    -0.407 A  
HETATM   22  C   UNL     1     -11.119  11.858  63.933  1.00  0.00    -0.483 A  
HETATM   23  F   UNL     1     -10.289  15.176  67.338  1.00  0.00    -0.235 F  
HETATM   24  F   UNL     1     -10.352  15.835  65.266  1.00  0.00    -0.346 F  
ENDBRANCH  11  15
BRANCH  14  25
HETATM   25  N   UNL     1      -8.739   9.623  70.232  1.00  0.00    -0.250 NA 
HETATM   26  H   UNL     1      -8.074  10.195  70.752  1.00  0.00     0.000 HD 
BRANCH  25  27
HETATM   27  C   UNL     1      -9.683   8.954  71.018  1.00  0.00    -0.252 A  
HETATM   28  C   UNL     1     -11.951   8.712  71.821  1.00  0.00    -0.336 A  
HETATM   29  C   UNL     1     -11.030   9.320  70.959  1.00  0.00    -0.390 A  
HETATM   30  N   UNL     1     -11.575   7.739  72.702  1.00  0.00    -0.359 NA 
HETATM   31  C   UNL     1     -13.404   9.162  71.822  1.00  0.00    -0.406 C  
HETATM   32  C   UNL     1     -10.274   7.398  72.740  1.00  0.00    -0.238 A  
HETATM   33  F   UNL     1     -13.813   9.645  73.031  1.00  0.00    -0.230 F  
HETATM   34  F   UNL     1     -13.662  10.166  70.930  1.00  0.00    -0.384 F  
HETATM   35  F   UNL     1     -14.277   8.163  71.502  1.00  0.00    -0.405 F  
HETATM   36  C   UNL     1      -9.306   7.984  71.947  1.00  0.00    -0.225 A  
ENDBRANCH  25  27
ENDBRANCH  14  25
ENDBRANCH   7   9
ENDBRANCH   5   7
TORSDOF 5
ENDMDL
MODEL      177
REMARK 921   NORMALIZED FREE ENERGY PREDICTED BY IDOCK:   -5.78 KCAL/MOL
REMARK 922        TOTAL FREE ENERGY PREDICTED BY IDOCK:   -8.64 KCAL/MOL
REMARK 923 INTER-LIGAND FREE ENERGY PREDICTED BY IDOCK:   -8.01 KCAL/MOL
REMARK 924 INTRA-LIGAND FREE ENERGY PREDICTED BY IDOCK:   -0.63 KCAL/MOL
REMARK 927      BINDING AFFINITY PREDICTED BY RF-SCORE:    0.00 PKD
ROOT
HETATM    1  C   UNL     1     -12.893  13.933  65.713  1.00  0.00    -0.437 C  
HETATM    2  C   UNL     1     -11.813  13.231  64.884  1.00  0.00    -0.362 C  
HETATM    3  C   UNL     1     -12.467  12.410  63.766  1.00  0.00    -0.593 C  
HETATM    4  O   UNL     1     -10.990  14.236  64.270  1.00  0.00    -0.599 OA 
HETATM    5  C   UNL     1     -10.921  12.364  65.812  1.00  0.00    -0.298 C  
HETATM    6  H   UNL     1     -10.320  13.800  63.756  1.00  0.00     0.000 HD 
ENDROOT
BRANCH   5   7
HETATM    7  N   UNL     1      -9.975  11.589  65.022  1.00  0.00    -0.253 NA 
HETATM    8  H   UNL     1      -9.501  12.002  64.218  1.00  0.00     0.000 HD 
BRANCH   7   9
HETATM    9  C   UNL     1      -9.734  10.280  65.392  1.00  0.00    -0.278 A  
HETATM   10  N   UNL     1     -10.233   9.793  66.516  1.00  0.00    -0.232 NA 
HETATM   11  C   UNL     1      -9.928   8.522  66.781  1.00  0.00    -0.281 A  
HETATM   12  N   UNL     1      -9.013   9.573  64.532  1.00  0.00    -0.222 NA 
HETATM   13  N   UNL     1      -9.198   7.745  65.979  1.00  0.00    -0.130 NA 
HETATM   14  C   UNL     1      -8.792   8.306  64.848  1.00  0.00     0.120 A  
BRANCH  11  15
HETATM   15  C   UNL     1     -10.438   7.910  68.039  1.00  0.00    -0.185 A  
HETATM   16  C   UNL     1     -11.056   8.201  70.293  1.00  0.00    -0.221 A  
HETATM   17  F   UNL     1     -10.513   8.730  72.574  1.00  0.00    -0.386 F  
HETATM   18  N   UNL     1     -10.592   8.725  69.121  1.00  0.00    -0.214 NA 
HETATM   19  C   UNL     1     -11.365   6.847  70.422  1.00  0.00    -0.376 A  
HETATM   20  C   UNL     1     -11.261   9.111  71.497  1.00  0.00    -0.360 C  
HETATM   21  C   UNL     1     -10.753   6.550  68.121  1.00  0.00    -0.347 A  
HETATM   22  C   UNL     1     -11.213   6.015  69.321  1.00  0.00    -0.367 A  
HETATM   23  F   UNL     1     -10.955  10.420  71.277  1.00  0.00    -0.274 F  
HETATM   24  F   UNL     1     -12.555   9.104  71.936  1.00  0.00    -0.348 F  
ENDBRANCH  11  15
BRANCH  14  25
HETATM   25  N   UNL     1      -8.163   7.524  63.877  1.00  0.00    -0.354 NA 
HETATM   26  H   UNL     1      -7.888   8.025  63.032  1.00  0.00     0.000 HD 
BRANCH  25  27
HETATM   27  C   UNL     1      -7.853   6.162  63.884  1.00  0.00    -0.113 A  
HETATM   28  C   UNL     1      -8.130   3.952  64.826  1.00  0.00    -0.093 A  
HETATM   29  C   UNL     1      -8.516   5.296  64.757  1.00  0.00    -0.149 A  
HETATM   30  N   UNL     1      -7.138   3.449  64.035  1.00  0.00    -0.049 NA 
HETATM   31  C   UNL     1      -8.790   3.020  65.832  1.00  0.00    -0.141 C  
HETATM   32  C   UNL     1      -6.514   4.298  63.198  1.00  0.00    -0.026 A  
HETATM   33  F   UNL     1      -7.907   2.483  66.722  1.00  0.00    -0.068 F  
HETATM   34  F   UNL     1      -9.742   3.636  66.598  1.00  0.00    -0.210 F  
HETATM   35  F   UNL     1      -9.427   1.963  65.249  1.00  0.00    -0.127 F  
HETATM   36  C   UNL     1      -6.818   5.643  63.107  1.00  0.00    -0.039 A  
ENDBRANCH  25  27
ENDBRANCH  14  25
ENDBRANCH   7   9
ENDBRANCH   5   7
TORSDOF 5
ENDMDL
MODEL      178
REMARK 921   NORMALIZED FREE ENERGY PREDICTED BY IDOCK:   -5.78 KCAL/MOL
REMARK 922        TOTAL FREE ENERGY PREDICTED BY IDOCK:   -8.64 KCAL/MOL
REMARK 923 INTER-LIGAND FREE ENERGY PREDICTED BY IDOCK:   -7.71 KCAL/MOL
REMARK 924 INTRA-LIGAND FREE ENERGY PREDICTED BY IDOCK:   -0.93 KCAL/MOL
REMARK 927      BINDING AFFINITY PREDICTED BY RF-SCORE:    0.00 PKD
ROOT
HETATM    1  C   UNL     1      -6.424   6.705  64.135  1.00  0.00    -0.038 C  
HETATM    2  C   UNL     1      -7.560   7.672  64.483  1.00  0.00    -0.112 C  
HETATM    3  C   UNL     1      -7.974   8.458  63.234  1.00  0.00    -0.161 C  
HETATM    4  O   UNL     1      -8.692   6.902  64.916  1.00  0.00    -0.354 OA 
HETATM    5  C   UNL     1      -7.120   8.598  65.648  1.00  0.00    -0.083 C  
HETATM    6  H   UNL     1      -9.397   7.502  65.132  1.00  0.00     0.000 HD 
ENDROOT
BRANCH   5   7
HETATM    7  N   UNL     1      -8.138   9.608  65.901  1.00  0.00    -0.111 NA 
HETATM    8  H   UNL     1      -8.130  10.498  65.402  1.00  0.00     0.000 HD 
BRANCH   7   9
HETATM    9  C   UNL     1      -9.115   9.328  66.836  1.00  0.00    -0.131 A  
HETATM   10  N   UNL     1      -9.042   8.239  67.585  1.00  0.00    -0.131 NA 
HETATM   11  C   UNL     1     -10.045   8.061  68.446  1.00  0.00    -0.195 A  
HETATM   12  N   UNL     1     -10.080  10.233  66.935  1.00  0.00    -0.211 NA 
HETATM   13  N   UNL     1     -11.060   8.913  68.598  1.00  0.00     0.134 NA 
HETATM   14  C   UNL     1     -11.015  10.003  67.844  1.00  0.00    -0.252 A  
BRANCH  11  15
HETATM   15  C   UNL     1     -10.041   6.848  69.309  1.00  0.00    -0.170 A  
HETATM   16  C   UNL     1      -9.531   4.560  69.535  1.00  0.00    -0.174 A  
HETATM   17  F   UNL     1      -9.867   2.258  68.929  1.00  0.00    -0.189 F  
HETATM   18  N   UNL     1      -9.550   5.694  68.775  1.00  0.00    -0.125 NA 
HETATM   19  C   UNL     1     -10.014   4.543  70.843  1.00  0.00    -0.263 A  
HETATM   20  C   UNL     1      -8.954   3.274  68.956  1.00  0.00    -0.129 C  
HETATM   21  C   UNL     1     -10.520   6.878  70.623  1.00  0.00    -0.233 A  
HETATM   22  C   UNL     1     -10.511   5.717  71.391  1.00  0.00    -0.296 A  
HETATM   23  F   UNL     1      -8.487   3.386  67.681  1.00  0.00    -0.088 F  
HETATM   24  F   UNL     1      -7.907   2.799  69.694  1.00  0.00    -0.044 F  
ENDBRANCH  11  15
BRANCH  14  25
HETATM   25  N   UNL     1     -11.944  11.024  68.051  1.00  0.00    -0.761 NA 
HETATM   26  H   UNL     1     -12.823  10.728  68.476  1.00  0.00     0.000 HD 
BRANCH  25  27
HETATM   27  C   UNL     1     -11.856  12.390  67.767  1.00  0.00    -0.298 A  
HETATM   28  C   UNL     1     -11.708  14.194  66.164  1.00  0.00    -0.393 A  
HETATM   29  C   UNL     1     -11.896  12.835  66.443  1.00  0.00    -0.472 A  
HETATM   30  N   UNL     1     -11.519  15.111  67.156  1.00  0.00    -0.299 NA 
HETATM   31  C   UNL     1     -11.668  14.676  64.721  1.00  0.00    -0.428 C  
HETATM   32  C   UNL     1     -11.487  14.663  68.424  1.00  0.00    -0.311 A  
HETATM   33  F   UNL     1     -10.486  15.271  64.390  1.00  0.00    -0.287 F  
HETATM   34  F   UNL     1     -11.830  13.670  63.808  1.00  0.00    -0.442 F  
HETATM   35  F   UNL     1     -12.643  15.586  64.430  1.00  0.00    -0.310 F  
HETATM   36  C   UNL     1     -11.626  13.332  68.769  1.00  0.00    -0.350 A  
ENDBRANCH  25  27
ENDBRANCH  14  25
ENDBRANCH   7   9
ENDBRANCH   5   7
TORSDOF 5
ENDMDL
MODEL      179
REMARK 921   NORMALIZED FREE ENERGY PREDICTED BY IDOCK:   -5.78 KCAL/MOL
REMARK 922        TOTAL FREE ENERGY PREDICTED BY IDOCK:   -8.64 KCAL/MOL
REMARK 923 INTER-LIGAND FREE ENERGY PREDICTED BY IDOCK:   -7.60 KCAL/MOL
REMARK 924 INTRA-LIGAND FREE ENERGY PREDICTED BY IDOCK:   -1.04 KCAL/MOL
REMARK 927      BINDING AFFINITY PREDICTED BY RF-SCORE:    0.00 PKD
ROOT
HETATM    1  C   UNL     1      -7.135   2.415  68.291  1.00  0.00    -0.047 C  
HETATM    2  C   UNL     1      -6.892   3.926  68.246  1.00  0.00    -0.047 C  
HETATM    3  C   UNL     1      -5.401   4.220  68.455  1.00  0.00    -0.012 C  
HETATM    4  O   UNL     1      -7.258   4.405  66.942  1.00  0.00    -0.070 OA 
HETATM    5  C   UNL     1      -7.787   4.632  69.299  1.00  0.00    -0.063 C  
HETATM    6  H   UNL     1      -7.107   5.343  66.915  1.00  0.00     0.000 HD 
ENDROOT
BRANCH   5   7
HETATM    7  N   UNL     1      -7.472   6.052  69.360  1.00  0.00    -0.086 NA 
HETATM    8  H   UNL     1      -6.580   6.376  69.735  1.00  0.00     0.000 HD 
BRANCH   7   9
HETATM    9  C   UNL     1      -8.414   6.949  68.895  1.00  0.00    -0.125 A  
HETATM   10  N   UNL     1      -8.313   7.466  67.681  1.00  0.00    -0.117 NA 
HETATM   11  C   UNL     1      -9.269   8.331  67.339  1.00  0.00    -0.141 A  
HETATM   12  N   UNL     1      -9.408   7.211  69.733  1.00  0.00    -0.147 NA 
HETATM   13  N   UNL     1     -10.295   8.660  68.126  1.00  0.00    -0.219 NA 
HETATM   14  C   UNL     1     -10.339   8.047  69.301  1.00  0.00    -0.220 A  
BRANCH  11  15
HETATM   15  C   UNL     1      -9.212   8.967  65.995  1.00  0.00    -0.226 A  
HETATM   16  C   UNL     1     -10.069  10.587  64.514  1.00  0.00    -0.332 A  
HETATM   17  F   UNL     1     -11.854  11.481  63.175  1.00  0.00    -0.468 F  
HETATM   18  N   UNL     1     -10.089   9.979  65.737  1.00  0.00    -0.271 NA 
HETATM   19  C   UNL     1      -9.183  10.192  63.511  1.00  0.00    -0.322 A  
HETATM   20  C   UNL     1     -11.024  11.739  64.229  1.00  0.00    -0.359 C  
HETATM   21  C   UNL     1      -8.296   8.553  65.023  1.00  0.00    -0.175 A  
HETATM   22  C   UNL     1      -8.286   9.165  63.772  1.00  0.00    -0.183 A  
HETATM   23  F   UNL     1     -11.838  12.071  65.270  1.00  0.00    -0.402 F  
HETATM   24  F   UNL     1     -10.363  12.887  63.895  1.00  0.00    -0.405 F  
ENDBRANCH  11  15
BRANCH  14  25
HETATM   25  N   UNL     1     -11.459   8.206  70.120  1.00  0.00    -0.466 NA 
HETATM   26  H   UNL     1     -11.924   7.339  70.388  1.00  0.00     0.000 HD 
BRANCH  25  27
HETATM   27  C   UNL     1     -12.041   9.370  70.630  1.00  0.00    -0.130 A  
HETATM   28  C   UNL     1     -12.224  11.781  70.668  1.00  0.00    -0.349 A  
HETATM   29  C   UNL     1     -11.713  10.615  70.086  1.00  0.00    -0.417 A  
HETATM   30  N   UNL     1     -13.069  11.738  71.738  1.00  0.00    -0.445 NA 
HETATM   31  C   UNL     1     -11.807  13.144  70.134  1.00  0.00    -0.257 C  
HETATM   32  C   UNL     1     -13.376  10.530  72.245  1.00  0.00    -0.105 A  
HETATM   33  F   UNL     1     -11.182  13.915  71.070  1.00  0.00     0.024 F  
HETATM   34  F   UNL     1     -10.929  13.071  69.086  1.00  0.00    -0.260 F  
HETATM   35  F   UNL     1     -12.855  13.886  69.674  1.00  0.00    -0.271 F  
HETATM   36  C   UNL     1     -12.877   9.342  71.746  1.00  0.00    -0.484 A  
ENDBRANCH  25  27
ENDBRANCH  14  25
ENDBRANCH   7   9
ENDBRANCH   5   7
TORSDOF 5
ENDMDL
MODEL      180
REMARK 921   NORMALIZED FREE ENERGY PREDICTED BY IDOCK:   -5.76 KCAL/MOL
REMARK 922        TOTAL FREE ENERGY PREDICTED BY IDOCK:   -8.61 KCAL/MOL
REMARK 923 INTER-LIGAND FREE ENERGY PREDICTED BY IDOCK:   -7.64 KCAL/MOL
REMARK 924 INTRA-LIGAND FREE ENERGY PREDICTED BY IDOCK:   -0.97 KCAL/MOL
REMARK 927      BINDING AFFINITY PREDICTED BY RF-SCORE:    0.00 PKD
ROOT
HETATM    1  C   UNL     1     -11.163   5.214  72.634  1.00  0.00    -0.277 C  
HETATM    2  C   UNL     1     -11.249   6.736  72.492  1.00  0.00    -0.268 C  
HETATM    3  C   UNL     1     -12.604   7.127  71.890  1.00  0.00    -0.328 C  
HETATM    4  O   UNL     1     -11.163   7.319  73.802  1.00  0.00    -0.529 OA 
HETATM    5  C   UNL     1     -10.054   7.251  71.646  1.00  0.00    -0.184 C  
HETATM    6  H   UNL     1     -11.217   8.264  73.714  1.00  0.00     0.000 HD 
ENDROOT
BRANCH   5   7
HETATM    7  N   UNL     1     -10.193   8.678  71.391  1.00  0.00    -0.230 NA 
HETATM    8  H   UNL     1     -10.107   9.356  72.148  1.00  0.00     0.000 HD 
BRANCH   7   9
HETATM    9  C   UNL     1     -10.446   9.088  70.097  1.00  0.00    -0.214 A  
HETATM   10  N   UNL     1     -10.723  10.355  69.832  1.00  0.00    -0.281 NA 
HETATM   11  C   UNL     1     -10.963  10.639  68.551  1.00  0.00    -0.248 A  
HETATM   12  N   UNL     1     -10.357   8.139  69.174  1.00  0.00    -0.219 NA 
HETATM   13  N   UNL     1     -10.909   9.743  67.564  1.00  0.00    -0.270 NA 
HETATM   14  C   UNL     1     -10.567   8.513  67.922  1.00  0.00    -0.156 A  
BRANCH  11  15
HETATM   15  C   UNL     1     -11.300  12.040  68.179  1.00  0.00    -0.291 A  
HETATM   16  C   UNL     1     -11.470  14.295  68.838  1.00  0.00    -0.286 A  
HETATM   17  F   UNL     1     -12.463  16.029  70.175  1.00  0.00    -0.354 F  
HETATM   18  N   UNL     1     -11.169  12.998  69.141  1.00  0.00    -0.258 NA 
HETATM   19  C   UNL     1     -11.925  14.669  67.574  1.00  0.00    -0.309 A  
HETATM   20  C   UNL     1     -11.296  15.376  69.898  1.00  0.00    -0.304 C  
HETATM   21  C   UNL     1     -11.736  12.376  66.893  1.00  0.00    -0.432 A  
HETATM   22  C   UNL     1     -12.055  13.697  66.592  1.00  0.00    -0.459 A  
HETATM   23  F   UNL     1     -10.829  14.926  71.096  1.00  0.00    -0.253 F  
HETATM   24  F   UNL     1     -10.423  16.350  69.503  1.00  0.00    -0.242 F  
ENDBRANCH  11  15
BRANCH  14  25
HETATM   25  N   UNL     1     -10.327   7.550  66.939  1.00  0.00    -0.361 NA 
HETATM   26  H   UNL     1     -11.072   7.443  66.250  1.00  0.00     0.000 HD 
BRANCH  25  27
HETATM   27  C   UNL     1      -9.224   6.712  66.753  1.00  0.00    -0.149 A  
HETATM   28  C   UNL     1      -8.283   4.492  66.576  1.00  0.00    -0.103 A  
HETATM   29  C   UNL     1      -9.401   5.329  66.663  1.00  0.00    -0.139 A  
HETATM   30  N   UNL     1      -7.014   4.992  66.541  1.00  0.00    -0.066 NA 
HETATM   31  C   UNL     1      -8.462   2.981  66.561  1.00  0.00    -0.106 C  
HETATM   32  C   UNL     1      -6.864   6.327  66.625  1.00  0.00    -0.062 A  
HETATM   33  F   UNL     1      -7.841   2.360  67.605  1.00  0.00    -0.059 F  
HETATM   34  F   UNL     1      -9.770   2.589  66.638  1.00  0.00    -0.026 F  
HETATM   35  F   UNL     1      -7.976   2.393  65.430  1.00  0.00    -0.074 F  
HETATM   36  C   UNL     1      -7.921   7.208  66.752  1.00  0.00    -0.108 A  
ENDBRANCH  25  27
ENDBRANCH  14  25
ENDBRANCH   7   9
ENDBRANCH   5   7
TORSDOF 5
ENDMDL
MODEL      181
REMARK 921   NORMALIZED FREE ENERGY PREDICTED BY IDOCK:   -5.75 KCAL/MOL
REMARK 922        TOTAL FREE ENERGY PREDICTED BY IDOCK:   -8.59 KCAL/MOL
REMARK 923 INTER-LIGAND FREE ENERGY PREDICTED BY IDOCK:   -7.42 KCAL/MOL
REMARK 924 INTRA-LIGAND FREE ENERGY PREDICTED BY IDOCK:   -1.17 KCAL/MOL
REMARK 927      BINDING AFFINITY PREDICTED BY RF-SCORE:    0.00 PKD
ROOT
HETATM    1  C   UNL     1      -8.422   8.905  62.559  1.00  0.00    -0.207 C  
HETATM    2  C   UNL     1      -7.739   9.261  63.883  1.00  0.00    -0.117 C  
HETATM    3  C   UNL     1      -6.234   8.986  63.782  1.00  0.00    -0.087 C  
HETATM    4  O   UNL     1      -7.917  10.666  64.121  1.00  0.00    -0.341 OA 
HETATM    5  C   UNL     1      -8.407   8.477  65.044  1.00  0.00    -0.165 C  
HETATM    6  H   UNL     1      -7.493  10.887  64.942  1.00  0.00     0.000 HD 
ENDROOT
BRANCH   5   7
HETATM    7  N   UNL     1      -7.685   8.704  66.288  1.00  0.00    -0.096 NA 
HETATM    8  H   UNL     1      -6.840   8.176  66.508  1.00  0.00     0.000 HD 
BRANCH   7   9
HETATM    9  C   UNL     1      -8.175   9.654  67.163  1.00  0.00    -0.120 A  
HETATM   10  N   UNL     1      -9.108   9.341  68.047  1.00  0.00    -0.128 NA 
HETATM   11  C   UNL     1      -9.517  10.337  68.834  1.00  0.00    -0.188 A  
HETATM   12  N   UNL     1      -7.621  10.856  67.062  1.00  0.00    -0.116 NA 
HETATM   13  N   UNL     1      -9.025  11.576  68.789  1.00  0.00    -0.104 NA 
HETATM   14  C   UNL     1      -8.053  11.777  67.909  1.00  0.00    -0.144 A  
BRANCH  11  15
HETATM   15  C   UNL     1     -10.578  10.064  69.841  1.00  0.00    -0.282 A  
HETATM   16  C   UNL     1     -11.439   8.624  71.495  1.00  0.00    -0.295 A  
HETATM   17  F   UNL     1     -12.398   6.525  72.167  1.00  0.00    -0.349 F  
HETATM   18  N   UNL     1     -10.484   8.910  70.563  1.00  0.00    -0.203 NA 
HETATM   19  C   UNL     1     -12.522   9.473  71.723  1.00  0.00    -0.484 A  
HETATM   20  C   UNL     1     -11.323   7.353  72.327  1.00  0.00    -0.281 C  
HETATM   21  C   UNL     1     -11.639  10.951  70.052  1.00  0.00    -0.424 A  
HETATM   22  C   UNL     1     -12.619  10.650  70.994  1.00  0.00    -0.516 A  
HETATM   23  F   UNL     1     -10.226   6.594  72.052  1.00  0.00    -0.189 F  
HETATM   24  F   UNL     1     -11.266   7.616  73.666  1.00  0.00    -0.359 F  
ENDBRANCH  11  15
BRANCH  14  25
HETATM   25  N   UNL     1      -7.369  12.994  67.903  1.00  0.00    -0.112 NA 
HETATM   26  H   UNL     1      -6.435  12.966  68.313  1.00  0.00     0.000 HD 
BRANCH  25  27
HETATM   27  C   UNL     1      -7.766  14.246  67.423  1.00  0.00    -0.173 A  
HETATM   28  C   UNL     1      -9.427  15.665  66.387  1.00  0.00    -0.292 A  
HETATM   29  C   UNL     1      -9.068  14.437  66.957  1.00  0.00    -0.250 A  
HETATM   30  N   UNL     1      -8.544  16.702  66.304  1.00  0.00    -0.326 NA 
HETATM   31  C   UNL     1     -10.818  15.856  65.802  1.00  0.00    -0.254 C  
HETATM   32  C   UNL     1      -7.295  16.499  66.762  1.00  0.00    -0.239 A  
HETATM   33  F   UNL     1     -10.801  16.159  64.472  1.00  0.00    -0.431 F  
HETATM   34  F   UNL     1     -11.607  14.742  65.904  1.00  0.00    -0.349 F  
HETATM   35  F   UNL     1     -11.525  16.854  66.407  1.00  0.00     0.302 F  
HETATM   36  C   UNL     1      -6.863  15.302  67.300  1.00  0.00    -0.108 A  
ENDBRANCH  25  27
ENDBRANCH  14  25
ENDBRANCH   7   9
ENDBRANCH   5   7
TORSDOF 5
ENDMDL
MODEL      182
REMARK 921   NORMALIZED FREE ENERGY PREDICTED BY IDOCK:   -5.75 KCAL/MOL
REMARK 922        TOTAL FREE ENERGY PREDICTED BY IDOCK:   -8.59 KCAL/MOL
REMARK 923 INTER-LIGAND FREE ENERGY PREDICTED BY IDOCK:   -7.89 KCAL/MOL
REMARK 924 INTRA-LIGAND FREE ENERGY PREDICTED BY IDOCK:   -0.70 KCAL/MOL
REMARK 927      BINDING AFFINITY PREDICTED BY RF-SCORE:    0.00 PKD
ROOT
HETATM    1  C   UNL     1     -14.410  15.014  72.080  1.00  0.00    -0.666 C  
HETATM    2  C   UNL     1     -12.976  14.480  71.995  1.00  0.00    -0.341 C  
HETATM    3  C   UNL     1     -12.213  14.835  73.277  1.00  0.00    -0.372 C  
HETATM    4  O   UNL     1     -13.032  13.048  71.895  1.00  0.00    -0.353 OA 
HETATM    5  C   UNL     1     -12.285  15.036  70.721  1.00  0.00    -0.329 C  
HETATM    6  H   UNL     1     -12.143  12.717  71.843  1.00  0.00     0.000 HD 
ENDROOT
BRANCH   5   7
HETATM    7  N   UNL     1     -10.884  14.644  70.696  1.00  0.00    -0.480 NA 
HETATM    8  H   UNL     1     -10.482  14.083  71.448  1.00  0.00     0.000 HD 
BRANCH   7   9
HETATM    9  C   UNL     1     -10.112  15.051  69.626  1.00  0.00    -0.125 A  
HETATM   10  N   UNL     1     -10.153  16.303  69.199  1.00  0.00    -0.249 NA 
HETATM   11  C   UNL     1      -9.377  16.584  68.152  1.00  0.00    -0.218 A  
HETATM   12  N   UNL     1      -9.329  14.115  69.104  1.00  0.00     0.095 NA 
HETATM   13  N   UNL     1      -8.572  15.700  67.560  1.00  0.00    -0.166 NA 
HETATM   14  C   UNL     1      -8.557  14.487  68.094  1.00  0.00    -0.169 A  
BRANCH  11  15
HETATM   15  C   UNL     1      -9.386  17.968  67.605  1.00  0.00    -0.259 A  
HETATM   16  C   UNL     1      -8.197  19.704  66.546  1.00  0.00    -0.328 A  
HETATM   17  F   UNL     1      -6.439  21.344  66.522  1.00  0.00    -0.342 F  
HETATM   18  N   UNL     1      -8.229  18.438  67.056  1.00  0.00    -0.241 NA 
HETATM   19  C   UNL     1      -9.313  20.541  66.582  1.00  0.00    -0.328 A  
HETATM   20  C   UNL     1      -6.919  20.225  65.902  1.00  0.00    -0.267 C  
HETATM   21  C   UNL     1     -10.532  18.769  67.646  1.00  0.00    -0.495 A  
HETATM   22  C   UNL     1     -10.492  20.064  67.137  1.00  0.00    -0.513 A  
HETATM   23  F   UNL     1      -5.886  19.336  65.891  1.00  0.00    -0.169 F  
HETATM   24  F   UNL     1      -7.107  20.588  64.599  1.00  0.00    -0.308 F  
ENDBRANCH  11  15
BRANCH  14  25
HETATM   25  N   UNL     1      -7.628  13.547  67.645  1.00  0.00    -0.162 NA 
HETATM   26  H   UNL     1      -7.107  13.820  66.811  1.00  0.00     0.000 HD 
BRANCH  25  27
HETATM   27  C   UNL     1      -7.301  12.289  68.160  1.00  0.00    -0.105 A  
HETATM   28  C   UNL     1      -7.971  10.086  68.899  1.00  0.00    -0.101 A  
HETATM   29  C   UNL     1      -8.287  11.307  68.291  1.00  0.00    -0.150 A  
HETATM   30  N   UNL     1      -6.710   9.809  69.340  1.00  0.00    -0.052 NA 
HETATM   31  C   UNL     1      -9.057   9.043  69.121  1.00  0.00    -0.140 C  
HETATM   32  C   UNL     1      -5.774  10.766  69.201  1.00  0.00    -0.040 A  
HETATM   33  F   UNL     1      -9.236   8.731  70.437  1.00  0.00    -0.147 F  
HETATM   34  F   UNL     1     -10.289   9.439  68.676  1.00  0.00    -0.188 F  
HETATM   35  F   UNL     1      -8.807   7.862  68.485  1.00  0.00    -0.132 F  
HETATM   36  C   UNL     1      -6.026  12.007  68.647  1.00  0.00    -0.054 A  
ENDBRANCH  25  27
ENDBRANCH  14  25
ENDBRANCH   7   9
ENDBRANCH   5   7
TORSDOF 5
ENDMDL
MODEL      183
REMARK 921   NORMALIZED FREE ENERGY PREDICTED BY IDOCK:   -5.75 KCAL/MOL
REMARK 922        TOTAL FREE ENERGY PREDICTED BY IDOCK:   -8.59 KCAL/MOL
REMARK 923 INTER-LIGAND FREE ENERGY PREDICTED BY IDOCK:   -7.40 KCAL/MOL
REMARK 924 INTRA-LIGAND FREE ENERGY PREDICTED BY IDOCK:   -1.18 KCAL/MOL
REMARK 927      BINDING AFFINITY PREDICTED BY RF-SCORE:    0.00 PKD
ROOT
HETATM    1  C   UNL     1     -11.024   8.053  71.144  1.00  0.00    -0.271 C  
HETATM    2  C   UNL     1     -10.025   8.322  70.014  1.00  0.00    -0.188 C  
HETATM    3  C   UNL     1      -9.609   6.998  69.363  1.00  0.00    -0.155 C  
HETATM    4  O   UNL     1     -10.677   9.121  69.015  1.00  0.00    -0.288 OA 
HETATM    5  C   UNL     1      -8.812   9.118  70.566  1.00  0.00    -0.224 C  
HETATM    6  H   UNL     1     -10.057   9.288  68.314  1.00  0.00     0.000 HD 
ENDROOT
BRANCH   5   7
HETATM    7  N   UNL     1      -7.795   9.266  69.536  1.00  0.00    -0.080 NA 
HETATM    8  H   UNL     1      -7.103   8.534  69.372  1.00  0.00     0.000 HD 
BRANCH   7   9
HETATM    9  C   UNL     1      -7.792  10.425  68.784  1.00  0.00    -0.108 A  
HETATM   10  N   UNL     1      -7.308  11.552  69.281  1.00  0.00    -0.061 NA 
HETATM   11  C   UNL     1      -7.366  12.612  68.475  1.00  0.00    -0.115 A  
HETATM   12  N   UNL     1      -8.269  10.302  67.552  1.00  0.00    -0.114 NA 
HETATM   13  N   UNL     1      -7.843  12.579  67.230  1.00  0.00    -0.171 NA 
HETATM   14  C   UNL     1      -8.251  11.392  66.801  1.00  0.00    -0.160 A  
BRANCH  11  15
HETATM   15  C   UNL     1      -6.857  13.919  68.973  1.00  0.00    -0.111 A  
HETATM   16  C   UNL     1      -6.832  16.265  68.759  1.00  0.00    -0.151 A  
HETATM   17  F   UNL     1      -6.301  18.262  67.530  1.00  0.00    -0.171 F  
HETATM   18  N   UNL     1      -7.278  15.047  68.332  1.00  0.00    -0.107 NA 
HETATM   19  C   UNL     1      -5.943  16.390  69.826  1.00  0.00    -0.201 A  
HETATM   20  C   UNL     1      -7.322  17.531  68.069  1.00  0.00    -0.208 C  
HETATM   21  C   UNL     1      -5.979  14.002  70.059  1.00  0.00    -0.142 A  
HETATM   22  C   UNL     1      -5.516  15.244  70.483  1.00  0.00    -0.136 A  
HETATM   23  F   UNL     1      -8.203  17.318  67.051  1.00  0.00    -0.194 F  
HETATM   24  F   UNL     1      -7.955  18.379  68.933  1.00  0.00    -0.312 F  
ENDBRANCH  11  15
BRANCH  14  25
HETATM   25  N   UNL     1      -8.613  11.230  65.462  1.00  0.00    -0.376 NA 
HETATM   26  H   UNL     1      -7.958  10.684  64.902  1.00  0.00     0.000 HD 
BRANCH  25  27
HETATM   27  C   UNL     1      -9.734  11.698  64.771  1.00  0.00    -0.191 A  
HETATM   28  C   UNL     1     -11.572  13.256  64.566  1.00  0.00    -0.369 A  
HETATM   29  C   UNL     1     -10.394  12.851  65.205  1.00  0.00    -0.320 A  
HETATM   30  N   UNL     1     -12.082  12.573  63.501  1.00  0.00    -0.534 NA 
HETATM   31  C   UNL     1     -12.342  14.463  65.083  1.00  0.00    -0.381 C  
HETATM   32  C   UNL     1     -11.430  11.468  63.096  1.00  0.00     0.064 A  
HETATM   33  F   UNL     1     -13.613  14.158  65.473  1.00  0.00    -0.386 F  
HETATM   34  F   UNL     1     -11.762  15.049  66.175  1.00  0.00    -0.331 F  
HETATM   35  F   UNL     1     -12.461  15.461  64.160  1.00  0.00    -0.479 F  
HETATM   36  C   UNL     1     -10.285  10.989  63.705  1.00  0.00    -0.431 A  
ENDBRANCH  25  27
ENDBRANCH  14  25
ENDBRANCH   7   9
ENDBRANCH   5   7
TORSDOF 5
ENDMDL
MODEL      184
REMARK 921   NORMALIZED FREE ENERGY PREDICTED BY IDOCK:   -5.72 KCAL/MOL
REMARK 922        TOTAL FREE ENERGY PREDICTED BY IDOCK:   -8.56 KCAL/MOL
REMARK 923 INTER-LIGAND FREE ENERGY PREDICTED BY IDOCK:   -7.57 KCAL/MOL
REMARK 924 INTRA-LIGAND FREE ENERGY PREDICTED BY IDOCK:   -0.99 KCAL/MOL
REMARK 927      BINDING AFFINITY PREDICTED BY RF-SCORE:    0.00 PKD
ROOT
HETATM    1  C   UNL     1      -8.160   8.750  63.171  1.00  0.00    -0.176 C  
HETATM    2  C   UNL     1      -7.729   9.429  64.475  1.00  0.00    -0.118 C  
HETATM    3  C   UNL     1      -6.224   9.720  64.437  1.00  0.00    -0.110 C  
HETATM    4  O   UNL     1      -8.420  10.683  64.582  1.00  0.00    -0.253 OA 
HETATM    5  C   UNL     1      -8.130   8.541  65.684  1.00  0.00    -0.119 C  
HETATM    6  H   UNL     1      -8.153  11.104  65.391  1.00  0.00     0.000 HD 
ENDROOT
BRANCH   5   7
HETATM    7  N   UNL     1      -7.611   9.109  66.920  1.00  0.00    -0.090 NA 
HETATM    8  H   UNL     1      -6.612   9.275  67.042  1.00  0.00     0.000 HD 
BRANCH   7   9
HETATM    9  C   UNL     1      -8.509   9.417  67.923  1.00  0.00    -0.116 A  
HETATM   10  N   UNL     1      -8.669   8.608  68.959  1.00  0.00    -0.133 NA 
HETATM   11  C   UNL     1      -9.570   8.996  69.862  1.00  0.00    -0.183 A  
HETATM   12  N   UNL     1      -9.148  10.570  67.777  1.00  0.00    -0.138 NA 
HETATM   13  N   UNL     1     -10.266  10.132  69.784  1.00  0.00    -0.246 NA 
HETATM   14  C   UNL     1      -9.994  10.903  68.740  1.00  0.00    -0.195 A  
BRANCH  11  15
HETATM   15  C   UNL     1      -9.818   8.128  71.045  1.00  0.00    -0.179 A  
HETATM   16  C   UNL     1      -9.215   6.213  72.278  1.00  0.00    -0.143 A  
HETATM   17  F   UNL     1      -8.993   3.829  72.490  1.00  0.00    -0.102 F  
HETATM   18  N   UNL     1      -9.018   7.035  71.206  1.00  0.00    -0.138 NA 
HETATM   19  C   UNL     1     -10.225   6.450  73.210  1.00  0.00    -0.230 A  
HETATM   20  C   UNL     1      -8.305   5.009  72.482  1.00  0.00    -0.117 C  
HETATM   21  C   UNL     1     -10.831   8.410  71.967  1.00  0.00    -0.390 A  
HETATM   22  C   UNL     1     -11.039   7.563  73.052  1.00  0.00    -0.413 A  
HETATM   23  F   UNL     1      -7.335   4.865  71.536  1.00  0.00    -0.060 F  
HETATM   24  F   UNL     1      -7.650   5.053  73.680  1.00  0.00    -0.086 F  
ENDBRANCH  11  15
BRANCH  14  25
HETATM   25  N   UNL     1     -10.552  12.180  68.662  1.00  0.00    -0.227 NA 
HETATM   26  H   UNL     1     -10.551  12.706  69.536  1.00  0.00     0.000 HD 
BRANCH  25  27
HETATM   27  C   UNL     1     -11.113  12.850  67.571  1.00  0.00    -0.269 A  
HETATM   28  C   UNL     1     -11.690  12.922  65.224  1.00  0.00    -0.364 A  
HETATM   29  C   UNL     1     -11.219  12.210  66.333  1.00  0.00    -0.380 A  
HETATM   30  N   UNL     1     -12.086  14.224  65.322  1.00  0.00    -0.388 NA 
HETATM   31  C   UNL     1     -11.731  12.258  63.855  1.00  0.00    -0.451 C  
HETATM   32  C   UNL     1     -11.981  14.821  66.523  1.00  0.00    -0.179 A  
HETATM   33  F   UNL     1     -10.963  12.901  62.927  1.00  0.00    -0.190 F  
HETATM   34  F   UNL     1     -11.277  10.968  63.864  1.00  0.00    -0.419 F  
HETATM   35  F   UNL     1     -12.987  12.194  63.325  1.00  0.00    -0.601 F  
HETATM   36  C   UNL     1     -11.488  14.191  67.650  1.00  0.00    -0.364 A  
ENDBRANCH  25  27
ENDBRANCH  14  25
ENDBRANCH   7   9
ENDBRANCH   5   7
TORSDOF 5
ENDMDL
MODEL      185
REMARK 921   NORMALIZED FREE ENERGY PREDICTED BY IDOCK:   -5.72 KCAL/MOL
REMARK 922        TOTAL FREE ENERGY PREDICTED BY IDOCK:   -8.55 KCAL/MOL
REMARK 923 INTER-LIGAND FREE ENERGY PREDICTED BY IDOCK:   -7.34 KCAL/MOL
REMARK 924 INTRA-LIGAND FREE ENERGY PREDICTED BY IDOCK:   -1.21 KCAL/MOL
REMARK 927      BINDING AFFINITY PREDICTED BY RF-SCORE:    0.00 PKD
ROOT
HETATM    1  C   UNL     1     -10.476  15.972  67.618  1.00  0.00    -0.292 C  
HETATM    2  C   UNL     1      -9.492  14.812  67.441  1.00  0.00    -0.207 C  
HETATM    3  C   UNL     1      -8.138  15.346  66.961  1.00  0.00    -0.265 C  
HETATM    4  O   UNL     1      -9.292  14.189  68.720  1.00  0.00    -0.305 OA 
HETATM    5  C   UNL     1     -10.092  13.760  66.470  1.00  0.00    -0.286 C  
HETATM    6  H   UNL     1      -8.682  13.469  68.610  1.00  0.00     0.000 HD 
ENDROOT
BRANCH   5   7
HETATM    7  N   UNL     1      -9.116  12.717  66.190  1.00  0.00    -0.438 NA 
HETATM    8  H   UNL     1      -8.377  12.861  65.500  1.00  0.00     0.000 HD 
BRANCH   7   9
HETATM    9  C   UNL     1      -9.216  11.527  66.882  1.00  0.00    -0.176 A  
HETATM   10  N   UNL     1     -10.084  11.391  67.872  1.00  0.00    -0.179 NA 
HETATM   11  C   UNL     1     -10.088  10.205  68.480  1.00  0.00    -0.169 A  
HETATM   12  N   UNL     1      -8.416  10.556  66.459  1.00  0.00    -0.136 NA 
HETATM   13  N   UNL     1      -9.308   9.182  68.128  1.00  0.00    -0.138 NA 
HETATM   14  C   UNL     1      -8.513   9.395  67.088  1.00  0.00    -0.128 A  
BRANCH  11  15
HETATM   15  C   UNL     1     -11.025   9.985  69.615  1.00  0.00    -0.264 A  
HETATM   16  C   UNL     1     -11.921   8.496  71.205  1.00  0.00    -0.294 A  
HETATM   17  F   UNL     1     -13.194   6.537  71.773  1.00  0.00    -0.350 F  
HETATM   18  N   UNL     1     -11.073   8.737  70.163  1.00  0.00    -0.236 NA 
HETATM   19  C   UNL     1     -12.756   9.488  71.720  1.00  0.00    -0.492 A  
HETATM   20  C   UNL     1     -11.957   7.113  71.843  1.00  0.00    -0.307 C  
HETATM   21  C   UNL     1     -11.833  11.013  70.113  1.00  0.00    -0.441 A  
HETATM   22  C   UNL     1     -12.707  10.760  71.167  1.00  0.00    -0.532 A  
HETATM   23  F   UNL     1     -11.097   6.212  71.292  1.00  0.00    -0.295 F  
HETATM   24  F   UNL     1     -11.652   7.150  73.174  1.00  0.00    -0.227 F  
ENDBRANCH  11  15
BRANCH  14  25
HETATM   25  N   UNL     1      -7.783   8.334  66.549  1.00  0.00    -0.091 NA 
HETATM   26  H   UNL     1      -6.834   8.569  66.255  1.00  0.00     0.000 HD 
BRANCH  25  27
HETATM   27  C   UNL     1      -8.151   7.001  66.349  1.00  0.00    -0.112 A  
HETATM   28  C   UNL     1      -8.461   4.760  67.202  1.00  0.00    -0.105 A  
HETATM   29  C   UNL     1      -8.188   6.114  67.428  1.00  0.00    -0.109 A  
HETATM   30  N   UNL     1      -8.728   4.280  65.953  1.00  0.00    -0.113 NA 
HETATM   31  C   UNL     1      -8.422   3.772  68.359  1.00  0.00    -0.091 C  
HETATM   32  C   UNL     1      -8.691   5.150  64.927  1.00  0.00    -0.140 A  
HETATM   33  F   UNL     1      -7.497   2.784  68.187  1.00  0.00    -0.051 F  
HETATM   34  F   UNL     1      -8.108   4.353  69.558  1.00  0.00    -0.060 F  
HETATM   35  F   UNL     1      -9.614   3.140  68.567  1.00  0.00    -0.231 F  
HETATM   36  C   UNL     1      -8.390   6.491  65.073  1.00  0.00    -0.076 A  
ENDBRANCH  25  27
ENDBRANCH  14  25
ENDBRANCH   7   9
ENDBRANCH   5   7
TORSDOF 5
ENDMDL
MODEL      186
REMARK 921   NORMALIZED FREE ENERGY PREDICTED BY IDOCK:   -5.72 KCAL/MOL
REMARK 922        TOTAL FREE ENERGY PREDICTED BY IDOCK:   -8.55 KCAL/MOL
REMARK 923 INTER-LIGAND FREE ENERGY PREDICTED BY IDOCK:   -7.50 KCAL/MOL
REMARK 924 INTRA-LIGAND FREE ENERGY PREDICTED BY IDOCK:   -1.05 KCAL/MOL
REMARK 927      BINDING AFFINITY PREDICTED BY RF-SCORE:    0.00 PKD
ROOT
HETATM    1  C   UNL     1      -5.609  14.399  67.940  1.00  0.00    -0.101 C  
HETATM    2  C   UNL     1      -6.225  13.135  68.549  1.00  0.00    -0.079 C  
HETATM    3  C   UNL     1      -5.214  12.464  69.486  1.00  0.00    -0.072 C  
HETATM    4  O   UNL     1      -7.366  13.520  69.331  1.00  0.00    -0.315 OA 
HETATM    5  C   UNL     1      -6.702  12.187  67.416  1.00  0.00    -0.143 C  
HETATM    6  H   UNL     1      -7.748  12.736  69.709  1.00  0.00     0.000 HD 
ENDROOT
BRANCH   5   7
HETATM    7  N   UNL     1      -7.168  10.927  67.976  1.00  0.00    -0.084 NA 
HETATM    8  H   UNL     1      -6.557  10.110  68.013  1.00  0.00     0.000 HD 
BRANCH   7   9
HETATM    9  C   UNL     1      -8.461  10.866  68.458  1.00  0.00    -0.147 A  
HETATM   10  N   UNL     1      -8.800   9.973  69.374  1.00  0.00    -0.178 NA 
HETATM   11  C   UNL     1     -10.077   9.994  69.759  1.00  0.00    -0.248 A  
HETATM   12  N   UNL     1      -9.294  11.771  67.961  1.00  0.00    -0.178 NA 
HETATM   13  N   UNL     1     -10.981  10.860  69.300  1.00  0.00    -0.227 NA 
HETATM   14  C   UNL     1     -10.533  11.752  68.427  1.00  0.00    -0.215 A  
BRANCH  11  15
HETATM   15  C   UNL     1     -10.535   9.007  70.774  1.00  0.00    -0.243 A  
HETATM   16  C   UNL     1     -10.193   6.935  71.841  1.00  0.00    -0.188 A  
HETATM   17  F   UNL     1     -10.079   4.534  71.791  1.00  0.00    -0.229 F  
HETATM   18  N   UNL     1      -9.803   7.865  70.921  1.00  0.00    -0.178 NA 
HETATM   19  C   UNL     1     -11.331   7.110  72.628  1.00  0.00    -0.306 A  
HETATM   20  C   UNL     1      -9.363   5.672  72.034  1.00  0.00    -0.150 C  
HETATM   21  C   UNL     1     -11.673   9.229  71.556  1.00  0.00    -0.450 A  
HETATM   22  C   UNL     1     -12.076   8.272  72.483  1.00  0.00    -0.400 A  
HETATM   23  F   UNL     1      -8.259   5.592  71.239  1.00  0.00    -0.114 F  
HETATM   24  F   UNL     1      -8.907   5.544  73.315  1.00  0.00    -0.122 F  
ENDBRANCH  11  15
BRANCH  14  25
HETATM   25  N   UNL     1     -11.366  12.795  68.018  1.00  0.00    -0.271 NA 
HETATM   26  H   UNL     1     -12.195  12.507  67.498  1.00  0.00     0.000 HD 
BRANCH  25  27
HETATM   27  C   UNL     1     -11.240  14.174  68.210  1.00  0.00    -0.272 A  
HETATM   28  C   UNL     1     -10.215  16.287  67.636  1.00  0.00    -0.272 A  
HETATM   29  C   UNL     1     -10.411  14.926  67.374  1.00  0.00    -0.255 A  
HETATM   30  N   UNL     1     -10.841  16.916  68.673  1.00  0.00    -0.338 NA 
HETATM   31  C   UNL     1      -9.250  17.096  66.781  1.00  0.00    -0.254 C  
HETATM   32  C   UNL     1     -11.639  16.175  69.464  1.00  0.00    -0.254 A  
HETATM   33  F   UNL     1      -8.224  17.636  67.500  1.00  0.00    -0.207 F  
HETATM   34  F   UNL     1      -8.650  16.360  65.797  1.00  0.00    -0.344 F  
HETATM   35  F   UNL     1      -9.847  18.140  66.136  1.00  0.00    -0.312 F  
HETATM   36  C   UNL     1     -11.846  14.821  69.287  1.00  0.00    -0.352 A  
ENDBRANCH  25  27
ENDBRANCH  14  25
ENDBRANCH   7   9
ENDBRANCH   5   7
TORSDOF 5
ENDMDL
MODEL      187
REMARK 921   NORMALIZED FREE ENERGY PREDICTED BY IDOCK:   -5.72 KCAL/MOL
REMARK 922        TOTAL FREE ENERGY PREDICTED BY IDOCK:   -8.55 KCAL/MOL
REMARK 923 INTER-LIGAND FREE ENERGY PREDICTED BY IDOCK:   -7.49 KCAL/MOL
REMARK 924 INTRA-LIGAND FREE ENERGY PREDICTED BY IDOCK:   -1.06 KCAL/MOL
REMARK 927      BINDING AFFINITY PREDICTED BY RF-SCORE:    0.00 PKD
ROOT
HETATM    1  C   UNL     1     -12.903  12.061  63.210  1.00  0.00    -0.330 C  
HETATM    2  C   UNL     1     -11.647  12.535  63.948  1.00  0.00    -0.442 C  
HETATM    3  C   UNL     1     -10.428  11.741  63.461  1.00  0.00    -0.500 C  
HETATM    4  O   UNL     1     -11.429  13.918  63.629  1.00  0.00    -0.557 OA 
HETATM    5  C   UNL     1     -11.861  12.410  65.480  1.00  0.00    -0.412 C  
HETATM    6  H   UNL     1     -10.650  14.212  64.087  1.00  0.00     0.000 HD 
ENDROOT
BRANCH   5   7
HETATM    7  N   UNL     1     -10.631  12.731  66.189  1.00  0.00    -0.263 NA 
HETATM    8  H   UNL     1     -10.152  13.619  66.034  1.00  0.00     0.000 HD 
BRANCH   7   9
HETATM    9  C   UNL     1     -10.128  11.801  67.078  1.00  0.00    -0.209 A  
HETATM   10  N   UNL     1      -9.078  11.060  66.759  1.00  0.00    -0.159 NA 
HETATM   11  C   UNL     1      -8.684  10.186  67.685  1.00  0.00    -0.121 A  
HETATM   12  N   UNL     1     -10.749  11.743  68.249  1.00  0.00    -0.204 NA 
HETATM   13  N   UNL     1      -9.261  10.053  68.881  1.00  0.00    -0.160 NA 
HETATM   14  C   UNL     1     -10.268  10.879  69.129  1.00  0.00    -0.195 A  
BRANCH  11  15
HETATM   15  C   UNL     1      -7.521   9.305  67.390  1.00  0.00    -0.087 A  
HETATM   16  C   UNL     1      -6.382   7.290  67.825  1.00  0.00    -0.048 A  
HETATM   17  F   UNL     1      -5.156   5.839  69.300  1.00  0.00    -0.003 F  
HETATM   18  N   UNL     1      -7.435   8.124  68.067  1.00  0.00    -0.096 NA 
HETATM   19  C   UNL     1      -5.378   7.617  66.913  1.00  0.00    -0.027 A  
HETATM   20  C   UNL     1      -6.295   5.955  68.553  1.00  0.00    -0.040 C  
HETATM   21  C   UNL     1      -6.545   9.663  66.455  1.00  0.00    -0.071 A  
HETATM   22  C   UNL     1      -5.466   8.816  66.220  1.00  0.00    -0.034 A  
HETATM   23  F   UNL     1      -7.326   5.708  69.409  1.00  0.00    -0.063 F  
HETATM   24  F   UNL     1      -6.269   4.896  67.690  1.00  0.00    -0.032 F  
ENDBRANCH  11  15
BRANCH  14  25
HETATM   25  N   UNL     1     -10.824  10.923  70.409  1.00  0.00    -0.371 NA 
HETATM   26  H   UNL     1     -10.718  11.814  70.895  1.00  0.00     0.000 HD 
BRANCH  25  27
HETATM   27  C   UNL     1     -11.504   9.936  71.128  1.00  0.00    -0.383 A  
HETATM   28  C   UNL     1     -11.561   7.738  72.135  1.00  0.00    -0.317 A  
HETATM   29  C   UNL     1     -10.846   8.762  71.503  1.00  0.00    -0.374 A  
HETATM   30  N   UNL     1     -12.888   7.866  72.430  1.00  0.00    -0.116 NA 
HETATM   31  C   UNL     1     -10.872   6.424  72.473  1.00  0.00    -0.238 C  
HETATM   32  C   UNL     1     -13.503   9.005  72.064  1.00  0.00    -0.442 A  
HETATM   33  F   UNL     1     -11.445   5.348  71.861  1.00  0.00    -0.263 F  
HETATM   34  F   UNL     1      -9.556   6.390  72.100  1.00  0.00    -0.152 F  
HETATM   35  F   UNL     1     -10.875   6.143  73.809  1.00  0.00    -0.256 F  
HETATM   36  C   UNL     1     -12.868  10.039  71.403  1.00  0.00    -0.519 A  
ENDBRANCH  25  27
ENDBRANCH  14  25
ENDBRANCH   7   9
ENDBRANCH   5   7
TORSDOF 5
ENDMDL
MODEL      188
REMARK 921   NORMALIZED FREE ENERGY PREDICTED BY IDOCK:   -5.71 KCAL/MOL
REMARK 922        TOTAL FREE ENERGY PREDICTED BY IDOCK:   -8.54 KCAL/MOL
REMARK 923 INTER-LIGAND FREE ENERGY PREDICTED BY IDOCK:   -8.27 KCAL/MOL
REMARK 924 INTRA-LIGAND FREE ENERGY PREDICTED BY IDOCK:   -0.27 KCAL/MOL
REMARK 927      BINDING AFFINITY PREDICTED BY RF-SCORE:    0.00 PKD
ROOT
HETATM    1  C   UNL     1     -13.109  11.740  63.614  1.00  0.00    -0.077 C  
HETATM    2  C   UNL     1     -11.651  12.210  63.624  1.00  0.00    -0.486 C  
HETATM    3  C   UNL     1     -10.757  11.143  62.981  1.00  0.00     0.037 C  
HETATM    4  O   UNL     1     -11.555  13.403  62.831  1.00  0.00    -0.484 OA 
HETATM    5  C   UNL     1     -11.219  12.547  65.076  1.00  0.00    -0.306 C  
HETATM    6  H   UNL     1     -10.650  13.694  62.837  1.00  0.00     0.000 HD 
ENDROOT
BRANCH   5   7
HETATM    7  N   UNL     1      -9.800  12.868  65.119  1.00  0.00    -0.496 NA 
HETATM    8  H   UNL     1      -9.226  12.820  64.277  1.00  0.00     0.000 HD 
BRANCH   7   9
HETATM    9  C   UNL     1      -9.251  13.240  66.331  1.00  0.00    -0.119 A  
HETATM   10  N   UNL     1      -9.043  14.515  66.616  1.00  0.00    -0.263 NA 
HETATM   11  C   UNL     1      -8.497  14.760  67.808  1.00  0.00    -0.164 A  
HETATM   12  N   UNL     1      -8.993  12.241  67.166  1.00  0.00    -0.185 NA 
HETATM   13  N   UNL     1      -8.194  13.815  68.699  1.00  0.00    -0.120 NA 
HETATM   14  C   UNL     1      -8.493  12.573  68.346  1.00  0.00    -0.125 A  
BRANCH  11  15
HETATM   15  C   UNL     1      -8.216  16.170  68.190  1.00  0.00    -0.157 A  
HETATM   16  C   UNL     1      -8.959  18.404  68.271  1.00  0.00    -0.312 A  
HETATM   17  F   UNL     1      -9.632  20.440  67.185  1.00  0.00    -0.484 F  
HETATM   18  N   UNL     1      -9.181  17.099  67.936  1.00  0.00    -0.238 NA 
HETATM   19  C   UNL     1      -7.763  18.821  68.855  1.00  0.00    -0.298 A  
HETATM   20  C   UNL     1     -10.046  19.442  68.020  1.00  0.00    -0.412 C  
HETATM   21  C   UNL     1      -7.008  16.544  68.790  1.00  0.00    -0.180 A  
HETATM   22  C   UNL     1      -6.779  17.877  69.118  1.00  0.00    -0.239 A  
HETATM   23  F   UNL     1     -11.188  18.945  67.467  1.00  0.00    -0.465 F  
HETATM   24  F   UNL     1     -10.435  20.071  69.169  1.00  0.00    -0.495 F  
ENDBRANCH  11  15
BRANCH  14  25
HETATM   25  N   UNL     1      -8.362  11.540  69.276  1.00  0.00    -0.353 NA 
HETATM   26  H   UNL     1      -7.623  11.673  69.966  1.00  0.00     0.000 HD 
BRANCH  25  27
HETATM   27  C   UNL     1      -9.088  10.353  69.409  1.00  0.00    -0.152 A  
HETATM   28  C   UNL     1      -9.776   8.452  70.735  1.00  0.00    -0.176 A  
HETATM   29  C   UNL     1      -9.130   9.690  70.638  1.00  0.00    -0.126 A  
HETATM   30  N   UNL     1     -10.402   7.883  69.664  1.00  0.00    -0.212 NA 
HETATM   31  C   UNL     1      -9.756   7.684  72.049  1.00  0.00    -0.166 C  
HETATM   32  C   UNL     1     -10.354   8.539  68.491  1.00  0.00    -0.198 A  
HETATM   33  F   UNL     1      -9.165   6.459  71.942  1.00  0.00    -0.148 F  
HETATM   34  F   UNL     1      -9.070   8.327  73.043  1.00  0.00    -0.265 F  
HETATM   35  F   UNL     1     -11.002   7.458  72.559  1.00  0.00    -0.244 F  
HETATM   36  C   UNL     1      -9.701   9.744  68.314  1.00  0.00    -0.160 A  
ENDBRANCH  25  27
ENDBRANCH  14  25
ENDBRANCH   7   9
ENDBRANCH   5   7
TORSDOF 5
ENDMDL
MODEL      189
REMARK 921   NORMALIZED FREE ENERGY PREDICTED BY IDOCK:   -5.70 KCAL/MOL
REMARK 922        TOTAL FREE ENERGY PREDICTED BY IDOCK:   -8.52 KCAL/MOL
REMARK 923 INTER-LIGAND FREE ENERGY PREDICTED BY IDOCK:   -7.70 KCAL/MOL
REMARK 924 INTRA-LIGAND FREE ENERGY PREDICTED BY IDOCK:   -0.82 KCAL/MOL
REMARK 927      BINDING AFFINITY PREDICTED BY RF-SCORE:    0.00 PKD
ROOT
HETATM    1  C   UNL     1     -11.997  15.293  64.125  1.00  0.00    -0.145 C  
HETATM    2  C   UNL     1     -11.969  13.789  64.417  1.00  0.00    -0.445 C  
HETATM    3  C   UNL     1     -12.612  13.512  65.781  1.00  0.00    -0.490 C  
HETATM    4  O   UNL     1     -12.750  13.119  63.415  1.00  0.00    -0.697 OA 
HETATM    5  C   UNL     1     -10.509  13.267  64.333  1.00  0.00    -0.404 C  
HETATM    6  H   UNL     1     -12.732  12.186  63.596  1.00  0.00     0.000 HD 
ENDROOT
BRANCH   5   7
HETATM    7  N   UNL     1     -10.450  11.870  64.736  1.00  0.00    -0.275 NA 
HETATM    8  H   UNL     1     -10.754  11.128  64.105  1.00  0.00     0.000 HD 
BRANCH   7   9
HETATM    9  C   UNL     1      -9.971  11.574  65.998  1.00  0.00    -0.224 A  
HETATM   10  N   UNL     1      -9.042  12.330  66.562  1.00  0.00    -0.208 NA 
HETATM   11  C   UNL     1      -8.643  11.947  67.775  1.00  0.00    -0.154 A  
HETATM   12  N   UNL     1     -10.529  10.523  66.584  1.00  0.00    -0.242 NA 
HETATM   13  N   UNL     1      -9.141  10.896  68.429  1.00  0.00    -0.157 NA 
HETATM   14  C   UNL     1     -10.107  10.235  67.805  1.00  0.00    -0.180 A  
BRANCH  11  15
HETATM   15  C   UNL     1      -7.587  12.737  68.465  1.00  0.00    -0.120 A  
HETATM   16  C   UNL     1      -6.594  14.839  68.844  1.00  0.00    -0.091 A  
HETATM   17  F   UNL     1      -5.385  16.768  68.070  1.00  0.00    -0.104 F  
HETATM   18  N   UNL     1      -7.549  14.080  68.231  1.00  0.00    -0.124 NA 
HETATM   19  C   UNL     1      -5.642  14.278  69.695  1.00  0.00    -0.096 A  
HETATM   20  C   UNL     1      -6.565  16.345  68.613  1.00  0.00    -0.142 C  
HETATM   21  C   UNL     1      -6.661  12.137  69.325  1.00  0.00    -0.084 A  
HETATM   22  C   UNL     1      -5.680  12.912  69.938  1.00  0.00    -0.122 A  
HETATM   23  F   UNL     1      -7.542  16.810  67.785  1.00  0.00    -0.155 F  
HETATM   24  F   UNL     1      -6.699  17.049  69.776  1.00  0.00    -0.235 F  
ENDBRANCH  11  15
BRANCH  14  25
HETATM   25  N   UNL     1     -10.797   9.225  68.478  1.00  0.00    -0.426 NA 
HETATM   26  H   UNL     1     -11.799   9.187  68.289  1.00  0.00     0.000 HD 
BRANCH  25  27
HETATM   27  C   UNL     1     -10.328   8.258  69.371  1.00  0.00    -0.222 A  
HETATM   28  C   UNL     1     -10.379   7.216  71.553  1.00  0.00    -0.202 A  
HETATM   29  C   UNL     1     -10.920   8.119  70.629  1.00  0.00    -0.255 A  
HETATM   30  N   UNL     1      -9.303   6.435  71.247  1.00  0.00    -0.156 NA 
HETATM   31  C   UNL     1     -10.966   7.116  72.953  1.00  0.00    -0.320 C  
HETATM   32  C   UNL     1      -8.749   6.581  70.029  1.00  0.00    -0.140 A  
HETATM   33  F   UNL     1     -10.063   7.413  73.932  1.00  0.00    -0.333 F  
HETATM   34  F   UNL     1     -12.015   7.969  73.164  1.00  0.00    -0.357 F  
HETATM   35  F   UNL     1     -11.447   5.874  73.248  1.00  0.00    -0.249 F  
HETATM   36  C   UNL     1      -9.207   7.480  69.084  1.00  0.00    -0.144 A  
ENDBRANCH  25  27
ENDBRANCH  14  25
ENDBRANCH   7   9
ENDBRANCH   5   7
TORSDOF 5
ENDMDL
MODEL      190
REMARK 921   NORMALIZED FREE ENERGY PREDICTED BY IDOCK:   -5.69 KCAL/MOL
REMARK 922        TOTAL FREE ENERGY PREDICTED BY IDOCK:   -8.52 KCAL/MOL
REMARK 923 INTER-LIGAND FREE ENERGY PREDICTED BY IDOCK:   -7.35 KCAL/MOL
REMARK 924 INTRA-LIGAND FREE ENERGY PREDICTED BY IDOCK:   -1.17 KCAL/MOL
REMARK 927      BINDING AFFINITY PREDICTED BY RF-SCORE:    0.00 PKD
ROOT
HETATM    1  C   UNL     1      -9.213   5.297  66.542  1.00  0.00    -0.139 C  
HETATM    2  C   UNL     1      -8.756   6.703  66.142  1.00  0.00    -0.148 C  
HETATM    3  C   UNL     1      -8.110   6.665  64.752  1.00  0.00    -0.099 C  
HETATM    4  O   UNL     1      -9.914   7.550  66.068  1.00  0.00    -0.429 OA 
HETATM    5  C   UNL     1      -7.799   7.271  67.224  1.00  0.00    -0.111 C  
HETATM    6  H   UNL     1      -9.630   8.423  65.820  1.00  0.00     0.000 HD 
ENDROOT
BRANCH   5   7
HETATM    7  N   UNL     1      -7.255   8.551  66.795  1.00  0.00    -0.074 NA 
HETATM    8  H   UNL     1      -6.450   8.595  66.169  1.00  0.00     0.000 HD 
BRANCH   7   9
HETATM    9  C   UNL     1      -7.857   9.704  67.258  1.00  0.00    -0.095 A  
HETATM   10  N   UNL     1      -8.873   9.644  68.104  1.00  0.00    -0.120 NA 
HETATM   11  C   UNL     1      -9.387  10.816  68.477  1.00  0.00    -0.174 A  
HETATM   12  N   UNL     1      -7.323  10.837  66.820  1.00  0.00    -0.122 NA 
HETATM   13  N   UNL     1      -8.920  11.999  68.073  1.00  0.00    -0.181 NA 
HETATM   14  C   UNL     1      -7.864  11.958  67.272  1.00  0.00    -0.168 A  
BRANCH  11  15
HETATM   15  C   UNL     1     -10.544  10.826  69.413  1.00  0.00    -0.221 A  
HETATM   16  C   UNL     1     -11.937   9.619  70.879  1.00  0.00    -0.309 A  
HETATM   17  F   UNL     1     -13.571   7.906  71.299  1.00  0.00    -0.343 F  
HETATM   18  N   UNL     1     -10.880   9.650  70.015  1.00  0.00    -0.248 NA 
HETATM   19  C   UNL     1     -12.696  10.756  71.154  1.00  0.00    -0.532 A  
HETATM   20  C   UNL     1     -12.298   8.316  71.580  1.00  0.00    -0.315 C  
HETATM   21  C   UNL     1     -11.269  11.993  69.674  1.00  0.00    -0.168 A  
HETATM   22  C   UNL     1     -12.354  11.955  70.545  1.00  0.00    -0.372 A  
HETATM   23  F   UNL     1     -11.493   7.262  71.269  1.00  0.00    -0.265 F  
HETATM   24  F   UNL     1     -12.249   8.430  72.941  1.00  0.00    -0.446 F  
ENDBRANCH  11  15
BRANCH  14  25
HETATM   25  N   UNL     1      -7.210  13.144  66.931  1.00  0.00    -0.327 NA 
HETATM   26  H   UNL     1      -6.735  13.131  66.028  1.00  0.00     0.000 HD 
BRANCH  25  27
HETATM   27  C   UNL     1      -7.105  14.346  67.636  1.00  0.00    -0.183 A  
HETATM   28  C   UNL     1      -7.461  16.734  67.775  1.00  0.00    -0.163 A  
HETATM   29  C   UNL     1      -7.657  15.517  67.111  1.00  0.00    -0.253 A  
HETATM   30  N   UNL     1      -6.771  16.806  68.950  1.00  0.00    -0.183 NA 
HETATM   31  C   UNL     1      -7.988  18.026  67.169  1.00  0.00    -0.212 C  
HETATM   32  C   UNL     1      -6.251  15.667  69.442  1.00  0.00    -0.136 A  
HETATM   33  F   UNL     1      -7.003  18.934  66.909  1.00  0.00    -0.195 F  
HETATM   34  F   UNL     1      -8.629  17.843  65.974  1.00  0.00    -0.247 F  
HETATM   35  F   UNL     1      -8.890  18.668  67.967  1.00  0.00    -0.287 F  
HETATM   36  C   UNL     1      -6.372  14.440  68.819  1.00  0.00    -0.086 A  
ENDBRANCH  25  27
ENDBRANCH  14  25
ENDBRANCH   7   9
ENDBRANCH   5   7
TORSDOF 5
ENDMDL
MODEL      191
REMARK 921   NORMALIZED FREE ENERGY PREDICTED BY IDOCK:   -5.66 KCAL/MOL
REMARK 922        TOTAL FREE ENERGY PREDICTED BY IDOCK:   -8.48 KCAL/MOL
REMARK 923 INTER-LIGAND FREE ENERGY PREDICTED BY IDOCK:   -7.45 KCAL/MOL
REMARK 924 INTRA-LIGAND FREE ENERGY PREDICTED BY IDOCK:   -1.03 KCAL/MOL
REMARK 927      BINDING AFFINITY PREDICTED BY RF-SCORE:    0.00 PKD
ROOT
HETATM    1  C   UNL     1      -5.557  12.007  69.811  1.00  0.00    -0.099 C  
HETATM    2  C   UNL     1      -6.272  10.744  69.321  1.00  0.00    -0.052 C  
HETATM    3  C   UNL     1      -5.302   9.557  69.340  1.00  0.00    -0.035 C  
HETATM    4  O   UNL     1      -7.347  10.451  70.228  1.00  0.00    -0.338 OA 
HETATM    5  C   UNL     1      -6.872  10.996  67.912  1.00  0.00    -0.068 C  
HETATM    6  H   UNL     1      -7.790   9.668  69.923  1.00  0.00     0.000 HD 
ENDROOT
BRANCH   5   7
HETATM    7  N   UNL     1      -7.440   9.766  67.378  1.00  0.00    -0.091 NA 
HETATM    8  H   UNL     1      -7.023   9.303  66.570  1.00  0.00     0.000 HD 
BRANCH   7   9
HETATM    9  C   UNL     1      -8.559   9.243  67.995  1.00  0.00    -0.121 A  
HETATM   10  N   UNL     1      -8.508   8.070  68.606  1.00  0.00    -0.127 NA 
HETATM   11  C   UNL     1      -9.649   7.654  69.158  1.00  0.00    -0.155 A  
HETATM   12  N   UNL     1      -9.641  10.009  67.950  1.00  0.00    -0.144 NA 
HETATM   13  N   UNL     1     -10.783   8.355  69.145  1.00  0.00    -0.161 NA 
HETATM   14  C   UNL     1     -10.720   9.543  68.559  1.00  0.00    -0.182 A  
BRANCH  11  15
HETATM   15  C   UNL     1      -9.672   6.335  69.847  1.00  0.00    -0.166 A  
HETATM   16  C   UNL     1      -9.382   4.002  69.703  1.00  0.00    -0.173 A  
HETATM   17  F   UNL     1     -10.025   1.849  68.849  1.00  0.00    -0.143 F  
HETATM   18  N   UNL     1      -9.370   5.230  69.107  1.00  0.00    -0.117 NA 
HETATM   19  C   UNL     1      -9.711   3.841  71.049  1.00  0.00    -0.248 A  
HETATM   20  C   UNL     1      -9.014   2.767  68.891  1.00  0.00    -0.124 C  
HETATM   21  C   UNL     1      -9.991   6.219  71.204  1.00  0.00    -0.210 A  
HETATM   22  C   UNL     1     -10.016   4.964  71.806  1.00  0.00    -0.252 A  
HETATM   23  F   UNL     1      -8.687   3.018  67.593  1.00  0.00    -0.097 F  
HETATM   24  F   UNL     1      -7.945   2.101  69.420  1.00  0.00    -0.046 F  
ENDBRANCH  11  15
BRANCH  14  25
HETATM   25  N   UNL     1     -11.811  10.411  68.640  1.00  0.00    -0.707 NA 
HETATM   26  H   UNL     1     -12.385  10.462  67.799  1.00  0.00     0.000 HD 
BRANCH  25  27
HETATM   27  C   UNL     1     -12.237  11.221  69.697  1.00  0.00    -0.271 A  
HETATM   28  C   UNL     1     -12.385  13.395  70.747  1.00  0.00    -0.354 A  
HETATM   29  C   UNL     1     -12.045  12.604  69.642  1.00  0.00    -0.277 A  
HETATM   30  N   UNL     1     -12.935  12.855  71.873  1.00  0.00    -0.331 NA 
HETATM   31  C   UNL     1     -12.103  14.890  70.728  1.00  0.00    -0.317 C  
HETATM   32  C   UNL     1     -13.116  11.522  71.905  1.00  0.00    -0.387 A  
HETATM   33  F   UNL     1     -11.258  15.286  71.723  1.00  0.00    -0.427 F  
HETATM   34  F   UNL     1     -11.517  15.317  69.568  1.00  0.00    -0.238 F  
HETATM   35  F   UNL     1     -13.228  15.651  70.864  1.00  0.00    -0.497 F  
HETATM   36  C   UNL     1     -12.767  10.678  70.867  1.00  0.00    -0.498 A  
ENDBRANCH  25  27
ENDBRANCH  14  25
ENDBRANCH   7   9
ENDBRANCH   5   7
TORSDOF 5
ENDMDL
MODEL      192
REMARK 921   NORMALIZED FREE ENERGY PREDICTED BY IDOCK:   -5.64 KCAL/MOL
REMARK 922        TOTAL FREE ENERGY PREDICTED BY IDOCK:   -8.45 KCAL/MOL
REMARK 923 INTER-LIGAND FREE ENERGY PREDICTED BY IDOCK:   -7.85 KCAL/MOL
REMARK 924 INTRA-LIGAND FREE ENERGY PREDICTED BY IDOCK:   -0.60 KCAL/MOL
REMARK 927      BINDING AFFINITY PREDICTED BY RF-SCORE:    0.00 PKD
ROOT
HETATM    1  C   UNL     1     -13.185  11.958  62.850  1.00  0.00     0.826 C  
HETATM    2  C   UNL     1     -12.310  12.889  63.696  1.00  0.00    -0.434 C  
HETATM    3  C   UNL     1     -10.841  12.466  63.583  1.00  0.00    -0.509 C  
HETATM    4  O   UNL     1     -12.428  14.221  63.171  1.00  0.00    -1.102 OA 
HETATM    5  C   UNL     1     -12.814  12.892  65.164  1.00  0.00    -0.222 C  
HETATM    6  H   UNL     1     -11.885  14.798  63.696  1.00  0.00     0.000 HD 
ENDROOT
BRANCH   5   7
HETATM    7  N   UNL     1     -11.915  13.668  66.005  1.00  0.00    -0.388 NA 
HETATM    8  H   UNL     1     -11.882  14.685  65.939  1.00  0.00     0.000 HD 
BRANCH   7   9
HETATM    9  C   UNL     1     -11.106  12.989  66.896  1.00  0.00    -0.277 A  
HETATM   10  N   UNL     1      -9.847  12.716  66.593  1.00  0.00    -0.238 NA 
HETATM   11  C   UNL     1      -9.161  12.046  67.520  1.00  0.00    -0.180 A  
HETATM   12  N   UNL     1     -11.676  12.676  68.052  1.00  0.00    -0.341 NA 
HETATM   13  N   UNL     1      -9.661  11.682  68.702  1.00  0.00    -0.177 NA 
HETATM   14  C   UNL     1     -10.914  12.050  68.935  1.00  0.00    -0.232 A  
BRANCH  11  15
HETATM   15  C   UNL     1      -7.744  11.688  67.242  1.00  0.00    -0.154 A  
HETATM   16  C   UNL     1      -6.221  10.194  66.243  1.00  0.00    -0.078 A  
HETATM   17  F   UNL     1      -5.203   8.022  66.076  1.00  0.00    -0.024 F  
HETATM   18  N   UNL     1      -7.508  10.557  66.517  1.00  0.00    -0.121 NA 
HETATM   19  C   UNL     1      -5.133  10.940  66.697  1.00  0.00    -0.072 A  
HETATM   20  C   UNL     1      -5.950   8.950  65.407  1.00  0.00    -0.052 C  
HETATM   21  C   UNL     1      -6.682  12.474  67.702  1.00  0.00    -0.136 A  
HETATM   22  C   UNL     1      -5.370  12.094  67.432  1.00  0.00    -0.119 A  
HETATM   23  F   UNL     1      -7.069   8.294  64.989  1.00  0.00    -0.069 F  
HETATM   24  F   UNL     1      -5.242   9.233  64.273  1.00  0.00    -0.054 F  
ENDBRANCH  11  15
BRANCH  14  25
HETATM   25  N   UNL     1     -11.465  11.855  70.203  1.00  0.00    -0.521 NA 
HETATM   26  H   UNL     1     -11.609  12.706  70.747  1.00  0.00     0.000 HD 
BRANCH  25  27
HETATM   27  C   UNL     1     -11.850  10.674  70.843  1.00  0.00    -0.331 A  
HETATM   28  C   UNL     1     -11.432   8.358  71.403  1.00  0.00    -0.277 A  
HETATM   29  C   UNL     1     -10.997   9.567  70.846  1.00  0.00    -0.407 A  
HETATM   30  N   UNL     1     -12.662   8.236  71.980  1.00  0.00    -0.334 NA 
HETATM   31  C   UNL     1     -10.542   7.126  71.337  1.00  0.00    -0.216 C  
HETATM   32  C   UNL     1     -13.467   9.314  71.972  1.00  0.00    -0.451 A  
HETATM   33  F   UNL     1     -11.115   6.089  70.659  1.00  0.00    -0.320 F  
HETATM   34  F   UNL     1      -9.350   7.351  70.704  1.00  0.00    -0.158 F  
HETATM   35  F   UNL     1     -10.210   6.634  72.566  1.00  0.00    -0.177 F  
HETATM   36  C   UNL     1     -13.118  10.525  71.405  1.00  0.00    -0.509 A  
ENDBRANCH  25  27
ENDBRANCH  14  25
ENDBRANCH   7   9
ENDBRANCH   5   7
TORSDOF 5
ENDMDL
MODEL      193
REMARK 921   NORMALIZED FREE ENERGY PREDICTED BY IDOCK:   -5.63 KCAL/MOL
REMARK 922        TOTAL FREE ENERGY PREDICTED BY IDOCK:   -8.44 KCAL/MOL
REMARK 923 INTER-LIGAND FREE ENERGY PREDICTED BY IDOCK:   -7.91 KCAL/MOL
REMARK 924 INTRA-LIGAND FREE ENERGY PREDICTED BY IDOCK:   -0.53 KCAL/MOL
REMARK 927      BINDING AFFINITY PREDICTED BY RF-SCORE:    0.00 PKD
ROOT
HETATM    1  C   UNL     1     -12.673  11.991  63.418  1.00  0.00    -0.527 C  
HETATM    2  C   UNL     1     -11.518  12.121  64.416  1.00  0.00    -0.350 C  
HETATM    3  C   UNL     1     -10.708  13.387  64.112  1.00  0.00    -0.286 C  
HETATM    4  O   UNL     1     -12.072  12.256  65.734  1.00  0.00    -0.587 OA 
HETATM    5  C   UNL     1     -10.646  10.837  64.377  1.00  0.00    -0.176 C  
HETATM    6  H   UNL     1     -11.355  12.337  66.353  1.00  0.00     0.000 HD 
ENDROOT
BRANCH   5   7
HETATM    7  N   UNL     1      -9.472  10.999  65.223  1.00  0.00    -0.215 NA 
HETATM    8  H   UNL     1      -8.532  10.911  64.837  1.00  0.00     0.000 HD 
BRANCH   7   9
HETATM    9  C   UNL     1      -9.666  11.275  66.562  1.00  0.00    -0.202 A  
HETATM   10  N   UNL     1     -10.121  10.345  67.385  1.00  0.00    -0.187 NA 
HETATM   11  C   UNL     1     -10.283  10.722  68.654  1.00  0.00    -0.185 A  
HETATM   12  N   UNL     1      -9.335  12.503  66.941  1.00  0.00    -0.213 NA 
HETATM   13  N   UNL     1      -9.988  11.939  69.114  1.00  0.00     0.112 NA 
HETATM   14  C   UNL     1      -9.484  12.785  68.226  1.00  0.00    -0.203 A  
BRANCH  11  15
HETATM   15  C   UNL     1     -10.809   9.734  69.634  1.00  0.00    -0.250 A  
HETATM   16  C   UNL     1     -10.762   7.532  70.471  1.00  0.00    -0.235 A  
HETATM   17  F   UNL     1     -11.126   5.171  70.207  1.00  0.00    -0.244 F  
HETATM   18  N   UNL     1     -10.303   8.468  69.589  1.00  0.00    -0.214 NA 
HETATM   19  C   UNL     1     -11.748   7.829  71.411  1.00  0.00    -0.310 A  
HETATM   20  C   UNL     1     -10.179   6.125  70.448  1.00  0.00    -0.203 C  
HETATM   21  C   UNL     1     -11.787  10.077  70.573  1.00  0.00    -0.387 A  
HETATM   22  C   UNL     1     -12.263   9.117  71.462  1.00  0.00    -0.422 A  
HETATM   23  F   UNL     1      -9.208   5.929  69.513  1.00  0.00    -0.130 F  
HETATM   24  F   UNL     1      -9.616   5.780  71.644  1.00  0.00    -0.160 F  
ENDBRANCH  11  15
BRANCH  14  25
HETATM   25  N   UNL     1      -8.997  14.022  68.651  1.00  0.00    -0.318 NA 
HETATM   26  H   UNL     1      -7.980  14.094  68.694  1.00  0.00     0.000 HD 
BRANCH  25  27
HETATM   27  C   UNL     1      -9.687  15.178  69.026  1.00  0.00    -0.234 A  
HETATM   28  C   UNL     1     -10.215  17.512  68.677  1.00  0.00    -0.373 A  
HETATM   29  C   UNL     1      -9.602  16.331  68.241  1.00  0.00    -0.218 A  
HETATM   30  N   UNL     1     -10.930  17.563  69.838  1.00  0.00     0.702 NA 
HETATM   31  C   UNL     1     -10.059  18.793  67.870  1.00  0.00    -0.366 C  
HETATM   32  C   UNL     1     -11.003  16.442  70.577  1.00  0.00    -0.150 A  
HETATM   33  F   UNL     1      -9.461  19.797  68.574  1.00  0.00    -0.389 F  
HETATM   34  F   UNL     1      -9.294  18.638  66.747  1.00  0.00    -0.272 F  
HETATM   35  F   UNL     1     -11.247  19.300  67.429  1.00  0.00    -0.553 F  
HETATM   36  C   UNL     1     -10.390  15.254  70.228  1.00  0.00    -0.162 A  
ENDBRANCH  25  27
ENDBRANCH  14  25
ENDBRANCH   7   9
ENDBRANCH   5   7
TORSDOF 5
ENDMDL
MODEL      194
REMARK 921   NORMALIZED FREE ENERGY PREDICTED BY IDOCK:   -5.63 KCAL/MOL
REMARK 922        TOTAL FREE ENERGY PREDICTED BY IDOCK:   -8.44 KCAL/MOL
REMARK 923 INTER-LIGAND FREE ENERGY PREDICTED BY IDOCK:   -7.35 KCAL/MOL
REMARK 924 INTRA-LIGAND FREE ENERGY PREDICTED BY IDOCK:   -1.09 KCAL/MOL
REMARK 927      BINDING AFFINITY PREDICTED BY RF-SCORE:    0.00 PKD
ROOT
HETATM    1  C   UNL     1      -5.499  12.151  69.729  1.00  0.00    -0.090 C  
HETATM    2  C   UNL     1      -6.139  11.348  68.593  1.00  0.00    -0.043 C  
HETATM    3  C   UNL     1      -5.150  10.297  68.076  1.00  0.00    -0.034 C  
HETATM    4  O   UNL     1      -7.285  10.657  69.116  1.00  0.00    -0.080 OA 
HETATM    5  C   UNL     1      -6.616  12.313  67.474  1.00  0.00    -0.141 C  
HETATM    6  H   UNL     1      -7.682  10.159  68.411  1.00  0.00     0.000 HD 
ENDROOT
BRANCH   5   7
HETATM    7  N   UNL     1      -7.107  11.558  66.331  1.00  0.00    -0.363 NA 
HETATM    8  H   UNL     1      -6.589  11.540  65.452  1.00  0.00     0.000 HD 
BRANCH   7   9
HETATM    9  C   UNL     1      -8.294  10.865  66.468  1.00  0.00    -0.155 A  
HETATM   10  N   UNL     1      -8.324   9.547  66.356  1.00  0.00    -0.118 NA 
HETATM   11  C   UNL     1      -9.524   8.981  66.494  1.00  0.00    -0.206 A  
HETATM   12  N   UNL     1      -9.356  11.610  66.745  1.00  0.00    -0.181 NA 
HETATM   13  N   UNL     1     -10.642   9.657  66.758  1.00  0.00    -0.180 NA 
HETATM   14  C   UNL     1     -10.502  10.967  66.910  1.00  0.00    -0.246 A  
BRANCH  11  15
HETATM   15  C   UNL     1      -9.638   7.503  66.361  1.00  0.00    -0.125 A  
HETATM   16  C   UNL     1      -8.806   5.512  65.417  1.00  0.00    -0.127 A  
HETATM   17  F   UNL     1      -8.350   4.113  63.516  1.00  0.00    -0.086 F  
HETATM   18  N   UNL     1      -8.732   6.867  65.564  1.00  0.00    -0.083 NA 
HETATM   19  C   UNL     1      -9.793   4.756  66.047  1.00  0.00    -0.229 A  
HETATM   20  C   UNL     1      -7.778   4.791  64.554  1.00  0.00    -0.082 C  
HETATM   21  C   UNL     1     -10.634   6.779  67.026  1.00  0.00    -0.405 A  
HETATM   22  C   UNL     1     -10.715   5.399  66.862  1.00  0.00    -0.264 A  
HETATM   23  F   UNL     1      -6.839   5.604  63.993  1.00  0.00    -0.043 F  
HETATM   24  F   UNL     1      -7.080   3.851  65.258  1.00  0.00    -0.057 F  
ENDBRANCH  11  15
BRANCH  14  25
HETATM   25  N   UNL     1     -11.585  11.731  67.347  1.00  0.00    -0.521 NA 
HETATM   26  H   UNL     1     -12.171  12.114  66.605  1.00  0.00     0.000 HD 
BRANCH  25  27
HETATM   27  C   UNL     1     -11.991  12.053  68.645  1.00  0.00    -0.235 A  
HETATM   28  C   UNL     1     -12.386  13.698  70.373  1.00  0.00    -0.345 A  
HETATM   29  C   UNL     1     -12.074  13.389  69.044  1.00  0.00    -0.299 A  
HETATM   30  N   UNL     1     -12.648  12.725  71.293  1.00  0.00    -0.319 NA 
HETATM   31  C   UNL     1     -12.398  15.148  70.836  1.00  0.00    -0.354 C  
HETATM   32  C   UNL     1     -12.567  11.444  70.889  1.00  0.00    -0.356 A  
HETATM   33  F   UNL     1     -11.502  15.396  71.834  1.00  0.00    -0.394 F  
HETATM   34  F   UNL     1     -12.085  16.036  69.844  1.00  0.00    -0.327 F  
HETATM   35  F   UNL     1     -13.612  15.551  71.310  1.00  0.00    -0.489 F  
HETATM   36  C   UNL     1     -12.227  11.067  69.604  1.00  0.00    -0.370 A  
ENDBRANCH  25  27
ENDBRANCH  14  25
ENDBRANCH   7   9
ENDBRANCH   5   7
TORSDOF 5
ENDMDL
MODEL      195
REMARK 921   NORMALIZED FREE ENERGY PREDICTED BY IDOCK:   -5.63 KCAL/MOL
REMARK 922        TOTAL FREE ENERGY PREDICTED BY IDOCK:   -8.44 KCAL/MOL
REMARK 923 INTER-LIGAND FREE ENERGY PREDICTED BY IDOCK:   -7.69 KCAL/MOL
REMARK 924 INTRA-LIGAND FREE ENERGY PREDICTED BY IDOCK:   -0.75 KCAL/MOL
REMARK 927      BINDING AFFINITY PREDICTED BY RF-SCORE:    0.00 PKD
ROOT
HETATM    1  C   UNL     1      -6.234   5.787  66.574  1.00  0.00    -0.034 C  
HETATM    2  C   UNL     1      -7.570   6.535  66.548  1.00  0.00    -0.090 C  
HETATM    3  C   UNL     1      -8.047   6.696  65.100  1.00  0.00    -0.133 C  
HETATM    4  O   UNL     1      -8.544   5.745  67.249  1.00  0.00    -0.111 OA 
HETATM    5  C   UNL     1      -7.422   7.896  67.279  1.00  0.00    -0.093 C  
HETATM    6  H   UNL     1      -9.373   6.209  67.233  1.00  0.00     0.000 HD 
ENDROOT
BRANCH   5   7
HETATM    7  N   UNL     1      -8.646   8.674  67.148  1.00  0.00    -0.120 NA 
HETATM    8  H   UNL     1      -8.947   9.030  66.240  1.00  0.00     0.000 HD 
BRANCH   7   9
HETATM    9  C   UNL     1      -9.389   8.917  68.287  1.00  0.00    -0.143 A  
HETATM   10  N   UNL     1      -9.399   8.049  69.286  1.00  0.00    -0.152 NA 
HETATM   11  C   UNL     1     -10.160   8.377  70.330  1.00  0.00    -0.187 A  
HETATM   12  N   UNL     1     -10.043  10.071  68.301  1.00  0.00    -0.153 NA 
HETATM   13  N   UNL     1     -10.859   9.509  70.419  1.00  0.00    -0.258 NA 
HETATM   14  C   UNL     1     -10.740  10.341  69.393  1.00  0.00    -0.241 A  
BRANCH  11  15
HETATM   15  C   UNL     1     -10.234   7.440  71.484  1.00  0.00    -0.192 A  
HETATM   16  C   UNL     1     -10.071   5.226  72.273  1.00  0.00    -0.189 A  
HETATM   17  F   UNL     1     -10.848   2.952  72.341  1.00  0.00    -0.148 F  
HETATM   18  N   UNL     1     -10.009   6.117  71.240  1.00  0.00    -0.180 NA 
HETATM   19  C   UNL     1     -10.373   5.628  73.574  1.00  0.00    -0.254 A  
HETATM   20  C   UNL     1      -9.789   3.752  72.014  1.00  0.00    -0.173 C  
HETATM   21  C   UNL     1     -10.523   7.887  72.778  1.00  0.00    -0.412 A  
HETATM   22  C   UNL     1     -10.599   6.974  73.827  1.00  0.00    -0.325 A  
HETATM   23  F   UNL     1      -9.483   3.451  70.721  1.00  0.00    -0.188 F  
HETATM   24  F   UNL     1      -8.743   3.287  72.759  1.00  0.00    -0.081 F  
ENDBRANCH  11  15
BRANCH  14  25
HETATM   25  N   UNL     1     -11.304  11.616  69.471  1.00  0.00    -0.347 NA 
HETATM   26  H   UNL     1     -11.156  12.204  68.650  1.00  0.00     0.000 HD 
BRANCH  25  27
HETATM   27  C   UNL     1     -12.039  12.212  70.499  1.00  0.00    -0.293 A  
HETATM   28  C   UNL     1     -12.589  14.154  71.832  1.00  0.00    -0.286 A  
HETATM   29  C   UNL     1     -11.925  13.584  70.739  1.00  0.00    -0.255 A  
HETATM   30  N   UNL     1     -13.379  13.409  72.658  1.00  0.00    -0.522 NA 
HETATM   31  C   UNL     1     -12.405  15.630  72.150  1.00  0.00    -0.430 C  
HETATM   32  C   UNL     1     -13.480  12.091  72.408  1.00  0.00     0.060 A  
HETATM   33  F   UNL     1     -11.874  15.847  73.388  1.00  0.00    -0.504 F  
HETATM   34  F   UNL     1     -11.563  16.271  71.282  1.00  0.00    -0.413 F  
HETATM   35  F   UNL     1     -13.570  16.339  72.111  1.00  0.00    -0.339 F  
HETATM   36  C   UNL     1     -12.822  11.457  71.372  1.00  0.00    -0.502 A  
ENDBRANCH  25  27
ENDBRANCH  14  25
ENDBRANCH   7   9
ENDBRANCH   5   7
TORSDOF 5
ENDMDL
MODEL      196
REMARK 921   NORMALIZED FREE ENERGY PREDICTED BY IDOCK:   -5.61 KCAL/MOL
REMARK 922        TOTAL FREE ENERGY PREDICTED BY IDOCK:   -8.41 KCAL/MOL
REMARK 923 INTER-LIGAND FREE ENERGY PREDICTED BY IDOCK:   -7.66 KCAL/MOL
REMARK 924 INTRA-LIGAND FREE ENERGY PREDICTED BY IDOCK:   -0.75 KCAL/MOL
REMARK 927      BINDING AFFINITY PREDICTED BY RF-SCORE:    0.00 PKD
ROOT
HETATM    1  C   UNL     1     -10.129   5.104  68.222  1.00  0.00    -0.199 C  
HETATM    2  C   UNL     1     -10.275   6.170  67.133  1.00  0.00    -0.199 C  
HETATM    3  C   UNL     1      -8.954   6.320  66.370  1.00  0.00    -0.159 C  
HETATM    4  O   UNL     1     -11.276   5.731  66.201  1.00  0.00    -0.735 OA 
HETATM    5  C   UNL     1     -10.747   7.506  67.768  1.00  0.00    -0.163 C  
HETATM    6  H   UNL     1     -11.367   6.393  65.525  1.00  0.00     0.000 HD 
ENDROOT
BRANCH   5   7
HETATM    7  N   UNL     1     -10.764   8.562  66.767  1.00  0.00    -0.233 NA 
HETATM    8  H   UNL     1     -11.216   8.422  65.863  1.00  0.00     0.000 HD 
BRANCH   7   9
HETATM    9  C   UNL     1     -10.150   9.762  67.073  1.00  0.00    -0.218 A  
HETATM   10  N   UNL     1     -10.549  10.889  66.505  1.00  0.00    -0.250 NA 
HETATM   11  C   UNL     1      -9.880  11.985  66.863  1.00  0.00    -0.204 A  
HETATM   12  N   UNL     1      -9.184   9.688  67.979  1.00  0.00    -0.126 NA 
HETATM   13  N   UNL     1      -8.887  11.997  67.754  1.00  0.00    -0.158 NA 
HETATM   14  C   UNL     1      -8.599  10.829  68.311  1.00  0.00    -0.135 A  
BRANCH  11  15
HETATM   15  C   UNL     1     -10.259  13.288  66.251  1.00  0.00    -0.296 A  
HETATM   16  C   UNL     1     -10.343  15.634  66.441  1.00  0.00    -0.296 A  
HETATM   17  F   UNL     1     -11.159  17.633  67.498  1.00  0.00    -0.312 F  
HETATM   18  N   UNL     1     -10.008  14.420  66.968  1.00  0.00    -0.253 NA 
HETATM   19  C   UNL     1     -10.953  15.751  65.192  1.00  0.00    -0.394 A  
HETATM   20  C   UNL     1     -10.036  16.905  67.222  1.00  0.00    -0.286 C  
HETATM   21  C   UNL     1     -10.853  13.362  64.987  1.00  0.00    -0.337 A  
HETATM   22  C   UNL     1     -11.207  14.600  64.458  1.00  0.00    -0.290 A  
HETATM   23  F   UNL     1      -9.423  16.700  68.421  1.00  0.00    -0.206 F  
HETATM   24  F   UNL     1      -9.219  17.753  66.529  1.00  0.00    -0.247 F  
ENDBRANCH  11  15
BRANCH  14  25
HETATM   25  N   UNL     1      -7.689  10.774  69.368  1.00  0.00    -0.273 NA 
HETATM   26  H   UNL     1      -7.039  11.559  69.419  1.00  0.00     0.000 HD 
BRANCH  25  27
HETATM   27  C   UNL     1      -7.530   9.811  70.368  1.00  0.00    -0.149 A  
HETATM   28  C   UNL     1      -8.487   8.240  71.939  1.00  0.00    -0.160 A  
HETATM   29  C   UNL     1      -8.643   9.131  70.870  1.00  0.00    -0.259 A  
HETATM   30  N   UNL     1      -7.264   7.987  72.489  1.00  0.00    -0.090 NA 
HETATM   31  C   UNL     1      -9.704   7.557  72.545  1.00  0.00    -0.168 C  
HETATM   32  C   UNL     1      -6.204   8.649  71.990  1.00  0.00    -0.072 A  
HETATM   33  F   UNL     1      -9.877   7.850  73.866  1.00  0.00    -0.325 F  
HETATM   34  F   UNL     1     -10.881   7.911  71.942  1.00  0.00    -0.242 F  
HETATM   35  F   UNL     1      -9.654   6.196  72.464  1.00  0.00    -0.146 F  
HETATM   36  C   UNL     1      -6.292   9.570  70.963  1.00  0.00    -0.077 A  
ENDBRANCH  25  27
ENDBRANCH  14  25
ENDBRANCH   7   9
ENDBRANCH   5   7
TORSDOF 5
ENDMDL
MODEL      197
REMARK 921   NORMALIZED FREE ENERGY PREDICTED BY IDOCK:   -5.60 KCAL/MOL
REMARK 922        TOTAL FREE ENERGY PREDICTED BY IDOCK:   -8.40 KCAL/MOL
REMARK 923 INTER-LIGAND FREE ENERGY PREDICTED BY IDOCK:   -7.46 KCAL/MOL
REMARK 924 INTRA-LIGAND FREE ENERGY PREDICTED BY IDOCK:   -0.95 KCAL/MOL
REMARK 927      BINDING AFFINITY PREDICTED BY RF-SCORE:    0.00 PKD
ROOT
HETATM    1  C   UNL     1      -5.991  13.713  70.351  1.00  0.00    -0.148 C  
HETATM    2  C   UNL     1      -6.377  13.273  68.936  1.00  0.00    -0.096 C  
HETATM    3  C   UNL     1      -7.511  14.159  68.407  1.00  0.00    -0.124 C  
HETATM    4  O   UNL     1      -5.238  13.455  68.079  1.00  0.00    -0.097 OA 
HETATM    5  C   UNL     1      -6.754  11.767  68.940  1.00  0.00    -0.094 C  
HETATM    6  H   UNL     1      -5.478  13.181  67.201  1.00  0.00     0.000 HD 
ENDROOT
BRANCH   5   7
HETATM    7  N   UNL     1      -7.249  11.367  67.631  1.00  0.00    -0.092 NA 
HETATM    8  H   UNL     1      -6.741  11.615  66.780  1.00  0.00     0.000 HD 
BRANCH   7   9
HETATM    9  C   UNL     1      -8.423  10.644  67.570  1.00  0.00    -0.121 A  
HETATM   10  N   UNL     1      -8.403   9.340  67.341  1.00  0.00    -0.121 NA 
HETATM   11  C   UNL     1      -9.594   8.743  67.290  1.00  0.00    -0.165 A  
HETATM   12  N   UNL     1      -9.531  11.342  67.786  1.00  0.00    -0.167 NA 
HETATM   13  N   UNL     1     -10.754   9.372  67.482  1.00  0.00    -0.268 NA 
HETATM   14  C   UNL     1     -10.669  10.666  67.761  1.00  0.00    -0.257 A  
BRANCH  11  15
HETATM   15  C   UNL     1      -9.651   7.281  67.019  1.00  0.00    -0.166 A  
HETATM   16  C   UNL     1      -8.479   5.271  66.651  1.00  0.00    -0.107 A  
HETATM   17  F   UNL     1      -6.999   3.907  65.337  1.00  0.00    -0.055 F  
HETATM   18  N   UNL     1      -8.468   6.613  66.902  1.00  0.00    -0.113 NA 
HETATM   19  C   UNL     1      -9.670   4.561  66.495  1.00  0.00    -0.220 A  
HETATM   20  C   UNL     1      -7.162   4.512  66.551  1.00  0.00    -0.080 C  
HETATM   21  C   UNL     1     -10.868   6.603  66.887  1.00  0.00    -0.415 A  
HETATM   22  C   UNL     1     -10.876   5.237  66.618  1.00  0.00    -0.168 A  
HETATM   23  F   UNL     1      -6.051   5.278  66.735  1.00  0.00    -0.026 F  
HETATM   24  F   UNL     1      -7.074   3.505  67.470  1.00  0.00    -0.054 F  
ENDBRANCH  11  15
BRANCH  14  25
HETATM   25  N   UNL     1     -11.816  11.368  68.135  1.00  0.00    -0.589 NA 
HETATM   26  H   UNL     1     -12.697  10.923  67.879  1.00  0.00     0.000 HD 
BRANCH  25  27
HETATM   27  C   UNL     1     -11.944  12.588  68.806  1.00  0.00    -0.238 A  
HETATM   28  C   UNL     1     -12.619  13.849  70.756  1.00  0.00    -0.354 A  
HETATM   29  C   UNL     1     -12.400  12.617  70.126  1.00  0.00    -0.222 A  
HETATM   30  N   UNL     1     -12.364  15.032  70.126  1.00  0.00    -0.335 NA 
HETATM   31  C   UNL     1     -13.194  13.892  72.164  1.00  0.00    -0.444 C  
HETATM   32  C   UNL     1     -11.921  14.982  68.856  1.00  0.00    -0.254 A  
HETATM   33  F   UNL     1     -14.382  14.558  72.235  1.00  0.00    -0.500 F  
HETATM   34  F   UNL     1     -13.446  12.652  72.685  1.00  0.00    -0.593 F  
HETATM   35  F   UNL     1     -12.367  14.499  73.064  1.00  0.00    -0.384 F  
HETATM   36  C   UNL     1     -11.721  13.805  68.161  1.00  0.00    -0.392 A  
ENDBRANCH  25  27
ENDBRANCH  14  25
ENDBRANCH   7   9
ENDBRANCH   5   7
TORSDOF 5
ENDMDL
MODEL      198
REMARK 921   NORMALIZED FREE ENERGY PREDICTED BY IDOCK:   -5.59 KCAL/MOL
REMARK 922        TOTAL FREE ENERGY PREDICTED BY IDOCK:   -8.39 KCAL/MOL
REMARK 923 INTER-LIGAND FREE ENERGY PREDICTED BY IDOCK:   -7.24 KCAL/MOL
REMARK 924 INTRA-LIGAND FREE ENERGY PREDICTED BY IDOCK:   -1.15 KCAL/MOL
REMARK 927      BINDING AFFINITY PREDICTED BY RF-SCORE:    0.00 PKD
ROOT
HETATM    1  C   UNL     1      -5.992  14.284  67.683  1.00  0.00    -0.043 C  
HETATM    2  C   UNL     1      -6.935  13.215  68.243  1.00  0.00    -0.105 C  
HETATM    3  C   UNL     1      -6.127  11.996  68.702  1.00  0.00    -0.053 C  
HETATM    4  O   UNL     1      -7.605  13.759  69.391  1.00  0.00    -0.330 OA 
HETATM    5  C   UNL     1      -8.003  12.850  67.177  1.00  0.00    -0.099 C  
HETATM    6  H   UNL     1      -8.191  13.096  69.737  1.00  0.00     0.000 HD 
ENDROOT
BRANCH   5   7
HETATM    7  N   UNL     1      -8.825  11.743  67.644  1.00  0.00    -0.157 NA 
HETATM    8  H   UNL     1      -8.548  10.776  67.476  1.00  0.00     0.000 HD 
BRANCH   7   9
HETATM    9  C   UNL     1      -9.991  12.038  68.323  1.00  0.00    -0.203 A  
HETATM   10  N   UNL     1     -10.486  11.195  69.214  1.00  0.00    -0.191 NA 
HETATM   11  C   UNL     1     -11.622  11.573  69.801  1.00  0.00    -0.326 A  
HETATM   12  N   UNL     1     -10.532  13.215  68.035  1.00  0.00    -0.232 NA 
HETATM   13  N   UNL     1     -12.238  12.731  69.559  1.00  0.00    -0.171 NA 
HETATM   14  C   UNL     1     -11.635  13.534  68.693  1.00  0.00    -0.330 A  
BRANCH  11  15
HETATM   15  C   UNL     1     -12.249  10.666  70.801  1.00  0.00    -0.375 A  
HETATM   16  C   UNL     1     -12.413   8.496  71.702  1.00  0.00    -0.330 A  
HETATM   17  F   UNL     1     -12.988   6.170  71.501  1.00  0.00    -0.065 F  
HETATM   18  N   UNL     1     -11.860   9.359  70.801  1.00  0.00    -0.274 NA 
HETATM   19  C   UNL     1     -13.379   8.909  72.619  1.00  0.00    -0.375 A  
HETATM   20  C   UNL     1     -11.961   7.042  71.728  1.00  0.00    -0.326 C  
HETATM   21  C   UNL     1     -13.202  11.125  71.716  1.00  0.00    -0.486 A  
HETATM   22  C   UNL     1     -13.774  10.240  72.625  1.00  0.00     0.470 A  
HETATM   23  F   UNL     1     -11.000   6.730  70.813  1.00  0.00    -0.248 F  
HETATM   24  F   UNL     1     -11.446   6.682  72.942  1.00  0.00    -0.267 F  
ENDBRANCH  11  15
BRANCH  14  25
HETATM   25  N   UNL     1     -12.119  14.830  68.502  1.00  0.00    -0.578 NA 
HETATM   26  H   UNL     1     -13.090  14.887  68.192  1.00  0.00     0.000 HD 
BRANCH  25  27
HETATM   27  C   UNL     1     -11.480  16.061  68.668  1.00  0.00    -0.377 A  
HETATM   28  C   UNL     1     -10.583  18.103  67.734  1.00  0.00    -0.389 A  
HETATM   29  C   UNL     1     -11.311  16.918  67.578  1.00  0.00     0.266 A  
HETATM   30  N   UNL     1     -10.057  18.469  68.938  1.00  0.00    -0.375 NA 
HETATM   31  C   UNL     1     -10.324  19.002  66.533  1.00  0.00    -0.439 C  
HETATM   32  C   UNL     1     -10.233  17.632  69.978  1.00  0.00     0.775 A  
HETATM   33  F   UNL     1      -8.996  19.169  66.268  1.00  0.00    -0.316 F  
HETATM   34  F   UNL     1     -10.863  18.522  65.370  1.00  0.00    -0.489 F  
HETATM   35  F   UNL     1     -10.840  20.257  66.678  1.00  0.00    -0.467 F  
HETATM   36  C   UNL     1     -10.906  16.429  69.885  1.00  0.00    -0.333 A  
ENDBRANCH  25  27
ENDBRANCH  14  25
ENDBRANCH   7   9
ENDBRANCH   5   7
TORSDOF 5
ENDMDL
MODEL      199
REMARK 921   NORMALIZED FREE ENERGY PREDICTED BY IDOCK:   -5.57 KCAL/MOL
REMARK 922        TOTAL FREE ENERGY PREDICTED BY IDOCK:   -8.36 KCAL/MOL
REMARK 923 INTER-LIGAND FREE ENERGY PREDICTED BY IDOCK:   -7.36 KCAL/MOL
REMARK 924 INTRA-LIGAND FREE ENERGY PREDICTED BY IDOCK:   -1.00 KCAL/MOL
REMARK 927      BINDING AFFINITY PREDICTED BY RF-SCORE:    0.00 PKD
ROOT
HETATM    1  C   UNL     1     -10.271   8.856  71.521  1.00  0.00    -0.398 C  
HETATM    2  C   UNL     1     -11.292   9.114  70.408  1.00  0.00    -0.224 C  
HETATM    3  C   UNL     1     -11.091   8.103  69.274  1.00  0.00     0.137 C  
HETATM    4  O   UNL     1     -12.608   8.917  70.948  1.00  0.00    -0.490 OA 
HETATM    5  C   UNL     1     -11.174  10.583  69.921  1.00  0.00    -0.307 C  
HETATM    6  H   UNL     1     -13.241   9.077  70.258  1.00  0.00     0.000 HD 
ENDROOT
BRANCH   5   7
HETATM    7  N   UNL     1     -12.046  10.805  68.776  1.00  0.00    -0.785 NA 
HETATM    8  H   UNL     1     -13.049  10.626  68.838  1.00  0.00     0.000 HD 
BRANCH   7   9
HETATM    9  C   UNL     1     -11.479  11.266  67.604  1.00  0.00    -0.264 A  
HETATM   10  N   UNL     1     -10.828  10.441  66.799  1.00  0.00    -0.169 NA 
HETATM   11  C   UNL     1     -10.310  10.993  65.701  1.00  0.00    -0.251 A  
HETATM   12  N   UNL     1     -11.667  12.554  67.352  1.00  0.00    -0.386 NA 
HETATM   13  N   UNL     1     -10.441  12.281  65.380  1.00  0.00    -0.262 NA 
HETATM   14  C   UNL     1     -11.158  13.015  66.220  1.00  0.00    -0.289 A  
BRANCH  11  15
HETATM   15  C   UNL     1      -9.548  10.131  64.757  1.00  0.00    -0.314 A  
HETATM   16  C   UNL     1      -8.205   8.223  64.435  1.00  0.00    -0.127 A  
HETATM   17  F   UNL     1      -6.170   6.995  64.797  1.00  0.00    -0.034 F  
HETATM   18  N   UNL     1      -8.915   9.038  65.270  1.00  0.00    -0.198 NA 
HETATM   19  C   UNL     1      -8.094   8.486  63.070  1.00  0.00    -0.174 A  
HETATM   20  C   UNL     1      -7.522   6.982  64.995  1.00  0.00    -0.093 C  
HETATM   21  C   UNL     1      -9.476  10.421  63.390  1.00  0.00    -0.356 A  
HETATM   22  C   UNL     1      -8.740   9.596  62.544  1.00  0.00    -0.232 A  
HETATM   23  F   UNL     1      -7.699   6.792  66.333  1.00  0.00    -0.089 F  
HETATM   24  F   UNL     1      -7.963   5.835  64.397  1.00  0.00    -0.098 F  
ENDBRANCH  11  15
BRANCH  14  25
HETATM   25  N   UNL     1     -11.483  14.330  65.883  1.00  0.00    -0.329 NA 
HETATM   26  H   UNL     1     -12.381  14.446  65.413  1.00  0.00     0.000 HD 
BRANCH  25  27
HETATM   27  C   UNL     1     -10.768  15.513  66.090  1.00  0.00    -0.313 A  
HETATM   28  C   UNL     1      -9.001  16.729  67.206  1.00  0.00    -0.212 A  
HETATM   29  C   UNL     1      -9.650  15.520  66.928  1.00  0.00    -0.241 A  
HETATM   30  N   UNL     1      -9.409  17.907  66.652  1.00  0.00    -0.278 NA 
HETATM   31  C   UNL     1      -7.833  16.758  68.182  1.00  0.00    -0.182 C  
HETATM   32  C   UNL     1     -10.485  17.879  65.845  1.00  0.00    -0.253 A  
HETATM   33  F   UNL     1      -8.060  17.562  69.261  1.00  0.00    -0.170 F  
HETATM   34  F   UNL     1      -7.533  15.531  68.706  1.00  0.00    -0.116 F  
HETATM   35  F   UNL     1      -6.672  17.203  67.619  1.00  0.00    -0.134 F  
HETATM   36  C   UNL     1     -11.197  16.730  65.558  1.00  0.00     0.269 A  
ENDBRANCH  25  27
ENDBRANCH  14  25
ENDBRANCH   7   9
ENDBRANCH   5   7
TORSDOF 5
ENDMDL
MODEL      200
REMARK 921   NORMALIZED FREE ENERGY PREDICTED BY IDOCK:   -5.53 KCAL/MOL
REMARK 922        TOTAL FREE ENERGY PREDICTED BY IDOCK:   -8.31 KCAL/MOL
REMARK 923 INTER-LIGAND FREE ENERGY PREDICTED BY IDOCK:   -7.51 KCAL/MOL
REMARK 924 INTRA-LIGAND FREE ENERGY PREDICTED BY IDOCK:   -0.80 KCAL/MOL
REMARK 927      BINDING AFFINITY PREDICTED BY RF-SCORE:    0.00 PKD
ROOT
HETATM    1  C   UNL     1      -8.358  20.103  66.831  1.00  0.00    -0.370 C  
HETATM    2  C   UNL     1      -7.638  18.831  67.288  1.00  0.00    -0.223 C  
HETATM    3  C   UNL     1      -7.446  17.885  66.097  1.00  0.00    -0.315 C  
HETATM    4  O   UNL     1      -6.338  19.198  67.776  1.00  0.00    -0.209 OA 
HETATM    5  C   UNL     1      -8.430  18.169  68.448  1.00  0.00    -0.299 C  
HETATM    6  H   UNL     1      -5.891  18.408  68.060  1.00  0.00     0.000 HD 
ENDROOT
BRANCH   5   7
HETATM    7  N   UNL     1      -7.829  16.892  68.805  1.00  0.00    -0.244 NA 
HETATM    8  H   UNL     1      -6.865  16.840  69.136  1.00  0.00     0.000 HD 
BRANCH   7   9
HETATM    9  C   UNL     1      -8.599  15.752  68.683  1.00  0.00    -0.194 A  
HETATM   10  N   UNL     1      -8.062  14.614  68.275  1.00  0.00    -0.135 NA 
HETATM   11  C   UNL     1      -8.898  13.580  68.180  1.00  0.00    -0.179 A  
HETATM   12  N   UNL     1      -9.872  15.889  69.030  1.00  0.00    -0.220 NA 
HETATM   13  N   UNL     1     -10.193  13.635  68.496  1.00  0.00    -0.240 NA 
HETATM   14  C   UNL     1     -10.626  14.803  68.949  1.00  0.00    -0.250 A  
BRANCH  11  15
HETATM   15  C   UNL     1      -8.369  12.271  67.710  1.00  0.00    -0.162 A  
HETATM   16  C   UNL     1      -7.418  10.187  68.260  1.00  0.00    -0.082 A  
HETATM   17  F   UNL     1      -5.622   8.861  69.152  1.00  0.00    -0.034 F  
HETATM   18  N   UNL     1      -7.913  11.397  68.653  1.00  0.00    -0.141 NA 
HETATM   19  C   UNL     1      -7.350   9.821  66.916  1.00  0.00    -0.091 A  
HETATM   20  C   UNL     1      -6.938   9.193  69.310  1.00  0.00    -0.053 C  
HETATM   21  C   UNL     1      -8.334  11.936  66.352  1.00  0.00     0.005 A  
HETATM   22  C   UNL     1      -7.816  10.706  65.954  1.00  0.00    -0.150 A  
HETATM   23  F   UNL     1      -7.059   9.624  70.597  1.00  0.00    -0.095 F  
HETATM   24  F   UNL     1      -7.617   8.009  69.251  1.00  0.00    -0.086 F  
ENDBRANCH  11  15
BRANCH  14  25
HETATM   25  N   UNL     1     -11.923  14.909  69.455  1.00  0.00    -0.390 NA 
HETATM   26  H   UNL     1     -12.498  15.632  69.021  1.00  0.00     0.000 HD 
BRANCH  25  27
HETATM   27  C   UNL     1     -12.557  14.178  70.463  1.00  0.00    -0.342 A  
HETATM   28  C   UNL     1     -13.116  12.056  71.480  1.00  0.00    -0.261 A  
HETATM   29  C   UNL     1     -12.400  12.791  70.528  1.00  0.00    -0.355 A  
HETATM   30  N   UNL     1     -13.945  12.662  72.379  1.00  0.00    -0.311 NA 
HETATM   31  C   UNL     1     -13.015  10.538  71.504  1.00  0.00    -0.460 C  
HETATM   32  C   UNL     1     -14.080  13.999  72.303  1.00  0.00    -0.535 A  
HETATM   33  F   UNL     1     -14.215   9.920  71.306  1.00  0.00    -0.115 F  
HETATM   34  F   UNL     1     -12.188  10.034  70.538  1.00  0.00    -0.310 F  
HETATM   35  F   UNL     1     -12.531  10.049  72.683  1.00  0.00    -0.186 F  
HETATM   36  C   UNL     1     -13.434  14.781  71.364  1.00  0.00    -0.477 A  
ENDBRANCH  25  27
ENDBRANCH  14  25
ENDBRANCH   7   9
ENDBRANCH   5   7
TORSDOF 5
ENDMDL
MODEL      201
REMARK 921   NORMALIZED FREE ENERGY PREDICTED BY IDOCK:   -5.52 KCAL/MOL
REMARK 922        TOTAL FREE ENERGY PREDICTED BY IDOCK:   -8.30 KCAL/MOL
REMARK 923 INTER-LIGAND FREE ENERGY PREDICTED BY IDOCK:   -7.33 KCAL/MOL
REMARK 924 INTRA-LIGAND FREE ENERGY PREDICTED BY IDOCK:   -0.96 KCAL/MOL
REMARK 927      BINDING AFFINITY PREDICTED BY RF-SCORE:    0.00 PKD
ROOT
HETATM    1  C   UNL     1     -14.409  15.012  72.079  1.00  0.00    -0.666 C  
HETATM    2  C   UNL     1     -12.972  14.504  71.933  1.00  0.00    -0.341 C  
HETATM    3  C   UNL     1     -12.157  14.885  73.174  1.00  0.00    -0.377 C  
HETATM    4  O   UNL     1     -13.005  13.071  71.849  1.00  0.00    -0.353 OA 
HETATM    5  C   UNL     1     -12.350  15.060  70.623  1.00  0.00    -0.348 C  
HETATM    6  H   UNL     1     -12.113  12.755  71.758  1.00  0.00     0.000 HD 
ENDROOT
BRANCH   5   7
HETATM    7  N   UNL     1     -10.944  14.693  70.537  1.00  0.00    -0.492 NA 
HETATM    8  H   UNL     1     -10.494  14.162  71.283  1.00  0.00     0.000 HD 
BRANCH   7   9
HETATM    9  C   UNL     1     -10.236  15.082  69.417  1.00  0.00    -0.223 A  
HETATM   10  N   UNL     1     -10.102  16.363  69.114  1.00  0.00    -0.264 NA 
HETATM   11  C   UNL     1      -9.409  16.626  68.005  1.00  0.00    -0.227 A  
HETATM   12  N   UNL     1      -9.694  14.094  68.717  1.00  0.00    -0.190 NA 
HETATM   13  N   UNL     1      -8.845  15.693  67.238  1.00  0.00    -0.189 NA 
HETATM   14  C   UNL     1      -8.986  14.442  67.655  1.00  0.00    -0.192 A  
BRANCH  11  15
HETATM   15  C   UNL     1      -9.233  18.045  67.590  1.00  0.00    -0.259 A  
HETATM   16  C   UNL     1      -7.946  19.641  66.430  1.00  0.00    -0.318 A  
HETATM   17  F   UNL     1      -5.920  20.900  66.135  1.00  0.00    -0.222 F  
HETATM   18  N   UNL     1      -8.143  18.350  66.829  1.00  0.00    -0.243 NA 
HETATM   19  C   UNL     1      -8.821  20.664  66.792  1.00  0.00    -0.159 A  
HETATM   20  C   UNL     1      -6.749  19.984  65.553  1.00  0.00    -0.285 C  
HETATM   21  C   UNL     1     -10.144  19.039  67.961  1.00  0.00    -0.458 A  
HETATM   22  C   UNL     1      -9.933  20.357  67.564  1.00  0.00    -0.537 A  
HETATM   23  F   UNL     1      -5.959  18.921  65.231  1.00  0.00    -0.206 F  
HETATM   24  F   UNL     1      -7.123  20.541  64.363  1.00  0.00    -0.241 F  
ENDBRANCH  11  15
BRANCH  14  25
HETATM   25  N   UNL     1      -8.294  13.416  67.007  1.00  0.00    -0.370 NA 
HETATM   26  H   UNL     1      -7.284  13.548  66.948  1.00  0.00     0.000 HD 
BRANCH  25  27
HETATM   27  C   UNL     1      -8.772  12.238  66.426  1.00  0.00    -0.017 A  
HETATM   28  C   UNL     1     -10.138  11.116  64.777  1.00  0.00    -0.295 A  
HETATM   29  C   UNL     1      -9.585  12.294  65.291  1.00  0.00    -0.041 A  
HETATM   30  N   UNL     1      -9.878   9.898  65.334  1.00  0.00    -0.311 NA 
HETATM   31  C   UNL     1     -11.090  11.176  63.591  1.00  0.00    -0.054 C  
HETATM   32  C   UNL     1      -9.090   9.864  66.424  1.00  0.00    -0.150 A  
HETATM   33  F   UNL     1     -12.329  10.679  63.876  1.00  0.00     1.222 F  
HETATM   34  F   UNL     1     -11.310  12.447  63.136  1.00  0.00    -0.476 F  
HETATM   35  F   UNL     1     -10.644  10.478  62.507  1.00  0.00     0.084 F  
HETATM   36  C   UNL     1      -8.543  10.991  67.008  1.00  0.00    -0.140 A  
ENDBRANCH  25  27
ENDBRANCH  14  25
ENDBRANCH   7   9
ENDBRANCH   5   7
TORSDOF 5
ENDMDL
MODEL      202
REMARK 921   NORMALIZED FREE ENERGY PREDICTED BY IDOCK:   -5.49 KCAL/MOL
REMARK 922        TOTAL FREE ENERGY PREDICTED BY IDOCK:   -8.26 KCAL/MOL
REMARK 923 INTER-LIGAND FREE ENERGY PREDICTED BY IDOCK:   -7.42 KCAL/MOL
REMARK 924 INTRA-LIGAND FREE ENERGY PREDICTED BY IDOCK:   -0.84 KCAL/MOL
REMARK 927      BINDING AFFINITY PREDICTED BY RF-SCORE:    0.00 PKD
ROOT
HETATM    1  C   UNL     1      -7.519   4.382  62.331  1.00  0.00    -0.044 C  
HETATM    2  C   UNL     1      -7.039   5.437  63.333  1.00  0.00    -0.047 C  
HETATM    3  C   UNL     1      -7.052   4.853  64.750  1.00  0.00    -0.062 C  
HETATM    4  O   UNL     1      -5.684   5.785  63.009  1.00  0.00    -0.017 OA 
HETATM    5  C   UNL     1      -7.917   6.712  63.210  1.00  0.00    -0.076 C  
HETATM    6  H   UNL     1      -5.387   6.440  63.631  1.00  0.00     0.000 HD 
ENDROOT
BRANCH   5   7
HETATM    7  N   UNL     1      -7.559   7.672  64.243  1.00  0.00    -0.101 NA 
HETATM    8  H   UNL     1      -6.581   7.882  64.449  1.00  0.00     0.000 HD 
BRANCH   7   9
HETATM    9  C   UNL     1      -8.578   8.292  64.940  1.00  0.00    -0.048 A  
HETATM   10  N   UNL     1      -9.057   9.459  64.539  1.00  0.00    -0.198 NA 
HETATM   11  C   UNL     1     -10.031   9.974  65.292  1.00  0.00    -0.298 A  
HETATM   12  N   UNL     1      -9.038   7.621  65.988  1.00  0.00    -0.144 NA 
HETATM   13  N   UNL     1     -10.540   9.373  66.368  1.00  0.00    -0.082 NA 
HETATM   14  C   UNL     1     -10.035   8.181  66.656  1.00  0.00    -0.269 A  
BRANCH  11  15
HETATM   15  C   UNL     1     -10.607  11.293  64.914  1.00  0.00    -0.300 A  
HETATM   16  C   UNL     1     -10.998  13.541  65.496  1.00  0.00    -0.288 A  
HETATM   17  F   UNL     1     -12.033  15.207  66.887  1.00  0.00    -0.270 F  
HETATM   18  N   UNL     1     -10.482  12.317  65.806  1.00  0.00    -0.248 NA 
HETATM   19  C   UNL     1     -11.667  13.775  64.295  1.00  0.00    -0.426 A  
HETATM   20  C   UNL     1     -10.835  14.698  66.474  1.00  0.00    -0.315 C  
HETATM   21  C   UNL     1     -11.255  11.490  63.690  1.00  0.00    -0.451 A  
HETATM   22  C   UNL     1     -11.792  12.737  63.382  1.00  0.00    -0.591 A  
HETATM   23  F   UNL     1     -10.153  14.386  67.612  1.00  0.00    -0.217 F  
HETATM   24  F   UNL     1     -10.167  15.753  65.920  1.00  0.00    -0.279 F  
ENDBRANCH  11  15
BRANCH  14  25
HETATM   25  N   UNL     1     -10.617   7.410  67.663  1.00  0.00    -0.339 NA 
HETATM   26  H   UNL     1     -11.485   6.944  67.402  1.00  0.00     0.000 HD 
BRANCH  25  27
HETATM   27  C   UNL     1     -10.192   7.177  68.975  1.00  0.00    -0.190 A  
HETATM   28  C   UNL     1     -10.692   6.920  71.327  1.00  0.00    -0.223 A  
HETATM   29  C   UNL     1     -11.129   7.053  70.004  1.00  0.00    -0.316 A  
HETATM   30  N   UNL     1      -9.365   6.871  71.642  1.00  0.00    -0.154 NA 
HETATM   31  C   UNL     1     -11.704   6.867  72.462  1.00  0.00    -0.154 C  
HETATM   32  C   UNL     1      -8.478   6.988  70.637  1.00  0.00    -0.139 A  
HETATM   33  F   UNL     1     -11.548   7.880  73.363  1.00  0.00    -0.349 F  
HETATM   34  F   UNL     1     -13.001   6.961  72.037  1.00  0.00    -0.351 F  
HETATM   35  F   UNL     1     -11.644   5.710  73.183  1.00  0.00    -0.300 F  
HETATM   36  C   UNL     1      -8.840   7.162  69.314  1.00  0.00    -0.136 A  
ENDBRANCH  25  27
ENDBRANCH  14  25
ENDBRANCH   7   9
ENDBRANCH   5   7
TORSDOF 5
ENDMDL
MODEL      203
REMARK 921   NORMALIZED FREE ENERGY PREDICTED BY IDOCK:   -5.49 KCAL/MOL
REMARK 922        TOTAL FREE ENERGY PREDICTED BY IDOCK:   -8.25 KCAL/MOL
REMARK 923 INTER-LIGAND FREE ENERGY PREDICTED BY IDOCK:   -6.92 KCAL/MOL
REMARK 924 INTRA-LIGAND FREE ENERGY PREDICTED BY IDOCK:   -1.33 KCAL/MOL
REMARK 927      BINDING AFFINITY PREDICTED BY RF-SCORE:    0.00 PKD
ROOT
HETATM    1  C   UNL     1      -6.461   7.724  62.636  1.00  0.00    -0.076 C  
HETATM    2  C   UNL     1      -6.652   8.691  63.808  1.00  0.00    -0.084 C  
HETATM    3  C   UNL     1      -5.351   9.461  64.064  1.00  0.00    -0.061 C  
HETATM    4  O   UNL     1      -7.666   9.643  63.449  1.00  0.00    -0.118 OA 
HETATM    5  C   UNL     1      -7.132   7.908  65.060  1.00  0.00    -0.060 C  
HETATM    6  H   UNL     1      -7.784  10.242  64.177  1.00  0.00     0.000 HD 
ENDROOT
BRANCH   5   7
HETATM    7  N   UNL     1      -7.192   8.792  66.215  1.00  0.00    -0.085 NA 
HETATM    8  H   UNL     1      -6.342   9.188  66.617  1.00  0.00     0.000 HD 
BRANCH   7   9
HETATM    9  C   UNL     1      -8.431   9.079  66.754  1.00  0.00    -0.119 A  
HETATM   10  N   UNL     1      -8.700   8.799  68.019  1.00  0.00    -0.140 NA 
HETATM   11  C   UNL     1      -9.930   9.106  68.431  1.00  0.00    -0.181 A  
HETATM   12  N   UNL     1      -9.284   9.671  65.928  1.00  0.00    -0.179 NA 
HETATM   13  N   UNL     1     -10.851   9.689  67.663  1.00  0.00    -0.265 NA 
HETATM   14  C   UNL     1     -10.469   9.983  66.428  1.00  0.00    -0.129 A  
BRANCH  11  15
HETATM   15  C   UNL     1     -10.311   8.802  69.837  1.00  0.00    -0.206 A  
HETATM   16  C   UNL     1     -11.967   8.847  71.512  1.00  0.00    -0.333 A  
HETATM   17  F   UNL     1     -13.440  10.047  72.984  1.00  0.00     0.004 F  
HETATM   18  N   UNL     1     -11.580   9.110  70.229  1.00  0.00    -0.156 NA 
HETATM   19  C   UNL     1     -11.093   8.285  72.443  1.00  0.00    -0.447 A  
HETATM   20  C   UNL     1     -13.393   9.159  71.948  1.00  0.00    -0.427 C  
HETATM   21  C   UNL     1      -9.409   8.222  70.735  1.00  0.00    -0.183 A  
HETATM   22  C   UNL     1      -9.802   7.967  72.046  1.00  0.00    -0.273 A  
HETATM   23  F   UNL     1     -14.182   9.686  70.971  1.00  0.00    -0.266 F  
HETATM   24  F   UNL     1     -14.050   8.048  72.395  1.00  0.00    -0.327 F  
ENDBRANCH  11  15
BRANCH  14  25
HETATM   25  N   UNL     1     -11.310  10.737  65.607  1.00  0.00     0.323 NA 
HETATM   26  H   UNL     1     -11.889  10.194  64.967  1.00  0.00     0.000 HD 
BRANCH  25  27
HETATM   27  C   UNL     1     -11.481  12.122  65.526  1.00  0.00    -0.343 A  
HETATM   28  C   UNL     1     -11.290  14.320  66.516  1.00  0.00    -0.346 A  
HETATM   29  C   UNL     1     -11.026  12.946  66.559  1.00  0.00    -0.300 A  
HETATM   30  N   UNL     1     -11.955  14.890  65.469  1.00  0.00    -0.175 NA 
HETATM   31  C   UNL     1     -10.870  15.213  67.674  1.00  0.00    -0.295 C  
HETATM   32  C   UNL     1     -12.382  14.081  64.483  1.00  0.00    -0.378 A  
HETATM   33  F   UNL     1     -11.922  15.848  68.267  1.00  0.00    -0.332 F  
HETATM   34  F   UNL     1     -10.246  14.533  68.684  1.00  0.00    -0.216 F  
HETATM   35  F   UNL     1      -9.996  16.195  67.308  1.00  0.00    -0.233 F  
HETATM   36  C   UNL     1     -12.191  12.712  64.481  1.00  0.00    -0.514 A  
ENDBRANCH  25  27
ENDBRANCH  14  25
ENDBRANCH   7   9
ENDBRANCH   5   7
TORSDOF 5
ENDMDL
MODEL      204
REMARK 921   NORMALIZED FREE ENERGY PREDICTED BY IDOCK:   -5.47 KCAL/MOL
REMARK 922        TOTAL FREE ENERGY PREDICTED BY IDOCK:   -8.24 KCAL/MOL
REMARK 923 INTER-LIGAND FREE ENERGY PREDICTED BY IDOCK:   -7.27 KCAL/MOL
REMARK 924 INTRA-LIGAND FREE ENERGY PREDICTED BY IDOCK:   -0.96 KCAL/MOL
REMARK 927      BINDING AFFINITY PREDICTED BY RF-SCORE:    0.00 PKD
ROOT
HETATM    1  C   UNL     1      -9.829   7.941  72.991  1.00  0.00    -0.355 C  
HETATM    2  C   UNL     1     -10.682   7.831  71.723  1.00  0.00    -0.223 C  
HETATM    3  C   UNL     1      -9.891   7.110  70.625  1.00  0.00    -0.184 C  
HETATM    4  O   UNL     1     -11.841   7.038  72.026  1.00  0.00    -0.282 OA 
HETATM    5  C   UNL     1     -11.152   9.243  71.284  1.00  0.00    -0.357 C  
HETATM    6  H   UNL     1     -12.370   6.970  71.239  1.00  0.00     0.000 HD 
ENDROOT
BRANCH   5   7
HETATM    7  N   UNL     1     -11.853   9.169  70.010  1.00  0.00    -0.439 NA 
HETATM    8  H   UNL     1     -12.629   8.520  69.876  1.00  0.00     0.000 HD 
BRANCH   7   9
HETATM    9  C   UNL     1     -11.438   9.999  68.988  1.00  0.00    -0.012 A  
HETATM   10  N   UNL     1     -10.815   9.508  67.929  1.00  0.00    -0.223 NA 
HETATM   11  C   UNL     1     -10.448  10.400  67.008  1.00  0.00    -0.251 A  
HETATM   12  N   UNL     1     -11.739  11.282  69.143  1.00  0.00    -0.312 NA 
HETATM   13  N   UNL     1     -10.698  11.708  67.093  1.00  0.00    -0.235 NA 
HETATM   14  C   UNL     1     -11.378  12.096  68.163  1.00  0.00    -0.293 A  
BRANCH  11  15
HETATM   15  C   UNL     1      -9.725   9.924  65.797  1.00  0.00    -0.266 A  
HETATM   16  C   UNL     1      -8.271   8.341  64.833  1.00  0.00    -0.151 A  
HETATM   17  F   UNL     1      -6.114   7.295  64.659  1.00  0.00    -0.035 F  
HETATM   18  N   UNL     1      -8.951   8.808  65.921  1.00  0.00    -0.184 NA 
HETATM   19  C   UNL     1      -8.334   8.982  63.596  1.00  0.00    -0.178 A  
HETATM   20  C   UNL     1      -7.429   7.078  64.955  1.00  0.00    -0.093 C  
HETATM   21  C   UNL     1      -9.829  10.586  64.570  1.00  0.00    -0.401 A  
HETATM   22  C   UNL     1      -9.125  10.116  63.465  1.00  0.00    -0.302 A  
HETATM   23  F   UNL     1      -7.441   6.506  66.192  1.00  0.00    -0.074 F  
HETATM   24  F   UNL     1      -7.836   6.100  64.092  1.00  0.00    -0.091 F  
ENDBRANCH  11  15
BRANCH  14  25
HETATM   25  N   UNL     1     -11.825  13.415  68.256  1.00  0.00    -0.352 NA 
HETATM   26  H   UNL     1     -12.825  13.543  68.105  1.00  0.00     0.000 HD 
BRANCH  25  27
HETATM   27  C   UNL     1     -11.113  14.588  68.523  1.00  0.00    -0.256 A  
HETATM   28  C   UNL     1      -9.010  15.761  68.746  1.00  0.00    -0.214 A  
HETATM   29  C   UNL     1      -9.723  14.613  68.382  1.00  0.00    -0.217 A  
HETATM   30  N   UNL     1      -9.640  16.880  69.208  1.00  0.00    -0.148 NA 
HETATM   31  C   UNL     1      -7.490  15.769  68.673  1.00  0.00    -0.151 C  
HETATM   32  C   UNL     1     -10.979  16.838  69.333  1.00  0.00    -0.176 A  
HETATM   33  F   UNL     1      -6.899  15.998  69.882  1.00  0.00    -0.200 F  
HETATM   34  F   UNL     1      -6.962  14.586  68.235  1.00  0.00    -0.086 F  
HETATM   35  F   UNL     1      -6.997  16.719  67.827  1.00  0.00    -0.125 F  
HETATM   36  C   UNL     1     -11.741  15.726  69.029  1.00  0.00    -0.405 A  
ENDBRANCH  25  27
ENDBRANCH  14  25
ENDBRANCH   7   9
ENDBRANCH   5   7
TORSDOF 5
ENDMDL
MODEL      205
REMARK 921   NORMALIZED FREE ENERGY PREDICTED BY IDOCK:   -5.44 KCAL/MOL
REMARK 922        TOTAL FREE ENERGY PREDICTED BY IDOCK:   -8.19 KCAL/MOL
REMARK 923 INTER-LIGAND FREE ENERGY PREDICTED BY IDOCK:   -7.13 KCAL/MOL
REMARK 924 INTRA-LIGAND FREE ENERGY PREDICTED BY IDOCK:   -1.07 KCAL/MOL
REMARK 927      BINDING AFFINITY PREDICTED BY RF-SCORE:    0.00 PKD
ROOT
HETATM    1  C   UNL     1      -8.387  15.756  68.740  1.00  0.00    -0.195 C  
HETATM    2  C   UNL     1      -7.952  14.427  68.114  1.00  0.00    -0.136 C  
HETATM    3  C   UNL     1      -6.561  14.579  67.487  1.00  0.00    -0.106 C  
HETATM    4  O   UNL     1      -7.861  13.444  69.158  1.00  0.00    -0.332 OA 
HETATM    5  C   UNL     1      -9.017  13.958  67.087  1.00  0.00    -0.235 C  
HETATM    6  H   UNL     1      -7.591  12.620  68.769  1.00  0.00     0.000 HD 
ENDROOT
BRANCH   5   7
HETATM    7  N   UNL     1      -8.555  12.767  66.390  1.00  0.00    -0.416 NA 
HETATM    8  H   UNL     1      -8.132  12.831  65.464  1.00  0.00     0.000 HD 
BRANCH   7   9
HETATM    9  C   UNL     1      -8.706  11.545  67.016  1.00  0.00    -0.169 A  
HETATM   10  N   UNL     1      -9.623  11.376  67.956  1.00  0.00    -0.177 NA 
HETATM   11  C   UNL     1      -9.674  10.160  68.503  1.00  0.00    -0.154 A  
HETATM   12  N   UNL     1      -7.902  10.583  66.583  1.00  0.00    -0.120 NA 
HETATM   13  N   UNL     1      -8.893   9.143  68.136  1.00  0.00    -0.129 NA 
HETATM   14  C   UNL     1      -8.045   9.394  67.148  1.00  0.00    -0.102 A  
BRANCH  11  15
HETATM   15  C   UNL     1     -10.667   9.901  69.580  1.00  0.00    -0.242 A  
HETATM   16  C   UNL     1     -11.507   8.419  71.207  1.00  0.00    -0.280 A  
HETATM   17  F   UNL     1     -12.580   6.358  71.825  1.00  0.00    -0.384 F  
HETATM   18  N   UNL     1     -10.611   8.695  70.215  1.00  0.00    -0.217 NA 
HETATM   19  C   UNL     1     -12.492   9.331  71.584  1.00  0.00    -0.448 A  
HETATM   20  C   UNL     1     -11.431   7.087  71.942  1.00  0.00    -0.268 C  
HETATM   21  C   UNL     1     -11.629  10.851  69.939  1.00  0.00    -0.410 A  
HETATM   22  C   UNL     1     -12.549  10.561  70.943  1.00  0.00    -0.493 A  
HETATM   23  F   UNL     1     -10.427   6.265  71.524  1.00  0.00    -0.227 F  
HETATM   24  F   UNL     1     -11.241   7.248  73.286  1.00  0.00    -0.339 F  
ENDBRANCH  11  15
BRANCH  14  25
HETATM   25  N   UNL     1      -7.306   8.349  66.590  1.00  0.00    -0.081 NA 
HETATM   26  H   UNL     1      -6.349   8.266  66.935  1.00  0.00     0.000 HD 
BRANCH  25  27
HETATM   27  C   UNL     1      -7.674   7.399  65.634  1.00  0.00    -0.104 A  
HETATM   28  C   UNL     1      -8.848   5.371  65.035  1.00  0.00    -0.082 A  
HETATM   29  C   UNL     1      -8.563   6.374  65.970  1.00  0.00    -0.149 A  
HETATM   30  N   UNL     1      -8.306   5.382  63.783  1.00  0.00    -0.124 NA 
HETATM   31  C   UNL     1      -9.750   4.207  65.419  1.00  0.00    -0.201 C  
HETATM   32  C   UNL     1      -7.456   6.379  63.478  1.00  0.00    -0.081 A  
HETATM   33  F   UNL     1      -9.127   2.996  65.325  1.00  0.00    -0.128 F  
HETATM   34  F   UNL     1     -10.206   4.276  66.707  1.00  0.00    -0.243 F  
HETATM   35  F   UNL     1     -10.870   4.115  64.645  1.00  0.00    -0.290 F  
HETATM   36  C   UNL     1      -7.100   7.379  64.363  1.00  0.00    -0.062 A  
ENDBRANCH  25  27
ENDBRANCH  14  25
ENDBRANCH   7   9
ENDBRANCH   5   7
TORSDOF 5
ENDMDL
MODEL      206
REMARK 921   NORMALIZED FREE ENERGY PREDICTED BY IDOCK:   -5.43 KCAL/MOL
REMARK 922        TOTAL FREE ENERGY PREDICTED BY IDOCK:   -8.18 KCAL/MOL
REMARK 923 INTER-LIGAND FREE ENERGY PREDICTED BY IDOCK:   -7.13 KCAL/MOL
REMARK 924 INTRA-LIGAND FREE ENERGY PREDICTED BY IDOCK:   -1.05 KCAL/MOL
REMARK 927      BINDING AFFINITY PREDICTED BY RF-SCORE:    0.00 PKD
ROOT
HETATM    1  C   UNL     1      -7.984   3.052  62.437  1.00  0.00    -0.070 C  
HETATM    2  C   UNL     1      -7.253   4.115  63.263  1.00  0.00    -0.049 C  
HETATM    3  C   UNL     1      -6.580   3.459  64.474  1.00  0.00    -0.035 C  
HETATM    4  O   UNL     1      -6.224   4.695  62.445  1.00  0.00    -0.017 OA 
HETATM    5  C   UNL     1      -8.246   5.235  63.672  1.00  0.00    -0.126 C  
HETATM    6  H   UNL     1      -5.770   5.354  62.958  1.00  0.00     0.000 HD 
ENDROOT
BRANCH   5   7
HETATM    7  N   UNL     1      -7.598   6.183  64.566  1.00  0.00    -0.087 NA 
HETATM    8  H   UNL     1      -6.584   6.298  64.563  1.00  0.00     0.000 HD 
BRANCH   7   9
HETATM    9  C   UNL     1      -8.392   6.923  65.420  1.00  0.00    -0.119 A  
HETATM   10  N   UNL     1      -8.762   6.435  66.593  1.00  0.00    -0.123 NA 
HETATM   11  C   UNL     1      -9.538   7.228  67.332  1.00  0.00    -0.142 A  
HETATM   12  N   UNL     1      -8.711   8.136  64.987  1.00  0.00    -0.042 NA 
HETATM   13  N   UNL     1      -9.917   8.454  66.966  1.00  0.00    -0.226 NA 
HETATM   14  C   UNL     1      -9.449   8.877  65.799  1.00  0.00    -0.202 A  
BRANCH  11  15
HETATM   15  C   UNL     1     -10.009   6.739  68.656  1.00  0.00    -0.146 A  
HETATM   16  C   UNL     1     -11.067   7.224  70.704  1.00  0.00    -0.264 A  
HETATM   17  F   UNL     1     -11.143   8.374  72.814  1.00  0.00    -0.413 F  
HETATM   18  N   UNL     1     -10.622   7.635  69.480  1.00  0.00    -0.231 NA 
HETATM   19  C   UNL     1     -10.898   5.912  71.145  1.00  0.00    -0.334 A  
HETATM   20  C   UNL     1     -11.781   8.212  71.617  1.00  0.00    -0.287 C  
HETATM   21  C   UNL     1      -9.836   5.409  69.053  1.00  0.00    -0.231 A  
HETATM   22  C   UNL     1     -10.278   4.996  70.307  1.00  0.00    -0.328 A  
HETATM   23  F   UNL     1     -11.920   9.465  71.099  1.00  0.00    -0.317 F  
HETATM   24  F   UNL     1     -13.045   7.801  71.935  1.00  0.00    -0.311 F  
ENDBRANCH  11  15
BRANCH  14  25
HETATM   25  N   UNL     1      -9.659  10.202  65.412  1.00  0.00    -0.242 NA 
HETATM   26  H   UNL     1      -9.890  10.332  64.427  1.00  0.00     0.000 HD 
BRANCH  25  27
HETATM   27  C   UNL     1      -9.600  11.378  66.164  1.00  0.00    -0.218 A  
HETATM   28  C   UNL     1     -10.575  13.484  66.846  1.00  0.00    -0.270 A  
HETATM   29  C   UNL     1     -10.681  12.263  66.169  1.00  0.00    -0.296 A  
HETATM   30  N   UNL     1      -9.449  13.825  67.537  1.00  0.00    -0.214 NA 
HETATM   31  C   UNL     1     -11.716  14.488  66.788  1.00  0.00    -0.377 C  
HETATM   32  C   UNL     1      -8.420  12.958  67.524  1.00  0.00    -0.186 A  
HETATM   33  F   UNL     1     -11.349  15.682  66.239  1.00  0.00    -0.254 F  
HETATM   34  F   UNL     1     -12.778  14.061  66.038  1.00  0.00    -0.483 F  
HETATM   35  F   UNL     1     -12.237  14.783  68.014  1.00  0.00    -0.318 F  
HETATM   36  C   UNL     1      -8.442  11.755  66.845  1.00  0.00    -0.174 A  
ENDBRANCH  25  27
ENDBRANCH  14  25
ENDBRANCH   7   9
ENDBRANCH   5   7
TORSDOF 5
ENDMDL
MODEL      207
REMARK 921   NORMALIZED FREE ENERGY PREDICTED BY IDOCK:   -5.42 KCAL/MOL
REMARK 922        TOTAL FREE ENERGY PREDICTED BY IDOCK:   -8.17 KCAL/MOL
REMARK 923 INTER-LIGAND FREE ENERGY PREDICTED BY IDOCK:   -7.10 KCAL/MOL
REMARK 924 INTRA-LIGAND FREE ENERGY PREDICTED BY IDOCK:   -1.07 KCAL/MOL
REMARK 927      BINDING AFFINITY PREDICTED BY RF-SCORE:    0.00 PKD
ROOT
HETATM    1  C   UNL     1     -10.189  20.053  67.162  1.00  0.00    -0.580 C  
HETATM    2  C   UNL     1      -9.138  18.976  67.450  1.00  0.00    -0.293 C  
HETATM    3  C   UNL     1      -8.955  18.085  66.216  1.00  0.00    -0.194 C  
HETATM    4  O   UNL     1      -7.886  19.626  67.716  1.00  0.00    -0.275 OA 
HETATM    5  C   UNL     1      -9.550  18.166  68.708  1.00  0.00    -0.291 C  
HETATM    6  H   UNL     1      -7.234  18.958  67.895  1.00  0.00     0.000 HD 
ENDROOT
BRANCH   5   7
HETATM    7  N   UNL     1      -8.631  17.057  68.917  1.00  0.00    -0.236 NA 
HETATM    8  H   UNL     1      -7.647  17.224  69.128  1.00  0.00     0.000 HD 
BRANCH   7   9
HETATM    9  C   UNL     1      -9.127  15.771  68.823  1.00  0.00    -0.213 A  
HETATM   10  N   UNL     1     -10.137  15.379  69.582  1.00  0.00    -0.267 NA 
HETATM   11  C   UNL     1     -10.529  14.115  69.418  1.00  0.00     0.022 A  
HETATM   12  N   UNL     1      -8.543  15.004  67.911  1.00  0.00    -0.151 NA 
HETATM   13  N   UNL     1      -9.987  13.274  68.536  1.00  0.00    -0.221 NA 
HETATM   14  C   UNL     1      -9.019  13.776  67.780  1.00  0.00    -0.194 A  
BRANCH  11  15
HETATM   15  C   UNL     1     -11.647  13.597  70.252  1.00  0.00    -0.092 A  
HETATM   16  C   UNL     1     -12.818  11.731  71.087  1.00  0.00    -0.267 A  
HETATM   17  F   UNL     1     -14.190   9.786  70.756  1.00  0.00    -0.217 F  
HETATM   18  N   UNL     1     -11.802  12.245  70.333  1.00  0.00    -0.257 NA 
HETATM   19  C   UNL     1     -13.716  12.553  71.768  1.00  0.00     0.048 A  
HETATM   20  C   UNL     1     -12.977  10.221  71.209  1.00  0.00    -0.420 C  
HETATM   21  C   UNL     1     -12.516  14.456  70.933  1.00  0.00    -0.424 A  
HETATM   22  C   UNL     1     -13.559  13.930  71.690  1.00  0.00    -0.415 A  
HETATM   23  F   UNL     1     -12.046   9.496  70.529  1.00  0.00    -0.289 F  
HETATM   24  F   UNL     1     -12.903   9.797  72.505  1.00  0.00    -0.416 F  
ENDBRANCH  11  15
BRANCH  14  25
HETATM   25  N   UNL     1      -8.507  13.021  66.723  1.00  0.00    -0.419 NA 
HETATM   26  H   UNL     1      -7.542  12.713  66.841  1.00  0.00     0.000 HD 
BRANCH  25  27
HETATM   27  C   UNL     1      -9.113  12.622  65.529  1.00  0.00     0.475 A  
HETATM   28  C   UNL     1     -11.019  12.623  64.040  1.00  0.00    -0.406 A  
HETATM   29  C   UNL     1     -10.379  13.105  65.189  1.00  0.00    -0.326 A  
HETATM   30  N   UNL     1     -10.423  11.714  63.215  1.00  0.00    -0.395 NA 
HETATM   31  C   UNL     1     -12.431  13.081  63.706  1.00  0.00    -0.311 C  
HETATM   32  C   UNL     1      -9.202  11.264  63.557  1.00  0.00    -0.143 A  
HETATM   33  F   UNL     1     -13.327  12.053  63.657  1.00  0.00    -0.490 F  
HETATM   34  F   UNL     1     -12.946  13.961  64.618  1.00  0.00    -0.272 F  
HETATM   35  F   UNL     1     -12.521  13.716  62.502  1.00  0.00    -0.077 F  
HETATM   36  C   UNL     1      -8.530  11.667  64.696  1.00  0.00     0.907 A  
ENDBRANCH  25  27
ENDBRANCH  14  25
ENDBRANCH   7   9
ENDBRANCH   5   7
TORSDOF 5
ENDMDL
MODEL      208
REMARK 921   NORMALIZED FREE ENERGY PREDICTED BY IDOCK:   -5.42 KCAL/MOL
REMARK 922        TOTAL FREE ENERGY PREDICTED BY IDOCK:   -8.17 KCAL/MOL
REMARK 923 INTER-LIGAND FREE ENERGY PREDICTED BY IDOCK:   -7.46 KCAL/MOL
REMARK 924 INTRA-LIGAND FREE ENERGY PREDICTED BY IDOCK:   -0.71 KCAL/MOL
REMARK 927      BINDING AFFINITY PREDICTED BY RF-SCORE:    0.00 PKD
ROOT
HETATM    1  C   UNL     1      -8.204  10.628  63.906  1.00  0.00     0.010 C  
HETATM    2  C   UNL     1      -9.583  10.737  64.564  1.00  0.00    -0.270 C  
HETATM    3  C   UNL     1      -9.798  12.161  65.090  1.00  0.00    -0.200 C  
HETATM    4  O   UNL     1     -10.583  10.478  63.566  1.00  0.00    -0.421 OA 
HETATM    5  C   UNL     1      -9.716   9.667  65.682  1.00  0.00    -0.293 C  
HETATM    6  H   UNL     1     -11.438  10.546  63.975  1.00  0.00     0.000 HD 
ENDROOT
BRANCH   5   7
HETATM    7  N   UNL     1     -10.968   9.844  66.403  1.00  0.00     0.168 NA 
HETATM    8  H   UNL     1     -11.859   9.877  65.907  1.00  0.00     0.000 HD 
BRANCH   7   9
HETATM    9  C   UNL     1     -10.917   9.965  67.778  1.00  0.00    -0.217 A  
HETATM   10  N   UNL     1     -10.260   9.081  68.511  1.00  0.00    -0.195 NA 
HETATM   11  C   UNL     1     -10.286   9.286  69.828  1.00  0.00    -0.211 A  
HETATM   12  N   UNL     1     -11.537  11.027  68.276  1.00  0.00    -0.457 NA 
HETATM   13  N   UNL     1     -10.896  10.319  70.411  1.00  0.00    -0.291 NA 
HETATM   14  C   UNL     1     -11.479  11.182  69.589  1.00  0.00    -0.310 A  
BRANCH  11  15
HETATM   15  C   UNL     1      -9.584   8.322  70.718  1.00  0.00    -0.172 A  
HETATM   16  C   UNL     1      -9.110   6.077  71.251  1.00  0.00    -0.143 A  
HETATM   17  F   UNL     1      -9.804   3.894  71.981  1.00  0.00    -0.197 F  
HETATM   18  N   UNL     1      -9.737   6.993  70.456  1.00  0.00    -0.176 NA 
HETATM   19  C   UNL     1      -8.325   6.462  72.337  1.00  0.00    -0.106 A  
HETATM   20  C   UNL     1      -9.250   4.591  70.945  1.00  0.00    -0.139 C  
HETATM   21  C   UNL     1      -8.791   8.750  71.788  1.00  0.00    -0.256 A  
HETATM   22  C   UNL     1      -8.163   7.814  72.605  1.00  0.00    -0.171 A  
HETATM   23  F   UNL     1     -10.017   4.307  69.855  1.00  0.00    -0.270 F  
HETATM   24  F   UNL     1      -8.043   3.995  70.713  1.00  0.00    -0.059 F  
ENDBRANCH  11  15
BRANCH  14  25
HETATM   25  N   UNL     1     -12.000  12.374  70.097  1.00  0.00    -0.443 NA 
HETATM   26  H   UNL     1     -12.716  12.260  70.814  1.00  0.00     0.000 HD 
BRANCH  25  27
HETATM   27  C   UNL     1     -11.692  13.698  69.775  1.00  0.00    -0.297 A  
HETATM   28  C   UNL     1     -10.458  15.303  68.451  1.00  0.00    -0.236 A  
HETATM   29  C   UNL     1     -10.839  13.979  68.704  1.00  0.00    -0.272 A  
HETATM   30  N   UNL     1     -10.925  16.340  69.204  1.00  0.00    -0.306 NA 
HETATM   31  C   UNL     1      -9.466  15.610  67.339  1.00  0.00    -0.215 C  
HETATM   32  C   UNL     1     -11.748  16.050  70.228  1.00  0.00    -0.292 A  
HETATM   33  F   UNL     1      -8.331  16.219  67.789  1.00  0.00    -0.156 F  
HETATM   34  F   UNL     1      -9.034  14.495  66.674  1.00  0.00    -0.243 F  
HETATM   35  F   UNL     1      -9.975  16.429  66.374  1.00  0.00    -0.248 F  
HETATM   36  C   UNL     1     -12.133  14.764  70.558  1.00  0.00    -0.378 A  
ENDBRANCH  25  27
ENDBRANCH  14  25
ENDBRANCH   7   9
ENDBRANCH   5   7
TORSDOF 5
ENDMDL
MODEL      209
REMARK 921   NORMALIZED FREE ENERGY PREDICTED BY IDOCK:   -5.42 KCAL/MOL
REMARK 922        TOTAL FREE ENERGY PREDICTED BY IDOCK:   -8.16 KCAL/MOL
REMARK 923 INTER-LIGAND FREE ENERGY PREDICTED BY IDOCK:   -7.47 KCAL/MOL
REMARK 924 INTRA-LIGAND FREE ENERGY PREDICTED BY IDOCK:   -0.69 KCAL/MOL
REMARK 927      BINDING AFFINITY PREDICTED BY RF-SCORE:    0.00 PKD
ROOT
HETATM    1  C   UNL     1      -6.789   8.973  62.480  1.00  0.00    -0.092 C  
HETATM    2  C   UNL     1      -6.786   8.596  63.964  1.00  0.00    -0.082 C  
HETATM    3  C   UNL     1      -8.226   8.413  64.457  1.00  0.00    -0.149 C  
HETATM    4  O   UNL     1      -6.106   7.340  64.110  1.00  0.00    -0.037 OA 
HETATM    5  C   UNL     1      -6.015   9.671  64.776  1.00  0.00    -0.083 C  
HETATM    6  H   UNL     1      -6.104   7.106  65.032  1.00  0.00     0.000 HD 
ENDROOT
BRANCH   5   7
HETATM    7  N   UNL     1      -6.116   9.395  66.202  1.00  0.00    -0.059 NA 
HETATM    8  H   UNL     1      -5.583   8.637  66.629  1.00  0.00     0.000 HD 
BRANCH   7   9
HETATM    9  C   UNL     1      -6.954  10.187  66.962  1.00  0.00    -0.088 A  
HETATM   10  N   UNL     1      -7.595   9.686  68.006  1.00  0.00    -0.083 NA 
HETATM   11  C   UNL     1      -8.388  10.535  68.661  1.00  0.00    -0.132 A  
HETATM   12  N   UNL     1      -7.031  11.457  66.584  1.00  0.00    -0.129 NA 
HETATM   13  N   UNL     1      -8.533  11.822  68.339  1.00  0.00    -0.159 NA 
HETATM   14  C   UNL     1      -7.806  12.244  67.313  1.00  0.00    -0.171 A  
BRANCH  11  15
HETATM   15  C   UNL     1      -9.154  10.038  69.835  1.00  0.00    -0.154 A  
HETATM   16  C   UNL     1     -11.210   9.940  70.982  1.00  0.00    -0.364 A  
HETATM   17  F   UNL     1     -13.000  10.996  72.190  1.00  0.00    -0.553 F  
HETATM   18  N   UNL     1     -10.473  10.375  69.918  1.00  0.00    -0.246 NA 
HETATM   19  C   UNL     1     -10.648   9.169  72.000  1.00  0.00    -0.199 A  
HETATM   20  C   UNL     1     -12.691  10.285  71.065  1.00  0.00    -0.396 C  
HETATM   21  C   UNL     1      -8.556   9.253  70.826  1.00  0.00    -0.254 A  
HETATM   22  C   UNL     1      -9.307   8.821  71.917  1.00  0.00    -0.343 A  
HETATM   23  F   UNL     1     -13.161  11.023  70.020  1.00  0.00    -0.203 F  
HETATM   24  F   UNL     1     -13.480   9.170  71.115  1.00  0.00    -0.353 F  
ENDBRANCH  11  15
BRANCH  14  25
HETATM   25  N   UNL     1      -7.770  13.606  67.007  1.00  0.00    -0.358 NA 
HETATM   26  H   UNL     1      -6.897  13.932  66.594  1.00  0.00     0.000 HD 
BRANCH  25  27
HETATM   27  C   UNL     1      -8.746  14.591  67.180  1.00  0.00    -0.219 A  
HETATM   28  C   UNL     1     -10.438  15.652  68.544  1.00  0.00    -0.236 A  
HETATM   29  C   UNL     1      -9.394  14.729  68.410  1.00  0.00    -0.197 A  
HETATM   30  N   UNL     1     -10.824  16.453  67.509  1.00  0.00    -0.290 NA 
HETATM   31  C   UNL     1     -11.204  15.751  69.855  1.00  0.00    -0.334 C  
HETATM   32  C   UNL     1     -10.185  16.309  66.333  1.00  0.00    -0.313 A  
HETATM   33  F   UNL     1     -12.535  15.484  69.718  1.00  0.00    -0.358 F  
HETATM   34  F   UNL     1     -10.760  14.878  70.810  1.00  0.00    -0.221 F  
HETATM   35  F   UNL     1     -11.125  16.985  70.432  1.00  0.00    -0.254 F  
HETATM   36  C   UNL     1      -9.174  15.391  66.121  1.00  0.00    -0.362 A  
ENDBRANCH  25  27
ENDBRANCH  14  25
ENDBRANCH   7   9
ENDBRANCH   5   7
TORSDOF 5
ENDMDL
MODEL      210
REMARK 921   NORMALIZED FREE ENERGY PREDICTED BY IDOCK:   -5.40 KCAL/MOL
REMARK 922        TOTAL FREE ENERGY PREDICTED BY IDOCK:   -8.14 KCAL/MOL
REMARK 923 INTER-LIGAND FREE ENERGY PREDICTED BY IDOCK:   -7.25 KCAL/MOL
REMARK 924 INTRA-LIGAND FREE ENERGY PREDICTED BY IDOCK:   -0.89 KCAL/MOL
REMARK 927      BINDING AFFINITY PREDICTED BY RF-SCORE:    0.00 PKD
ROOT
HETATM    1  C   UNL     1     -13.635   6.521  71.911  1.00  0.00     0.106 C  
HETATM    2  C   UNL     1     -12.342   6.975  71.226  1.00  0.00    -0.383 C  
HETATM    3  C   UNL     1     -11.247   5.921  71.432  1.00  0.00    -0.285 C  
HETATM    4  O   UNL     1     -12.591   7.084  69.816  1.00  0.00    -0.028 OA 
HETATM    5  C   UNL     1     -11.928   8.371  71.763  1.00  0.00    -0.325 C  
HETATM    6  H   UNL     1     -11.788   7.365  69.392  1.00  0.00     0.000 HD 
ENDROOT
BRANCH   5   7
HETATM    7  N   UNL     1     -10.633   8.757  71.220  1.00  0.00    -0.239 NA 
HETATM    8  H   UNL     1      -9.766   8.441  71.656  1.00  0.00     0.000 HD 
BRANCH   7   9
HETATM    9  C   UNL     1     -10.610   9.561  70.097  1.00  0.00    -0.254 A  
HETATM   10  N   UNL     1     -10.983  10.829  70.167  1.00  0.00    -0.228 NA 
HETATM   11  C   UNL     1     -10.934  11.511  69.021  1.00  0.00    -0.234 A  
HETATM   12  N   UNL     1     -10.164   8.979  68.992  1.00  0.00    -0.200 NA 
HETATM   13  N   UNL     1     -10.512  10.998  67.864  1.00  0.00    -0.183 NA 
HETATM   14  C   UNL     1     -10.105   9.736  67.908  1.00  0.00    -0.173 A  
BRANCH  11  15
HETATM   15  C   UNL     1     -11.356  12.937  69.018  1.00  0.00    -0.290 A  
HETATM   16  C   UNL     1     -12.364  14.724  70.176  1.00  0.00    -0.330 A  
HETATM   17  F   UNL     1     -14.275  15.749  71.215  1.00  0.00    -0.486 F  
HETATM   18  N   UNL     1     -11.961  13.420  70.141  1.00  0.00    -0.336 NA 
HETATM   19  C   UNL     1     -12.190  15.578  69.087  1.00  0.00    -0.175 A  
HETATM   20  C   UNL     1     -13.012  15.279  71.438  1.00  0.00    -0.431 C  
HETATM   21  C   UNL     1     -11.147  13.765  67.910  1.00  0.00    -0.285 A  
HETATM   22  C   UNL     1     -11.571  15.090  67.944  1.00  0.00    -0.350 A  
HETATM   23  F   UNL     1     -13.124  14.383  72.459  1.00  0.00    -0.383 F  
HETATM   24  F   UNL     1     -12.318  16.339  71.952  1.00  0.00    -0.478 F  
ENDBRANCH  11  15
BRANCH  14  25
HETATM   25  N   UNL     1      -9.498   9.168  66.786  1.00  0.00    -0.163 NA 
HETATM   26  H   UNL     1      -9.515   9.748  65.947  1.00  0.00     0.000 HD 
BRANCH  25  27
HETATM   27  C   UNL     1      -8.870   7.929  66.636  1.00  0.00    -0.146 A  
HETATM   28  C   UNL     1      -8.772   5.557  67.094  1.00  0.00    -0.107 A  
HETATM   29  C   UNL     1      -9.457   6.776  67.164  1.00  0.00    -0.167 A  
HETATM   30  N   UNL     1      -7.553   5.451  66.490  1.00  0.00    -0.087 NA 
HETATM   31  C   UNL     1      -9.367   4.313  67.739  1.00  0.00    -0.160 C  
HETATM   32  C   UNL     1      -7.007   6.572  65.985  1.00  0.00    -0.062 A  
HETATM   33  F   UNL     1      -8.569   3.783  68.711  1.00  0.00    -0.087 F  
HETATM   34  F   UNL     1     -10.571   4.540  68.348  1.00  0.00     0.002 F  
HETATM   35  F   UNL     1      -9.597   3.304  66.850  1.00  0.00    -0.212 F  
HETATM   36  C   UNL     1      -7.608   7.814  66.053  1.00  0.00    -0.087 A  
ENDBRANCH  25  27
ENDBRANCH  14  25
ENDBRANCH   7   9
ENDBRANCH   5   7
TORSDOF 5
ENDMDL
MODEL      211
REMARK 921   NORMALIZED FREE ENERGY PREDICTED BY IDOCK:   -5.40 KCAL/MOL
REMARK 922        TOTAL FREE ENERGY PREDICTED BY IDOCK:   -8.14 KCAL/MOL
REMARK 923 INTER-LIGAND FREE ENERGY PREDICTED BY IDOCK:   -6.97 KCAL/MOL
REMARK 924 INTRA-LIGAND FREE ENERGY PREDICTED BY IDOCK:   -1.17 KCAL/MOL
REMARK 927      BINDING AFFINITY PREDICTED BY RF-SCORE:    0.00 PKD
ROOT
HETATM    1  C   UNL     1      -7.951   4.375  69.000  1.00  0.00    -0.069 C  
HETATM    2  C   UNL     1      -8.345   5.378  67.911  1.00  0.00    -0.099 C  
HETATM    3  C   UNL     1      -7.875   4.872  66.543  1.00  0.00    -0.099 C  
HETATM    4  O   UNL     1      -9.777   5.473  67.880  1.00  0.00    -0.120 OA 
HETATM    5  C   UNL     1      -7.766   6.777  68.255  1.00  0.00    -0.106 C  
HETATM    6  H   UNL     1     -10.021   6.096  67.205  1.00  0.00     0.000 HD 
ENDROOT
BRANCH   5   7
HETATM    7  N   UNL     1      -8.020   7.710  67.167  1.00  0.00    -0.116 NA 
HETATM    8  H   UNL     1      -7.629   7.550  66.238  1.00  0.00     0.000 HD 
BRANCH   7   9
HETATM    9  C   UNL     1      -8.805   8.816  67.425  1.00  0.00    -0.133 A  
HETATM   10  N   UNL     1      -9.508   8.900  68.543  1.00  0.00    -0.147 NA 
HETATM   11  C   UNL     1     -10.240  10.006  68.685  1.00  0.00    -0.180 A  
HETATM   12  N   UNL     1      -8.765   9.767  66.500  1.00  0.00    -0.127 NA 
HETATM   13  N   UNL     1     -10.269  11.002  67.798  1.00  0.00    -0.179 NA 
HETATM   14  C   UNL     1      -9.487  10.851  66.737  1.00  0.00    -0.177 A  
BRANCH  11  15
HETATM   15  C   UNL     1     -11.072  10.162  69.909  1.00  0.00    -0.293 A  
HETATM   16  C   UNL     1     -12.314  11.591  71.310  1.00  0.00    -0.209 A  
HETATM   17  F   UNL     1     -12.456  13.449  72.829  1.00  0.00    -0.078 F  
HETATM   18  N   UNL     1     -11.548  11.407  70.195  1.00  0.00    -0.305 NA 
HETATM   19  C   UNL     1     -12.612  10.541  72.179  1.00  0.00    -0.032 A  
HETATM   20  C   UNL     1     -12.876  12.973  71.620  1.00  0.00    -0.277 C  
HETATM   21  C   UNL     1     -11.363   9.079  70.744  1.00  0.00    -0.329 A  
HETATM   22  C   UNL     1     -12.133   9.271  71.888  1.00  0.00    -0.440 A  
HETATM   23  F   UNL     1     -12.552  13.933  70.710  1.00  0.00    -0.364 F  
HETATM   24  F   UNL     1     -14.240  12.972  71.687  1.00  0.00    -0.083 F  
ENDBRANCH  11  15
BRANCH  14  25
HETATM   25  N   UNL     1      -9.329  11.910  65.841  1.00  0.00    -0.327 NA 
HETATM   26  H   UNL     1      -8.504  11.850  65.244  1.00  0.00     0.000 HD 
BRANCH  25  27
HETATM   27  C   UNL     1     -10.127  13.039  65.635  1.00  0.00    -0.268 A  
HETATM   28  C   UNL     1     -10.517  15.410  65.906  1.00  0.00    -0.340 A  
HETATM   29  C   UNL     1      -9.671  14.301  66.026  1.00  0.00    -0.312 A  
HETATM   30  N   UNL     1     -11.772  15.302  65.382  1.00  0.00    -0.102 NA 
HETATM   31  C   UNL     1     -10.060  16.773  66.405  1.00  0.00    -0.317 C  
HETATM   32  C   UNL     1     -12.191  14.080  65.007  1.00  0.00    -0.433 A  
HETATM   33  F   UNL     1     -10.864  17.280  67.385  1.00  0.00    -0.340 F  
HETATM   34  F   UNL     1      -8.803  16.760  66.946  1.00  0.00    -0.198 F  
HETATM   35  F   UNL     1     -10.019  17.720  65.424  1.00  0.00    -0.021 F  
HETATM   36  C   UNL     1     -11.424  12.937  65.134  1.00  0.00    -0.348 A  
ENDBRANCH  25  27
ENDBRANCH  14  25
ENDBRANCH   7   9
ENDBRANCH   5   7
TORSDOF 5
ENDMDL
MODEL      212
REMARK 921   NORMALIZED FREE ENERGY PREDICTED BY IDOCK:   -5.40 KCAL/MOL
REMARK 922        TOTAL FREE ENERGY PREDICTED BY IDOCK:   -8.14 KCAL/MOL
REMARK 923 INTER-LIGAND FREE ENERGY PREDICTED BY IDOCK:   -7.64 KCAL/MOL
REMARK 924 INTRA-LIGAND FREE ENERGY PREDICTED BY IDOCK:   -0.51 KCAL/MOL
REMARK 927      BINDING AFFINITY PREDICTED BY RF-SCORE:    0.00 PKD
ROOT
HETATM    1  C   UNL     1     -11.166   7.300  73.035  1.00  0.00    -0.309 C  
HETATM    2  C   UNL     1     -11.925   7.879  71.837  1.00  0.00    -0.305 C  
HETATM    3  C   UNL     1     -12.149   6.786  70.786  1.00  0.00    -0.402 C  
HETATM    4  O   UNL     1     -13.213   8.327  72.292  1.00  0.00    -0.473 OA 
HETATM    5  C   UNL     1     -11.153   9.100  71.268  1.00  0.00    -0.335 C  
HETATM    6  H   UNL     1     -13.684   8.686  71.548  1.00  0.00     0.000 HD 
ENDROOT
BRANCH   5   7
HETATM    7  N   UNL     1     -11.793   9.579  70.051  1.00  0.00    -0.457 NA 
HETATM    8  H   UNL     1     -12.808   9.675  69.995  1.00  0.00     0.000 HD 
BRANCH   7   9
HETATM    9  C   UNL     1     -10.991   9.900  68.975  1.00  0.00    -0.190 A  
HETATM   10  N   UNL     1     -10.135   9.018  68.482  1.00  0.00    -0.184 NA 
HETATM   11  C   UNL     1      -9.401   9.437  67.451  1.00  0.00    -0.126 A  
HETATM   12  N   UNL     1     -11.172  11.116  68.476  1.00  0.00    -0.234 NA 
HETATM   13  N   UNL     1      -9.510  10.646  66.899  1.00  0.00    -0.163 NA 
HETATM   14  C   UNL     1     -10.434  11.439  67.425  1.00  0.00    -0.205 A  
BRANCH  11  15
HETATM   15  C   UNL     1      -8.404   8.506  66.857  1.00  0.00    -0.109 A  
HETATM   16  C   UNL     1      -7.510   7.509  64.919  1.00  0.00    -0.089 A  
HETATM   17  F   UNL     1      -7.718   6.074  63.001  1.00  0.00    -0.066 F  
HETATM   18  N   UNL     1      -8.408   8.355  65.501  1.00  0.00    -0.146 NA 
HETATM   19  C   UNL     1      -6.592   6.778  65.673  1.00  0.00    -0.051 A  
HETATM   20  C   UNL     1      -7.488   7.359  63.403  1.00  0.00    -0.101 C  
HETATM   21  C   UNL     1      -7.488   7.805  67.648  1.00  0.00    -0.104 A  
HETATM   22  C   UNL     1      -6.581   6.932  67.053  1.00  0.00    -0.047 A  
HETATM   23  F   UNL     1      -8.404   8.123  62.745  1.00  0.00    -0.171 F  
HETATM   24  F   UNL     1      -6.275   7.692  62.869  1.00  0.00    -0.058 F  
ENDBRANCH  11  15
BRANCH  14  25
HETATM   25  N   UNL     1     -10.730  12.657  66.810  1.00  0.00    -0.237 NA 
HETATM   26  H   UNL     1     -10.766  12.628  65.791  1.00  0.00     0.000 HD 
BRANCH  25  27
HETATM   27  C   UNL     1     -10.984  13.910  67.374  1.00  0.00    -0.288 A  
HETATM   28  C   UNL     1     -11.716  15.260  69.242  1.00  0.00    -0.338 A  
HETATM   29  C   UNL     1     -11.368  14.011  68.714  1.00  0.00    -0.309 A  
HETATM   30  N   UNL     1     -11.657  16.398  68.492  1.00  0.00    -0.219 NA 
HETATM   31  C   UNL     1     -12.214  15.368  70.676  1.00  0.00    -0.385 C  
HETATM   32  C   UNL     1     -11.280  16.281  67.205  1.00  0.00     0.052 A  
HETATM   33  F   UNL     1     -13.476  15.879  70.765  1.00  0.00    -0.479 F  
HETATM   34  F   UNL     1     -12.270  14.164  71.323  1.00  0.00    -0.373 F  
HETATM   35  F   UNL     1     -11.430  16.162  71.461  1.00  0.00    -0.409 F  
HETATM   36  C   UNL     1     -10.962  15.075  66.609  1.00  0.00    -0.325 A  
ENDBRANCH  25  27
ENDBRANCH  14  25
ENDBRANCH   7   9
ENDBRANCH   5   7
TORSDOF 5
ENDMDL
MODEL      213
REMARK 921   NORMALIZED FREE ENERGY PREDICTED BY IDOCK:   -5.40 KCAL/MOL
REMARK 922        TOTAL FREE ENERGY PREDICTED BY IDOCK:   -8.14 KCAL/MOL
REMARK 923 INTER-LIGAND FREE ENERGY PREDICTED BY IDOCK:   -7.11 KCAL/MOL
REMARK 924 INTRA-LIGAND FREE ENERGY PREDICTED BY IDOCK:   -1.03 KCAL/MOL
REMARK 927      BINDING AFFINITY PREDICTED BY RF-SCORE:    0.00 PKD
ROOT
HETATM    1  C   UNL     1      -7.424   6.402  72.331  1.00  0.00    -0.096 C  
HETATM    2  C   UNL     1      -8.817   6.576  71.718  1.00  0.00    -0.138 C  
HETATM    3  C   UNL     1      -9.052   5.501  70.650  1.00  0.00    -0.168 C  
HETATM    4  O   UNL     1      -9.794   6.391  72.754  1.00  0.00    -0.168 OA 
HETATM    5  C   UNL     1      -8.964   8.014  71.154  1.00  0.00    -0.141 C  
HETATM    6  H   UNL     1     -10.658   6.499  72.374  1.00  0.00     0.000 HD 
ENDROOT
BRANCH   5   7
HETATM    7  N   UNL     1     -10.232   8.153  70.452  1.00  0.00    -0.198 NA 
HETATM    8  H   UNL     1     -11.111   7.893  70.900  1.00  0.00     0.000 HD 
BRANCH   7   9
HETATM    9  C   UNL     1     -10.214   8.647  69.162  1.00  0.00    -0.208 A  
HETATM   10  N   UNL     1      -9.581   7.996  68.199  1.00  0.00    -0.150 NA 
HETATM   11  C   UNL     1      -9.616   8.568  66.994  1.00  0.00    -0.188 A  
HETATM   12  N   UNL     1     -10.890   9.773  68.976  1.00  0.00    -0.217 NA 
HETATM   13  N   UNL     1     -10.260   9.704  66.725  1.00  0.00    -0.239 NA 
HETATM   14  C   UNL     1     -10.912  10.252  67.743  1.00  0.00    -0.300 A  
BRANCH  11  15
HETATM   15  C   UNL     1      -8.911   7.903  65.865  1.00  0.00    -0.148 A  
HETATM   16  C   UNL     1      -8.449   5.912  64.694  1.00  0.00    -0.029 A  
HETATM   17  F   UNL     1      -7.494   3.709  64.580  1.00  0.00    -0.067 F  
HETATM   18  N   UNL     1      -9.081   6.558  65.717  1.00  0.00    -0.050 NA 
HETATM   19  C   UNL     1      -7.618   6.587  63.800  1.00  0.00    -0.096 A  
HETATM   20  C   UNL     1      -8.660   4.416  64.503  1.00  0.00    -0.135 C  
HETATM   21  C   UNL     1      -8.099   8.620  64.980  1.00  0.00    -0.143 A  
HETATM   22  C   UNL     1      -7.445   7.956  63.946  1.00  0.00    -0.110 A  
HETATM   23  F   UNL     1      -9.502   3.842  65.407  1.00  0.00    -0.139 F  
HETATM   24  F   UNL     1      -9.180   4.120  63.274  1.00  0.00    -0.114 F  
ENDBRANCH  11  15
BRANCH  14  25
HETATM   25  N   UNL     1     -11.744  11.350  67.518  1.00  0.00    -0.609 NA 
HETATM   26  H   UNL     1     -12.616  11.346  68.048  1.00  0.00     0.000 HD 
BRANCH  25  27
HETATM   27  C   UNL     1     -11.568  12.454  66.678  1.00  0.00    -0.385 A  
HETATM   28  C   UNL     1     -10.613  14.634  66.253  1.00  0.00    -0.306 A  
HETATM   29  C   UNL     1     -10.707  13.488  67.052  1.00  0.00    -0.278 A  
HETATM   30  N   UNL     1     -11.317  14.757  65.090  1.00  0.00    -0.364 NA 
HETATM   31  C   UNL     1      -9.740  15.800  66.693  1.00  0.00    -0.249 C  
HETATM   32  C   UNL     1     -12.138  13.749  64.746  1.00  0.00    -0.410 A  
HETATM   33  F   UNL     1     -10.443  16.958  66.862  1.00  0.00    -0.303 F  
HETATM   34  F   UNL     1      -9.111  15.586  67.889  1.00  0.00    -0.172 F  
HETATM   35  F   UNL     1      -8.743  16.091  65.808  1.00  0.00    -0.340 F  
HETATM   36  C   UNL     1     -12.309  12.608  65.507  1.00  0.00    -0.455 A  
ENDBRANCH  25  27
ENDBRANCH  14  25
ENDBRANCH   7   9
ENDBRANCH   5   7
TORSDOF 5
ENDMDL
MODEL      214
REMARK 921   NORMALIZED FREE ENERGY PREDICTED BY IDOCK:   -5.37 KCAL/MOL
REMARK 922        TOTAL FREE ENERGY PREDICTED BY IDOCK:   -8.11 KCAL/MOL
REMARK 923 INTER-LIGAND FREE ENERGY PREDICTED BY IDOCK:   -7.94 KCAL/MOL
REMARK 924 INTRA-LIGAND FREE ENERGY PREDICTED BY IDOCK:   -0.17 KCAL/MOL
REMARK 927      BINDING AFFINITY PREDICTED BY RF-SCORE:    0.00 PKD
ROOT
HETATM    1  C   UNL     1      -8.209   7.255  74.537  1.00  0.00    -0.216 C  
HETATM    2  C   UNL     1      -8.995   7.038  73.240  1.00  0.00    -0.133 C  
HETATM    3  C   UNL     1      -8.385   7.881  72.115  1.00  0.00    -0.168 C  
HETATM    4  O   UNL     1      -8.880   5.655  72.869  1.00  0.00    -0.125 OA 
HETATM    5  C   UNL     1     -10.495   7.362  73.476  1.00  0.00    -0.345 C  
HETATM    6  H   UNL     1      -9.368   5.520  72.064  1.00  0.00     0.000 HD 
ENDROOT
BRANCH   5   7
HETATM    7  N   UNL     1     -11.230   7.286  72.222  1.00  0.00    -0.255 NA 
HETATM    8  H   UNL     1     -11.611   6.400  71.890  1.00  0.00     0.000 HD 
BRANCH   7   9
HETATM    9  C   UNL     1     -11.399   8.448  71.494  1.00  0.00    -0.276 A  
HETATM   10  N   UNL     1     -10.883   8.566  70.281  1.00  0.00    -0.238 NA 
HETATM   11  C   UNL     1     -11.096   9.734  69.673  1.00  0.00    -0.217 A  
HETATM   12  N   UNL     1     -12.127   9.386  72.086  1.00  0.00    -0.295 NA 
HETATM   13  N   UNL     1     -11.803  10.733  70.202  1.00  0.00    -0.312 NA 
HETATM   14  C   UNL     1     -12.328  10.499  71.397  1.00  0.00    -0.372 A  
BRANCH  11  15
HETATM   15  C   UNL     1     -10.530   9.947  68.314  1.00  0.00    -0.210 A  
HETATM   16  C   UNL     1      -9.272  11.315  66.866  1.00  0.00    -0.175 A  
HETATM   17  F   UNL     1      -8.957  13.365  65.651  1.00  0.00     0.162 F  
HETATM   18  N   UNL     1      -9.807  11.083  68.100  1.00  0.00    -0.170 NA 
HETATM   19  C   UNL     1      -9.457  10.427  65.806  1.00  0.00    -0.247 A  
HETATM   20  C   UNL     1      -8.437  12.566  66.629  1.00  0.00    -0.001 C  
HETATM   21  C   UNL     1     -10.724   9.022  67.282  1.00  0.00    -0.222 A  
HETATM   22  C   UNL     1     -10.189   9.267  66.020  1.00  0.00    -0.156 A  
HETATM   23  F   UNL     1      -8.291  13.366  67.722  1.00  0.00    -0.133 F  
HETATM   24  F   UNL     1      -7.169  12.271  66.216  1.00  0.00     0.202 F  
ENDBRANCH  11  15
BRANCH  14  25
HETATM   25  N   UNL     1     -13.214  11.422  71.954  1.00  0.00    -0.458 NA 
HETATM   26  H   UNL     1     -13.877  11.033  72.625  1.00  0.00     0.000 HD 
BRANCH  25  27
HETATM   27  C   UNL     1     -13.333  12.798  71.736  1.00  0.00    -0.342 A  
HETATM   28  C   UNL     1     -12.552  14.830  70.684  1.00  0.00    -0.354 A  
HETATM   29  C   UNL     1     -12.492  13.438  70.823  1.00  0.00    -0.418 A  
HETATM   30  N   UNL     1     -13.440  15.584  71.396  1.00  0.00    -0.513 NA 
HETATM   31  C   UNL     1     -11.585  15.545  69.753  1.00  0.00    -0.334 C  
HETATM   32  C   UNL     1     -14.244  14.948  72.267  1.00  0.00    -0.471 A  
HETATM   33  F   UNL     1     -10.794  16.452  70.398  1.00  0.00    -0.310 F  
HETATM   34  F   UNL     1     -10.715  14.699  69.120  1.00  0.00    -0.228 F  
HETATM   35  F   UNL     1     -12.208  16.234  68.754  1.00  0.00    -0.264 F  
HETATM   36  C   UNL     1     -14.211  13.584  72.483  1.00  0.00    -0.342 A  
ENDBRANCH  25  27
ENDBRANCH  14  25
ENDBRANCH   7   9
ENDBRANCH   5   7
TORSDOF 5
ENDMDL
MODEL      215
REMARK 921   NORMALIZED FREE ENERGY PREDICTED BY IDOCK:   -5.37 KCAL/MOL
REMARK 922        TOTAL FREE ENERGY PREDICTED BY IDOCK:   -8.10 KCAL/MOL
REMARK 923 INTER-LIGAND FREE ENERGY PREDICTED BY IDOCK:   -7.10 KCAL/MOL
REMARK 924 INTRA-LIGAND FREE ENERGY PREDICTED BY IDOCK:   -1.00 KCAL/MOL
REMARK 927      BINDING AFFINITY PREDICTED BY RF-SCORE:    0.00 PKD
ROOT
HETATM    1  C   UNL     1     -11.177   7.365  73.010  1.00  0.00    -0.345 C  
HETATM    2  C   UNL     1     -12.031   7.994  71.904  1.00  0.00    -0.314 C  
HETATM    3  C   UNL     1     -12.299   6.961  70.803  1.00  0.00    -0.314 C  
HETATM    4  O   UNL     1     -13.295   8.375  72.471  1.00  0.00    -0.565 OA 
HETATM    5  C   UNL     1     -11.330   9.268  71.363  1.00  0.00    -0.364 C  
HETATM    6  H   UNL     1     -13.824   8.765  71.785  1.00  0.00     0.000 HD 
ENDROOT
BRANCH   5   7
HETATM    7  N   UNL     1     -12.063   9.803  70.225  1.00  0.00    -0.469 NA 
HETATM    8  H   UNL     1     -13.081   9.870  70.241  1.00  0.00     0.000 HD 
BRANCH   7   9
HETATM    9  C   UNL     1     -11.343  10.217  69.121  1.00  0.00    -0.143 A  
HETATM   10  N   UNL     1     -10.414   9.439  68.589  1.00  0.00    -0.207 NA 
HETATM   11  C   UNL     1      -9.772   9.941  67.534  1.00  0.00    -0.160 A  
HETATM   12  N   UNL     1     -11.678  11.407  68.640  1.00  0.00    -0.361 NA 
HETATM   13  N   UNL     1     -10.037  11.133  66.997  1.00  0.00    -0.195 NA 
HETATM   14  C   UNL     1     -11.023  11.815  67.565  1.00  0.00    -0.256 A  
BRANCH  11  15
HETATM   15  C   UNL     1      -8.701   9.131  66.895  1.00  0.00    -0.123 A  
HETATM   16  C   UNL     1      -7.785   8.235  64.918  1.00  0.00    -0.115 A  
HETATM   17  F   UNL     1      -7.911   6.777  63.011  1.00  0.00    -0.101 F  
HETATM   18  N   UNL     1      -8.749   8.974  65.541  1.00  0.00    -0.170 NA 
HETATM   19  C   UNL     1      -6.754   7.621  65.629  1.00  0.00    -0.045 A  
HETATM   20  C   UNL     1      -7.815   8.082  63.402  1.00  0.00    -0.147 C  
HETATM   21  C   UNL     1      -7.674   8.546  67.643  1.00  0.00    -0.102 A  
HETATM   22  C   UNL     1      -6.699   7.782  67.006  1.00  0.00    -0.068 A  
HETATM   23  F   UNL     1      -8.843   8.731  62.787  1.00  0.00    -0.203 F  
HETATM   24  F   UNL     1      -6.676   8.552  62.813  1.00  0.00    -0.089 F  
ENDBRANCH  11  15
BRANCH  14  25
HETATM   25  N   UNL     1     -11.476  12.995  66.972  1.00  0.00    -0.315 NA 
HETATM   26  H   UNL     1     -12.422  12.951  66.591  1.00  0.00     0.000 HD 
BRANCH  25  27
HETATM   27  C   UNL     1     -10.835  14.227  66.820  1.00  0.00    -0.298 A  
HETATM   28  C   UNL     1      -9.095  15.780  67.458  1.00  0.00    -0.195 A  
HETATM   29  C   UNL     1      -9.673  14.508  67.543  1.00  0.00    -0.211 A  
HETATM   30  N   UNL     1      -9.616  16.753  66.657  1.00  0.00    -0.246 NA 
HETATM   31  C   UNL     1      -7.877  16.120  68.305  1.00  0.00    -0.153 C  
HETATM   32  C   UNL     1     -10.733  16.463  65.965  1.00  0.00    -0.191 A  
HETATM   33  F   UNL     1      -8.096  17.161  69.160  1.00  0.00    -0.233 F  
HETATM   34  F   UNL     1      -7.461  15.086  69.098  1.00  0.00    -0.121 F  
HETATM   35  F   UNL     1      -6.785  16.466  67.563  1.00  0.00    -0.121 F  
HETATM   36  C   UNL     1     -11.378  15.242  66.032  1.00  0.00    -0.162 A  
ENDBRANCH  25  27
ENDBRANCH  14  25
ENDBRANCH   7   9
ENDBRANCH   5   7
TORSDOF 5
ENDMDL
MODEL      216
REMARK 921   NORMALIZED FREE ENERGY PREDICTED BY IDOCK:   -5.33 KCAL/MOL
REMARK 922        TOTAL FREE ENERGY PREDICTED BY IDOCK:   -8.05 KCAL/MOL
REMARK 923 INTER-LIGAND FREE ENERGY PREDICTED BY IDOCK:   -7.12 KCAL/MOL
REMARK 924 INTRA-LIGAND FREE ENERGY PREDICTED BY IDOCK:   -0.93 KCAL/MOL
REMARK 927      BINDING AFFINITY PREDICTED BY RF-SCORE:    0.00 PKD
ROOT
HETATM    1  C   UNL     1      -7.150   9.336  63.777  1.00  0.00    -0.095 C  
HETATM    2  C   UNL     1      -8.500   9.371  64.500  1.00  0.00    -0.177 C  
HETATM    3  C   UNL     1      -8.632  10.677  65.293  1.00  0.00    -0.175 C  
HETATM    4  O   UNL     1      -9.543   9.347  63.512  1.00  0.00    -0.416 OA 
HETATM    5  C   UNL     1      -8.645   8.115  65.399  1.00  0.00    -0.129 C  
HETATM    6  H   UNL     1     -10.380   9.368  63.960  1.00  0.00     0.000 HD 
ENDROOT
BRANCH   5   7
HETATM    7  N   UNL     1      -9.864   8.199  66.191  1.00  0.00    -0.464 NA 
HETATM    8  H   UNL     1     -10.782   8.117  65.752  1.00  0.00     0.000 HD 
BRANCH   7   9
HETATM    9  C   UNL     1      -9.745   8.394  67.553  1.00  0.00    -0.162 A  
HETATM   10  N   UNL     1     -10.648   9.096  68.218  1.00  0.00    -0.202 NA 
HETATM   11  C   UNL     1     -10.429   9.232  69.526  1.00  0.00    -0.220 A  
HETATM   12  N   UNL     1      -8.699   7.806  68.120  1.00  0.00    -0.126 NA 
HETATM   13  N   UNL     1      -9.397   8.686  70.171  1.00  0.00    -0.160 NA 
HETATM   14  C   UNL     1      -8.577   7.953  69.430  1.00  0.00    -0.137 A  
BRANCH  11  15
HETATM   15  C   UNL     1     -11.393  10.025  70.335  1.00  0.00    -0.320 A  
HETATM   16  C   UNL     1     -12.214  12.146  70.950  1.00  0.00    -0.211 A  
HETATM   17  F   UNL     1     -11.927  14.296  71.986  1.00  0.00    -0.333 F  
HETATM   18  N   UNL     1     -11.347  11.384  70.222  1.00  0.00    -0.148 NA 
HETATM   19  C   UNL     1     -13.142  11.576  71.821  1.00  0.00    -0.503 A  
HETATM   20  C   UNL     1     -12.190  13.662  70.805  1.00  0.00    -0.347 C  
HETATM   21  C   UNL     1     -12.320   9.413  71.185  1.00  0.00    -0.386 A  
HETATM   22  C   UNL     1     -13.195  10.194  71.936  1.00  0.00    -0.557 A  
HETATM   23  F   UNL     1     -11.268  14.132  69.918  1.00  0.00    -0.278 F  
HETATM   24  F   UNL     1     -13.391  14.161  70.388  1.00  0.00    -0.290 F  
ENDBRANCH  11  15
BRANCH  14  25
HETATM   25  N   UNL     1      -7.566   7.213  70.047  1.00  0.00    -0.089 NA 
HETATM   26  H   UNL     1      -6.674   7.699  70.142  1.00  0.00     0.000 HD 
BRANCH  25  27
HETATM   27  C   UNL     1      -7.587   5.911  70.553  1.00  0.00    -0.091 A  
HETATM   28  C   UNL     1      -8.717   4.148  71.762  1.00  0.00    -0.112 A  
HETATM   29  C   UNL     1      -8.739   5.417  71.171  1.00  0.00    -0.135 A  
HETATM   30  N   UNL     1      -7.606   3.357  71.723  1.00  0.00    -0.052 NA 
HETATM   31  C   UNL     1      -9.941   3.635  72.508  1.00  0.00    -0.161 C  
HETATM   32  C   UNL     1      -6.509   3.849  71.120  1.00  0.00    -0.026 A  
HETATM   33  F   UNL     1      -9.690   3.365  73.822  1.00  0.00    -0.110 F  
HETATM   34  F   UNL     1     -10.982   4.523  72.518  1.00  0.00    -0.251 F  
HETATM   35  F   UNL     1     -10.452   2.486  71.979  1.00  0.00    -0.222 F  
HETATM   36  C   UNL     1      -6.447   5.107  70.552  1.00  0.00    -0.034 A  
ENDBRANCH  25  27
ENDBRANCH  14  25
ENDBRANCH   7   9
ENDBRANCH   5   7
TORSDOF 5
ENDMDL
MODEL      217
REMARK 921   NORMALIZED FREE ENERGY PREDICTED BY IDOCK:   -5.33 KCAL/MOL
REMARK 922        TOTAL FREE ENERGY PREDICTED BY IDOCK:   -8.05 KCAL/MOL
REMARK 923 INTER-LIGAND FREE ENERGY PREDICTED BY IDOCK:   -7.44 KCAL/MOL
REMARK 924 INTRA-LIGAND FREE ENERGY PREDICTED BY IDOCK:   -0.61 KCAL/MOL
REMARK 927      BINDING AFFINITY PREDICTED BY RF-SCORE:    0.00 PKD
ROOT
HETATM    1  C   UNL     1     -10.074   8.833  71.441  1.00  0.00    -0.354 C  
HETATM    2  C   UNL     1     -10.518   9.650  70.223  1.00  0.00    -0.283 C  
HETATM    3  C   UNL     1     -11.799  10.424  70.555  1.00  0.00    -0.430 C  
HETATM    4  O   UNL     1      -9.490  10.605  69.920  1.00  0.00    -0.383 OA 
HETATM    5  C   UNL     1     -10.694   8.711  68.999  1.00  0.00    -0.101 C  
HETATM    6  H   UNL     1      -9.766  11.112  69.164  1.00  0.00     0.000 HD 
ENDROOT
BRANCH   5   7
HETATM    7  N   UNL     1     -11.242   9.450  67.871  1.00  0.00    -0.467 NA 
HETATM    8  H   UNL     1     -12.247   9.601  67.781  1.00  0.00     0.000 HD 
BRANCH   7   9
HETATM    9  C   UNL     1     -10.363   9.942  66.925  1.00  0.00    -0.235 A  
HETATM   10  N   UNL     1      -9.552   9.128  66.269  1.00  0.00    -0.233 NA 
HETATM   11  C   UNL     1      -8.737   9.710  65.388  1.00  0.00    -0.158 A  
HETATM   12  N   UNL     1     -10.428  11.251  66.718  1.00  0.00    -0.238 NA 
HETATM   13  N   UNL     1      -8.728  11.018  65.130  1.00  0.00    -0.120 NA 
HETATM   14  C   UNL     1      -9.616  11.743  65.796  1.00  0.00    -0.233 A  
BRANCH  11  15
HETATM   15  C   UNL     1      -7.783   8.860  64.626  1.00  0.00    -0.117 A  
HETATM   16  C   UNL     1      -7.141   6.700  63.939  1.00  0.00    -0.055 A  
HETATM   17  F   UNL     1      -6.349   4.483  64.427  1.00  0.00    -0.029 F  
HETATM   18  N   UNL     1      -7.996   7.513  64.626  1.00  0.00    -0.139 NA 
HETATM   19  C   UNL     1      -6.042   7.206  63.246  1.00  0.00    -0.045 A  
HETATM   20  C   UNL     1      -7.391   5.198  63.908  1.00  0.00    -0.052 C  
HETATM   21  C   UNL     1      -6.702   9.410  63.929  1.00  0.00    -0.096 A  
HETATM   22  C   UNL     1      -5.824   8.577  63.240  1.00  0.00    -0.077 A  
HETATM   23  F   UNL     1      -8.496   4.793  64.593  1.00  0.00    -0.114 F  
HETATM   24  F   UNL     1      -7.552   4.727  62.635  1.00  0.00    -0.053 F  
ENDBRANCH  11  15
BRANCH  14  25
HETATM   25  N   UNL     1      -9.789  13.091  65.473  1.00  0.00    -0.449 NA 
HETATM   26  H   UNL     1      -9.666  13.317  64.486  1.00  0.00     0.000 HD 
BRANCH  25  27
HETATM   27  C   UNL     1     -10.103  14.178  66.293  1.00  0.00    -0.300 A  
HETATM   28  C   UNL     1     -10.883  15.054  68.408  1.00  0.00    -0.256 A  
HETATM   29  C   UNL     1     -10.474  13.968  67.624  1.00  0.00    -0.245 A  
HETATM   30  N   UNL     1     -10.897  16.327  67.918  1.00  0.00    -0.334 NA 
HETATM   31  C   UNL     1     -11.366  14.825  69.833  1.00  0.00    -0.271 C  
HETATM   32  C   UNL     1     -10.533  16.509  66.636  1.00  0.00    -0.266 A  
HETATM   33  F   UNL     1     -12.653  15.233  70.032  1.00  0.00    -0.363 F  
HETATM   34  F   UNL     1     -11.346  13.509  70.208  1.00  0.00    -0.223 F  
HETATM   35  F   UNL     1     -10.616  15.477  70.767  1.00  0.00    -0.333 F  
HETATM   36  C   UNL     1     -10.157  15.479  65.795  1.00  0.00    -0.388 A  
ENDBRANCH  25  27
ENDBRANCH  14  25
ENDBRANCH   7   9
ENDBRANCH   5   7
TORSDOF 5
ENDMDL
MODEL      218
REMARK 921   NORMALIZED FREE ENERGY PREDICTED BY IDOCK:   -5.32 KCAL/MOL
REMARK 922        TOTAL FREE ENERGY PREDICTED BY IDOCK:   -8.04 KCAL/MOL
REMARK 923 INTER-LIGAND FREE ENERGY PREDICTED BY IDOCK:   -6.96 KCAL/MOL
REMARK 924 INTRA-LIGAND FREE ENERGY PREDICTED BY IDOCK:   -1.08 KCAL/MOL
REMARK 927      BINDING AFFINITY PREDICTED BY RF-SCORE:    0.00 PKD
ROOT
HETATM    1  C   UNL     1      -6.728   4.385  68.253  1.00  0.00    -0.047 C  
HETATM    2  C   UNL     1      -7.216   5.572  67.418  1.00  0.00    -0.075 C  
HETATM    3  C   UNL     1      -6.995   5.286  65.928  1.00  0.00    -0.066 C  
HETATM    4  O   UNL     1      -8.627   5.728  67.634  1.00  0.00    -0.104 OA 
HETATM    5  C   UNL     1      -6.501   6.869  67.884  1.00  0.00    -0.050 C  
HETATM    6  H   UNL     1      -8.930   6.465  67.116  1.00  0.00     0.000 HD 
ENDROOT
BRANCH   5   7
HETATM    7  N   UNL     1      -6.855   7.981  67.014  1.00  0.00    -0.071 NA 
HETATM    8  H   UNL     1      -6.312   8.184  66.174  1.00  0.00     0.000 HD 
BRANCH   7   9
HETATM    9  C   UNL     1      -7.947   8.754  67.356  1.00  0.00    -0.098 A  
HETATM   10  N   UNL     1      -8.661   8.476  68.435  1.00  0.00    -0.138 NA 
HETATM   11  C   UNL     1      -9.701   9.279  68.665  1.00  0.00    -0.150 A  
HETATM   12  N   UNL     1      -8.188   9.782  66.553  1.00  0.00    -0.119 NA 
HETATM   13  N   UNL     1     -10.020  10.324  67.901  1.00  0.00    -0.160 NA 
HETATM   14  C   UNL     1      -9.212  10.556  66.875  1.00  0.00    -0.155 A  
BRANCH  11  15
HETATM   15  C   UNL     1     -10.561   9.016  69.851  1.00  0.00    -0.228 A  
HETATM   16  C   UNL     1     -11.109   7.589  71.642  1.00  0.00    -0.239 A  
HETATM   17  F   UNL     1     -11.936   5.497  72.492  1.00  0.00    -0.340 F  
HETATM   18  N   UNL     1     -10.340   7.866  70.550  1.00  0.00    -0.203 NA 
HETATM   19  C   UNL     1     -12.130   8.444  72.060  1.00  0.00    -0.417 A  
HETATM   20  C   UNL     1     -10.848   6.322  72.447  1.00  0.00    -0.243 C  
HETATM   21  C   UNL     1     -11.563   9.909  70.246  1.00  0.00    -0.319 A  
HETATM   22  C   UNL     1     -12.355   9.617  71.353  1.00  0.00    -0.468 A  
HETATM   23  F   UNL     1      -9.821   5.557  71.981  1.00  0.00    -0.175 F  
HETATM   24  F   UNL     1     -10.546   6.592  73.752  1.00  0.00    -0.259 F  
ENDBRANCH  11  15
BRANCH  14  25
HETATM   25  N   UNL     1      -9.374  11.719  66.119  1.00  0.00    -0.225 NA 
HETATM   26  H   UNL     1      -8.957  11.689  65.188  1.00  0.00     0.000 HD 
BRANCH  25  27
HETATM   27  C   UNL     1     -10.017  12.917  66.440  1.00  0.00    -0.267 A  
HETATM   28  C   UNL     1     -10.278  14.836  67.889  1.00  0.00    -0.229 A  
HETATM   29  C   UNL     1      -9.567  13.689  67.513  1.00  0.00    -0.220 A  
HETATM   30  N   UNL     1     -11.388  15.245  67.210  1.00  0.00    -0.310 NA 
HETATM   31  C   UNL     1      -9.842  15.637  69.106  1.00  0.00    -0.247 C  
HETATM   32  C   UNL     1     -11.804  14.490  66.177  1.00  0.00    -0.336 A  
HETATM   33  F   UNL     1     -10.804  15.706  70.072  1.00  0.00    -0.234 F  
HETATM   34  F   UNL     1      -8.742  15.118  69.733  1.00  0.00    -0.220 F  
HETATM   35  F   UNL     1      -9.512  16.928  68.812  1.00  0.00    -0.235 F  
HETATM   36  C   UNL     1     -11.174  13.327  65.777  1.00  0.00    -0.313 A  
ENDBRANCH  25  27
ENDBRANCH  14  25
ENDBRANCH   7   9
ENDBRANCH   5   7
TORSDOF 5
ENDMDL
MODEL      219
REMARK 921   NORMALIZED FREE ENERGY PREDICTED BY IDOCK:   -5.30 KCAL/MOL
REMARK 922        TOTAL FREE ENERGY PREDICTED BY IDOCK:   -8.02 KCAL/MOL
REMARK 923 INTER-LIGAND FREE ENERGY PREDICTED BY IDOCK:   -6.91 KCAL/MOL
REMARK 924 INTRA-LIGAND FREE ENERGY PREDICTED BY IDOCK:   -1.11 KCAL/MOL
REMARK 927      BINDING AFFINITY PREDICTED BY RF-SCORE:    0.00 PKD
ROOT
HETATM    1  C   UNL     1     -10.499  18.506  66.107  1.00  0.00    -0.447 C  
HETATM    2  C   UNL     1      -9.702  17.746  67.172  1.00  0.00    -0.288 C  
HETATM    3  C   UNL     1      -8.349  17.311  66.596  1.00  0.00    -0.291 C  
HETATM    4  O   UNL     1      -9.449  18.638  68.269  1.00  0.00    -0.309 OA 
HETATM    5  C   UNL     1     -10.537  16.547  67.694  1.00  0.00    -0.321 C  
HETATM    6  H   UNL     1      -8.955  18.167  68.930  1.00  0.00     0.000 HD 
ENDROOT
BRANCH   5   7
HETATM    7  N   UNL     1      -9.742  15.740  68.610  1.00  0.00    -0.199 NA 
HETATM    8  H   UNL     1      -9.165  16.178  69.328  1.00  0.00     0.000 HD 
BRANCH   7   9
HETATM    9  C   UNL     1      -9.791  14.366  68.479  1.00  0.00    -0.233 A  
HETATM   10  N   UNL     1     -10.566  13.639  69.268  1.00  0.00    -0.044 NA 
HETATM   11  C   UNL     1     -10.527  12.322  69.064  1.00  0.00    -0.015 A  
HETATM   12  N   UNL     1      -9.044  13.863  67.505  1.00  0.00    -0.191 NA 
HETATM   13  N   UNL     1      -9.793  11.734  68.118  1.00  0.00    -0.184 NA 
HETATM   14  C   UNL     1      -9.095  12.550  67.340  1.00  0.00    -0.185 A  
BRANCH  11  15
HETATM   15  C   UNL     1     -11.358  11.439  69.926  1.00  0.00    -0.219 A  
HETATM   16  C   UNL     1     -11.723   9.290  70.821  1.00  0.00    -0.269 A  
HETATM   17  F   UNL     1     -12.250   6.960  70.554  1.00  0.00    -0.399 F  
HETATM   18  N   UNL     1     -10.984  10.132  70.040  1.00  0.00    -0.286 NA 
HETATM   19  C   UNL     1     -12.863   9.724  71.497  1.00  0.00    -0.502 A  
HETATM   20  C   UNL     1     -11.293   7.837  70.978  1.00  0.00    -0.271 C  
HETATM   21  C   UNL     1     -12.485  11.918  70.602  1.00  0.00    -0.347 A  
HETATM   22  C   UNL     1     -13.244  11.054  71.386  1.00  0.00    -0.326 A  
HETATM   23  F   UNL     1     -10.159   7.505  70.300  1.00  0.00    -0.189 F  
HETATM   24  F   UNL     1     -11.054   7.508  72.282  1.00  0.00    -0.241 F  
ENDBRANCH  11  15
BRANCH  14  25
HETATM   25  N   UNL     1      -8.428  12.038  66.225  1.00  0.00    -0.393 NA 
HETATM   26  H   UNL     1      -8.687  12.464  65.335  1.00  0.00     0.000 HD 
BRANCH  25  27
HETATM   27  C   UNL     1      -7.461  11.033  66.140  1.00  0.00    -0.076 A  
HETATM   28  C   UNL     1      -6.767   8.849  65.370  1.00  0.00    -0.072 A  
HETATM   29  C   UNL     1      -7.699   9.893  65.369  1.00  0.00    -0.130 A  
HETATM   30  N   UNL     1      -5.604   8.926  66.080  1.00  0.00    -0.044 NA 
HETATM   31  C   UNL     1      -7.057   7.569  64.599  1.00  0.00    -0.064 C  
HETATM   32  C   UNL     1      -5.390  10.034  66.813  1.00  0.00    -0.041 A  
HETATM   33  F   UNL     1      -7.090   6.462  65.396  1.00  0.00    -0.057 F  
HETATM   34  F   UNL     1      -8.264   7.584  63.956  1.00  0.00    -0.137 F  
HETATM   35  F   UNL     1      -6.135   7.305  63.628  1.00  0.00    -0.041 F  
HETATM   36  C   UNL     1      -6.285  11.084  66.889  1.00  0.00    -0.093 A  
ENDBRANCH  25  27
ENDBRANCH  14  25
ENDBRANCH   7   9
ENDBRANCH   5   7
TORSDOF 5
ENDMDL
MODEL      220
REMARK 921   NORMALIZED FREE ENERGY PREDICTED BY IDOCK:   -5.29 KCAL/MOL
REMARK 922        TOTAL FREE ENERGY PREDICTED BY IDOCK:   -7.99 KCAL/MOL
REMARK 923 INTER-LIGAND FREE ENERGY PREDICTED BY IDOCK:   -6.94 KCAL/MOL
REMARK 924 INTRA-LIGAND FREE ENERGY PREDICTED BY IDOCK:   -1.05 KCAL/MOL
REMARK 927      BINDING AFFINITY PREDICTED BY RF-SCORE:    0.00 PKD
ROOT
HETATM    1  C   UNL     1      -6.442  16.484  69.143  1.00  0.00    -0.193 C  
HETATM    2  C   UNL     1      -6.032  15.022  69.347  1.00  0.00    -0.106 C  
HETATM    3  C   UNL     1      -5.192  14.547  68.155  1.00  0.00    -0.118 C  
HETATM    4  O   UNL     1      -5.214  14.941  70.525  1.00  0.00    -0.112 OA 
HETATM    5  C   UNL     1      -7.297  14.149  69.566  1.00  0.00     0.097 C  
HETATM    6  H   UNL     1      -4.960  14.034  70.651  1.00  0.00     0.000 HD 
ENDROOT
BRANCH   5   7
HETATM    7  N   UNL     1      -6.933  12.741  69.629  1.00  0.00    -0.333 NA 
HETATM    8  H   UNL     1      -6.177  12.421  70.235  1.00  0.00     0.000 HD 
BRANCH   7   9
HETATM    9  C   UNL     1      -7.639  11.848  68.847  1.00  0.00    -0.036 A  
HETATM   10  N   UNL     1      -8.286  12.260  67.768  1.00  0.00    -0.149 NA 
HETATM   11  C   UNL     1      -8.945  11.318  67.093  1.00  0.00    -0.155 A  
HETATM   12  N   UNL     1      -7.586  10.583  69.241  1.00  0.00    -0.122 NA 
HETATM   13  N   UNL     1      -8.955  10.027  67.429  1.00  0.00    -0.131 NA 
HETATM   14  C   UNL     1      -8.231   9.703  68.492  1.00  0.00    -0.105 A  
BRANCH  11  15
HETATM   15  C   UNL     1      -9.711  11.709  65.879  1.00  0.00    -0.235 A  
HETATM   16  C   UNL     1     -11.366  13.083  64.918  1.00  0.00    -0.303 A  
HETATM   17  F   UNL     1     -13.650  13.807  64.726  1.00  0.00     0.292 F  
HETATM   18  N   UNL     1     -10.642  12.697  66.009  1.00  0.00    -0.266 NA 
HETATM   19  C   UNL     1     -11.192  12.484  63.671  1.00  0.00    -0.545 A  
HETATM   20  C   UNL     1     -12.385  14.208  65.049  1.00  0.00    -0.440 C  
HETATM   21  C   UNL     1      -9.493  11.095  64.641  1.00  0.00    -0.245 A  
HETATM   22  C   UNL     1     -10.243  11.481  63.533  1.00  0.00    -0.462 A  
HETATM   23  F   UNL     1     -12.475  14.749  66.297  1.00  0.00    -0.266 F  
HETATM   24  F   UNL     1     -12.112  15.253  64.212  1.00  0.00    -0.452 F  
ENDBRANCH  11  15
BRANCH  14  25
HETATM   25  N   UNL     1      -8.051   8.358  68.821  1.00  0.00    -0.120 NA 
HETATM   26  H   UNL     1      -7.116   7.992  68.644  1.00  0.00     0.000 HD 
BRANCH  25  27
HETATM   27  C   UNL     1      -8.955   7.435  69.354  1.00  0.00    -0.139 A  
HETATM   28  C   UNL     1     -10.689   6.875  70.945  1.00  0.00    -0.230 A  
HETATM   29  C   UNL     1      -9.856   7.829  70.347  1.00  0.00    -0.183 A  
HETATM   30  N   UNL     1     -10.672   5.567  70.560  1.00  0.00    -0.267 NA 
HETATM   31  C   UNL     1     -11.614   7.279  72.084  1.00  0.00    -0.286 C  
HETATM   32  C   UNL     1      -9.801   5.208  69.600  1.00  0.00    -0.216 A  
HETATM   33  F   UNL     1     -11.360   6.605  73.242  1.00  0.00    -0.220 F  
HETATM   34  F   UNL     1     -11.522   8.604  72.413  1.00  0.00    -0.404 F  
HETATM   35  F   UNL     1     -12.933   7.068  71.806  1.00  0.00    -0.366 F  
HETATM   36  C   UNL     1      -8.924   6.088  68.995  1.00  0.00    -0.124 A  
ENDBRANCH  25  27
ENDBRANCH  14  25
ENDBRANCH   7   9
ENDBRANCH   5   7
TORSDOF 5
ENDMDL
MODEL      221
REMARK 921   NORMALIZED FREE ENERGY PREDICTED BY IDOCK:   -5.26 KCAL/MOL
REMARK 922        TOTAL FREE ENERGY PREDICTED BY IDOCK:   -7.96 KCAL/MOL
REMARK 923 INTER-LIGAND FREE ENERGY PREDICTED BY IDOCK:   -7.03 KCAL/MOL
REMARK 924 INTRA-LIGAND FREE ENERGY PREDICTED BY IDOCK:   -0.93 KCAL/MOL
REMARK 927      BINDING AFFINITY PREDICTED BY RF-SCORE:    0.00 PKD
ROOT
HETATM    1  C   UNL     1     -12.068  13.655  69.465  1.00  0.00    -0.368 C  
HETATM    2  C   UNL     1     -11.249  12.716  68.574  1.00  0.00    -0.279 C  
HETATM    3  C   UNL     1     -11.492  13.056  67.099  1.00  0.00    -0.379 C  
HETATM    4  O   UNL     1      -9.856  12.928  68.853  1.00  0.00    -0.419 OA 
HETATM    5  C   UNL     1     -11.599  11.241  68.907  1.00  0.00    -0.319 C  
HETATM    6  H   UNL     1      -9.348  12.345  68.300  1.00  0.00     0.000 HD 
ENDROOT
BRANCH   5   7
HETATM    7  N   UNL     1     -10.928  10.342  67.980  1.00  0.00    -0.299 NA 
HETATM    8  H   UNL     1     -10.544  10.686  67.099  1.00  0.00     0.000 HD 
BRANCH   7   9
HETATM    9  C   UNL     1     -10.824   9.008  68.324  1.00  0.00    -0.017 A  
HETATM   10  N   UNL     1     -10.804   8.638  69.594  1.00  0.00    -0.201 NA 
HETATM   11  C   UNL     1     -10.688   7.327  69.814  1.00  0.00    -0.239 A  
HETATM   12  N   UNL     1     -10.780   8.161  67.304  1.00  0.00    -0.264 NA 
HETATM   13  N   UNL     1     -10.624   6.411  68.847  1.00  0.00    -0.224 NA 
HETATM   14  C   UNL     1     -10.709   6.875  67.607  1.00  0.00    -0.274 A  
BRANCH  11  15
HETATM   15  C   UNL     1     -10.640   6.838  71.218  1.00  0.00    -0.219 A  
HETATM   16  C   UNL     1     -10.558   5.001  72.691  1.00  0.00    -0.220 A  
HETATM   17  F   UNL     1     -11.537   3.026  73.650  1.00  0.00    -0.316 F  
HETATM   18  N   UNL     1     -10.601   5.489  71.417  1.00  0.00    -0.250 NA 
HETATM   19  C   UNL     1     -10.568   5.844  73.802  1.00  0.00    -0.275 A  
HETATM   20  C   UNL     1     -10.483   3.497  72.920  1.00  0.00    -0.154 C  
HETATM   21  C   UNL     1     -10.634   7.718  72.305  1.00  0.00    -0.315 A  
HETATM   22  C   UNL     1     -10.603   7.217  73.604  1.00  0.00    -0.353 A  
HETATM   23  F   UNL     1     -10.457   2.751  71.780  1.00  0.00    -0.166 F  
HETATM   24  F   UNL     1      -9.368   3.137  73.623  1.00  0.00    -0.089 F  
ENDBRANCH  11  15
BRANCH  14  25
HETATM   25  N   UNL     1     -10.815   5.979  66.541  1.00  0.00    -0.650 NA 
HETATM   26  H   UNL     1     -11.762   5.660  66.338  1.00  0.00     0.000 HD 
BRANCH  25  27
HETATM   27  C   UNL     1      -9.823   5.451  65.710  1.00  0.00     0.022 A  
HETATM   28  C   UNL     1      -7.690   5.668  64.589  1.00  0.00    -0.099 A  
HETATM   29  C   UNL     1      -8.635   6.156  65.500  1.00  0.00    -0.133 A  
HETATM   30  N   UNL     1      -7.881   4.495  63.919  1.00  0.00    -0.086 NA 
HETATM   31  C   UNL     1      -6.432   6.470  64.294  1.00  0.00    -0.037 C  
HETATM   32  C   UNL     1      -9.030   3.829  64.137  1.00  0.00    -0.123 A  
HETATM   33  F   UNL     1      -6.322   6.827  62.981  1.00  0.00    -0.039 F  
HETATM   34  F   UNL     1      -6.361   7.645  64.991  1.00  0.00    -0.037 F  
HETATM   35  F   UNL     1      -5.282   5.800  64.599  1.00  0.00    -0.009 F  
HETATM   36  C   UNL     1     -10.021   4.273  64.991  1.00  0.00    -0.199 A  
ENDBRANCH  25  27
ENDBRANCH  14  25
ENDBRANCH   7   9
ENDBRANCH   5   7
TORSDOF 5
ENDMDL
MODEL      222
REMARK 921   NORMALIZED FREE ENERGY PREDICTED BY IDOCK:   -5.26 KCAL/MOL
REMARK 922        TOTAL FREE ENERGY PREDICTED BY IDOCK:   -7.96 KCAL/MOL
REMARK 923 INTER-LIGAND FREE ENERGY PREDICTED BY IDOCK:   -7.14 KCAL/MOL
REMARK 924 INTRA-LIGAND FREE ENERGY PREDICTED BY IDOCK:   -0.82 KCAL/MOL
REMARK 927      BINDING AFFINITY PREDICTED BY RF-SCORE:    0.00 PKD
ROOT
HETATM    1  C   UNL     1     -11.022   7.681  72.823  1.00  0.00    -0.432 C  
HETATM    2  C   UNL     1     -11.779   8.143  71.574  1.00  0.00    -0.286 C  
HETATM    3  C   UNL     1     -12.145   6.931  70.709  1.00  0.00    -0.400 C  
HETATM    4  O   UNL     1     -13.001   8.773  71.993  1.00  0.00    -0.341 OA 
HETATM    5  C   UNL     1     -10.928   9.187  70.802  1.00  0.00    -0.270 C  
HETATM    6  H   UNL     1     -13.470   9.059  71.218  1.00  0.00     0.000 HD 
ENDROOT
BRANCH   5   7
HETATM    7  N   UNL     1     -11.576   9.537  69.546  1.00  0.00    -0.433 NA 
HETATM    8  H   UNL     1     -12.545   9.854  69.527  1.00  0.00     0.000 HD 
BRANCH   7   9
HETATM    9  C   UNL     1     -10.842   9.427  68.381  1.00  0.00    -0.109 A  
HETATM   10  N   UNL     1     -10.011   8.414  68.198  1.00  0.00    -0.184 NA 
HETATM   11  C   UNL     1      -9.344   8.413  67.043  1.00  0.00    -0.159 A  
HETATM   12  N   UNL     1     -11.064  10.376  67.481  1.00  0.00    -0.306 NA 
HETATM   13  N   UNL     1      -9.497   9.335  66.092  1.00  0.00    -0.215 NA 
HETATM   14  C   UNL     1     -10.395  10.279  66.343  1.00  0.00    -0.195 A  
BRANCH  11  15
HETATM   15  C   UNL     1      -8.377   7.314  66.775  1.00  0.00    -0.119 A  
HETATM   16  C   UNL     1      -7.643   5.610  65.325  1.00  0.00    -0.084 A  
HETATM   17  F   UNL     1      -7.987   3.521  64.186  1.00  0.00    -0.081 F  
HETATM   18  N   UNL     1      -8.510   6.626  65.606  1.00  0.00    -0.150 NA 
HETATM   19  C   UNL     1      -6.628   5.243  66.210  1.00  0.00    -0.052 A  
HETATM   20  C   UNL     1      -7.765   4.857  64.007  1.00  0.00    -0.077 C  
HETATM   21  C   UNL     1      -7.362   6.989  67.682  1.00  0.00    -0.096 A  
HETATM   22  C   UNL     1      -6.488   5.944  67.399  1.00  0.00    -0.047 A  
HETATM   23  F   UNL     1      -8.769   5.294  63.195  1.00  0.00    -0.131 F  
HETATM   24  F   UNL     1      -6.624   4.936  63.259  1.00  0.00    -0.025 F  
ENDBRANCH  11  15
BRANCH  14  25
HETATM   25  N   UNL     1     -10.737  11.189  65.341  1.00  0.00    -0.231 NA 
HETATM   26  H   UNL     1     -10.767  10.801  64.398  1.00  0.00     0.000 HD 
BRANCH  25  27
HETATM   27  C   UNL     1     -11.047  12.549  65.431  1.00  0.00    -0.302 A  
HETATM   28  C   UNL     1     -10.804  14.688  66.533  1.00  0.00    -0.315 A  
HETATM   29  C   UNL     1     -10.415  13.351  66.385  1.00  0.00    -0.286 A  
HETATM   30  N   UNL     1     -11.765  15.247  65.743  1.00  0.00    -0.023 NA 
HETATM   31  C   UNL     1     -10.180  15.545  67.624  1.00  0.00    -0.255 C  
HETATM   32  C   UNL     1     -12.359  14.460  64.827  1.00  0.00    -0.414 A  
HETATM   33  F   UNL     1     -11.095  16.022  68.517  1.00  0.00    -0.274 F  
HETATM   34  F   UNL     1      -9.257  14.875  68.380  1.00  0.00    -0.168 F  
HETATM   35  F   UNL     1      -9.522  16.638  67.140  1.00  0.00    -0.220 F  
HETATM   36  C   UNL     1     -12.053  13.123  64.654  1.00  0.00    -0.462 A  
ENDBRANCH  25  27
ENDBRANCH  14  25
ENDBRANCH   7   9
ENDBRANCH   5   7
TORSDOF 5
ENDMDL
MODEL      223
REMARK 921   NORMALIZED FREE ENERGY PREDICTED BY IDOCK:   -5.21 KCAL/MOL
REMARK 922        TOTAL FREE ENERGY PREDICTED BY IDOCK:   -7.90 KCAL/MOL
REMARK 923 INTER-LIGAND FREE ENERGY PREDICTED BY IDOCK:   -6.68 KCAL/MOL
REMARK 924 INTRA-LIGAND FREE ENERGY PREDICTED BY IDOCK:   -1.22 KCAL/MOL
REMARK 927      BINDING AFFINITY PREDICTED BY RF-SCORE:    0.00 PKD
ROOT
HETATM    1  C   UNL     1      -9.846   4.200  69.691  1.00  0.00    -0.208 C  
HETATM    2  C   UNL     1      -8.811   5.092  68.998  1.00  0.00    -0.092 C  
HETATM    3  C   UNL     1      -7.524   4.298  68.748  1.00  0.00    -0.056 C  
HETATM    4  O   UNL     1      -9.339   5.491  67.724  1.00  0.00    -0.111 OA 
HETATM    5  C   UNL     1      -8.565   6.366  69.850  1.00  0.00    -0.138 C  
HETATM    6  H   UNL     1      -8.697   6.045  67.294  1.00  0.00     0.000 HD 
ENDROOT
BRANCH   5   7
HETATM    7  N   UNL     1      -7.490   7.159  69.272  1.00  0.00    -0.091 NA 
HETATM    8  H   UNL     1      -6.539   6.793  69.217  1.00  0.00     0.000 HD 
BRANCH   7   9
HETATM    9  C   UNL     1      -7.792   8.421  68.800  1.00  0.00    -0.115 A  
HETATM   10  N   UNL     1      -7.170   9.488  69.276  1.00  0.00    -0.061 NA 
HETATM   11  C   UNL     1      -7.547  10.658  68.759  1.00  0.00    -0.109 A  
HETATM   12  N   UNL     1      -8.704   8.463  67.837  1.00  0.00    -0.137 NA 
HETATM   13  N   UNL     1      -8.465  10.789  67.800  1.00  0.00    -0.119 NA 
HETATM   14  C   UNL     1      -8.991   9.659  67.347  1.00  0.00    -0.131 A  
BRANCH  11  15
HETATM   15  C   UNL     1      -6.905  11.903  69.260  1.00  0.00    -0.080 A  
HETATM   16  C   UNL     1      -6.757  14.252  69.163  1.00  0.00    -0.118 A  
HETATM   17  F   UNL     1      -6.244  16.283  67.983  1.00  0.00    -0.102 F  
HETATM   18  N   UNL     1      -7.323  13.088  68.730  1.00  0.00    -0.094 NA 
HETATM   19  C   UNL     1      -5.746  14.265  70.125  1.00  0.00    -0.129 A  
HETATM   20  C   UNL     1      -7.241  15.581  68.599  1.00  0.00    -0.123 C  
HETATM   21  C   UNL     1      -5.906  11.874  70.239  1.00  0.00    -0.164 A  
HETATM   22  C   UNL     1      -5.321  13.061  70.669  1.00  0.00    -0.151 A  
HETATM   23  F   UNL     1      -8.243  15.477  67.681  1.00  0.00    -0.135 F  
HETATM   24  F   UNL     1      -7.718  16.413  69.573  1.00  0.00    -0.239 F  
ENDBRANCH  11  15
BRANCH  14  25
HETATM   25  N   UNL     1      -9.836   9.688  66.236  1.00  0.00    -0.237 NA 
HETATM   26  H   UNL     1     -10.216   8.783  65.959  1.00  0.00     0.000 HD 
BRANCH  25  27
HETATM   27  C   UNL     1     -10.242  10.766  65.445  1.00  0.00    -0.276 A  
HETATM   28  C   UNL     1     -11.386  12.884  65.212  1.00  0.00    -0.300 A  
HETATM   29  C   UNL     1     -10.895  11.856  66.026  1.00  0.00    -0.342 A  
HETATM   30  N   UNL     1     -11.214  12.871  63.858  1.00  0.00    -0.412 NA 
HETATM   31  C   UNL     1     -12.170  14.034  65.827  1.00  0.00    -0.453 C  
HETATM   32  C   UNL     1     -10.580  11.815  63.318  1.00  0.00    -0.368 A  
HETATM   33  F   UNL     1     -13.440  14.136  65.339  1.00  0.00    -0.436 F  
HETATM   34  F   UNL     1     -12.315  13.928  67.183  1.00  0.00    -0.435 F  
HETATM   35  F   UNL     1     -11.589  15.252  65.622  1.00  0.00    -0.311 F  
HETATM   36  C   UNL     1     -10.105  10.748  64.057  1.00  0.00    -0.410 A  
ENDBRANCH  25  27
ENDBRANCH  14  25
ENDBRANCH   7   9
ENDBRANCH   5   7
TORSDOF 5
ENDMDL
MODEL      224
REMARK 921   NORMALIZED FREE ENERGY PREDICTED BY IDOCK:   -5.21 KCAL/MOL
REMARK 922        TOTAL FREE ENERGY PREDICTED BY IDOCK:   -7.90 KCAL/MOL
REMARK 923 INTER-LIGAND FREE ENERGY PREDICTED BY IDOCK:   -6.92 KCAL/MOL
REMARK 924 INTRA-LIGAND FREE ENERGY PREDICTED BY IDOCK:   -0.98 KCAL/MOL
REMARK 927      BINDING AFFINITY PREDICTED BY RF-SCORE:    0.00 PKD
ROOT
HETATM    1  C   UNL     1      -9.983   5.665  73.096  1.00  0.00    -0.190 C  
HETATM    2  C   UNL     1     -10.384   6.845  72.205  1.00  0.00    -0.196 C  
HETATM    3  C   UNL     1     -10.908   7.996  73.072  1.00  0.00    -0.317 C  
HETATM    4  O   UNL     1      -9.213   7.309  71.514  1.00  0.00    -0.145 OA 
HETATM    5  C   UNL     1     -11.424   6.376  71.152  1.00  0.00    -0.323 C  
HETATM    6  H   UNL     1      -9.463   8.041  70.962  1.00  0.00     0.000 HD 
ENDROOT
BRANCH   5   7
HETATM    7  N   UNL     1     -11.912   7.513  70.385  1.00  0.00    -0.509 NA 
HETATM    8  H   UNL     1     -12.874   7.839  70.484  1.00  0.00     0.000 HD 
BRANCH   7   9
HETATM    9  C   UNL     1     -11.038   8.138  69.517  1.00  0.00     0.052 A  
HETATM   10  N   UNL     1     -10.474   7.468  68.526  1.00  0.00    -0.197 NA 
HETATM   11  C   UNL     1      -9.637   8.165  67.757  1.00  0.00    -0.151 A  
HETATM   12  N   UNL     1     -10.848   9.432  69.740  1.00  0.00    -0.233 NA 
HETATM   13  N   UNL     1      -9.379   9.464  67.920  1.00  0.00    -0.129 NA 
HETATM   14  C   UNL     1     -10.036  10.062  68.905  1.00  0.00    -0.192 A  
BRANCH  11  15
HETATM   15  C   UNL     1      -8.951   7.473  66.633  1.00  0.00    -0.153 A  
HETATM   16  C   UNL     1      -7.688   7.648  64.652  1.00  0.00    -0.121 A  
HETATM   17  F   UNL     1      -7.452   8.331  62.359  1.00  0.00    -0.092 F  
HETATM   18  N   UNL     1      -8.327   8.247  65.699  1.00  0.00    -0.140 NA 
HETATM   19  C   UNL     1      -7.666   6.262  64.499  1.00  0.00    -0.106 A  
HETATM   20  C   UNL     1      -6.963   8.505  63.622  1.00  0.00    -0.088 C  
HETATM   21  C   UNL     1      -8.938   6.078  66.526  1.00  0.00    -0.137 A  
HETATM   22  C   UNL     1      -8.297   5.471  65.449  1.00  0.00    -0.142 A  
HETATM   23  F   UNL     1      -7.018   9.845  63.860  1.00  0.00    -0.106 F  
HETATM   24  F   UNL     1      -5.634   8.198  63.540  1.00  0.00    -0.054 F  
ENDBRANCH  11  15
BRANCH  14  25
HETATM   25  N   UNL     1      -9.953  11.448  69.047  1.00  0.00    -0.395 NA 
HETATM   26  H   UNL     1      -9.443  11.768  69.871  1.00  0.00     0.000 HD 
BRANCH  25  27
HETATM   27  C   UNL     1     -10.460  12.466  68.235  1.00  0.00    -0.225 A  
HETATM   28  C   UNL     1     -10.388  14.750  67.442  1.00  0.00    -0.242 A  
HETATM   29  C   UNL     1      -9.818  13.706  68.181  1.00  0.00    -0.236 A  
HETATM   30  N   UNL     1     -11.545  14.582  66.739  1.00  0.00    -0.369 NA 
HETATM   31  C   UNL     1      -9.740  16.127  67.444  1.00  0.00    -0.233 C  
HETATM   32  C   UNL     1     -12.146  13.380  66.800  1.00  0.00    -0.365 A  
HETATM   33  F   UNL     1     -10.560  17.102  67.932  1.00  0.00    -0.323 F  
HETATM   34  F   UNL     1      -8.609  16.193  68.210  1.00  0.00    -0.167 F  
HETATM   35  F   UNL     1      -9.358  16.543  66.202  1.00  0.00    -0.273 F  
HETATM   36  C   UNL     1     -11.660  12.319  67.541  1.00  0.00    -0.422 A  
ENDBRANCH  25  27
ENDBRANCH  14  25
ENDBRANCH   7   9
ENDBRANCH   5   7
TORSDOF 5
ENDMDL
MODEL      225
REMARK 921   NORMALIZED FREE ENERGY PREDICTED BY IDOCK:   -5.18 KCAL/MOL
REMARK 922        TOTAL FREE ENERGY PREDICTED BY IDOCK:   -7.86 KCAL/MOL
REMARK 923 INTER-LIGAND FREE ENERGY PREDICTED BY IDOCK:   -7.12 KCAL/MOL
REMARK 924 INTRA-LIGAND FREE ENERGY PREDICTED BY IDOCK:   -0.74 KCAL/MOL
REMARK 927      BINDING AFFINITY PREDICTED BY RF-SCORE:    0.00 PKD
ROOT
HETATM    1  C   UNL     1      -8.566   5.391  63.813  1.00  0.00    -0.007 C  
HETATM    2  C   UNL     1      -8.332   5.870  65.249  1.00  0.00    -0.146 C  
HETATM    3  C   UNL     1      -9.359   5.225  66.187  1.00  0.00    -0.164 C  
HETATM    4  O   UNL     1      -7.025   5.440  65.662  1.00  0.00    -0.062 OA 
HETATM    5  C   UNL     1      -8.378   7.421  65.298  1.00  0.00    -0.104 C  
HETATM    6  H   UNL     1      -6.880   5.738  66.553  1.00  0.00     0.000 HD 
ENDROOT
BRANCH   5   7
HETATM    7  N   UNL     1      -8.289   7.885  66.675  1.00  0.00    -0.121 NA 
HETATM    8  H   UNL     1      -7.611   7.481  67.322  1.00  0.00     0.000 HD 
BRANCH   7   9
HETATM    9  C   UNL     1      -9.146   8.888  67.082  1.00  0.00    -0.138 A  
HETATM   10  N   UNL     1      -9.317   9.973  66.343  1.00  0.00    -0.162 NA 
HETATM   11  C   UNL     1     -10.158  10.883  66.837  1.00  0.00    -0.212 A  
HETATM   12  N   UNL     1      -9.785   8.659  68.222  1.00  0.00    -0.151 NA 
HETATM   13  N   UNL     1     -10.829  10.738  67.980  1.00  0.00    -0.233 NA 
HETATM   14  C   UNL     1     -10.635   9.592  68.621  1.00  0.00    -0.217 A  
BRANCH  11  15
HETATM   15  C   UNL     1     -10.386  12.138  66.070  1.00  0.00    -0.237 A  
HETATM   16  C   UNL     1     -10.327  14.492  66.030  1.00  0.00    -0.309 A  
HETATM   17  F   UNL     1     -11.103  16.631  66.805  1.00  0.00    -0.174 F  
HETATM   18  N   UNL     1     -10.129  13.319  66.700  1.00  0.00    -0.260 NA 
HETATM   19  C   UNL     1     -10.802  14.519  64.719  1.00  0.00    -0.410 A  
HETATM   20  C   UNL     1     -10.012  15.815  66.716  1.00  0.00    -0.252 C  
HETATM   21  C   UNL     1     -10.847  12.120  64.749  1.00  0.00    -0.351 A  
HETATM   22  C   UNL     1     -11.061  13.318  64.073  1.00  0.00    -0.342 A  
HETATM   23  F   UNL     1      -9.534  15.695  67.987  1.00  0.00    -0.191 F  
HETATM   24  F   UNL     1      -9.074  16.539  66.036  1.00  0.00    -0.302 F  
ENDBRANCH  11  15
BRANCH  14  25
HETATM   25  N   UNL     1     -11.415   9.286  69.737  1.00  0.00    -0.437 NA 
HETATM   26  H   UNL     1     -12.417   9.431  69.616  1.00  0.00     0.000 HD 
BRANCH  25  27
HETATM   27  C   UNL     1     -11.035   8.809  70.995  1.00  0.00    -0.268 A  
HETATM   28  C   UNL     1      -9.308   8.164  72.560  1.00  0.00    -0.260 A  
HETATM   29  C   UNL     1      -9.683   8.734  71.337  1.00  0.00    -0.351 A  
HETATM   30  N   UNL     1     -10.234   7.706  73.451  1.00  0.00    -0.332 NA 
HETATM   31  C   UNL     1      -7.835   8.003  72.905  1.00  0.00    -0.142 C  
HETATM   32  C   UNL     1     -11.532   7.791  73.105  1.00  0.00    -0.043 A  
HETATM   33  F   UNL     1      -7.474   6.703  73.108  1.00  0.00    -0.086 F  
HETATM   34  F   UNL     1      -6.995   8.459  71.927  1.00  0.00    -0.065 F  
HETATM   35  F   UNL     1      -7.470   8.675  74.035  1.00  0.00    -0.207 F  
HETATM   36  C   UNL     1     -11.969   8.305  71.900  1.00  0.00    -0.383 A  
ENDBRANCH  25  27
ENDBRANCH  14  25
ENDBRANCH   7   9
ENDBRANCH   5   7
TORSDOF 5
ENDMDL
MODEL      226
REMARK 921   NORMALIZED FREE ENERGY PREDICTED BY IDOCK:   -5.16 KCAL/MOL
REMARK 922        TOTAL FREE ENERGY PREDICTED BY IDOCK:   -7.83 KCAL/MOL
REMARK 923 INTER-LIGAND FREE ENERGY PREDICTED BY IDOCK:   -7.02 KCAL/MOL
REMARK 924 INTRA-LIGAND FREE ENERGY PREDICTED BY IDOCK:   -0.80 KCAL/MOL
REMARK 927      BINDING AFFINITY PREDICTED BY RF-SCORE:    0.00 PKD
ROOT
HETATM    1  C   UNL     1     -12.884  13.273  64.602  1.00  0.00    -0.190 C  
HETATM    2  C   UNL     1     -11.477  13.104  65.183  1.00  0.00    -0.300 C  
HETATM    3  C   UNL     1     -10.663  14.383  64.957  1.00  0.00    -0.440 C  
HETATM    4  O   UNL     1     -11.594  12.899  66.600  1.00  0.00    -0.333 OA 
HETATM    5  C   UNL     1     -10.800  11.853  64.560  1.00  0.00    -0.316 C  
HETATM    6  H   UNL     1     -10.721  12.794  66.961  1.00  0.00     0.000 HD 
ENDROOT
BRANCH   5   7
HETATM    7  N   UNL     1      -9.417  11.754  65.004  1.00  0.00    -0.417 NA 
HETATM    8  H   UNL     1      -8.646  11.831  64.339  1.00  0.00     0.000 HD 
BRANCH   7   9
HETATM    9  C   UNL     1      -9.176  11.553  66.348  1.00  0.00    -0.208 A  
HETATM   10  N   UNL     1      -9.495  10.407  66.929  1.00  0.00    -0.166 NA 
HETATM   11  C   UNL     1      -9.230  10.325  68.233  1.00  0.00    -0.139 A  
HETATM   12  N   UNL     1      -8.586  12.563  66.975  1.00  0.00    -0.197 NA 
HETATM   13  N   UNL     1      -8.653  11.297  68.941  1.00  0.00    -0.103 NA 
HETATM   14  C   UNL     1      -8.318  12.385  68.260  1.00  0.00    -0.169 A  
BRANCH  11  15
HETATM   15  C   UNL     1      -9.579   9.073  68.957  1.00  0.00    -0.160 A  
HETATM   16  C   UNL     1      -8.925   6.919  69.652  1.00  0.00    -0.144 A  
HETATM   17  F   UNL     1      -8.290   4.652  69.167  1.00  0.00    -0.078 F  
HETATM   18  N   UNL     1      -8.641   8.084  68.999  1.00  0.00    -0.136 NA 
HETATM   19  C   UNL     1     -10.157   6.703  70.269  1.00  0.00    -0.201 A  
HETATM   20  C   UNL     1      -7.870   5.823  69.731  1.00  0.00    -0.095 C  
HETATM   21  C   UNL     1     -10.821   8.903  69.577  1.00  0.00    -0.163 A  
HETATM   22  C   UNL     1     -11.113   7.709  70.232  1.00  0.00    -0.256 A  
HETATM   23  F   UNL     1      -6.690   6.126  69.120  1.00  0.00    -0.050 F  
HETATM   24  F   UNL     1      -7.548   5.507  71.021  1.00  0.00    -0.079 F  
ENDBRANCH  11  15
BRANCH  14  25
HETATM   25  N   UNL     1      -7.566  13.383  68.881  1.00  0.00    -0.290 NA 
HETATM   26  H   UNL     1      -6.871  13.048  69.548  1.00  0.00     0.000 HD 
BRANCH  25  27
HETATM   27  C   UNL     1      -7.618  14.772  68.730  1.00  0.00    -0.137 A  
HETATM   28  C   UNL     1      -8.865  16.783  68.233  1.00  0.00    -0.228 A  
HETATM   29  C   UNL     1      -8.838  15.405  68.480  1.00  0.00    -0.183 A  
HETATM   30  N   UNL     1      -7.730  17.540  68.262  1.00  0.00    -0.237 NA 
HETATM   31  C   UNL     1     -10.178  17.467  67.879  1.00  0.00    -0.348 C  
HETATM   32  C   UNL     1      -6.566  16.912  68.508  1.00  0.00    -0.165 A  
HETATM   33  F   UNL     1     -10.155  18.063  66.652  1.00  0.00    -0.301 F  
HETATM   34  F   UNL     1     -11.243  16.610  67.841  1.00  0.00    -0.330 F  
HETATM   35  F   UNL     1     -10.532  18.443  68.765  1.00  0.00    -0.358 F  
HETATM   36  C   UNL     1      -6.461  15.551  68.722  1.00  0.00    -0.107 A  
ENDBRANCH  25  27
ENDBRANCH  14  25
ENDBRANCH   7   9
ENDBRANCH   5   7
TORSDOF 5
ENDMDL
MODEL      227
REMARK 921   NORMALIZED FREE ENERGY PREDICTED BY IDOCK:   -5.15 KCAL/MOL
REMARK 922        TOTAL FREE ENERGY PREDICTED BY IDOCK:   -7.81 KCAL/MOL
REMARK 923 INTER-LIGAND FREE ENERGY PREDICTED BY IDOCK:   -6.93 KCAL/MOL
REMARK 924 INTRA-LIGAND FREE ENERGY PREDICTED BY IDOCK:   -0.89 KCAL/MOL
REMARK 927      BINDING AFFINITY PREDICTED BY RF-SCORE:    0.00 PKD
ROOT
HETATM    1  C   UNL     1     -10.632   9.348  66.362  1.00  0.00    -0.065 C  
HETATM    2  C   UNL     1      -9.921  10.576  65.784  1.00  0.00    -0.258 C  
HETATM    3  C   UNL     1      -8.413  10.312  65.701  1.00  0.00    -0.165 C  
HETATM    4  O   UNL     1     -10.407  10.793  64.450  1.00  0.00    -0.353 OA 
HETATM    5  C   UNL     1     -10.257  11.826  66.640  1.00  0.00    -0.210 C  
HETATM    6  H   UNL     1      -9.966  11.555  64.092  1.00  0.00     0.000 HD 
ENDROOT
BRANCH   5   7
HETATM    7  N   UNL     1      -9.486  12.973  66.182  1.00  0.00    -0.430 NA 
HETATM    8  H   UNL     1      -9.561  13.305  65.220  1.00  0.00     0.000 HD 
BRANCH   7   9
HETATM    9  C   UNL     1      -8.649  13.599  67.085  1.00  0.00    -0.192 A  
HETATM   10  N   UNL     1      -8.679  14.914  67.235  1.00  0.00    -0.194 NA 
HETATM   11  C   UNL     1      -7.820  15.415  68.124  1.00  0.00    -0.124 A  
HETATM   12  N   UNL     1      -7.866  12.790  67.787  1.00  0.00    -0.142 NA 
HETATM   13  N   UNL     1      -6.990  14.674  68.859  1.00  0.00    -0.105 NA 
HETATM   14  C   UNL     1      -7.074  13.363  68.680  1.00  0.00    -0.106 A  
BRANCH  11  15
HETATM   15  C   UNL     1      -7.783  16.888  68.332  1.00  0.00    -0.219 A  
HETATM   16  C   UNL     1      -8.923  18.947  68.239  1.00  0.00    -0.328 A  
HETATM   17  F   UNL     1     -10.027  20.689  67.003  1.00  0.00    -0.572 F  
HETATM   18  N   UNL     1      -8.918  17.593  68.061  1.00  0.00    -0.258 NA 
HETATM   19  C   UNL     1      -7.792  19.636  68.677  1.00  0.00    -0.349 A  
HETATM   20  C   UNL     1     -10.197  19.738  67.969  1.00  0.00    -0.451 C  
HETATM   21  C   UNL     1      -6.633  17.538  68.790  1.00  0.00    -0.216 A  
HETATM   22  C   UNL     1      -6.637  18.920  68.957  1.00  0.00    -0.307 A  
HETATM   23  F   UNL     1     -11.257  18.984  67.564  1.00  0.00    -0.486 F  
HETATM   24  F   UNL     1     -10.626  20.419  69.073  1.00  0.00    -0.493 F  
ENDBRANCH  11  15
BRANCH  14  25
HETATM   25  N   UNL     1      -6.361  12.505  69.519  1.00  0.00    -0.158 NA 
HETATM   26  H   UNL     1      -5.853  12.964  70.274  1.00  0.00     0.000 HD 
BRANCH  25  27
HETATM   27  C   UNL     1      -6.238  11.113  69.484  1.00  0.00    -0.091 A  
HETATM   28  C   UNL     1      -6.671   8.943  70.461  1.00  0.00    -0.051 A  
HETATM   29  C   UNL     1      -6.881  10.327  70.445  1.00  0.00    -0.109 A  
HETATM   30  N   UNL     1      -5.877   8.327  69.538  1.00  0.00    -0.030 NA 
HETATM   31  C   UNL     1      -7.301   8.091  71.552  1.00  0.00    -0.073 C  
HETATM   32  C   UNL     1      -5.270   9.100  68.619  1.00  0.00    -0.034 A  
HETATM   33  F   UNL     1      -6.380   7.427  72.309  1.00  0.00    -0.043 F  
HETATM   34  F   UNL     1      -8.044   8.814  72.445  1.00  0.00    -0.181 F  
HETATM   35  F   UNL     1      -8.148   7.137  71.069  1.00  0.00    -0.099 F  
HETATM   36  C   UNL     1      -5.401  10.475  68.569  1.00  0.00    -0.037 A  
ENDBRANCH  25  27
ENDBRANCH  14  25
ENDBRANCH   7   9
ENDBRANCH   5   7
TORSDOF 5
ENDMDL
MODEL      228
REMARK 921   NORMALIZED FREE ENERGY PREDICTED BY IDOCK:   -5.14 KCAL/MOL
REMARK 922        TOTAL FREE ENERGY PREDICTED BY IDOCK:   -7.81 KCAL/MOL
REMARK 923 INTER-LIGAND FREE ENERGY PREDICTED BY IDOCK:   -6.83 KCAL/MOL
REMARK 924 INTRA-LIGAND FREE ENERGY PREDICTED BY IDOCK:   -0.98 KCAL/MOL
REMARK 927      BINDING AFFINITY PREDICTED BY RF-SCORE:    0.00 PKD
ROOT
HETATM    1  C   UNL     1     -10.736   5.375  72.348  1.00  0.00    -0.286 C  
HETATM    2  C   UNL     1     -11.168   6.840  72.224  1.00  0.00    -0.259 C  
HETATM    3  C   UNL     1     -12.572   6.918  71.613  1.00  0.00    -0.410 C  
HETATM    4  O   UNL     1     -11.227   7.408  73.542  1.00  0.00    -0.590 OA 
HETATM    5  C   UNL     1     -10.118   7.627  71.395  1.00  0.00    -0.182 C  
HETATM    6  H   UNL     1     -11.495   8.316  73.464  1.00  0.00     0.000 HD 
ENDROOT
BRANCH   5   7
HETATM    7  N   UNL     1     -10.579   8.987  71.157  1.00  0.00    -0.263 NA 
HETATM    8  H   UNL     1     -10.920   9.567  71.925  1.00  0.00     0.000 HD 
BRANCH   7   9
HETATM    9  C   UNL     1     -10.543   9.472  69.865  1.00  0.00    -0.241 A  
HETATM   10  N   UNL     1     -10.660  10.768  69.625  1.00  0.00    -0.212 NA 
HETATM   11  C   UNL     1     -10.624  11.125  68.341  1.00  0.00    -0.193 A  
HETATM   12  N   UNL     1     -10.354   8.557  68.922  1.00  0.00    -0.211 NA 
HETATM   13  N   UNL     1     -10.452  10.270  67.332  1.00  0.00    -0.233 NA 
HETATM   14  C   UNL     1     -10.287   8.999  67.676  1.00  0.00    -0.257 A  
BRANCH  11  15
HETATM   15  C   UNL     1     -10.768  12.565  67.994  1.00  0.00    -0.221 A  
HETATM   16  C   UNL     1      -9.723  14.587  67.388  1.00  0.00    -0.222 A  
HETATM   17  F   UNL     1      -8.253  16.426  67.874  1.00  0.00    -0.158 F  
HETATM   18  N   UNL     1      -9.632  13.264  67.709  1.00  0.00    -0.207 NA 
HETATM   19  C   UNL     1     -10.947  15.254  67.356  1.00  0.00    -0.321 A  
HETATM   20  C   UNL     1      -8.461  15.366  67.038  1.00  0.00    -0.231 C  
HETATM   21  C   UNL     1     -12.018  13.192  67.956  1.00  0.00    -0.345 A  
HETATM   22  C   UNL     1     -12.106  14.545  67.641  1.00  0.00    -0.266 A  
HETATM   23  F   UNL     1      -7.314  14.633  67.075  1.00  0.00    -0.206 F  
HETATM   24  F   UNL     1      -8.517  15.903  65.783  1.00  0.00    -0.297 F  
ENDBRANCH  11  15
BRANCH  14  25
HETATM   25  N   UNL     1      -9.940   8.061  66.702  1.00  0.00    -0.327 NA 
HETATM   26  H   UNL     1     -10.728   7.615  66.233  1.00  0.00     0.000 HD 
BRANCH  25  27
HETATM   27  C   UNL     1      -8.679   7.638  66.271  1.00  0.00    -0.152 A  
HETATM   28  C   UNL     1      -7.278   6.005  65.168  1.00  0.00    -0.070 A  
HETATM   29  C   UNL     1      -8.552   6.473  65.511  1.00  0.00    -0.109 A  
HETATM   30  N   UNL     1      -6.146   6.677  65.527  1.00  0.00    -0.037 NA 
HETATM   31  C   UNL     1      -7.127   4.694  64.411  1.00  0.00    -0.050 C  
HETATM   32  C   UNL     1      -6.290   7.799  66.256  1.00  0.00    -0.046 A  
HETATM   33  F   UNL     1      -6.401   3.763  65.096  1.00  0.00    -0.025 F  
HETATM   34  F   UNL     1      -8.321   4.085  64.135  1.00  0.00    -0.088 F  
HETATM   35  F   UNL     1      -6.508   4.837  63.203  1.00  0.00    -0.024 F  
HETATM   36  C   UNL     1      -7.513   8.296  66.662  1.00  0.00    -0.086 A  
ENDBRANCH  25  27
ENDBRANCH  14  25
ENDBRANCH   7   9
ENDBRANCH   5   7
TORSDOF 5
ENDMDL
MODEL      229
REMARK 921   NORMALIZED FREE ENERGY PREDICTED BY IDOCK:   -5.12 KCAL/MOL
REMARK 922        TOTAL FREE ENERGY PREDICTED BY IDOCK:   -7.77 KCAL/MOL
REMARK 923 INTER-LIGAND FREE ENERGY PREDICTED BY IDOCK:   -7.29 KCAL/MOL
REMARK 924 INTRA-LIGAND FREE ENERGY PREDICTED BY IDOCK:   -0.48 KCAL/MOL
REMARK 927      BINDING AFFINITY PREDICTED BY RF-SCORE:    0.00 PKD
ROOT
HETATM    1  C   UNL     1      -6.038  15.062  71.383  1.00  0.00     0.410 C  
HETATM    2  C   UNL     1      -6.230  14.406  70.012  1.00  0.00    -0.158 C  
HETATM    3  C   UNL     1      -7.545  14.885  69.386  1.00  0.00    -0.162 C  
HETATM    4  O   UNL     1      -5.155  14.823  69.156  1.00  0.00    -0.087 OA 
HETATM    5  C   UNL     1      -6.172  12.862  70.159  1.00  0.00    -0.026 C  
HETATM    6  H   UNL     1      -5.274  14.416  68.306  1.00  0.00     0.000 HD 
ENDROOT
BRANCH   5   7
HETATM    7  N   UNL     1      -6.483  12.223  68.889  1.00  0.00    -0.083 NA 
HETATM    8  H   UNL     1      -5.778  12.141  68.156  1.00  0.00     0.000 HD 
BRANCH   7   9
HETATM    9  C   UNL     1      -7.760  11.730  68.702  1.00  0.00    -0.126 A  
HETATM   10  N   UNL     1      -8.621  12.362  67.921  1.00  0.00    -0.161 NA 
HETATM   11  C   UNL     1      -9.829  11.806  67.821  1.00  0.00    -0.181 A  
HETATM   12  N   UNL     1      -8.024  10.590  69.327  1.00  0.00    -0.154 NA 
HETATM   13  N   UNL     1     -10.181  10.671  68.427  1.00  0.00    -0.166 NA 
HETATM   14  C   UNL     1      -9.233  10.081  69.142  1.00  0.00    -0.190 A  
BRANCH  11  15
HETATM   15  C   UNL     1     -10.856  12.471  66.974  1.00  0.00    -0.254 A  
HETATM   16  C   UNL     1     -12.006  12.548  64.920  1.00  0.00    -0.412 A  
HETATM   17  F   UNL     1     -12.043  12.868  62.537  1.00  0.00    -0.028 F  
HETATM   18  N   UNL     1     -11.073  11.964  65.727  1.00  0.00    -0.316 NA 
HETATM   19  C   UNL     1     -12.738  13.663  65.328  1.00  0.00    -0.478 A  
HETATM   20  C   UNL     1     -12.277  11.967  63.538  1.00  0.00    -0.547 C  
HETATM   21  C   UNL     1     -11.581  13.578  67.429  1.00  0.00    -0.392 A  
HETATM   22  C   UNL     1     -12.522  14.180  66.598  1.00  0.00    -0.255 A  
HETATM   23  F   UNL     1     -11.533  10.868  63.229  1.00  0.00    -0.140 F  
HETATM   24  F   UNL     1     -13.580  11.588  63.383  1.00  0.00    -0.217 F  
ENDBRANCH  11  15
BRANCH  14  25
HETATM   25  N   UNL     1      -9.460   8.811  69.676  1.00  0.00    -0.167 NA 
HETATM   26  H   UNL     1      -9.042   8.042  69.152  1.00  0.00     0.000 HD 
BRANCH  25  27
HETATM   27  C   UNL     1     -10.172   8.431  70.817  1.00  0.00    -0.194 A  
HETATM   28  C   UNL     1     -12.269   8.180  71.994  1.00  0.00    -0.339 A  
HETATM   29  C   UNL     1     -11.569   8.468  70.817  1.00  0.00    -0.257 A  
HETATM   30  N   UNL     1     -11.625   7.829  73.145  1.00  0.00    -0.217 NA 
HETATM   31  C   UNL     1     -13.786   8.297  72.026  1.00  0.00    -0.352 C  
HETATM   32  C   UNL     1     -10.280   7.796  73.123  1.00  0.00    -0.335 A  
HETATM   33  F   UNL     1     -14.232   9.209  72.938  1.00  0.00    -0.444 F  
HETATM   34  F   UNL     1     -14.325   8.692  70.832  1.00  0.00    -0.316 F  
HETATM   35  F   UNL     1     -14.410   7.123  72.331  1.00  0.00    -0.266 F  
HETATM   36  C   UNL     1      -9.525   8.105  72.008  1.00  0.00    -0.279 A  
ENDBRANCH  25  27
ENDBRANCH  14  25
ENDBRANCH   7   9
ENDBRANCH   5   7
TORSDOF 5
ENDMDL
MODEL      230
REMARK 921   NORMALIZED FREE ENERGY PREDICTED BY IDOCK:   -5.11 KCAL/MOL
REMARK 922        TOTAL FREE ENERGY PREDICTED BY IDOCK:   -7.77 KCAL/MOL
REMARK 923 INTER-LIGAND FREE ENERGY PREDICTED BY IDOCK:   -6.80 KCAL/MOL
REMARK 924 INTRA-LIGAND FREE ENERGY PREDICTED BY IDOCK:   -0.96 KCAL/MOL
REMARK 927      BINDING AFFINITY PREDICTED BY RF-SCORE:    0.00 PKD
ROOT
HETATM    1  C   UNL     1     -12.971  13.868  65.223  1.00  0.00    -0.341 C  
HETATM    2  C   UNL     1     -11.458  13.630  65.205  1.00  0.00    -0.316 C  
HETATM    3  C   UNL     1     -11.060  12.916  63.908  1.00  0.00    -0.454 C  
HETATM    4  O   UNL     1     -10.799  14.905  65.228  1.00  0.00    -0.334 OA 
HETATM    5  C   UNL     1     -11.039  12.835  66.471  1.00  0.00    -0.286 C  
HETATM    6  H   UNL     1      -9.860  14.757  65.217  1.00  0.00     0.000 HD 
ENDROOT
BRANCH   5   7
HETATM    7  N   UNL     1      -9.627  12.488  66.403  1.00  0.00    -0.245 NA 
HETATM    8  H   UNL     1      -9.281  11.829  65.705  1.00  0.00     0.000 HD 
BRANCH   7   9
HETATM    9  C   UNL     1      -8.766  13.074  67.311  1.00  0.00    -0.209 A  
HETATM   10  N   UNL     1      -8.737  14.389  67.462  1.00  0.00    -0.185 NA 
HETATM   11  C   UNL     1      -7.860  14.849  68.356  1.00  0.00    -0.121 A  
HETATM   12  N   UNL     1      -8.023  12.230  68.014  1.00  0.00    -0.140 NA 
HETATM   13  N   UNL     1      -7.067  14.071  69.093  1.00  0.00    -0.107 NA 
HETATM   14  C   UNL     1      -7.209  12.765  68.911  1.00  0.00    -0.039 A  
BRANCH  11  15
HETATM   15  C   UNL     1      -7.758  16.318  68.567  1.00  0.00    -0.189 A  
HETATM   16  C   UNL     1      -8.737  18.446  68.312  1.00  0.00    -0.302 A  
HETATM   17  F   UNL     1      -9.540  20.243  66.932  1.00  0.00    -0.460 F  
HETATM   18  N   UNL     1      -8.795  17.093  68.138  1.00  0.00    -0.230 NA 
HETATM   19  C   UNL     1      -7.637  19.064  68.905  1.00  0.00    -0.355 A  
HETATM   20  C   UNL     1      -9.906  19.314  67.865  1.00  0.00    -0.350 C  
HETATM   21  C   UNL     1      -6.643  16.898  69.182  1.00  0.00    -0.224 A  
HETATM   22  C   UNL     1      -6.581  18.279  69.347  1.00  0.00    -0.213 A  
HETATM   23  F   UNL     1     -10.945  18.626  67.315  1.00  0.00    -0.457 F  
HETATM   24  F   UNL     1     -10.442  20.031  68.897  1.00  0.00    -0.531 F  
ENDBRANCH  11  15
BRANCH  14  25
HETATM   25  N   UNL     1      -6.540  11.874  69.752  1.00  0.00    -0.310 NA 
HETATM   26  H   UNL     1      -5.860  12.302  70.380  1.00  0.00     0.000 HD 
BRANCH  25  27
HETATM   27  C   UNL     1      -6.658  10.486  69.866  1.00  0.00    -0.130 A  
HETATM   28  C   UNL     1      -6.719   8.294  68.846  1.00  0.00    -0.053 A  
HETATM   29  C   UNL     1      -6.501   9.673  68.741  1.00  0.00    -0.047 A  
HETATM   30  N   UNL     1      -7.050   7.709  70.033  1.00  0.00    -0.058 NA 
HETATM   31  C   UNL     1      -6.630   7.413  67.609  1.00  0.00    -0.061 C  
HETATM   32  C   UNL     1      -7.193   8.508  71.107  1.00  0.00    -0.076 A  
HETATM   33  F   UNL     1      -7.796   6.760  67.334  1.00  0.00    -0.102 F  
HETATM   34  F   UNL     1      -6.330   8.107  66.468  1.00  0.00    -0.049 F  
HETATM   35  F   UNL     1      -5.672   6.446  67.704  1.00  0.00    -0.010 F  
HETATM   36  C   UNL     1      -7.032   9.880  71.065  1.00  0.00     0.179 A  
ENDBRANCH  25  27
ENDBRANCH  14  25
ENDBRANCH   7   9
ENDBRANCH   5   7
TORSDOF 5
ENDMDL
MODEL      231
REMARK 921   NORMALIZED FREE ENERGY PREDICTED BY IDOCK:   -5.05 KCAL/MOL
REMARK 922        TOTAL FREE ENERGY PREDICTED BY IDOCK:   -7.69 KCAL/MOL
REMARK 923 INTER-LIGAND FREE ENERGY PREDICTED BY IDOCK:   -6.42 KCAL/MOL
REMARK 924 INTRA-LIGAND FREE ENERGY PREDICTED BY IDOCK:   -1.27 KCAL/MOL
REMARK 927      BINDING AFFINITY PREDICTED BY RF-SCORE:    0.00 PKD
ROOT
HETATM    1  C   UNL     1      -6.463   7.725  62.644  1.00  0.00    -0.076 C  
HETATM    2  C   UNL     1      -6.589   8.709  63.811  1.00  0.00    -0.084 C  
HETATM    3  C   UNL     1      -5.275   9.481  63.984  1.00  0.00    -0.061 C  
HETATM    4  O   UNL     1      -7.620   9.657  63.493  1.00  0.00    -0.113 OA 
HETATM    5  C   UNL     1      -7.001   7.945  65.097  1.00  0.00    -0.059 C  
HETATM    6  H   UNL     1      -7.698  10.268  64.217  1.00  0.00     0.000 HD 
ENDROOT
BRANCH   5   7
HETATM    7  N   UNL     1      -6.997   8.846  66.241  1.00  0.00    -0.078 NA 
HETATM    8  H   UNL     1      -6.130   9.269  66.573  1.00  0.00     0.000 HD 
BRANCH   7   9
HETATM    9  C   UNL     1      -8.200   9.112  66.866  1.00  0.00    -0.116 A  
HETATM   10  N   UNL     1      -8.358   8.871  68.158  1.00  0.00    -0.124 NA 
HETATM   11  C   UNL     1      -9.563   9.153  68.656  1.00  0.00    -0.152 A  
HETATM   12  N   UNL     1      -9.136   9.642  66.090  1.00  0.00    -0.153 NA 
HETATM   13  N   UNL     1     -10.562   9.674  67.943  1.00  0.00    -0.247 NA 
HETATM   14  C   UNL     1     -10.289   9.934  66.672  1.00  0.00    -0.205 A  
BRANCH  11  15
HETATM   15  C   UNL     1      -9.821   8.891  70.098  1.00  0.00    -0.178 A  
HETATM   16  C   UNL     1      -8.962   8.250  72.196  1.00  0.00    -0.209 A  
HETATM   17  F   UNL     1      -7.957   6.622  73.652  1.00  0.00    -0.099 F  
HETATM   18  N   UNL     1      -8.765   8.502  70.869  1.00  0.00    -0.151 NA 
HETATM   19  C   UNL     1     -10.220   8.365  72.788  1.00  0.00    -0.254 A  
HETATM   20  C   UNL     1      -7.782   7.846  73.070  1.00  0.00    -0.127 C  
HETATM   21  C   UNL     1     -11.095   9.035  70.656  1.00  0.00    -0.314 A  
HETATM   22  C   UNL     1     -11.296   8.765  72.007  1.00  0.00    -0.441 A  
HETATM   23  F   UNL     1      -6.589   7.777  72.416  1.00  0.00    -0.052 F  
HETATM   24  F   UNL     1      -7.586   8.713  74.107  1.00  0.00    -0.229 F  
ENDBRANCH  11  15
BRANCH  14  25
HETATM   25  N   UNL     1     -11.219  10.627  65.894  1.00  0.00     0.261 NA 
HETATM   26  H   UNL     1     -11.825  10.040  65.321  1.00  0.00     0.000 HD 
BRANCH  25  27
HETATM   27  C   UNL     1     -11.447  12.001  65.780  1.00  0.00    -0.320 A  
HETATM   28  C   UNL     1     -11.261  14.240  66.674  1.00  0.00    -0.334 A  
HETATM   29  C   UNL     1     -10.944  12.879  66.743  1.00  0.00    -0.300 A  
HETATM   30  N   UNL     1     -12.027  14.748  65.664  1.00  0.00    -0.230 NA 
HETATM   31  C   UNL     1     -10.786  15.190  67.764  1.00  0.00    -0.279 C  
HETATM   32  C   UNL     1     -12.499  13.887  64.744  1.00  0.00    -0.354 A  
HETATM   33  F   UNL     1     -11.811  15.810  68.416  1.00  0.00    -0.364 F  
HETATM   34  F   UNL     1     -10.060  14.570  68.744  1.00  0.00    -0.217 F  
HETATM   35  F   UNL     1      -9.980  16.187  67.295  1.00  0.00    -0.233 F  
HETATM   36  C   UNL     1     -12.257  12.527  64.774  1.00  0.00    -0.532 A  
ENDBRANCH  25  27
ENDBRANCH  14  25
ENDBRANCH   7   9
ENDBRANCH   5   7
TORSDOF 5
ENDMDL
MODEL      232
REMARK 921   NORMALIZED FREE ENERGY PREDICTED BY IDOCK:   -5.05 KCAL/MOL
REMARK 922        TOTAL FREE ENERGY PREDICTED BY IDOCK:   -7.69 KCAL/MOL
REMARK 923 INTER-LIGAND FREE ENERGY PREDICTED BY IDOCK:   -6.65 KCAL/MOL
REMARK 924 INTRA-LIGAND FREE ENERGY PREDICTED BY IDOCK:   -1.04 KCAL/MOL
REMARK 927      BINDING AFFINITY PREDICTED BY RF-SCORE:    0.00 PKD
ROOT
HETATM    1  C   UNL     1      -8.324   9.136  62.881  1.00  0.00    -0.199 C  
HETATM    2  C   UNL     1      -7.623   9.611  64.158  1.00  0.00    -0.128 C  
HETATM    3  C   UNL     1      -6.103   9.501  63.988  1.00  0.00    -0.095 C  
HETATM    4  O   UNL     1      -7.946  10.996  64.362  1.00  0.00    -0.336 OA 
HETATM    5  C   UNL     1      -8.143   8.800  65.374  1.00  0.00    -0.125 C  
HETATM    6  H   UNL     1      -7.511  11.291  65.154  1.00  0.00     0.000 HD 
ENDROOT
BRANCH   5   7
HETATM    7  N   UNL     1      -7.393   9.149  66.572  1.00  0.00    -0.088 NA 
HETATM    8  H   UNL     1      -6.443   8.803  66.716  1.00  0.00     0.000 HD 
BRANCH   7   9
HETATM    9  C   UNL     1      -8.000   9.961  67.509  1.00  0.00    -0.106 A  
HETATM   10  N   UNL     1      -8.951   9.488  68.299  1.00  0.00    -0.124 NA 
HETATM   11  C   UNL     1      -9.478  10.361  69.158  1.00  0.00    -0.208 A  
HETATM   12  N   UNL     1      -7.539  11.204  67.566  1.00  0.00    -0.104 NA 
HETATM   13  N   UNL     1      -9.082  11.630  69.270  1.00  0.00     0.359 NA 
HETATM   14  C   UNL     1      -8.085  11.995  68.475  1.00  0.00    -0.123 A  
BRANCH  11  15
HETATM   15  C   UNL     1     -10.565   9.906  70.066  1.00  0.00    -0.288 A  
HETATM   16  C   UNL     1     -11.403   8.230  71.494  1.00  0.00    -0.268 A  
HETATM   17  F   UNL     1     -12.246   6.010  71.868  1.00  0.00    -0.359 F  
HETATM   18  N   UNL     1     -10.426   8.684  70.656  1.00  0.00    -0.198 NA 
HETATM   19  C   UNL     1     -12.553   8.976  71.756  1.00  0.00    -0.434 A  
HETATM   20  C   UNL     1     -11.240   6.881  72.181  1.00  0.00    -0.258 C  
HETATM   21  C   UNL     1     -11.694  10.693  70.316  1.00  0.00    -0.433 A  
HETATM   22  C   UNL     1     -12.695  10.222  71.161  1.00  0.00    -0.502 A  
HETATM   23  F   UNL     1     -10.081   6.230  71.885  1.00  0.00    -0.188 F  
HETATM   24  F   UNL     1     -11.267   6.987  73.543  1.00  0.00    -0.279 F  
ENDBRANCH  11  15
BRANCH  14  25
HETATM   25  N   UNL     1      -7.500  13.253  68.636  1.00  0.00    -0.149 NA 
HETATM   26  H   UNL     1      -6.577  13.246  69.070  1.00  0.00     0.000 HD 
BRANCH  25  27
HETATM   27  C   UNL     1      -7.982  14.519  68.294  1.00  0.00    -0.137 A  
HETATM   28  C   UNL     1      -7.651  16.684  67.269  1.00  0.00    -0.169 A  
HETATM   29  C   UNL     1      -7.201  15.383  67.523  1.00  0.00    -0.224 A  
HETATM   30  N   UNL     1      -8.857  17.128  67.728  1.00  0.00    -0.222 NA 
HETATM   31  C   UNL     1      -6.771  17.658  66.500  1.00  0.00    -0.233 C  
HETATM   32  C   UNL     1      -9.597  16.280  68.466  1.00  0.00    -0.222 A  
HETATM   33  F   UNL     1      -6.453  18.773  67.220  1.00  0.00    -0.186 F  
HETATM   34  F   UNL     1      -5.571  17.122  66.121  1.00  0.00    -0.222 F  
HETATM   35  F   UNL     1      -7.345  18.106  65.346  1.00  0.00    -0.202 F  
HETATM   36  C   UNL     1      -9.196  14.997  68.787  1.00  0.00    -0.200 A  
ENDBRANCH  25  27
ENDBRANCH  14  25
ENDBRANCH   7   9
ENDBRANCH   5   7
TORSDOF 5
ENDMDL
MODEL      233
REMARK 921   NORMALIZED FREE ENERGY PREDICTED BY IDOCK:   -5.02 KCAL/MOL
REMARK 922        TOTAL FREE ENERGY PREDICTED BY IDOCK:   -7.65 KCAL/MOL
REMARK 923 INTER-LIGAND FREE ENERGY PREDICTED BY IDOCK:   -6.73 KCAL/MOL
REMARK 924 INTRA-LIGAND FREE ENERGY PREDICTED BY IDOCK:   -0.93 KCAL/MOL
REMARK 927      BINDING AFFINITY PREDICTED BY RF-SCORE:    0.00 PKD
ROOT
HETATM    1  C   UNL     1      -9.115  10.932  62.528  1.00  0.00    -0.361 C  
HETATM    2  C   UNL     1      -8.851  10.158  63.823  1.00  0.00    -0.229 C  
HETATM    3  C   UNL     1      -9.977  10.426  64.828  1.00  0.00    -0.409 C  
HETATM    4  O   UNL     1      -8.854   8.754  63.519  1.00  0.00    -0.434 OA 
HETATM    5  C   UNL     1      -7.454  10.537  64.384  1.00  0.00     0.084 C  
HETATM    6  H   UNL     1      -8.690   8.274  64.323  1.00  0.00     0.000 HD 
ENDROOT
BRANCH   5   7
HETATM    7  N   UNL     1      -7.244   9.910  65.681  1.00  0.00    -0.106 NA 
HETATM    8  H   UNL     1      -7.005   8.921  65.753  1.00  0.00     0.000 HD 
BRANCH   7   9
HETATM    9  C   UNL     1      -7.376  10.691  66.812  1.00  0.00    -0.120 A  
HETATM   10  N   UNL     1      -7.353  12.012  66.728  1.00  0.00    -0.036 NA 
HETATM   11  C   UNL     1      -7.477  12.667  67.883  1.00  0.00    -0.124 A  
HETATM   12  N   UNL     1      -7.555  10.023  67.944  1.00  0.00    -0.089 NA 
HETATM   13  N   UNL     1      -7.645  12.073  69.065  1.00  0.00    -0.011 NA 
HETATM   14  C   UNL     1      -7.712  10.749  69.040  1.00  0.00    -0.133 A  
BRANCH  11  15
HETATM   15  C   UNL     1      -7.442  14.155  67.869  1.00  0.00    -0.152 A  
HETATM   16  C   UNL     1      -8.571  16.175  67.433  1.00  0.00    -0.180 A  
HETATM   17  F   UNL     1      -9.631  17.710  65.916  1.00  0.00    -0.242 F  
HETATM   18  N   UNL     1      -8.566  14.811  67.461  1.00  0.00    -0.176 NA 
HETATM   19  C   UNL     1      -7.452  16.923  67.797  1.00  0.00    -0.176 A  
HETATM   20  C   UNL     1      -9.834  16.915  67.008  1.00  0.00    -0.270 C  
HETATM   21  C   UNL     1      -6.304  14.868  68.260  1.00  0.00    -0.123 A  
HETATM   22  C   UNL     1      -6.308  16.260  68.218  1.00  0.00    -0.126 A  
HETATM   23  F   UNL     1     -10.884  16.108  66.689  1.00  0.00    -0.317 F  
HETATM   24  F   UNL     1     -10.295  17.753  67.983  1.00  0.00    -0.317 F  
ENDBRANCH  11  15
BRANCH  14  25
HETATM   25  N   UNL     1      -8.049  10.053  70.203  1.00  0.00    -0.304 NA 
HETATM   26  H   UNL     1      -7.385  10.150  70.971  1.00  0.00     0.000 HD 
BRANCH  25  27
HETATM   27  C   UNL     1      -9.155   9.243  70.477  1.00  0.00    -0.259 A  
HETATM   28  C   UNL     1     -10.174   7.054  70.598  1.00  0.00    -0.191 A  
HETATM   29  C   UNL     1      -9.038   7.852  70.419  1.00  0.00    -0.154 A  
HETATM   30  N   UNL     1     -11.397   7.596  70.864  1.00  0.00    -0.273 NA 
HETATM   31  C   UNL     1     -10.072   5.542  70.456  1.00  0.00    -0.226 C  
HETATM   32  C   UNL     1     -11.489   8.937  70.919  1.00  0.00    -0.288 A  
HETATM   33  F   UNL     1     -10.868   5.045  69.466  1.00  0.00    -0.280 F  
HETATM   34  F   UNL     1      -8.810   5.110  70.152  1.00  0.00    -0.106 F  
HETATM   35  F   UNL     1     -10.419   4.870  71.592  1.00  0.00    -0.257 F  
HETATM   36  C   UNL     1     -10.418   9.786  70.713  1.00  0.00    -0.339 A  
ENDBRANCH  25  27
ENDBRANCH  14  25
ENDBRANCH   7   9
ENDBRANCH   5   7
TORSDOF 5
ENDMDL
MODEL      234
REMARK 921   NORMALIZED FREE ENERGY PREDICTED BY IDOCK:   -5.02 KCAL/MOL
REMARK 922        TOTAL FREE ENERGY PREDICTED BY IDOCK:   -7.65 KCAL/MOL
REMARK 923 INTER-LIGAND FREE ENERGY PREDICTED BY IDOCK:   -6.58 KCAL/MOL
REMARK 924 INTRA-LIGAND FREE ENERGY PREDICTED BY IDOCK:   -1.07 KCAL/MOL
REMARK 927      BINDING AFFINITY PREDICTED BY RF-SCORE:    0.00 PKD
ROOT
HETATM    1  C   UNL     1      -6.384   6.897  63.964  1.00  0.00    -0.039 C  
HETATM    2  C   UNL     1      -7.650   7.745  63.815  1.00  0.00    -0.118 C  
HETATM    3  C   UNL     1      -7.828   8.162  62.350  1.00  0.00    -0.138 C  
HETATM    4  O   UNL     1      -8.780   6.939  64.185  1.00  0.00    -0.246 OA 
HETATM    5  C   UNL     1      -7.579   8.964  64.773  1.00  0.00    -0.106 C  
HETATM    6  H   UNL     1      -9.566   7.466  64.093  1.00  0.00     0.000 HD 
ENDROOT
BRANCH   5   7
HETATM    7  N   UNL     1      -8.714   9.849  64.548  1.00  0.00    -0.181 NA 
HETATM    8  H   UNL     1      -8.921  10.210  63.617  1.00  0.00     0.000 HD 
BRANCH   7   9
HETATM    9  C   UNL     1      -9.503  10.186  65.631  1.00  0.00    -0.220 A  
HETATM   10  N   UNL     1      -9.755  11.453  65.914  1.00  0.00    -0.218 NA 
HETATM   11  C   UNL     1     -10.517  11.666  66.988  1.00  0.00    -0.224 A  
HETATM   12  N   UNL     1      -9.993   9.160  66.315  1.00  0.00    -0.287 NA 
HETATM   13  N   UNL     1     -11.038  10.694  67.738  1.00  0.00    -0.305 NA 
HETATM   14  C   UNL     1     -10.776   9.456  67.341  1.00  0.00    -0.210 A  
BRANCH  11  15
HETATM   15  C   UNL     1     -10.828  13.067  67.380  1.00  0.00    -0.251 A  
HETATM   16  C   UNL     1     -10.320  15.358  67.173  1.00  0.00    -0.271 A  
HETATM   17  F   UNL     1      -8.831  17.220  67.479  1.00  0.00    -0.211 F  
HETATM   18  N   UNL     1     -10.066  14.059  66.837  1.00  0.00    -0.255 NA 
HETATM   19  C   UNL     1     -11.330  15.701  68.071  1.00  0.00    -0.324 A  
HETATM   20  C   UNL     1      -9.494  16.474  66.547  1.00  0.00    -0.273 C  
HETATM   21  C   UNL     1     -11.863  13.370  68.271  1.00  0.00    -0.393 A  
HETATM   22  C   UNL     1     -12.111  14.694  68.622  1.00  0.00    -0.237 A  
HETATM   23  F   UNL     1      -8.543  16.050  65.667  1.00  0.00    -0.280 F  
HETATM   24  F   UNL     1     -10.267  17.364  65.856  1.00  0.00    -0.328 F  
ENDBRANCH  11  15
BRANCH  14  25
HETATM   25  N   UNL     1     -11.411   8.381  67.967  1.00  0.00     0.100 NA 
HETATM   26  H   UNL     1     -12.430   8.427  67.974  1.00  0.00     0.000 HD 
BRANCH  25  27
HETATM   27  C   UNL     1     -10.866   7.253  68.586  1.00  0.00    -0.071 A  
HETATM   28  C   UNL     1      -9.501   5.259  68.485  1.00  0.00    -0.128 A  
HETATM   29  C   UNL     1      -9.965   6.440  67.893  1.00  0.00    -0.145 A  
HETATM   30  N   UNL     1      -9.879   4.891  69.743  1.00  0.00    -0.202 NA 
HETATM   31  C   UNL     1      -8.584   4.326  67.707  1.00  0.00    -0.099 C  
HETATM   32  C   UNL     1     -10.744   5.689  70.396  1.00  0.00    -0.282 A  
HETATM   33  F   UNL     1      -9.113   3.080  67.535  1.00  0.00    -0.136 F  
HETATM   34  F   UNL     1      -8.300   4.772  66.445  1.00  0.00    -0.106 F  
HETATM   35  F   UNL     1      -7.371   4.141  68.305  1.00  0.00    -0.057 F  
HETATM   36  C   UNL     1     -11.271   6.847  69.857  1.00  0.00    -0.334 A  
ENDBRANCH  25  27
ENDBRANCH  14  25
ENDBRANCH   7   9
ENDBRANCH   5   7
TORSDOF 5
ENDMDL
MODEL      235
REMARK 921   NORMALIZED FREE ENERGY PREDICTED BY IDOCK:   -5.00 KCAL/MOL
REMARK 922        TOTAL FREE ENERGY PREDICTED BY IDOCK:   -7.62 KCAL/MOL
REMARK 923 INTER-LIGAND FREE ENERGY PREDICTED BY IDOCK:   -6.42 KCAL/MOL
REMARK 924 INTRA-LIGAND FREE ENERGY PREDICTED BY IDOCK:   -1.20 KCAL/MOL
REMARK 927      BINDING AFFINITY PREDICTED BY RF-SCORE:    0.00 PKD
ROOT
HETATM    1  C   UNL     1      -9.029   8.062  72.282  1.00  0.00    -0.230 C  
HETATM    2  C   UNL     1      -8.169   7.757  71.051  1.00  0.00    -0.103 C  
HETATM    3  C   UNL     1      -7.193   6.618  71.368  1.00  0.00    -0.082 C  
HETATM    4  O   UNL     1      -9.035   7.316  69.993  1.00  0.00    -0.141 OA 
HETATM    5  C   UNL     1      -7.443   9.048  70.587  1.00  0.00    -0.110 C  
HETATM    6  H   UNL     1      -8.502   7.126  69.230  1.00  0.00     0.000 HD 
ENDROOT
BRANCH   5   7
HETATM    7  N   UNL     1      -6.523   8.746  69.500  1.00  0.00    -0.043 NA 
HETATM    8  H   UNL     1      -5.577   8.412  69.691  1.00  0.00     0.000 HD 
BRANCH   7   9
HETATM    9  C   UNL     1      -6.963   8.923  68.203  1.00  0.00    -0.077 A  
HETATM   10  N   UNL     1      -7.185   7.882  67.416  1.00  0.00    -0.086 NA 
HETATM   11  C   UNL     1      -7.596   8.168  66.180  1.00  0.00    -0.089 A  
HETATM   12  N   UNL     1      -7.168  10.183  67.842  1.00  0.00    -0.085 NA 
HETATM   13  N   UNL     1      -7.813   9.405  65.733  1.00  0.00    -0.098 NA 
HETATM   14  C   UNL     1      -7.618  10.379  66.612  1.00  0.00    -0.114 A  
BRANCH  11  15
HETATM   15  C   UNL     1      -7.848   7.048  65.233  1.00  0.00    -0.121 A  
HETATM   16  C   UNL     1      -8.800   4.927  64.856  1.00  0.00    -0.152 A  
HETATM   17  F   UNL     1      -8.916   2.564  65.285  1.00  0.00    -0.115 F  
HETATM   18  N   UNL     1      -8.551   5.974  65.695  1.00  0.00    -0.154 NA 
HETATM   19  C   UNL     1      -8.344   4.915  63.538  1.00  0.00    -0.122 A  
HETATM   20  C   UNL     1      -9.611   3.738  65.355  1.00  0.00    -0.174 C  
HETATM   21  C   UNL     1      -7.388   7.084  63.912  1.00  0.00    -0.084 A  
HETATM   22  C   UNL     1      -7.632   6.008  63.063  1.00  0.00    -0.084 A  
HETATM   23  F   UNL     1     -10.034   3.842  66.646  1.00  0.00    -0.231 F  
HETATM   24  F   UNL     1     -10.740   3.534  64.612  1.00  0.00    -0.143 F  
ENDBRANCH  11  15
BRANCH  14  25
HETATM   25  N   UNL     1      -7.975  11.688  66.283  1.00  0.00    -0.380 NA 
HETATM   26  H   UNL     1      -7.202  12.286  65.994  1.00  0.00     0.000 HD 
BRANCH  25  27
HETATM   27  C   UNL     1      -9.229  12.305  66.288  1.00  0.00    -0.171 A  
HETATM   28  C   UNL     1     -11.347  12.762  65.213  1.00  0.00    -0.303 A  
HETATM   29  C   UNL     1     -10.134  12.063  65.251  1.00  0.00    -0.289 A  
HETATM   30  N   UNL     1     -11.691  13.654  66.187  1.00  0.00    -0.347 NA 
HETATM   31  C   UNL     1     -12.302  12.566  64.045  1.00  0.00    -0.469 C  
HETATM   32  C   UNL     1     -10.809  13.870  67.179  1.00  0.00    -0.284 A  
HETATM   33  F   UNL     1     -12.545  13.719  63.356  1.00  0.00    -0.459 F  
HETATM   34  F   UNL     1     -11.842  11.680  63.110  1.00  0.00    -0.479 F  
HETATM   35  F   UNL     1     -13.524  12.089  64.422  1.00  0.00    -0.368 F  
HETATM   36  C   UNL     1      -9.578  13.246  67.257  1.00  0.00    -0.234 A  
ENDBRANCH  25  27
ENDBRANCH  14  25
ENDBRANCH   7   9
ENDBRANCH   5   7
TORSDOF 5
ENDMDL
MODEL      236
REMARK 921   NORMALIZED FREE ENERGY PREDICTED BY IDOCK:   -4.99 KCAL/MOL
REMARK 922        TOTAL FREE ENERGY PREDICTED BY IDOCK:   -7.61 KCAL/MOL
REMARK 923 INTER-LIGAND FREE ENERGY PREDICTED BY IDOCK:   -6.88 KCAL/MOL
REMARK 924 INTRA-LIGAND FREE ENERGY PREDICTED BY IDOCK:   -0.73 KCAL/MOL
REMARK 927      BINDING AFFINITY PREDICTED BY RF-SCORE:    0.00 PKD
ROOT
HETATM    1  C   UNL     1     -11.126  14.842  65.817  1.00  0.00    -0.338 C  
HETATM    2  C   UNL     1     -11.507  13.475  65.239  1.00  0.00    -0.299 C  
HETATM    3  C   UNL     1     -12.235  12.646  66.302  1.00  0.00    -0.225 C  
HETATM    4  O   UNL     1     -12.412  13.684  64.144  1.00  0.00    -0.635 OA 
HETATM    5  C   UNL     1     -10.237  12.763  64.699  1.00  0.00    -0.297 C  
HETATM    6  H   UNL     1     -12.648  12.836  63.785  1.00  0.00     0.000 HD 
ENDROOT
BRANCH   5   7
HETATM    7  N   UNL     1     -10.563  11.412  64.267  1.00  0.00    -0.331 NA 
HETATM    8  H   UNL     1     -11.190  11.250  63.479  1.00  0.00     0.000 HD 
BRANCH   7   9
HETATM    9  C   UNL     1      -9.999  10.354  64.953  1.00  0.00    -0.339 A  
HETATM   10  N   UNL     1     -10.187  10.215  66.255  1.00  0.00    -0.236 NA 
HETATM   11  C   UNL     1      -9.587   9.166  66.819  1.00  0.00    -0.195 A  
HETATM   12  N   UNL     1      -9.305   9.502  64.209  1.00  0.00    -0.121 NA 
HETATM   13  N   UNL     1      -8.861   8.272  66.147  1.00  0.00    -0.158 NA 
HETATM   14  C   UNL     1      -8.777   8.463  64.838  1.00  0.00    -0.017 A  
BRANCH  11  15
HETATM   15  C   UNL     1      -9.738   8.957  68.284  1.00  0.00    -0.157 A  
HETATM   16  C   UNL     1     -10.405   7.534  70.040  1.00  0.00    -0.221 A  
HETATM   17  F   UNL     1     -12.098   6.319  71.238  1.00  0.00    -0.375 F  
HETATM   18  N   UNL     1     -10.249   7.763  68.703  1.00  0.00    -0.197 NA 
HETATM   19  C   UNL     1     -10.069   8.494  70.995  1.00  0.00    -0.257 A  
HETATM   20  C   UNL     1     -10.945   6.192  70.516  1.00  0.00    -0.318 C  
HETATM   21  C   UNL     1      -9.373   9.939  69.210  1.00  0.00    -0.215 A  
HETATM   22  C   UNL     1      -9.545   9.708  70.572  1.00  0.00    -0.261 A  
HETATM   23  F   UNL     1     -11.227   5.308  69.519  1.00  0.00    -0.223 F  
HETATM   24  F   UNL     1     -10.070   5.548  71.345  1.00  0.00    -0.211 F  
ENDBRANCH  11  15
BRANCH  14  25
HETATM   25  N   UNL     1      -8.176   7.492  64.035  1.00  0.00    -0.348 NA 
HETATM   26  H   UNL     1      -8.105   7.733  63.047  1.00  0.00     0.000 HD 
BRANCH  25  27
HETATM   27  C   UNL     1      -7.657   6.240  64.377  1.00  0.00    -0.100 A  
HETATM   28  C   UNL     1      -7.891   4.103  65.485  1.00  0.00    -0.090 A  
HETATM   29  C   UNL     1      -8.450   5.314  65.060  1.00  0.00    -0.150 A  
HETATM   30  N   UNL     1      -6.592   3.780  65.219  1.00  0.00    -0.043 NA 
HETATM   31  C   UNL     1      -8.724   3.125  66.300  1.00  0.00    -0.131 C  
HETATM   32  C   UNL     1      -5.846   4.683  64.557  1.00  0.00    -0.017 A  
HETATM   33  F   UNL     1      -8.195   2.872  67.532  1.00  0.00    -0.077 F  
HETATM   34  F   UNL     1      -9.997   3.564  66.540  1.00  0.00    -0.167 F  
HETATM   35  F   UNL     1      -8.870   1.909  65.697  1.00  0.00    -0.104 F  
HETATM   36  C   UNL     1      -6.322   5.913  64.143  1.00  0.00    -0.029 A  
ENDBRANCH  25  27
ENDBRANCH  14  25
ENDBRANCH   7   9
ENDBRANCH   5   7
TORSDOF 5
ENDMDL
MODEL      237
REMARK 921   NORMALIZED FREE ENERGY PREDICTED BY IDOCK:   -4.94 KCAL/MOL
REMARK 922        TOTAL FREE ENERGY PREDICTED BY IDOCK:   -7.55 KCAL/MOL
REMARK 923 INTER-LIGAND FREE ENERGY PREDICTED BY IDOCK:   -6.84 KCAL/MOL
REMARK 924 INTRA-LIGAND FREE ENERGY PREDICTED BY IDOCK:   -0.71 KCAL/MOL
REMARK 927      BINDING AFFINITY PREDICTED BY RF-SCORE:    0.00 PKD
ROOT
HETATM    1  C   UNL     1     -10.250   7.671  72.732  1.00  0.00    -0.336 C  
HETATM    2  C   UNL     1     -10.939   7.820  71.372  1.00  0.00    -0.235 C  
HETATM    3  C   UNL     1     -12.410   7.403  71.486  1.00  0.00    -0.385 C  
HETATM    4  O   UNL     1     -10.899   9.205  70.993  1.00  0.00    -0.242 OA 
HETATM    5  C   UNL     1     -10.171   6.995  70.304  1.00  0.00    -0.193 C  
HETATM    6  H   UNL     1     -11.327   9.296  70.149  1.00  0.00     0.000 HD 
ENDROOT
BRANCH   5   7
HETATM    7  N   UNL     1     -10.888   7.020  69.037  1.00  0.00    -0.357 NA 
HETATM    8  H   UNL     1     -11.696   6.418  68.879  1.00  0.00     0.000 HD 
BRANCH   7   9
HETATM    9  C   UNL     1     -10.443   7.882  68.053  1.00  0.00    -0.185 A  
HETATM   10  N   UNL     1     -10.727   9.173  68.106  1.00  0.00    -0.177 NA 
HETATM   11  C   UNL     1     -10.260   9.911  67.098  1.00  0.00    -0.228 A  
HETATM   12  N   UNL     1      -9.705   7.323  67.102  1.00  0.00    -0.156 NA 
HETATM   13  N   UNL     1      -9.523   9.427  66.098  1.00  0.00    -0.205 NA 
HETATM   14  C   UNL     1      -9.242   8.132  66.162  1.00  0.00    -0.173 A  
BRANCH  11  15
HETATM   15  C   UNL     1     -10.556  11.369  67.081  1.00  0.00    -0.243 A  
HETATM   16  C   UNL     1     -11.355  13.230  65.878  1.00  0.00    -0.311 A  
HETATM   17  F   UNL     1     -11.180  14.799  64.065  1.00  0.00    -0.154 F  
HETATM   18  N   UNL     1     -11.072  11.896  65.934  1.00  0.00    -0.312 NA 
HETATM   19  C   UNL     1     -11.118  14.078  66.960  1.00  0.00    -0.312 A  
HETATM   20  C   UNL     1     -11.961  13.820  64.611  1.00  0.00    -0.416 C  
HETATM   21  C   UNL     1     -10.319  12.182  68.195  1.00  0.00    -0.214 A  
HETATM   22  C   UNL     1     -10.596  13.545  68.131  1.00  0.00    -0.253 A  
HETATM   23  F   UNL     1     -12.178  12.918  63.613  1.00  0.00    -0.468 F  
HETATM   24  F   UNL     1     -13.170  14.412  64.844  1.00  0.00    -0.238 F  
ENDBRANCH  11  15
BRANCH  14  25
HETATM   25  N   UNL     1      -8.346   7.575  65.249  1.00  0.00    -0.215 NA 
HETATM   26  H   UNL     1      -7.531   8.151  65.037  1.00  0.00     0.000 HD 
BRANCH  25  27
HETATM   27  C   UNL     1      -8.391   6.348  64.581  1.00  0.00    -0.009 A  
HETATM   28  C   UNL     1      -8.561   3.936  64.632  1.00  0.00    -0.110 A  
HETATM   29  C   UNL     1      -8.616   5.168  65.295  1.00  0.00    -0.148 A  
HETATM   30  N   UNL     1      -8.326   3.853  63.290  1.00  0.00    -0.089 NA 
HETATM   31  C   UNL     1      -8.724   2.642  65.416  1.00  0.00    -0.116 C  
HETATM   32  C   UNL     1      -8.115   5.000  62.620  1.00  0.00    -0.088 A  
HETATM   33  F   UNL     1      -7.634   1.825  65.328  1.00  0.00    -0.063 F  
HETATM   34  F   UNL     1      -8.916   2.840  66.756  1.00  0.00    -0.123 F  
HETATM   35  F   UNL     1      -9.789   1.894  65.005  1.00  0.00    -0.032 F  
HETATM   36  C   UNL     1      -8.116   6.246  63.217  1.00  0.00    -0.053 A  
ENDBRANCH  25  27
ENDBRANCH  14  25
ENDBRANCH   7   9
ENDBRANCH   5   7
TORSDOF 5
ENDMDL
MODEL      238
REMARK 921   NORMALIZED FREE ENERGY PREDICTED BY IDOCK:   -4.90 KCAL/MOL
REMARK 922        TOTAL FREE ENERGY PREDICTED BY IDOCK:   -7.49 KCAL/MOL
REMARK 923 INTER-LIGAND FREE ENERGY PREDICTED BY IDOCK:   -6.31 KCAL/MOL
REMARK 924 INTRA-LIGAND FREE ENERGY PREDICTED BY IDOCK:   -1.18 KCAL/MOL
REMARK 927      BINDING AFFINITY PREDICTED BY RF-SCORE:    0.00 PKD
ROOT
HETATM    1  C   UNL     1     -12.118  14.927  67.999  1.00  0.00    -0.105 C  
HETATM    2  C   UNL     1     -11.585  13.981  66.919  1.00  0.00    -0.386 C  
HETATM    3  C   UNL     1     -12.463  14.078  65.665  1.00  0.00    -0.531 C  
HETATM    4  O   UNL     1     -10.259  14.401  66.563  1.00  0.00    -0.263 OA 
HETATM    5  C   UNL     1     -11.511  12.535  67.479  1.00  0.00    -0.336 C  
HETATM    6  H   UNL     1      -9.929  13.814  65.893  1.00  0.00     0.000 HD 
ENDROOT
BRANCH   5   7
HETATM    7  N   UNL     1     -11.133  11.605  66.425  1.00  0.00    -0.298 NA 
HETATM    8  H   UNL     1     -11.792  11.350  65.689  1.00  0.00     0.000 HD 
BRANCH   7   9
HETATM    9  C   UNL     1      -9.857  11.076  66.449  1.00  0.00    -0.212 A  
HETATM   10  N   UNL     1      -9.647   9.804  66.150  1.00  0.00    -0.208 NA 
HETATM   11  C   UNL     1      -8.379   9.396  66.216  1.00  0.00    -0.115 A  
HETATM   12  N   UNL     1      -8.893  11.935  66.755  1.00  0.00    -0.190 NA 
HETATM   13  N   UNL     1      -7.354  10.189  66.529  1.00  0.00    -0.104 NA 
HETATM   14  C   UNL     1      -7.658  11.460  66.757  1.00  0.00    -0.143 A  
BRANCH  11  15
HETATM   15  C   UNL     1      -8.069   7.973  65.912  1.00  0.00    -0.117 A  
HETATM   16  C   UNL     1      -8.773   5.725  65.936  1.00  0.00    -0.149 A  
HETATM   17  F   UNL     1      -9.427   3.736  67.118  1.00  0.00    -0.172 F  
HETATM   18  N   UNL     1      -9.022   7.041  66.200  1.00  0.00    -0.155 NA 
HETATM   19  C   UNL     1      -7.562   5.300  65.392  1.00  0.00    -0.082 A  
HETATM   20  C   UNL     1      -9.846   4.683  66.226  1.00  0.00    -0.226 C  
HETATM   21  C   UNL     1      -6.846   7.590  65.349  1.00  0.00    -0.048 A  
HETATM   22  C   UNL     1      -6.591   6.246  65.093  1.00  0.00    -0.039 A  
HETATM   23  F   UNL     1     -11.004   5.187  66.737  1.00  0.00    -0.283 F  
HETATM   24  F   UNL     1     -10.208   3.988  65.107  1.00  0.00    -0.189 F  
ENDBRANCH  11  15
BRANCH  14  25
HETATM   25  N   UNL     1      -6.634  12.394  66.931  1.00  0.00    -0.428 NA 
HETATM   26  H   UNL     1      -5.869  12.325  66.259  1.00  0.00     0.000 HD 
BRANCH  25  27
HETATM   27  C   UNL     1      -6.495  13.408  67.882  1.00  0.00    -0.151 A  
HETATM   28  C   UNL     1      -6.431  15.758  68.450  1.00  0.00    -0.113 A  
HETATM   29  C   UNL     1      -6.669  14.744  67.514  1.00  0.00    -0.157 A  
HETATM   30  N   UNL     1      -6.065  15.476  69.734  1.00  0.00    -0.146 NA 
HETATM   31  C   UNL     1      -6.537  17.218  68.035  1.00  0.00    -0.165 C  
HETATM   32  C   UNL     1      -5.907  14.183  70.071  1.00  0.00    -0.132 A  
HETATM   33  F   UNL     1      -5.369  17.904  68.196  1.00  0.00    -0.142 F  
HETATM   34  F   UNL     1      -6.872  17.385  66.719  1.00  0.00    -0.174 F  
HETATM   35  F   UNL     1      -7.480  17.910  68.737  1.00  0.00    -0.252 F  
HETATM   36  C   UNL     1      -6.087  13.136  69.188  1.00  0.00    -0.095 A  
ENDBRANCH  25  27
ENDBRANCH  14  25
ENDBRANCH   7   9
ENDBRANCH   5   7
TORSDOF 5
ENDMDL
MODEL      239
REMARK 921   NORMALIZED FREE ENERGY PREDICTED BY IDOCK:   -4.87 KCAL/MOL
REMARK 922        TOTAL FREE ENERGY PREDICTED BY IDOCK:   -7.46 KCAL/MOL
REMARK 923 INTER-LIGAND FREE ENERGY PREDICTED BY IDOCK:   -6.50 KCAL/MOL
REMARK 924 INTRA-LIGAND FREE ENERGY PREDICTED BY IDOCK:   -0.96 KCAL/MOL
REMARK 927      BINDING AFFINITY PREDICTED BY RF-SCORE:    0.00 PKD
ROOT
HETATM    1  C   UNL     1      -5.819  14.336  70.898  1.00  0.00    -0.210 C  
HETATM    2  C   UNL     1      -6.071  13.713  69.521  1.00  0.00    -0.114 C  
HETATM    3  C   UNL     1      -7.500  14.029  69.062  1.00  0.00    -0.060 C  
HETATM    4  O   UNL     1      -5.163  14.309  68.582  1.00  0.00    -0.082 OA 
HETATM    5  C   UNL     1      -5.791  12.188  69.578  1.00  0.00    -0.096 C  
HETATM    6  H   UNL     1      -5.319  13.923  67.728  1.00  0.00     0.000 HD 
ENDROOT
BRANCH   5   7
HETATM    7  N   UNL     1      -6.152  11.562  68.314  1.00  0.00    -0.045 NA 
HETATM    8  H   UNL     1      -5.679  11.819  67.447  1.00  0.00     0.000 HD 
BRANCH   7   9
HETATM    9  C   UNL     1      -7.152  10.610  68.320  1.00  0.00    -0.081 A  
HETATM   10  N   UNL     1      -7.069   9.546  69.103  1.00  0.00    -0.061 NA 
HETATM   11  C   UNL     1      -8.083   8.685  69.020  1.00  0.00    -0.121 A  
HETATM   12  N   UNL     1      -8.182  10.865  67.523  1.00  0.00    -0.115 NA 
HETATM   13  N   UNL     1      -9.148   8.858  68.236  1.00  0.00    -0.140 NA 
HETATM   14  C   UNL     1      -9.168   9.981  67.531  1.00  0.00    -0.137 A  
BRANCH  11  15
HETATM   15  C   UNL     1      -8.050   7.456  69.858  1.00  0.00    -0.126 A  
HETATM   16  C   UNL     1      -9.121   6.101  71.460  1.00  0.00    -0.143 A  
HETATM   17  F   UNL     1      -9.989   5.742  73.673  1.00  0.00    -0.156 F  
HETATM   18  N   UNL     1      -9.116   7.217  70.675  1.00  0.00    -0.156 NA 
HETATM   19  C   UNL     1      -8.057   5.200  71.465  1.00  0.00    -0.115 A  
HETATM   20  C   UNL     1     -10.323   5.812  72.350  1.00  0.00    -0.200 C  
HETATM   21  C   UNL     1      -6.970   6.568  69.820  1.00  0.00    -0.067 A  
HETATM   22  C   UNL     1      -6.972   5.437  70.632  1.00  0.00    -0.056 A  
HETATM   23  F   UNL     1     -11.324   6.732  72.269  1.00  0.00    -0.258 F  
HETATM   24  F   UNL     1     -10.903   4.608  72.061  1.00  0.00    -0.234 F  
ENDBRANCH  11  15
BRANCH  14  25
HETATM   25  N   UNL     1     -10.313  10.323  66.809  1.00  0.00    -0.230 NA 
HETATM   26  H   UNL     1     -11.177   9.896  67.144  1.00  0.00     0.000 HD 
BRANCH  25  27
HETATM   27  C   UNL     1     -10.459  11.160  65.700  1.00  0.00    -0.248 A  
HETATM   28  C   UNL     1     -11.090  13.292  64.748  1.00  0.00    -0.342 A  
HETATM   29  C   UNL     1     -10.851  12.490  65.870  1.00  0.00    -0.302 A  
HETATM   30  N   UNL     1     -10.917  12.819  63.479  1.00  0.00    -0.365 NA 
HETATM   31  C   UNL     1     -11.595  14.716  64.923  1.00  0.00    -0.405 C  
HETATM   32  C   UNL     1     -10.536  11.537  63.335  1.00  0.00    -0.395 A  
HETATM   33  F   UNL     1     -12.806  14.929  64.331  1.00  0.00    -0.397 F  
HETATM   34  F   UNL     1     -11.769  15.073  66.232  1.00  0.00    -0.333 F  
HETATM   35  F   UNL     1     -10.752  15.655  64.403  1.00  0.00    -0.364 F  
HETATM   36  C   UNL     1     -10.321  10.679  64.398  1.00  0.00    -0.347 A  
ENDBRANCH  25  27
ENDBRANCH  14  25
ENDBRANCH   7   9
ENDBRANCH   5   7
TORSDOF 5
ENDMDL
MODEL      240
REMARK 921   NORMALIZED FREE ENERGY PREDICTED BY IDOCK:   -4.87 KCAL/MOL
REMARK 922        TOTAL FREE ENERGY PREDICTED BY IDOCK:   -7.46 KCAL/MOL
REMARK 923 INTER-LIGAND FREE ENERGY PREDICTED BY IDOCK:   -6.61 KCAL/MOL
REMARK 924 INTRA-LIGAND FREE ENERGY PREDICTED BY IDOCK:   -0.85 KCAL/MOL
REMARK 927      BINDING AFFINITY PREDICTED BY RF-SCORE:    0.00 PKD
ROOT
HETATM    1  C   UNL     1      -5.880  15.797  70.069  1.00  0.00    -0.159 C  
HETATM    2  C   UNL     1      -6.074  14.312  69.745  1.00  0.00    -0.132 C  
HETATM    3  C   UNL     1      -5.309  13.454  70.759  1.00  0.00    -0.151 C  
HETATM    4  O   UNL     1      -7.471  14.001  69.868  1.00  0.00    -0.307 OA 
HETATM    5  C   UNL     1      -5.635  14.033  68.282  1.00  0.00    -0.112 C  
HETATM    6  H   UNL     1      -7.591  13.080  69.667  1.00  0.00     0.000 HD 
ENDROOT
BRANCH   5   7
HETATM    7  N   UNL     1      -5.690  12.606  68.003  1.00  0.00    -0.080 NA 
HETATM    8  H   UNL     1      -4.837  12.069  67.846  1.00  0.00     0.000 HD 
BRANCH   7   9
HETATM    9  C   UNL     1      -6.929  11.997  67.955  1.00  0.00    -0.095 A  
HETATM   10  N   UNL     1      -7.962  12.611  67.401  1.00  0.00    -0.170 NA 
HETATM   11  C   UNL     1      -9.114  11.938  67.420  1.00  0.00    -0.178 A  
HETATM   12  N   UNL     1      -6.980  10.774  68.466  1.00  0.00    -0.065 NA 
HETATM   13  N   UNL     1      -9.254  10.712  67.926  1.00  0.00    -0.147 NA 
HETATM   14  C   UNL     1      -8.150  10.158  68.407  1.00  0.00    -0.104 A  
BRANCH  11  15
HETATM   15  C   UNL     1     -10.324  12.573  66.831  1.00  0.00    -0.229 A  
HETATM   16  C   UNL     1     -11.816  12.725  65.015  1.00  0.00    -0.382 A  
HETATM   17  F   UNL     1     -12.293  13.259  62.720  1.00  0.00    -0.496 F  
HETATM   18  N   UNL     1     -10.712  12.165  65.589  1.00  0.00    -0.265 NA 
HETATM   19  C   UNL     1     -12.555  13.718  65.657  1.00  0.00    -0.551 A  
HETATM   20  C   UNL     1     -12.274  12.251  63.641  1.00  0.00    -0.567 C  
HETATM   21  C   UNL     1     -11.048  13.554  67.516  1.00  0.00    -0.293 A  
HETATM   22  C   UNL     1     -12.166  14.133  66.923  1.00  0.00    -0.400 A  
HETATM   23  F   UNL     1     -11.506  11.265  63.097  1.00  0.00    -0.383 F  
HETATM   24  F   UNL     1     -13.548  11.758  63.662  1.00  0.00    -0.336 F  
ENDBRANCH  11  15
BRANCH  14  25
HETATM   25  N   UNL     1      -8.167   8.820  68.807  1.00  0.00    -0.115 NA 
HETATM   26  H   UNL     1      -8.583   8.649  69.723  1.00  0.00     0.000 HD 
BRANCH  25  27
HETATM   27  C   UNL     1      -7.704   7.679  68.147  1.00  0.00    -0.119 A  
HETATM   28  C   UNL     1      -7.513   6.352  66.134  1.00  0.00    -0.082 A  
HETATM   29  C   UNL     1      -7.891   7.541  66.769  1.00  0.00    -0.110 A  
HETATM   30  N   UNL     1      -6.929   5.327  66.820  1.00  0.00    -0.063 NA 
HETATM   31  C   UNL     1      -7.788   6.161  64.649  1.00  0.00    -0.113 C  
HETATM   32  C   UNL     1      -6.754   5.480  68.145  1.00  0.00    -0.054 A  
HETATM   33  F   UNL     1      -8.599   5.095  64.390  1.00  0.00    -0.131 F  
HETATM   34  F   UNL     1      -8.409   7.234  64.070  1.00  0.00    -0.100 F  
HETATM   35  F   UNL     1      -6.656   5.960  63.914  1.00  0.00    -0.033 F  
HETATM   36  C   UNL     1      -7.139   6.610  68.842  1.00  0.00    -0.085 A  
ENDBRANCH  25  27
ENDBRANCH  14  25
ENDBRANCH   7   9
ENDBRANCH   5   7
TORSDOF 5
ENDMDL
MODEL      241
REMARK 921   NORMALIZED FREE ENERGY PREDICTED BY IDOCK:   -4.85 KCAL/MOL
REMARK 922        TOTAL FREE ENERGY PREDICTED BY IDOCK:   -7.43 KCAL/MOL
REMARK 923 INTER-LIGAND FREE ENERGY PREDICTED BY IDOCK:   -6.48 KCAL/MOL
REMARK 924 INTRA-LIGAND FREE ENERGY PREDICTED BY IDOCK:   -0.95 KCAL/MOL
REMARK 927      BINDING AFFINITY PREDICTED BY RF-SCORE:    0.00 PKD
ROOT
HETATM    1  C   UNL     1     -13.553   7.298  71.639  1.00  0.00    -0.435 C  
HETATM    2  C   UNL     1     -12.043   7.213  71.399  1.00  0.00    -0.344 C  
HETATM    3  C   UNL     1     -11.335   8.356  72.135  1.00  0.00    -0.437 C  
HETATM    4  O   UNL     1     -11.567   5.973  71.947  1.00  0.00    -0.295 OA 
HETATM    5  C   UNL     1     -11.753   7.222  69.874  1.00  0.00     0.089 C  
HETATM    6  H   UNL     1     -10.630   5.921  71.798  1.00  0.00     0.000 HD 
ENDROOT
BRANCH   5   7
HETATM    7  N   UNL     1     -10.319   7.274  69.634  1.00  0.00    -0.215 NA 
HETATM    8  H   UNL     1      -9.671   6.728  70.203  1.00  0.00     0.000 HD 
BRANCH   7   9
HETATM    9  C   UNL     1      -9.858   8.082  68.613  1.00  0.00    -0.174 A  
HETATM   10  N   UNL     1     -10.100   9.383  68.620  1.00  0.00    -0.184 NA 
HETATM   11  C   UNL     1      -9.620  10.067  67.580  1.00  0.00    -0.148 A  
HETATM   12  N   UNL     1      -9.147   7.465  67.678  1.00  0.00    -0.125 NA 
HETATM   13  N   UNL     1      -8.909   9.522  66.592  1.00  0.00    -0.133 NA 
HETATM   14  C   UNL     1      -8.669   8.223  66.704  1.00  0.00    -0.136 A  
BRANCH  11  15
HETATM   15  C   UNL     1      -9.869  11.532  67.510  1.00  0.00    -0.190 A  
HETATM   16  C   UNL     1     -10.775  13.455  68.526  1.00  0.00    -0.262 A  
HETATM   17  F   UNL     1     -12.649  14.722  69.340  1.00  0.00    -0.261 F  
HETATM   18  N   UNL     1     -10.526  12.113  68.555  1.00  0.00    -0.230 NA 
HETATM   19  C   UNL     1     -10.390  14.252  67.448  1.00  0.00    -0.259 A  
HETATM   20  C   UNL     1     -11.480  14.116  69.703  1.00  0.00    -0.273 C  
HETATM   21  C   UNL     1      -9.450  12.299  66.417  1.00  0.00    -0.240 A  
HETATM   22  C   UNL     1      -9.718  13.665  66.385  1.00  0.00    -0.300 A  
HETATM   23  F   UNL     1     -11.802  13.268  70.720  1.00  0.00    -0.370 F  
HETATM   24  F   UNL     1     -10.724  15.103  70.270  1.00  0.00    -0.267 F  
ENDBRANCH  11  15
BRANCH  14  25
HETATM   25  N   UNL     1      -7.800   7.602  65.804  1.00  0.00    -0.099 NA 
HETATM   26  H   UNL     1      -6.817   7.854  65.910  1.00  0.00     0.000 HD 
BRANCH  25  27
HETATM   27  C   UNL     1      -8.068   6.688  64.782  1.00  0.00    -0.099 A  
HETATM   28  C   UNL     1      -8.693   4.464  64.066  1.00  0.00    -0.136 A  
HETATM   29  C   UNL     1      -8.522   5.403  65.090  1.00  0.00    -0.150 A  
HETATM   30  N   UNL     1      -8.460   4.778  62.759  1.00  0.00    -0.105 NA 
HETATM   31  C   UNL     1      -9.108   3.039  64.401  1.00  0.00    -0.121 C  
HETATM   32  C   UNL     1      -8.026   6.021  62.481  1.00  0.00    -0.099 A  
HETATM   33  F   UNL     1      -8.193   2.109  64.003  1.00  0.00    -0.076 F  
HETATM   34  F   UNL     1      -9.278   2.824  65.742  1.00  0.00    -0.146 F  
HETATM   35  F   UNL     1     -10.290   2.673  63.826  1.00  0.00    -0.150 F  
HETATM   36  C   UNL     1      -7.799   6.985  63.446  1.00  0.00    -0.107 A  
ENDBRANCH  25  27
ENDBRANCH  14  25
ENDBRANCH   7   9
ENDBRANCH   5   7
TORSDOF 5
ENDMDL
MODEL      242
REMARK 921   NORMALIZED FREE ENERGY PREDICTED BY IDOCK:   -4.83 KCAL/MOL
REMARK 922        TOTAL FREE ENERGY PREDICTED BY IDOCK:   -7.41 KCAL/MOL
REMARK 923 INTER-LIGAND FREE ENERGY PREDICTED BY IDOCK:   -6.52 KCAL/MOL
REMARK 924 INTRA-LIGAND FREE ENERGY PREDICTED BY IDOCK:   -0.89 KCAL/MOL
REMARK 927      BINDING AFFINITY PREDICTED BY RF-SCORE:    0.00 PKD
ROOT
HETATM    1  C   UNL     1     -13.850   7.913  71.858  1.00  0.00    -0.402 C  
HETATM    2  C   UNL     1     -12.352   7.736  71.596  1.00  0.00    -0.321 C  
HETATM    3  C   UNL     1     -11.848   6.466  72.291  1.00  0.00    -0.315 C  
HETATM    4  O   UNL     1     -12.156   7.574  70.182  1.00  0.00    -0.481 OA 
HETATM    5  C   UNL     1     -11.586   9.006  72.056  1.00  0.00    -0.343 C  
HETATM    6  H   UNL     1     -11.226   7.465  70.019  1.00  0.00     0.000 HD 
ENDROOT
BRANCH   5   7
HETATM    7  N   UNL     1     -10.150   8.801  71.934  1.00  0.00    -0.323 NA 
HETATM    8  H   UNL     1      -9.546   8.817  72.757  1.00  0.00     0.000 HD 
BRANCH   7   9
HETATM    9  C   UNL     1      -9.627   8.585  70.675  1.00  0.00    -0.173 A  
HETATM   10  N   UNL     1      -9.887   9.420  69.682  1.00  0.00    -0.182 NA 
HETATM   11  C   UNL     1      -9.341   9.110  68.505  1.00  0.00    -0.135 A  
HETATM   12  N   UNL     1      -8.841   7.521  70.563  1.00  0.00    -0.146 NA 
HETATM   13  N   UNL     1      -8.552   8.053  68.304  1.00  0.00    -0.130 NA 
HETATM   14  C   UNL     1      -8.304   7.307  69.372  1.00  0.00    -0.133 A  
BRANCH  11  15
HETATM   15  C   UNL     1      -9.605   9.993  67.338  1.00  0.00    -0.154 A  
HETATM   16  C   UNL     1     -10.810  11.805  66.437  1.00  0.00    -0.282 A  
HETATM   17  F   UNL     1     -12.872  12.819  65.728  1.00  0.00    -0.380 F  
HETATM   18  N   UNL     1     -10.539  10.976  67.486  1.00  0.00    -0.212 NA 
HETATM   19  C   UNL     1     -10.168  11.669  65.206  1.00  0.00    -0.316 A  
HETATM   20  C   UNL     1     -11.829  12.925  66.605  1.00  0.00    -0.395 C  
HETATM   21  C   UNL     1      -8.925   9.834  66.125  1.00  0.00    -0.181 A  
HETATM   22  C   UNL     1      -9.214  10.673  65.053  1.00  0.00    -0.245 A  
HETATM   23  F   UNL     1     -12.392  12.998  67.843  1.00  0.00    -0.323 F  
HETATM   24  F   UNL     1     -11.287  14.157  66.373  1.00  0.00    -0.309 F  
ENDBRANCH  11  15
BRANCH  14  25
HETATM   25  N   UNL     1      -7.362   6.279  69.292  1.00  0.00    -0.089 NA 
HETATM   26  H   UNL     1      -6.559   6.381  69.911  1.00  0.00     0.000 HD 
BRANCH  25  27
HETATM   27  C   UNL     1      -7.352   5.132  68.494  1.00  0.00    -0.070 A  
HETATM   28  C   UNL     1      -7.082   4.082  66.332  1.00  0.00    -0.064 A  
HETATM   29  C   UNL     1      -6.995   5.218  67.146  1.00  0.00    -0.065 A  
HETATM   30  N   UNL     1      -7.476   2.873  66.827  1.00  0.00    -0.070 NA 
HETATM   31  C   UNL     1      -6.775   4.185  64.845  1.00  0.00    -0.048 C  
HETATM   32  C   UNL     1      -7.812   2.810  68.129  1.00  0.00    -0.055 A  
HETATM   33  F   UNL     1      -7.834   3.842  64.056  1.00  0.00    -0.078 F  
HETATM   34  F   UNL     1      -6.428   5.448  64.449  1.00  0.00    -0.033 F  
HETATM   35  F   UNL     1      -5.740   3.388  64.453  1.00  0.00    -0.009 F  
HETATM   36  C   UNL     1      -7.787   3.899  68.979  1.00  0.00    -0.056 A  
ENDBRANCH  25  27
ENDBRANCH  14  25
ENDBRANCH   7   9
ENDBRANCH   5   7
TORSDOF 5
ENDMDL
MODEL      243
REMARK 921   NORMALIZED FREE ENERGY PREDICTED BY IDOCK:   -4.81 KCAL/MOL
REMARK 922        TOTAL FREE ENERGY PREDICTED BY IDOCK:   -7.38 KCAL/MOL
REMARK 923 INTER-LIGAND FREE ENERGY PREDICTED BY IDOCK:   -6.36 KCAL/MOL
REMARK 924 INTRA-LIGAND FREE ENERGY PREDICTED BY IDOCK:   -1.02 KCAL/MOL
REMARK 927      BINDING AFFINITY PREDICTED BY RF-SCORE:    0.00 PKD
ROOT
HETATM    1  C   UNL     1      -6.496   6.901  63.977  1.00  0.00    -0.039 C  
HETATM    2  C   UNL     1      -7.640   7.913  63.865  1.00  0.00    -0.121 C  
HETATM    3  C   UNL     1      -7.811   8.345  62.404  1.00  0.00    -0.142 C  
HETATM    4  O   UNL     1      -8.855   7.270  64.281  1.00  0.00    -0.124 OA 
HETATM    5  C   UNL     1      -7.370   9.115  64.809  1.00  0.00    -0.098 C  
HETATM    6  H   UNL     1      -9.565   7.899  64.212  1.00  0.00     0.000 HD 
ENDROOT
BRANCH   5   7
HETATM    7  N   UNL     1      -8.380  10.145  64.617  1.00  0.00    -0.160 NA 
HETATM    8  H   UNL     1      -8.531  10.567  63.700  1.00  0.00     0.000 HD 
BRANCH   7   9
HETATM    9  C   UNL     1      -9.130  10.535  65.709  1.00  0.00    -0.179 A  
HETATM   10  N   UNL     1      -9.228  11.813  66.040  1.00  0.00    -0.218 NA 
HETATM   11  C   UNL     1      -9.966  12.077  67.119  1.00  0.00    -0.195 A  
HETATM   12  N   UNL     1      -9.748   9.553  66.352  1.00  0.00    -0.212 NA 
HETATM   13  N   UNL     1     -10.608  11.149  67.830  1.00  0.00    -0.197 NA 
HETATM   14  C   UNL     1     -10.497   9.904  67.387  1.00  0.00    -0.267 A  
BRANCH  11  15
HETATM   15  C   UNL     1     -10.106  13.490  67.562  1.00  0.00    -0.234 A  
HETATM   16  C   UNL     1      -9.195  15.661  67.631  1.00  0.00    -0.193 A  
HETATM   17  F   UNL     1      -7.499  17.212  68.336  1.00  0.00    -0.189 F  
HETATM   18  N   UNL     1      -9.104  14.357  67.240  1.00  0.00    -0.204 NA 
HETATM   19  C   UNL     1     -10.281  16.134  68.367  1.00  0.00    -0.240 A  
HETATM   20  C   UNL     1      -8.095  16.642  67.247  1.00  0.00    -0.168 C  
HETATM   21  C   UNL     1     -11.221  13.928  68.285  1.00  0.00    -0.298 A  
HETATM   22  C   UNL     1     -11.306  15.256  68.693  1.00  0.00    -0.327 A  
HETATM   23  F   UNL     1      -7.084  16.100  66.512  1.00  0.00    -0.233 F  
HETATM   24  F   UNL     1      -8.570  17.688  66.507  1.00  0.00    -0.242 F  
ENDBRANCH  11  15
BRANCH  14  25
HETATM   25  N   UNL     1     -11.263   8.892  67.969  1.00  0.00    -0.289 NA 
HETATM   26  H   UNL     1     -12.216   9.161  68.216  1.00  0.00     0.000 HD 
BRANCH  25  27
HETATM   27  C   UNL     1     -10.926   7.569  68.267  1.00  0.00     0.109 A  
HETATM   28  C   UNL     1     -10.259   5.883  69.867  1.00  0.00    -0.218 A  
HETATM   29  C   UNL     1     -10.692   7.185  69.590  1.00  0.00    -0.256 A  
HETATM   30  N   UNL     1     -10.091   4.957  68.878  1.00  0.00    -0.151 NA 
HETATM   31  C   UNL     1      -9.923   5.480  71.295  1.00  0.00    -0.192 C  
HETATM   32  C   UNL     1     -10.326   5.345  67.612  1.00  0.00    -0.177 A  
HETATM   33  F   UNL     1      -8.628   5.078  71.445  1.00  0.00    -0.116 F  
HETATM   34  F   UNL     1     -10.091   6.493  72.199  1.00  0.00    -0.180 F  
HETATM   35  F   UNL     1     -10.692   4.453  71.760  1.00  0.00    -0.183 F  
HETATM   36  C   UNL     1     -10.716   6.624  67.263  1.00  0.00    -0.427 A  
ENDBRANCH  25  27
ENDBRANCH  14  25
ENDBRANCH   7   9
ENDBRANCH   5   7
TORSDOF 5
ENDMDL
MODEL      244
REMARK 921   NORMALIZED FREE ENERGY PREDICTED BY IDOCK:   -4.78 KCAL/MOL
REMARK 922        TOTAL FREE ENERGY PREDICTED BY IDOCK:   -7.34 KCAL/MOL
REMARK 923 INTER-LIGAND FREE ENERGY PREDICTED BY IDOCK:   -6.78 KCAL/MOL
REMARK 924 INTRA-LIGAND FREE ENERGY PREDICTED BY IDOCK:   -0.56 KCAL/MOL
REMARK 927      BINDING AFFINITY PREDICTED BY RF-SCORE:    0.00 PKD
ROOT
HETATM    1  C   UNL     1     -10.444   4.868  73.543  1.00  0.00    -0.278 C  
HETATM    2  C   UNL     1     -10.153   6.347  73.270  1.00  0.00    -0.200 C  
HETATM    3  C   UNL     1     -11.430   7.050  72.795  1.00  0.00    -0.207 C  
HETATM    4  O   UNL     1      -9.742   6.962  74.502  1.00  0.00    -0.404 OA 
HETATM    5  C   UNL     1      -8.993   6.472  72.247  1.00  0.00    -0.138 C  
HETATM    6  H   UNL     1      -9.561   7.879  74.332  1.00  0.00     0.000 HD 
ENDROOT
BRANCH   5   7
HETATM    7  N   UNL     1      -8.793   7.866  71.879  1.00  0.00    -0.121 NA 
HETATM    8  H   UNL     1      -8.154   8.462  72.407  1.00  0.00     0.000 HD 
BRANCH   7   9
HETATM    9  C   UNL     1      -9.492   8.362  70.796  1.00  0.00    -0.169 A  
HETATM   10  N   UNL     1      -9.989   9.588  70.816  1.00  0.00    -0.283 NA 
HETATM   11  C   UNL     1     -10.656   9.961  69.723  1.00  0.00    -0.264 A  
HETATM   12  N   UNL     1      -9.587   7.540  69.759  1.00  0.00    -0.163 NA 
HETATM   13  N   UNL     1     -10.811   9.192  68.644  1.00  0.00    -0.113 NA 
HETATM   14  C   UNL     1     -10.228   8.002  68.696  1.00  0.00    -0.206 A  
BRANCH  11  15
HETATM   15  C   UNL     1     -11.260  11.320  69.681  1.00  0.00    -0.251 A  
HETATM   16  C   UNL     1     -11.532  13.349  68.514  1.00  0.00    -0.310 A  
HETATM   17  F   UNL     1     -10.644  15.382  67.589  1.00  0.00    -0.256 F  
HETATM   18  N   UNL     1     -10.998  12.095  68.589  1.00  0.00    -0.233 NA 
HETATM   19  C   UNL     1     -12.330  13.870  69.533  1.00  0.00    -0.275 A  
HETATM   20  C   UNL     1     -11.271  14.207  67.284  1.00  0.00    -0.316 C  
HETATM   21  C   UNL     1     -12.069  11.799  70.716  1.00  0.00    -0.352 A  
HETATM   22  C   UNL     1     -12.602  13.083  70.643  1.00  0.00    -0.270 A  
HETATM   23  F   UNL     1     -10.500  13.613  66.331  1.00  0.00    -0.273 F  
HETATM   24  F   UNL     1     -12.426  14.570  66.651  1.00  0.00    -0.430 F  
ENDBRANCH  11  15
BRANCH  14  25
HETATM   25  N   UNL     1     -10.199   7.197  67.556  1.00  0.00    -0.191 NA 
HETATM   26  H   UNL     1     -10.882   6.440  67.545  1.00  0.00     0.000 HD 
BRANCH  25  27
HETATM   27  C   UNL     1      -9.379   7.269  66.426  1.00  0.00    -0.150 A  
HETATM   28  C   UNL     1      -7.821   6.231  64.895  1.00  0.00    -0.113 A  
HETATM   29  C   UNL     1      -8.717   6.128  65.966  1.00  0.00    -0.157 A  
HETATM   30  N   UNL     1      -7.598   7.417  64.258  1.00  0.00    -0.105 NA 
HETATM   31  C   UNL     1      -7.035   5.011  64.440  1.00  0.00    -0.049 C  
HETATM   32  C   UNL     1      -8.248   8.504  64.714  1.00  0.00    -0.162 A  
HETATM   33  F   UNL     1      -5.684   5.180  64.536  1.00  0.00    -0.015 F  
HETATM   34  F   UNL     1      -7.307   3.886  65.170  1.00  0.00    -0.063 F  
HETATM   35  F   UNL     1      -7.280   4.665  63.142  1.00  0.00    -0.044 F  
HETATM   36  C   UNL     1      -9.115   8.482  65.790  1.00  0.00    -0.222 A  
ENDBRANCH  25  27
ENDBRANCH  14  25
ENDBRANCH   7   9
ENDBRANCH   5   7
TORSDOF 5
ENDMDL
MODEL      245
REMARK 921   NORMALIZED FREE ENERGY PREDICTED BY IDOCK:   -4.78 KCAL/MOL
REMARK 922        TOTAL FREE ENERGY PREDICTED BY IDOCK:   -7.34 KCAL/MOL
REMARK 923 INTER-LIGAND FREE ENERGY PREDICTED BY IDOCK:   -7.00 KCAL/MOL
REMARK 924 INTRA-LIGAND FREE ENERGY PREDICTED BY IDOCK:   -0.34 KCAL/MOL
REMARK 927      BINDING AFFINITY PREDICTED BY RF-SCORE:    0.00 PKD
ROOT
HETATM    1  C   UNL     1      -6.051  15.075  71.385  1.00  0.00     0.410 C  
HETATM    2  C   UNL     1      -6.201  14.418  70.009  1.00  0.00    -0.158 C  
HETATM    3  C   UNL     1      -7.545  14.817  69.387  1.00  0.00    -0.127 C  
HETATM    4  O   UNL     1      -5.156  14.911  69.156  1.00  0.00    -0.090 OA 
HETATM    5  C   UNL     1      -6.044  12.880  70.143  1.00  0.00    -0.092 C  
HETATM    6  H   UNL     1      -5.250  14.503  68.302  1.00  0.00     0.000 HD 
ENDROOT
BRANCH   5   7
HETATM    7  N   UNL     1      -6.315  12.232  68.867  1.00  0.00    -0.077 NA 
HETATM    8  H   UNL     1      -5.603  12.194  68.137  1.00  0.00     0.000 HD 
BRANCH   7   9
HETATM    9  C   UNL     1      -7.561  11.671  68.672  1.00  0.00    -0.133 A  
HETATM   10  N   UNL     1      -8.484  12.304  67.965  1.00  0.00    -0.163 NA 
HETATM   11  C   UNL     1      -9.656  11.678  67.850  1.00  0.00    -0.180 A  
HETATM   12  N   UNL     1      -7.733  10.470  69.209  1.00  0.00    -0.133 NA 
HETATM   13  N   UNL     1      -9.916  10.477  68.370  1.00  0.00    -0.159 NA 
HETATM   14  C   UNL     1      -8.910   9.898  69.013  1.00  0.00    -0.156 A  
BRANCH  11  15
HETATM   15  C   UNL     1     -10.748  12.337  67.085  1.00  0.00    -0.233 A  
HETATM   16  C   UNL     1     -11.912  12.552  65.048  1.00  0.00    -0.427 A  
HETATM   17  F   UNL     1     -11.993  13.156  62.722  1.00  0.00    -0.474 F  
HETATM   18  N   UNL     1     -10.921  11.968  65.783  1.00  0.00    -0.297 NA 
HETATM   19  C   UNL     1     -12.748  13.531  65.585  1.00  0.00    -0.478 A  
HETATM   20  C   UNL     1     -12.131  12.121  63.603  1.00  0.00    -0.551 C  
HETATM   21  C   UNL     1     -11.576  13.303  67.667  1.00  0.00    -0.386 A  
HETATM   22  C   UNL     1     -12.577  13.906  66.911  1.00  0.00    -0.029 A  
HETATM   23  F   UNL     1     -11.285  11.147  63.167  1.00  0.00    -0.352 F  
HETATM   24  F   UNL     1     -13.392  11.637  63.394  1.00  0.00    -0.510 F  
ENDBRANCH  11  15
BRANCH  14  25
HETATM   25  N   UNL     1      -9.039   8.578  69.448  1.00  0.00    -0.149 NA 
HETATM   26  H   UNL     1      -8.795   7.870  68.755  1.00  0.00     0.000 HD 
BRANCH  25  27
HETATM   27  C   UNL     1      -9.450   8.076  70.685  1.00  0.00    -0.162 A  
HETATM   28  C   UNL     1      -9.839   6.204  72.166  1.00  0.00    -0.157 A  
HETATM   29  C   UNL     1      -9.334   6.711  70.963  1.00  0.00    -0.161 A  
HETATM   30  N   UNL     1     -10.416   7.014  73.100  1.00  0.00    -0.271 NA 
HETATM   31  C   UNL     1      -9.792   4.708  72.441  1.00  0.00    -0.163 C  
HETATM   32  C   UNL     1     -10.515   8.325  72.817  1.00  0.00    -0.258 A  
HETATM   33  F   UNL     1     -11.028   4.160  72.626  1.00  0.00    -0.228 F  
HETATM   34  F   UNL     1      -9.229   3.987  71.424  1.00  0.00    -0.142 F  
HETATM   35  F   UNL     1      -9.068   4.388  73.553  1.00  0.00    -0.106 F  
HETATM   36  C   UNL     1     -10.074   8.887  71.633  1.00  0.00    -0.411 A  
ENDBRANCH  25  27
ENDBRANCH  14  25
ENDBRANCH   7   9
ENDBRANCH   5   7
TORSDOF 5
ENDMDL
MODEL      246
REMARK 921   NORMALIZED FREE ENERGY PREDICTED BY IDOCK:   -4.75 KCAL/MOL
REMARK 922        TOTAL FREE ENERGY PREDICTED BY IDOCK:   -7.31 KCAL/MOL
REMARK 923 INTER-LIGAND FREE ENERGY PREDICTED BY IDOCK:   -6.62 KCAL/MOL
REMARK 924 INTRA-LIGAND FREE ENERGY PREDICTED BY IDOCK:   -0.69 KCAL/MOL
REMARK 927      BINDING AFFINITY PREDICTED BY RF-SCORE:    0.00 PKD
ROOT
HETATM    1  C   UNL     1     -12.080  15.314  64.092  1.00  0.00    -0.146 C  
HETATM    2  C   UNL     1     -12.067  13.820  64.428  1.00  0.00    -0.436 C  
HETATM    3  C   UNL     1     -12.649  13.596  65.829  1.00  0.00    -0.511 C  
HETATM    4  O   UNL     1     -12.909  13.137  63.486  1.00  0.00    -0.638 OA 
HETATM    5  C   UNL     1     -10.624  13.265  64.291  1.00  0.00    -0.384 C  
HETATM    6  H   UNL     1     -12.901  12.210  63.694  1.00  0.00     0.000 HD 
ENDROOT
BRANCH   5   7
HETATM    7  N   UNL     1     -10.572  11.879  64.733  1.00  0.00    -0.285 NA 
HETATM    8  H   UNL     1     -10.893  11.123  64.128  1.00  0.00     0.000 HD 
BRANCH   7   9
HETATM    9  C   UNL     1     -10.077  11.615  65.995  1.00  0.00    -0.224 A  
HETATM   10  N   UNL     1      -9.155  12.395  66.536  1.00  0.00    -0.208 NA 
HETATM   11  C   UNL     1      -8.739  12.041  67.753  1.00  0.00    -0.161 A  
HETATM   12  N   UNL     1     -10.613  10.566  66.606  1.00  0.00    -0.226 NA 
HETATM   13  N   UNL     1      -9.214  10.995  68.430  1.00  0.00    -0.168 NA 
HETATM   14  C   UNL     1     -10.176  10.307  67.828  1.00  0.00    -0.187 A  
BRANCH  11  15
HETATM   15  C   UNL     1      -7.690  12.861  68.417  1.00  0.00    -0.133 A  
HETATM   16  C   UNL     1      -6.766  14.993  68.799  1.00  0.00    -0.099 A  
HETATM   17  F   UNL     1      -5.663  16.981  68.017  1.00  0.00    -0.111 F  
HETATM   18  N   UNL     1      -7.713  14.208  68.208  1.00  0.00    -0.128 NA 
HETATM   19  C   UNL     1      -5.761  14.456  69.603  1.00  0.00    -0.099 A  
HETATM   20  C   UNL     1      -6.804  16.503  68.596  1.00  0.00    -0.160 C  
HETATM   21  C   UNL     1      -6.709  12.283  69.231  1.00  0.00    -0.075 A  
HETATM   22  C   UNL     1      -5.737  13.085  69.822  1.00  0.00    -0.114 A  
HETATM   23  F   UNL     1      -7.829  16.943  67.814  1.00  0.00    -0.167 F  
HETATM   24  F   UNL     1      -6.922  17.181  69.776  1.00  0.00    -0.187 F  
ENDBRANCH  11  15
BRANCH  14  25
HETATM   25  N   UNL     1     -10.844   9.299  68.526  1.00  0.00    -0.426 NA 
HETATM   26  H   UNL     1     -11.843   9.232  68.335  1.00  0.00     0.000 HD 
BRANCH  25  27
HETATM   27  C   UNL     1     -10.354   8.368  69.446  1.00  0.00    -0.215 A  
HETATM   28  C   UNL     1      -8.549   6.988  70.276  1.00  0.00    -0.140 A  
HETATM   29  C   UNL     1      -9.008   7.994  69.417  1.00  0.00    -0.148 A  
HETATM   30  N   UNL     1      -9.377   6.380  71.174  1.00  0.00    -0.160 NA 
HETATM   31  C   UNL     1      -7.104   6.518  70.195  1.00  0.00    -0.074 C  
HETATM   32  C   UNL     1     -10.669   6.756  71.189  1.00  0.00    -0.229 A  
HETATM   33  F   UNL     1      -6.991   5.192  69.892  1.00  0.00    -0.049 F  
HETATM   34  F   UNL     1      -6.375   7.168  69.237  1.00  0.00    -0.031 F  
HETATM   35  F   UNL     1      -6.413   6.698  71.357  1.00  0.00    -0.042 F  
HETATM   36  C   UNL     1     -11.197   7.712  70.343  1.00  0.00    -0.258 A  
ENDBRANCH  25  27
ENDBRANCH  14  25
ENDBRANCH   7   9
ENDBRANCH   5   7
TORSDOF 5
ENDMDL
MODEL      247
REMARK 921   NORMALIZED FREE ENERGY PREDICTED BY IDOCK:   -4.75 KCAL/MOL
REMARK 922        TOTAL FREE ENERGY PREDICTED BY IDOCK:   -7.30 KCAL/MOL
REMARK 923 INTER-LIGAND FREE ENERGY PREDICTED BY IDOCK:   -6.22 KCAL/MOL
REMARK 924 INTRA-LIGAND FREE ENERGY PREDICTED BY IDOCK:   -1.08 KCAL/MOL
REMARK 927      BINDING AFFINITY PREDICTED BY RF-SCORE:    0.00 PKD
ROOT
HETATM    1  C   UNL     1      -7.426   6.209  71.999  1.00  0.00    -0.095 C  
HETATM    2  C   UNL     1      -8.276   7.384  71.508  1.00  0.00    -0.104 C  
HETATM    3  C   UNL     1      -9.616   6.868  70.971  1.00  0.00    -0.172 C  
HETATM    4  O   UNL     1      -8.549   8.244  72.626  1.00  0.00    -0.176 OA 
HETATM    5  C   UNL     1      -7.486   8.194  70.446  1.00  0.00    -0.067 C  
HETATM    6  H   UNL     1      -9.077   8.973  72.321  1.00  0.00     0.000 HD 
ENDROOT
BRANCH   5   7
HETATM    7  N   UNL     1      -8.328   9.235  69.875  1.00  0.00    -0.139 NA 
HETATM    8  H   UNL     1      -9.065   9.675  70.427  1.00  0.00     0.000 HD 
BRANCH   7   9
HETATM    9  C   UNL     1      -8.104   9.611  68.565  1.00  0.00    -0.104 A  
HETATM   10  N   UNL     1      -8.073   8.708  67.598  1.00  0.00    -0.106 NA 
HETATM   11  C   UNL     1      -7.837   9.179  66.373  1.00  0.00    -0.100 A  
HETATM   12  N   UNL     1      -7.960  10.915  68.367  1.00  0.00    -0.120 NA 
HETATM   13  N   UNL     1      -7.667  10.471  66.090  1.00  0.00    -0.137 NA 
HETATM   14  C   UNL     1      -7.772  11.305  67.116  1.00  0.00    -0.147 A  
BRANCH  11  15
HETATM   15  C   UNL     1      -7.769   8.220  65.238  1.00  0.00    -0.106 A  
HETATM   16  C   UNL     1      -8.268   6.073  64.404  1.00  0.00    -0.082 A  
HETATM   17  F   UNL     1      -7.998   3.685  64.442  1.00  0.00    -0.082 F  
HETATM   18  N   UNL     1      -8.311   6.982  65.422  1.00  0.00    -0.136 NA 
HETATM   19  C   UNL     1      -7.669   6.369  63.180  1.00  0.00    -0.094 A  
HETATM   20  C   UNL     1      -8.899   4.700  64.592  1.00  0.00    -0.153 C  
HETATM   21  C   UNL     1      -7.175   8.562  64.019  1.00  0.00    -0.093 A  
HETATM   22  C   UNL     1      -7.120   7.629  62.987  1.00  0.00    -0.075 A  
HETATM   23  F   UNL     1      -9.479   4.504  65.810  1.00  0.00    -0.134 F  
HETATM   24  F   UNL     1      -9.878   4.451  63.673  1.00  0.00    -0.149 F  
ENDBRANCH  11  15
BRANCH  14  25
HETATM   25  N   UNL     1      -7.771  12.682  66.888  1.00  0.00    -0.390 NA 
HETATM   26  H   UNL     1      -6.846  13.111  66.842  1.00  0.00     0.000 HD 
BRANCH  25  27
HETATM   27  C   UNL     1      -8.840  13.565  66.713  1.00  0.00    -0.131 A  
HETATM   28  C   UNL     1     -11.041  14.046  65.834  1.00  0.00    -0.301 A  
HETATM   29  C   UNL     1     -10.014  13.130  66.093  1.00  0.00    -0.291 A  
HETATM   30  N   UNL     1     -10.944  15.356  66.203  1.00  0.00    -0.310 NA 
HETATM   31  C   UNL     1     -12.289  13.600  65.085  1.00  0.00    -0.452 C  
HETATM   32  C   UNL     1      -9.807  15.755  66.803  1.00  0.00    -0.245 A  
HETATM   33  F   UNL     1     -12.483  14.280  63.919  1.00  0.00    -0.486 F  
HETATM   34  F   UNL     1     -12.265  12.279  64.730  1.00  0.00    -0.438 F  
HETATM   35  F   UNL     1     -13.435  13.757  65.808  1.00  0.00    -0.344 F  
HETATM   36  C   UNL     1      -8.740  14.914  67.054  1.00  0.00    -0.263 A  
ENDBRANCH  25  27
ENDBRANCH  14  25
ENDBRANCH   7   9
ENDBRANCH   5   7
TORSDOF 5
ENDMDL
MODEL      248
REMARK 921   NORMALIZED FREE ENERGY PREDICTED BY IDOCK:   -4.74 KCAL/MOL
REMARK 922        TOTAL FREE ENERGY PREDICTED BY IDOCK:   -7.29 KCAL/MOL
REMARK 923 INTER-LIGAND FREE ENERGY PREDICTED BY IDOCK:   -6.09 KCAL/MOL
REMARK 924 INTRA-LIGAND FREE ENERGY PREDICTED BY IDOCK:   -1.19 KCAL/MOL
REMARK 927      BINDING AFFINITY PREDICTED BY RF-SCORE:    0.00 PKD
ROOT
HETATM    1  C   UNL     1      -6.606   7.063  63.924  1.00  0.00    -0.043 C  
HETATM    2  C   UNL     1      -7.846   7.917  64.206  1.00  0.00    -0.136 C  
HETATM    3  C   UNL     1      -8.330   8.574  62.908  1.00  0.00    -0.140 C  
HETATM    4  O   UNL     1      -8.891   7.055  64.682  1.00  0.00    -0.278 OA 
HETATM    5  C   UNL     1      -7.524   8.958  65.312  1.00  0.00    -0.089 C  
HETATM    6  H   UNL     1      -9.660   7.585  64.856  1.00  0.00     0.000 HD 
ENDROOT
BRANCH   5   7
HETATM    7  N   UNL     1      -8.651   9.861  65.497  1.00  0.00    -0.138 NA 
HETATM    8  H   UNL     1      -8.923  10.518  64.765  1.00  0.00     0.000 HD 
BRANCH   7   9
HETATM    9  C   UNL     1      -9.341   9.806  66.692  1.00  0.00    -0.158 A  
HETATM   10  N   UNL     1      -9.854  10.903  67.228  1.00  0.00    -0.173 NA 
HETATM   11  C   UNL     1     -10.489  10.738  68.388  1.00  0.00    -0.183 A  
HETATM   12  N   UNL     1      -9.469   8.595  67.217  1.00  0.00    -0.150 NA 
HETATM   13  N   UNL     1     -10.650   9.559  68.991  1.00  0.00    -0.219 NA 
HETATM   14  C   UNL     1     -10.152   8.511  68.349  1.00  0.00    -0.194 A  
BRANCH  11  15
HETATM   15  C   UNL     1     -11.075  11.930  69.059  1.00  0.00    -0.246 A  
HETATM   16  C   UNL     1     -11.260  14.276  69.160  1.00  0.00    -0.270 A  
HETATM   17  F   UNL     1     -10.299  16.451  69.515  1.00  0.00    -0.245 F  
HETATM   18  N   UNL     1     -10.744  13.158  68.569  1.00  0.00    -0.254 NA 
HETATM   19  C   UNL     1     -12.109  14.199  70.264  1.00  0.00    -0.412 A  
HETATM   20  C   UNL     1     -10.920  15.650  68.598  1.00  0.00    -0.294 C  
HETATM   21  C   UNL     1     -11.937  11.808  70.155  1.00  0.00    -0.421 A  
HETATM   22  C   UNL     1     -12.452  12.950  70.763  1.00  0.00    -0.370 A  
HETATM   23  F   UNL     1     -10.103  15.631  67.508  1.00  0.00    -0.240 F  
HETATM   24  F   UNL     1     -12.034  16.341  68.212  1.00  0.00    -0.258 F  
ENDBRANCH  11  15
BRANCH  14  25
HETATM   25  N   UNL     1     -10.413   7.224  68.822  1.00  0.00    -0.201 NA 
HETATM   26  H   UNL     1     -11.142   7.165  69.533  1.00  0.00     0.000 HD 
BRANCH  25  27
HETATM   27  C   UNL     1      -9.831   6.002  68.471  1.00  0.00    -0.130 A  
HETATM   28  C   UNL     1      -8.119   4.325  68.793  1.00  0.00    -0.072 A  
HETATM   29  C   UNL     1      -8.758   5.499  69.211  1.00  0.00    -0.107 A  
HETATM   30  N   UNL     1      -8.537   3.633  67.694  1.00  0.00    -0.096 NA 
HETATM   31  C   UNL     1      -6.899   3.814  69.544  1.00  0.00    -0.041 C  
HETATM   32  C   UNL     1      -9.574   4.132  66.997  1.00  0.00    -0.201 A  
HETATM   33  F   UNL     1      -5.782   3.742  68.763  1.00  0.00    -0.018 F  
HETATM   34  F   UNL     1      -6.544   4.603  70.604  1.00  0.00    -0.030 F  
HETATM   35  F   UNL     1      -7.073   2.566  70.068  1.00  0.00    -0.033 F  
HETATM   36  C   UNL     1     -10.226   5.304  67.330  1.00  0.00    -0.252 A  
ENDBRANCH  25  27
ENDBRANCH  14  25
ENDBRANCH   7   9
ENDBRANCH   5   7
TORSDOF 5
ENDMDL
MODEL      249
REMARK 921   NORMALIZED FREE ENERGY PREDICTED BY IDOCK:   -4.72 KCAL/MOL
REMARK 922        TOTAL FREE ENERGY PREDICTED BY IDOCK:   -7.27 KCAL/MOL
REMARK 923 INTER-LIGAND FREE ENERGY PREDICTED BY IDOCK:   -6.69 KCAL/MOL
REMARK 924 INTRA-LIGAND FREE ENERGY PREDICTED BY IDOCK:   -0.58 KCAL/MOL
REMARK 927      BINDING AFFINITY PREDICTED BY RF-SCORE:    0.00 PKD
ROOT
HETATM    1  C   UNL     1      -6.528   7.493  73.085  1.00  0.00    -0.065 C  
HETATM    2  C   UNL     1      -7.384   7.152  71.861  1.00  0.00    -0.081 C  
HETATM    3  C   UNL     1      -6.683   7.634  70.586  1.00  0.00    -0.042 C  
HETATM    4  O   UNL     1      -7.513   5.724  71.783  1.00  0.00    -0.090 OA 
HETATM    5  C   UNL     1      -8.800   7.766  72.026  1.00  0.00    -0.130 C  
HETATM    6  H   UNL     1      -8.044   5.513  71.024  1.00  0.00     0.000 HD 
ENDROOT
BRANCH   5   7
HETATM    7  N   UNL     1      -9.582   7.562  70.815  1.00  0.00    -0.167 NA 
HETATM    8  H   UNL     1      -9.841   6.624  70.509  1.00  0.00     0.000 HD 
BRANCH   7   9
HETATM    9  C   UNL     1      -9.964   8.674  70.090  1.00  0.00    -0.182 A  
HETATM   10  N   UNL     1      -9.614   8.806  68.821  1.00  0.00    -0.156 NA 
HETATM   11  C   UNL     1     -10.025   9.924  68.220  1.00  0.00    -0.151 A  
HETATM   12  N   UNL     1     -10.713   9.549  70.748  1.00  0.00    -0.296 NA 
HETATM   13  N   UNL     1     -10.768  10.860  68.812  1.00  0.00    -0.193 NA 
HETATM   14  C   UNL     1     -11.116  10.611  70.067  1.00  0.00    -0.289 A  
BRANCH  11  15
HETATM   15  C   UNL     1      -9.653  10.150  66.797  1.00  0.00    -0.177 A  
HETATM   16  C   UNL     1      -7.978  10.120  65.141  1.00  0.00    -0.146 A  
HETATM   17  F   UNL     1      -5.915  10.939  64.217  1.00  0.00    -0.071 F  
HETATM   18  N   UNL     1      -8.358   9.921  66.437  1.00  0.00    -0.124 NA 
HETATM   19  C   UNL     1      -8.875  10.566  64.172  1.00  0.00    -0.205 A  
HETATM   20  C   UNL     1      -6.540   9.835  64.725  1.00  0.00    -0.110 C  
HETATM   21  C   UNL     1     -10.589  10.582  65.851  1.00  0.00    -0.149 A  
HETATM   22  C   UNL     1     -10.196  10.796  64.533  1.00  0.00    -0.428 A  
HETATM   23  F   UNL     1      -5.738   9.385  65.730  1.00  0.00    -0.049 F  
HETATM   24  F   UNL     1      -6.464   8.892  63.740  1.00  0.00    -0.084 F  
ENDBRANCH  11  15
BRANCH  14  25
HETATM   25  N   UNL     1     -12.024  11.453  70.711  1.00  0.00    -0.395 NA 
HETATM   26  H   UNL     1     -12.607  11.001  71.416  1.00  0.00     0.000 HD 
BRANCH  25  27
HETATM   27  C   UNL     1     -12.259  12.820  70.540  1.00  0.00    -0.307 A  
HETATM   28  C   UNL     1     -11.604  14.964  69.631  1.00  0.00    -0.303 A  
HETATM   29  C   UNL     1     -11.421  13.578  69.718  1.00  0.00    -0.246 A  
HETATM   30  N   UNL     1     -12.607  15.598  70.304  1.00  0.00    -0.363 NA 
HETATM   31  C   UNL     1     -10.645  15.808  68.803  1.00  0.00    -0.239 C  
HETATM   32  C   UNL     1     -13.405  14.851  71.088  1.00  0.00    -0.418 A  
HETATM   33  F   UNL     1      -9.993  16.752  69.541  1.00  0.00    -0.237 F  
HETATM   34  F   UNL     1      -9.657  15.076  68.203  1.00  0.00    -0.195 F  
HETATM   35  F   UNL     1     -11.261  16.482  67.789  1.00  0.00    -0.315 F  
HETATM   36  C   UNL     1     -13.257  13.486  71.250  1.00  0.00    -0.290 A  
ENDBRANCH  25  27
ENDBRANCH  14  25
ENDBRANCH   7   9
ENDBRANCH   5   7
TORSDOF 5
ENDMDL
MODEL      250
REMARK 921   NORMALIZED FREE ENERGY PREDICTED BY IDOCK:   -4.72 KCAL/MOL
REMARK 922        TOTAL FREE ENERGY PREDICTED BY IDOCK:   -7.26 KCAL/MOL
REMARK 923 INTER-LIGAND FREE ENERGY PREDICTED BY IDOCK:   -6.52 KCAL/MOL
REMARK 924 INTRA-LIGAND FREE ENERGY PREDICTED BY IDOCK:   -0.74 KCAL/MOL
REMARK 927      BINDING AFFINITY PREDICTED BY RF-SCORE:    0.00 PKD
ROOT
HETATM    1  C   UNL     1      -6.402  13.558  70.452  1.00  0.00     0.061 C  
HETATM    2  C   UNL     1      -6.112  12.148  69.929  1.00  0.00    -0.146 C  
HETATM    3  C   UNL     1      -5.155  12.223  68.733  1.00  0.00    -0.054 C  
HETATM    4  O   UNL     1      -5.460  11.404  70.970  1.00  0.00    -0.224 OA 
HETATM    5  C   UNL     1      -7.446  11.436  69.576  1.00  0.00     0.141 C  
HETATM    6  H   UNL     1      -5.281  10.529  70.645  1.00  0.00     0.000 HD 
ENDROOT
BRANCH   5   7
HETATM    7  N   UNL     1      -7.180  10.147  68.955  1.00  0.00    -0.070 NA 
HETATM    8  H   UNL     1      -6.381   9.581  69.242  1.00  0.00     0.000 HD 
BRANCH   7   9
HETATM    9  C   UNL     1      -8.040   9.709  67.967  1.00  0.00    -0.105 A  
HETATM   10  N   UNL     1      -8.647  10.572  67.168  1.00  0.00    -0.126 NA 
HETATM   11  C   UNL     1      -9.465  10.042  66.258  1.00  0.00    -0.191 A  
HETATM   12  N   UNL     1      -8.172   8.392  67.873  1.00  0.00    -0.126 NA 
HETATM   13  N   UNL     1      -9.665   8.732  66.106  1.00  0.00    -0.265 NA 
HETATM   14  C   UNL     1      -8.969   7.945  66.915  1.00  0.00    -0.136 A  
BRANCH  11  15
HETATM   15  C   UNL     1     -10.196  10.953  65.336  1.00  0.00    -0.277 A  
HETATM   16  C   UNL     1     -11.568  12.850  65.075  1.00  0.00    -0.332 A  
HETATM   17  F   UNL     1     -13.649  14.006  65.410  1.00  0.00    -0.325 F  
HETATM   18  N   UNL     1     -10.883  11.994  65.888  1.00  0.00    -0.278 NA 
HETATM   19  C   UNL     1     -11.600  12.683  63.691  1.00  0.00    -0.575 A  
HETATM   20  C   UNL     1     -12.310  14.034  65.682  1.00  0.00    -0.479 C  
HETATM   21  C   UNL     1     -10.188  10.760  63.950  1.00  0.00    -0.377 A  
HETATM   22  C   UNL     1     -10.899  11.627  63.125  1.00  0.00    -0.281 A  
HETATM   23  F   UNL     1     -12.210  14.132  67.037  1.00  0.00    -0.425 F  
HETATM   24  F   UNL     1     -11.867  15.229  65.191  1.00  0.00    -0.298 F  
ENDBRANCH  11  15
BRANCH  14  25
HETATM   25  N   UNL     1      -8.991   6.563  66.720  1.00  0.00    -0.127 NA 
HETATM   26  H   UNL     1      -8.780   6.258  65.770  1.00  0.00     0.000 HD 
BRANCH  25  27
HETATM   27  C   UNL     1      -9.257   5.533  67.626  1.00  0.00    -0.110 A  
HETATM   28  C   UNL     1      -9.760   4.792  69.873  1.00  0.00    -0.204 A  
HETATM   29  C   UNL     1      -9.592   5.831  68.949  1.00  0.00    -0.163 A  
HETATM   30  N   UNL     1      -9.639   3.482  69.508  1.00  0.00    -0.163 NA 
HETATM   31  C   UNL     1     -10.044   5.109  71.333  1.00  0.00    -0.200 C  
HETATM   32  C   UNL     1      -9.319   3.215  68.229  1.00  0.00    -0.187 A  
HETATM   33  F   UNL     1      -9.090   4.625  72.180  1.00  0.00    -0.127 F  
HETATM   34  F   UNL     1     -10.108   6.451  71.594  1.00  0.00    -0.192 F  
HETATM   35  F   UNL     1     -11.231   4.601  71.774  1.00  0.00     0.004 F  
HETATM   36  C   UNL     1      -9.101   4.192  67.276  1.00  0.00    -0.161 A  
ENDBRANCH  25  27
ENDBRANCH  14  25
ENDBRANCH   7   9
ENDBRANCH   5   7
TORSDOF 5
ENDMDL
MODEL      251
REMARK 921   NORMALIZED FREE ENERGY PREDICTED BY IDOCK:   -4.67 KCAL/MOL
REMARK 922        TOTAL FREE ENERGY PREDICTED BY IDOCK:   -7.20 KCAL/MOL
REMARK 923 INTER-LIGAND FREE ENERGY PREDICTED BY IDOCK:   -6.36 KCAL/MOL
REMARK 924 INTRA-LIGAND FREE ENERGY PREDICTED BY IDOCK:   -0.84 KCAL/MOL
REMARK 927      BINDING AFFINITY PREDICTED BY RF-SCORE:    0.00 PKD
ROOT
HETATM    1  C   UNL     1      -9.939   4.064  73.614  1.00  0.00    -0.171 C  
HETATM    2  C   UNL     1      -9.647   5.537  73.312  1.00  0.00    -0.146 C  
HETATM    3  C   UNL     1     -10.953   6.268  72.980  1.00  0.00    -0.271 C  
HETATM    4  O   UNL     1      -9.091   6.139  74.492  1.00  0.00    -0.136 OA 
HETATM    5  C   UNL     1      -8.604   5.640  72.168  1.00  0.00    -0.126 C  
HETATM    6  H   UNL     1      -8.910   7.053  74.304  1.00  0.00     0.000 HD 
ENDROOT
BRANCH   5   7
HETATM    7  N   UNL     1      -8.415   7.031  71.781  1.00  0.00    -0.114 NA 
HETATM    8  H   UNL     1      -7.774   7.636  72.296  1.00  0.00     0.000 HD 
BRANCH   7   9
HETATM    9  C   UNL     1      -9.127   7.510  70.699  1.00  0.00    -0.155 A  
HETATM   10  N   UNL     1      -9.653   8.723  70.720  1.00  0.00    -0.191 NA 
HETATM   11  C   UNL     1     -10.331   9.080  69.627  1.00  0.00    -0.212 A  
HETATM   12  N   UNL     1      -9.203   6.686  69.662  1.00  0.00    -0.145 NA 
HETATM   13  N   UNL     1     -10.468   8.307  68.549  1.00  0.00    -0.193 NA 
HETATM   14  C   UNL     1      -9.856   7.132  68.600  1.00  0.00    -0.154 A  
BRANCH  11  15
HETATM   15  C   UNL     1     -10.967  10.424  69.586  1.00  0.00    -0.277 A  
HETATM   16  C   UNL     1     -11.412  12.386  68.360  1.00  0.00    -0.310 A  
HETATM   17  F   UNL     1     -10.677  14.386  67.247  1.00  0.00    -0.272 F  
HETATM   18  N   UNL     1     -10.843  11.147  68.436  1.00  0.00    -0.190 NA 
HETATM   19  C   UNL     1     -12.107  12.943  69.433  1.00  0.00    -0.254 A  
HETATM   20  C   UNL     1     -11.306  13.186  67.068  1.00  0.00    -0.312 C  
HETATM   21  C   UNL     1     -11.671  10.939  70.679  1.00  0.00    -0.418 A  
HETATM   22  C   UNL     1     -12.239  12.208  70.604  1.00  0.00    -0.392 A  
HETATM   23  F   UNL     1     -10.628  12.558  66.067  1.00  0.00    -0.263 F  
HETATM   24  F   UNL     1     -12.531  13.495  66.549  1.00  0.00    -0.430 F  
ENDBRANCH  11  15
BRANCH  14  25
HETATM   25  N   UNL     1      -9.809   6.328  67.459  1.00  0.00    -0.115 NA 
HETATM   26  H   UNL     1     -10.472   5.553  67.450  1.00  0.00     0.000 HD 
BRANCH  25  27
HETATM   27  C   UNL     1      -8.993   6.421  66.328  1.00  0.00    -0.156 A  
HETATM   28  C   UNL     1      -7.608   7.734  64.843  1.00  0.00    -0.102 A  
HETATM   29  C   UNL     1      -8.342   7.621  66.030  1.00  0.00    -0.135 A  
HETATM   30  N   UNL     1      -7.478   6.687  63.977  1.00  0.00    -0.086 NA 
HETATM   31  C   UNL     1      -6.964   9.061  64.469  1.00  0.00    -0.089 C  
HETATM   32  C   UNL     1      -8.109   5.539  64.284  1.00  0.00    -0.124 A  
HETATM   33  F   UNL     1      -7.423   9.562  63.286  1.00  0.00    -0.105 F  
HETATM   34  F   UNL     1      -7.189  10.051  65.388  1.00  0.00    -0.110 F  
HETATM   35  F   UNL     1      -5.607   8.986  64.346  1.00  0.00    -0.059 F  
HETATM   36  C   UNL     1      -8.882   5.371  65.418  1.00  0.00    -0.144 A  
ENDBRANCH  25  27
ENDBRANCH  14  25
ENDBRANCH   7   9
ENDBRANCH   5   7
TORSDOF 5
ENDMDL
MODEL      252
REMARK 921   NORMALIZED FREE ENERGY PREDICTED BY IDOCK:   -4.67 KCAL/MOL
REMARK 922        TOTAL FREE ENERGY PREDICTED BY IDOCK:   -7.20 KCAL/MOL
REMARK 923 INTER-LIGAND FREE ENERGY PREDICTED BY IDOCK:   -6.14 KCAL/MOL
REMARK 924 INTRA-LIGAND FREE ENERGY PREDICTED BY IDOCK:   -1.06 KCAL/MOL
REMARK 927      BINDING AFFINITY PREDICTED BY RF-SCORE:    0.00 PKD
ROOT
HETATM    1  C   UNL     1      -6.494   6.975  63.870  1.00  0.00    -0.043 C  
HETATM    2  C   UNL     1      -7.921   7.456  64.152  1.00  0.00    -0.092 C  
HETATM    3  C   UNL     1      -8.632   7.780  62.833  1.00  0.00     0.261 C  
HETATM    4  O   UNL     1      -8.640   6.388  64.791  1.00  0.00    -0.335 OA 
HETATM    5  C   UNL     1      -7.883   8.670  65.118  1.00  0.00    -0.110 C  
HETATM    6  H   UNL     1      -9.525   6.687  64.966  1.00  0.00     0.000 HD 
ENDROOT
BRANCH   5   7
HETATM    7  N   UNL     1      -9.220   9.219  65.292  1.00  0.00    -0.312 NA 
HETATM    8  H   UNL     1      -9.812   9.422  64.486  1.00  0.00     0.000 HD 
BRANCH   7   9
HETATM    9  C   UNL     1      -9.665   9.459  66.577  1.00  0.00    -0.236 A  
HETATM   10  N   UNL     1     -10.013  10.678  66.955  1.00  0.00    -0.195 NA 
HETATM   11  C   UNL     1     -10.416  10.799  68.221  1.00  0.00    -0.181 A  
HETATM   12  N   UNL     1      -9.740   8.390  67.359  1.00  0.00    -0.159 NA 
HETATM   13  N   UNL     1     -10.507   9.780  69.076  1.00  0.00    -0.205 NA 
HETATM   14  C   UNL     1     -10.191   8.588  68.588  1.00  0.00    -0.197 A  
BRANCH  11  15
HETATM   15  C   UNL     1     -10.806  12.145  68.723  1.00  0.00    -0.228 A  
HETATM   16  C   UNL     1     -12.086  13.418  70.236  1.00  0.00    -0.349 A  
HETATM   17  F   UNL     1     -14.204  14.171  71.089  1.00  0.00    -0.325 F  
HETATM   18  N   UNL     1     -11.702  12.202  69.749  1.00  0.00    -0.320 NA 
HETATM   19  C   UNL     1     -11.598  14.611  69.703  1.00  0.00    -0.349 A  
HETATM   20  C   UNL     1     -13.062  13.488  71.403  1.00  0.00    -0.305 C  
HETATM   21  C   UNL     1     -10.279  13.318  68.171  1.00  0.00    -0.243 A  
HETATM   22  C   UNL     1     -10.682  14.557  68.661  1.00  0.00    -0.257 A  
HETATM   23  F   UNL     1     -13.472  12.277  71.873  1.00  0.00    -0.513 F  
HETATM   24  F   UNL     1     -12.535  14.144  72.479  1.00  0.00    -0.348 F  
ENDBRANCH  11  15
BRANCH  14  25
HETATM   25  N   UNL     1     -10.412   7.446  69.360  1.00  0.00    -0.214 NA 
HETATM   26  H   UNL     1     -11.392   7.222  69.529  1.00  0.00     0.000 HD 
BRANCH  25  27
HETATM   27  C   UNL     1      -9.496   6.561  69.937  1.00  0.00    -0.155 A  
HETATM   28  C   UNL     1      -7.833   4.821  69.711  1.00  0.00    -0.066 A  
HETATM   29  C   UNL     1      -8.675   5.774  69.126  1.00  0.00    -0.113 A  
HETATM   30  N   UNL     1      -7.763   4.659  71.065  1.00  0.00    -0.078 NA 
HETATM   31  C   UNL     1      -6.995   3.903  68.833  1.00  0.00    -0.047 C  
HETATM   32  C   UNL     1      -8.559   5.430  71.829  1.00  0.00    -0.131 A  
HETATM   33  F   UNL     1      -7.282   2.582  69.016  1.00  0.00    -0.043 F  
HETATM   34  F   UNL     1      -7.170   4.125  67.494  1.00  0.00    -0.063 F  
HETATM   35  F   UNL     1      -5.654   4.030  69.047  1.00  0.00    -0.014 F  
HETATM   36  C   UNL     1      -9.442   6.361  71.316  1.00  0.00    -0.175 A  
ENDBRANCH  25  27
ENDBRANCH  14  25
ENDBRANCH   7   9
ENDBRANCH   5   7
TORSDOF 5
ENDMDL
MODEL      253
REMARK 921   NORMALIZED FREE ENERGY PREDICTED BY IDOCK:   -4.65 KCAL/MOL
REMARK 922        TOTAL FREE ENERGY PREDICTED BY IDOCK:   -7.17 KCAL/MOL
REMARK 923 INTER-LIGAND FREE ENERGY PREDICTED BY IDOCK:   -6.19 KCAL/MOL
REMARK 924 INTRA-LIGAND FREE ENERGY PREDICTED BY IDOCK:   -0.98 KCAL/MOL
REMARK 927      BINDING AFFINITY PREDICTED BY RF-SCORE:    0.00 PKD
ROOT
HETATM    1  C   UNL     1      -9.590   4.080  72.813  1.00  0.00    -0.177 C  
HETATM    2  C   UNL     1      -9.731   5.604  72.744  1.00  0.00    -0.156 C  
HETATM    3  C   UNL     1     -10.939   5.976  71.877  1.00  0.00    -0.316 C  
HETATM    4  O   UNL     1      -9.970   6.097  74.071  1.00  0.00    -0.193 OA 
HETATM    5  C   UNL     1      -8.410   6.228  72.218  1.00  0.00    -0.108 C  
HETATM    6  H   UNL     1     -10.057   7.042  74.028  1.00  0.00     0.000 HD 
ENDROOT
BRANCH   5   7
HETATM    7  N   UNL     1      -8.572   7.661  72.022  1.00  0.00    -0.106 NA 
HETATM    8  H   UNL     1      -8.710   8.287  72.817  1.00  0.00     0.000 HD 
BRANCH   7   9
HETATM    9  C   UNL     1      -8.536   8.152  70.732  1.00  0.00    -0.125 A  
HETATM   10  N   UNL     1      -8.456   7.330  69.698  1.00  0.00    -0.132 NA 
HETATM   11  C   UNL     1      -8.414   7.911  68.498  1.00  0.00    -0.128 A  
HETATM   12  N   UNL     1      -8.619   9.472  70.625  1.00  0.00    -0.226 NA 
HETATM   13  N   UNL     1      -8.478   9.229  68.304  1.00  0.00    -0.120 NA 
HETATM   14  C   UNL     1      -8.614   9.967  69.397  1.00  0.00    -0.174 A  
BRANCH  11  15
HETATM   15  C   UNL     1      -8.306   7.050  67.289  1.00  0.00    -0.122 A  
HETATM   16  C   UNL     1      -8.647   4.938  66.304  1.00  0.00    -0.115 A  
HETATM   17  F   UNL     1      -8.172   2.586  66.146  1.00  0.00    -0.080 F  
HETATM   18  N   UNL     1      -8.733   5.759  67.392  1.00  0.00    -0.109 NA 
HETATM   19  C   UNL     1      -8.121   5.377  65.090  1.00  0.00    -0.121 A  
HETATM   20  C   UNL     1      -9.152   3.503  66.402  1.00  0.00    -0.159 C  
HETATM   21  C   UNL     1      -7.787   7.535  66.084  1.00  0.00    -0.096 A  
HETATM   22  C   UNL     1      -7.689   6.692  64.981  1.00  0.00    -0.103 A  
HETATM   23  F   UNL     1      -9.668   3.165  67.617  1.00  0.00    -0.254 F  
HETATM   24  F   UNL     1     -10.138   3.239  65.494  1.00  0.00    -0.047 F  
ENDBRANCH  11  15
BRANCH  14  25
HETATM   25  N   UNL     1      -8.851  11.337  69.279  1.00  0.00    -0.371 NA 
HETATM   26  H   UNL     1      -8.264  11.929  69.867  1.00  0.00     0.000 HD 
BRANCH  25  27
HETATM   27  C   UNL     1      -9.769  12.025  68.480  1.00  0.00    -0.161 A  
HETATM   28  C   UNL     1     -10.270  13.786  66.901  1.00  0.00    -0.261 A  
HETATM   29  C   UNL     1      -9.333  13.038  67.623  1.00  0.00    -0.202 A  
HETATM   30  N   UNL     1     -11.608  13.532  66.984  1.00  0.00    -0.339 NA 
HETATM   31  C   UNL     1      -9.810  14.945  66.028  1.00  0.00    -0.318 C  
HETATM   32  C   UNL     1     -12.009  12.550  67.812  1.00  0.00    -0.223 A  
HETATM   33  F   UNL     1     -10.344  16.142  66.406  1.00  0.00    -0.276 F  
HETATM   34  F   UNL     1      -8.455  15.135  66.048  1.00  0.00    -0.179 F  
HETATM   35  F   UNL     1     -10.132  14.788  64.712  1.00  0.00    -0.402 F  
HETATM   36  C   UNL     1     -11.142  11.799  68.583  1.00  0.00    -0.289 A  
ENDBRANCH  25  27
ENDBRANCH  14  25
ENDBRANCH   7   9
ENDBRANCH   5   7
TORSDOF 5
ENDMDL
MODEL      254
REMARK 921   NORMALIZED FREE ENERGY PREDICTED BY IDOCK:   -4.63 KCAL/MOL
REMARK 922        TOTAL FREE ENERGY PREDICTED BY IDOCK:   -7.15 KCAL/MOL
REMARK 923 INTER-LIGAND FREE ENERGY PREDICTED BY IDOCK:   -6.08 KCAL/MOL
REMARK 924 INTRA-LIGAND FREE ENERGY PREDICTED BY IDOCK:   -1.07 KCAL/MOL
REMARK 927      BINDING AFFINITY PREDICTED BY RF-SCORE:    0.00 PKD
ROOT
HETATM    1  C   UNL     1      -9.853   8.194  71.635  1.00  0.00    -0.242 C  
HETATM    2  C   UNL     1      -8.607   8.118  70.747  1.00  0.00    -0.134 C  
HETATM    3  C   UNL     1      -7.968   9.506  70.628  1.00  0.00    -0.152 C  
HETATM    4  O   UNL     1      -7.656   7.245  71.376  1.00  0.00    -0.081 OA 
HETATM    5  C   UNL     1      -8.985   7.520  69.365  1.00  0.00    -0.139 C  
HETATM    6  H   UNL     1      -6.883   7.198  70.825  1.00  0.00     0.000 HD 
ENDROOT
BRANCH   5   7
HETATM    7  N   UNL     1      -7.841   7.564  68.467  1.00  0.00    -0.119 NA 
HETATM    8  H   UNL     1      -6.904   7.329  68.798  1.00  0.00     0.000 HD 
BRANCH   7   9
HETATM    9  C   UNL     1      -8.056   7.931  67.153  1.00  0.00    -0.117 A  
HETATM   10  N   UNL     1      -8.711   9.044  66.861  1.00  0.00    -0.122 NA 
HETATM   11  C   UNL     1      -8.873   9.296  65.562  1.00  0.00    -0.187 A  
HETATM   12  N   UNL     1      -7.537   7.116  66.244  1.00  0.00    -0.089 NA 
HETATM   13  N   UNL     1      -8.397   8.522  64.585  1.00  0.00    -0.165 NA 
HETATM   14  C   UNL     1      -7.705   7.461  64.977  1.00  0.00    -0.114 A  
BRANCH  11  15
HETATM   15  C   UNL     1      -9.616  10.520  65.157  1.00  0.00    -0.260 A  
HETATM   16  C   UNL     1     -10.673  12.522  65.809  1.00  0.00    -0.269 A  
HETATM   17  F   UNL     1     -12.414  13.702  66.974  1.00  0.00    -0.395 F  
HETATM   18  N   UNL     1      -9.988  11.389  66.141  1.00  0.00    -0.219 NA 
HETATM   19  C   UNL     1     -11.019  12.813  64.490  1.00  0.00    -0.370 A  
HETATM   20  C   UNL     1     -11.063  13.513  66.899  1.00  0.00    -0.296 C  
HETATM   21  C   UNL     1      -9.929  10.783  63.819  1.00  0.00    -0.411 A  
HETATM   22  C   UNL     1     -10.639  11.933  63.486  1.00  0.00    -0.507 A  
HETATM   23  F   UNL     1     -10.668  13.159  68.154  1.00  0.00    -0.219 F  
HETATM   24  F   UNL     1     -10.536  14.754  66.681  1.00  0.00    -0.279 F  
ENDBRANCH  11  15
BRANCH  14  25
HETATM   25  N   UNL     1      -7.034   6.686  64.029  1.00  0.00    -0.049 NA 
HETATM   26  H   UNL     1      -6.166   7.091  63.678  1.00  0.00     0.000 HD 
BRANCH  25  27
HETATM   27  C   UNL     1      -7.367   5.442  63.486  1.00  0.00    -0.052 A  
HETATM   28  C   UNL     1      -8.939   3.624  63.216  1.00  0.00    -0.098 A  
HETATM   29  C   UNL     1      -8.646   4.913  63.678  1.00  0.00    -0.124 A  
HETATM   30  N   UNL     1      -8.015   2.875  62.547  1.00  0.00    -0.069 NA 
HETATM   31  C   UNL     1     -10.303   3.008  63.492  1.00  0.00    -0.202 C  
HETATM   32  C   UNL     1      -6.791   3.403  62.369  1.00  0.00    -0.027 A  
HETATM   33  F   UNL     1     -10.231   1.858  64.221  1.00  0.00    -0.104 F  
HETATM   34  F   UNL     1     -11.136   3.830  64.200  1.00  0.00    -0.298 F  
HETATM   35  F   UNL     1     -10.990   2.691  62.356  1.00  0.00    -0.137 F  
HETATM   36  C   UNL     1      -6.422   4.652  62.833  1.00  0.00    -0.026 A  
ENDBRANCH  25  27
ENDBRANCH  14  25
ENDBRANCH   7   9
ENDBRANCH   5   7
TORSDOF 5
ENDMDL
MODEL      255
REMARK 921   NORMALIZED FREE ENERGY PREDICTED BY IDOCK:   -4.63 KCAL/MOL
REMARK 922        TOTAL FREE ENERGY PREDICTED BY IDOCK:   -7.15 KCAL/MOL
REMARK 923 INTER-LIGAND FREE ENERGY PREDICTED BY IDOCK:   -6.83 KCAL/MOL
REMARK 924 INTRA-LIGAND FREE ENERGY PREDICTED BY IDOCK:   -0.32 KCAL/MOL
REMARK 927      BINDING AFFINITY PREDICTED BY RF-SCORE:    0.00 PKD
ROOT
HETATM    1  C   UNL     1     -10.965  19.956  65.747  1.00  0.00    -0.200 C  
HETATM    2  C   UNL     1      -9.857  19.228  66.515  1.00  0.00    -0.372 C  
HETATM    3  C   UNL     1      -9.708  17.799  65.982  1.00  0.00    -0.145 C  
HETATM    4  O   UNL     1      -8.618  19.918  66.285  1.00  0.00    -0.350 OA 
HETATM    5  C   UNL     1     -10.165  19.264  68.036  1.00  0.00    -0.408 C  
HETATM    6  H   UNL     1      -7.932  19.466  66.762  1.00  0.00     0.000 HD 
ENDROOT
BRANCH   5   7
HETATM    7  N   UNL     1      -9.192  18.465  68.767  1.00  0.00    -0.292 NA 
HETATM    8  H   UNL     1      -8.359  18.893  69.172  1.00  0.00     0.000 HD 
BRANCH   7   9
HETATM    9  C   UNL     1      -9.427  17.110  68.897  1.00  0.00    -0.217 A  
HETATM   10  N   UNL     1     -10.485  16.667  69.556  1.00  0.00    -0.304 NA 
HETATM   11  C   UNL     1     -10.608  15.342  69.631  1.00  0.00    -0.276 A  
HETATM   12  N   UNL     1      -8.545  16.322  68.295  1.00  0.00    -0.190 NA 
HETATM   13  N   UNL     1      -9.760  14.480  69.068  1.00  0.00    -0.170 NA 
HETATM   14  C   UNL     1      -8.762  15.019  68.380  1.00  0.00    -0.175 A  
BRANCH  11  15
HETATM   15  C   UNL     1     -11.764  14.770  70.373  1.00  0.00    -0.295 A  
HETATM   16  C   UNL     1     -12.865  12.853  71.187  1.00  0.00    -0.238 A  
HETATM   17  F   UNL     1     -14.035  10.784  70.825  1.00  0.00     0.308 F  
HETATM   18  N   UNL     1     -11.819  13.415  70.513  1.00  0.00    -0.231 NA 
HETATM   19  C   UNL     1     -13.893  13.626  71.725  1.00  0.00    -0.361 A  
HETATM   20  C   UNL     1     -12.916  11.342  71.375  1.00  0.00    -0.365 C  
HETATM   21  C   UNL     1     -12.766  15.583  70.914  1.00  0.00    -0.525 A  
HETATM   22  C   UNL     1     -13.839  15.006  71.588  1.00  0.00    -0.571 A  
HETATM   23  F   UNL     1     -11.862  10.668  70.835  1.00  0.00    -0.364 F  
HETATM   24  F   UNL     1     -12.946  10.986  72.693  1.00  0.00    -0.211 F  
ENDBRANCH  11  15
BRANCH  14  25
HETATM   25  N   UNL     1      -7.923  14.199  67.624  1.00  0.00    -0.163 NA 
HETATM   26  H   UNL     1      -7.074  14.649  67.283  1.00  0.00     0.000 HD 
BRANCH  25  27
HETATM   27  C   UNL     1      -8.066  12.856  67.264  1.00  0.00    -0.163 A  
HETATM   28  C   UNL     1      -7.458  10.532  67.544  1.00  0.00    -0.093 A  
HETATM   29  C   UNL     1      -7.386  11.863  67.974  1.00  0.00    -0.100 A  
HETATM   30  N   UNL     1      -8.206  10.167  66.462  1.00  0.00    -0.122 NA 
HETATM   31  C   UNL     1      -6.656   9.456  68.261  1.00  0.00    -0.058 C  
HETATM   32  C   UNL     1      -8.856  11.137  65.794  1.00  0.00    -0.174 A  
HETATM   33  F   UNL     1      -5.760   8.826  67.446  1.00  0.00    -0.037 F  
HETATM   34  F   UNL     1      -5.913   9.938  69.304  1.00  0.00    -0.038 F  
HETATM   35  F   UNL     1      -7.434   8.472  68.797  1.00  0.00    -0.083 F  
HETATM   36  C   UNL     1      -8.798  12.474  66.140  1.00  0.00     0.154 A  
ENDBRANCH  25  27
ENDBRANCH  14  25
ENDBRANCH   7   9
ENDBRANCH   5   7
TORSDOF 5
ENDMDL
MODEL      256
REMARK 921   NORMALIZED FREE ENERGY PREDICTED BY IDOCK:   -4.60 KCAL/MOL
REMARK 922        TOTAL FREE ENERGY PREDICTED BY IDOCK:   -7.11 KCAL/MOL
REMARK 923 INTER-LIGAND FREE ENERGY PREDICTED BY IDOCK:   -6.03 KCAL/MOL
REMARK 924 INTRA-LIGAND FREE ENERGY PREDICTED BY IDOCK:   -1.08 KCAL/MOL
REMARK 927      BINDING AFFINITY PREDICTED BY RF-SCORE:    0.00 PKD
ROOT
HETATM    1  C   UNL     1      -6.957  13.482  68.444  1.00  0.00    -0.105 C  
HETATM    2  C   UNL     1      -6.802  12.042  67.946  1.00  0.00    -0.087 C  
HETATM    3  C   UNL     1      -5.548  11.927  67.070  1.00  0.00    -0.126 C  
HETATM    4  O   UNL     1      -6.625  11.186  69.085  1.00  0.00    -0.067 OA 
HETATM    5  C   UNL     1      -8.089  11.606  67.196  1.00  0.00    -0.166 C  
HETATM    6  H   UNL     1      -6.529  10.293  68.776  1.00  0.00     0.000 HD 
ENDROOT
BRANCH   5   7
HETATM    7  N   UNL     1      -7.906  10.288  66.605  1.00  0.00    -0.113 NA 
HETATM    8  H   UNL     1      -7.632  10.186  65.627  1.00  0.00     0.000 HD 
BRANCH   7   9
HETATM    9  C   UNL     1      -8.114   9.180  67.403  1.00  0.00    -0.107 A  
HETATM   10  N   UNL     1      -8.923   9.242  68.448  1.00  0.00    -0.129 NA 
HETATM   11  C   UNL     1      -9.042   8.119  69.156  1.00  0.00    -0.148 A  
HETATM   12  N   UNL     1      -7.479   8.080  67.021  1.00  0.00    -0.090 NA 
HETATM   13  N   UNL     1      -8.428   6.975  68.850  1.00  0.00    -0.125 NA 
HETATM   14  C   UNL     1      -7.684   6.996  67.753  1.00  0.00    -0.112 A  
BRANCH  11  15
HETATM   15  C   UNL     1      -9.920   8.118  70.357  1.00  0.00    -0.188 A  
HETATM   16  C   UNL     1     -11.847   8.955  71.422  1.00  0.00    -0.317 A  
HETATM   17  F   UNL     1     -13.098  10.763  72.396  1.00  0.00    -0.519 F  
HETATM   18  N   UNL     1     -11.018   8.927  70.338  1.00  0.00    -0.240 NA 
HETATM   19  C   UNL     1     -11.597   8.189  72.560  1.00  0.00    -0.468 A  
HETATM   20  C   UNL     1     -13.093   9.832  71.396  1.00  0.00    -0.400 C  
HETATM   21  C   UNL     1      -9.642   7.321  71.473  1.00  0.00    -0.164 A  
HETATM   22  C   UNL     1     -10.483   7.362  72.582  1.00  0.00    -0.303 A  
HETATM   23  F   UNL     1     -13.270  10.530  70.239  1.00  0.00    -0.368 F  
HETATM   24  F   UNL     1     -14.238   9.108  71.571  1.00  0.00    -0.393 F  
ENDBRANCH  11  15
BRANCH  14  25
HETATM   25  N   UNL     1      -7.137   5.807  67.267  1.00  0.00    -0.072 NA 
HETATM   26  H   UNL     1      -6.125   5.727  67.362  1.00  0.00     0.000 HD 
BRANCH  25  27
HETATM   27  C   UNL     1      -7.763   4.708  66.670  1.00  0.00    -0.091 A  
HETATM   28  C   UNL     1      -8.930   3.721  64.796  1.00  0.00    -0.125 A  
HETATM   29  C   UNL     1      -8.217   4.791  65.351  1.00  0.00    -0.118 A  
HETATM   30  N   UNL     1      -9.166   2.576  65.498  1.00  0.00    -0.120 NA 
HETATM   31  C   UNL     1      -9.499   3.834  63.390  1.00  0.00    -0.132 C  
HETATM   32  C   UNL     1      -8.717   2.514  66.765  1.00  0.00    -0.124 A  
HETATM   33  F   UNL     1     -10.857   3.707  63.352  1.00  0.00    -0.219 F  
HETATM   34  F   UNL     1      -9.236   5.037  62.793  1.00  0.00    -0.128 F  
HETATM   35  F   UNL     1      -9.009   2.892  62.533  1.00  0.00    -0.080 F  
HETATM   36  C   UNL     1      -8.042   3.546  67.388  1.00  0.00    -0.082 A  
ENDBRANCH  25  27
ENDBRANCH  14  25
ENDBRANCH   7   9
ENDBRANCH   5   7
TORSDOF 5
ENDMDL
MODEL      257
REMARK 921   NORMALIZED FREE ENERGY PREDICTED BY IDOCK:   -4.44 KCAL/MOL
REMARK 922        TOTAL FREE ENERGY PREDICTED BY IDOCK:   -6.90 KCAL/MOL
REMARK 923 INTER-LIGAND FREE ENERGY PREDICTED BY IDOCK:   -5.85 KCAL/MOL
REMARK 924 INTRA-LIGAND FREE ENERGY PREDICTED BY IDOCK:   -1.04 KCAL/MOL
REMARK 927      BINDING AFFINITY PREDICTED BY RF-SCORE:    0.00 PKD
ROOT
HETATM    1  C   UNL     1      -7.165   9.883  70.493  1.00  0.00    -0.099 C  
HETATM    2  C   UNL     1      -6.633  10.475  69.184  1.00  0.00    -0.057 C  
HETATM    3  C   UNL     1      -7.333  11.808  68.894  1.00  0.00    -0.093 C  
HETATM    4  O   UNL     1      -5.230  10.738  69.344  1.00  0.00    -0.038 OA 
HETATM    5  C   UNL     1      -6.814   9.449  68.033  1.00  0.00    -0.074 C  
HETATM    6  H   UNL     1      -4.900  11.105  68.532  1.00  0.00     0.000 HD 
ENDROOT
BRANCH   5   7
HETATM    7  N   UNL     1      -6.434  10.046  66.761  1.00  0.00    -0.069 NA 
HETATM    8  H   UNL     1      -5.518  10.477  66.636  1.00  0.00     0.000 HD 
BRANCH   7   9
HETATM    9  C   UNL     1      -7.349  10.014  65.726  1.00  0.00    -0.117 A  
HETATM   10  N   UNL     1      -8.263  10.962  65.602  1.00  0.00    -0.127 NA 
HETATM   11  C   UNL     1      -9.103  10.826  64.576  1.00  0.00    -0.198 A  
HETATM   12  N   UNL     1      -7.211   9.001  64.881  1.00  0.00    -0.094 NA 
HETATM   13  N   UNL     1      -9.043   9.832  63.689  1.00  0.00    -0.252 NA 
HETATM   14  C   UNL     1      -8.058   8.962  63.863  1.00  0.00    -0.163 A  
BRANCH  11  15
HETATM   15  C   UNL     1     -10.170  11.845  64.383  1.00  0.00    -0.297 A  
HETATM   16  C   UNL     1     -11.006  13.984  64.906  1.00  0.00    -0.392 A  
HETATM   17  F   UNL     1     -11.899  15.570  66.477  1.00  0.00    -0.057 F  
HETATM   18  N   UNL     1     -10.047  13.025  65.056  1.00  0.00    -0.252 NA 
HETATM   19  C   UNL     1     -12.123  13.787  64.094  1.00  0.00    -0.478 A  
HETATM   20  C   UNL     1     -10.859  15.317  65.629  1.00  0.00    -0.363 C  
HETATM   21  C   UNL     1     -11.266  11.614  63.545  1.00  0.00    -0.462 A  
HETATM   22  C   UNL     1     -12.250  12.589  63.405  1.00  0.00    -0.613 A  
HETATM   23  F   UNL     1      -9.730  15.431  66.383  1.00  0.00    -0.240 F  
HETATM   24  F   UNL     1     -10.834  16.374  64.764  1.00  0.00    -0.412 F  
ENDBRANCH  11  15
BRANCH  14  25
HETATM   25  N   UNL     1      -7.819   7.985  62.895  1.00  0.00    -0.138 NA 
HETATM   26  H   UNL     1      -7.855   8.316  61.931  1.00  0.00     0.000 HD 
BRANCH  25  27
HETATM   27  C   UNL     1      -7.539   6.624  63.042  1.00  0.00    -0.087 A  
HETATM   28  C   UNL     1      -8.172   4.423  63.819  1.00  0.00    -0.100 A  
HETATM   29  C   UNL     1      -8.498   5.764  63.584  1.00  0.00     0.057 A  
HETATM   30  N   UNL     1      -6.946   3.916  63.499  1.00  0.00    -0.044 NA 
HETATM   31  C   UNL     1      -9.182   3.500  64.485  1.00  0.00    -0.136 C  
HETATM   32  C   UNL     1      -6.038   4.758  62.975  1.00  0.00    -0.018 A  
HETATM   33  F   UNL     1      -8.732   2.977  65.662  1.00  0.00    -0.107 F  
HETATM   34  F   UNL     1     -10.361   4.120  64.796  1.00  0.00    -0.207 F  
HETATM   35  F   UNL     1      -9.531   2.433  63.708  1.00  0.00    -0.100 F  
HETATM   36  C   UNL     1      -6.278   6.101  62.753  1.00  0.00    -0.026 A  
ENDBRANCH  25  27
ENDBRANCH  14  25
ENDBRANCH   7   9
ENDBRANCH   5   7
TORSDOF 5
ENDMDL
MODEL      258
REMARK 921   NORMALIZED FREE ENERGY PREDICTED BY IDOCK:   -4.42 KCAL/MOL
REMARK 922        TOTAL FREE ENERGY PREDICTED BY IDOCK:   -6.87 KCAL/MOL
REMARK 923 INTER-LIGAND FREE ENERGY PREDICTED BY IDOCK:   -6.30 KCAL/MOL
REMARK 924 INTRA-LIGAND FREE ENERGY PREDICTED BY IDOCK:   -0.57 KCAL/MOL
REMARK 927      BINDING AFFINITY PREDICTED BY RF-SCORE:    0.00 PKD
ROOT
HETATM    1  C   UNL     1      -9.061   7.708  65.764  1.00  0.00    -0.042 C  
HETATM    2  C   UNL     1      -8.506   9.087  65.395  1.00  0.00    -0.160 C  
HETATM    3  C   UNL     1      -7.007   9.146  65.710  1.00  0.00    -0.085 C  
HETATM    4  O   UNL     1      -8.668   9.277  63.980  1.00  0.00    -0.238 OA 
HETATM    5  C   UNL     1      -9.310  10.190  66.135  1.00  0.00    -0.172 C  
HETATM    6  H   UNL     1      -8.324  10.132  63.752  1.00  0.00     0.000 HD 
ENDROOT
BRANCH   5   7
HETATM    7  N   UNL     1      -8.712  11.496  65.897  1.00  0.00    -0.370 NA 
HETATM    8  H   UNL     1      -8.666  11.889  64.956  1.00  0.00     0.000 HD 
BRANCH   7   9
HETATM    9  C   UNL     1      -8.207  12.189  66.980  1.00  0.00    -0.164 A  
HETATM   10  N   UNL     1      -8.280  13.509  67.030  1.00  0.00    -0.096 NA 
HETATM   11  C   UNL     1      -7.751  14.078  68.115  1.00  0.00    -0.143 A  
HETATM   12  N   UNL     1      -7.692  11.437  67.944  1.00  0.00    -0.109 NA 
HETATM   13  N   UNL     1      -7.202  13.397  69.122  1.00  0.00    -0.021 NA 
HETATM   14  C   UNL     1      -7.227  12.076  69.006  1.00  0.00    -0.053 A  
BRANCH  11  15
HETATM   15  C   UNL     1      -7.780  15.561  68.233  1.00  0.00    -0.115 A  
HETATM   16  C   UNL     1      -8.774  17.596  67.588  1.00  0.00    -0.232 A  
HETATM   17  F   UNL     1      -9.303  19.247  65.922  1.00  0.00    -0.339 F  
HETATM   18  N   UNL     1      -8.717  16.235  67.507  1.00  0.00    -0.180 NA 
HETATM   19  C   UNL     1      -7.888  18.324  68.382  1.00  0.00    -0.318 A  
HETATM   20  C   UNL     1      -9.839  18.354  66.806  1.00  0.00    -0.342 C  
HETATM   21  C   UNL     1      -6.883  16.251  69.055  1.00  0.00    -0.182 A  
HETATM   22  C   UNL     1      -6.935  17.641  69.125  1.00  0.00    -0.217 A  
HETATM   23  F   UNL     1     -10.674  17.564  66.073  1.00  0.00    -0.332 F  
HETATM   24  F   UNL     1     -10.650  19.094  67.619  1.00  0.00    -0.432 F  
ENDBRANCH  11  15
BRANCH  14  25
HETATM   25  N   UNL     1      -6.823  11.281  70.081  1.00  0.00    -0.467 NA 
HETATM   26  H   UNL     1      -6.203  11.741  70.748  1.00  0.00     0.000 HD 
BRANCH  25  27
HETATM   27  C   UNL     1      -7.137   9.954  70.384  1.00  0.00    -0.139 A  
HETATM   28  C   UNL     1      -8.706   8.113  70.370  1.00  0.00    -0.136 A  
HETATM   29  C   UNL     1      -8.359   9.411  69.977  1.00  0.00    -0.190 A  
HETATM   30  N   UNL     1      -7.864   7.341  71.117  1.00  0.00    -0.092 NA 
HETATM   31  C   UNL     1     -10.068   7.544  70.002  1.00  0.00    -0.199 C  
HETATM   32  C   UNL     1      -6.691   7.880  71.496  1.00  0.00    -0.047 A  
HETATM   33  F   UNL     1     -10.818   7.209  71.091  1.00  0.00    -0.239 F  
HETATM   34  F   UNL     1     -10.844   8.415  69.287  1.00  0.00    -0.229 F  
HETATM   35  F   UNL     1      -9.992   6.418  69.235  1.00  0.00    -0.148 F  
HETATM   36  C   UNL     1      -6.302   9.167  71.177  1.00  0.00    -0.074 A  
ENDBRANCH  25  27
ENDBRANCH  14  25
ENDBRANCH   7   9
ENDBRANCH   5   7
TORSDOF 5
ENDMDL
MODEL      259
REMARK 921   NORMALIZED FREE ENERGY PREDICTED BY IDOCK:   -4.37 KCAL/MOL
REMARK 922        TOTAL FREE ENERGY PREDICTED BY IDOCK:   -6.81 KCAL/MOL
REMARK 923 INTER-LIGAND FREE ENERGY PREDICTED BY IDOCK:   -5.53 KCAL/MOL
REMARK 924 INTRA-LIGAND FREE ENERGY PREDICTED BY IDOCK:   -1.29 KCAL/MOL
REMARK 927      BINDING AFFINITY PREDICTED BY RF-SCORE:    0.00 PKD
ROOT
HETATM    1  C   UNL     1      -8.432   8.752  62.333  1.00  0.00    -0.204 C  
HETATM    2  C   UNL     1      -7.423   9.199  63.396  1.00  0.00    -0.098 C  
HETATM    3  C   UNL     1      -5.995   8.985  62.881  1.00  0.00    -0.089 C  
HETATM    4  O   UNL     1      -7.604  10.605  63.628  1.00  0.00    -0.344 OA 
HETATM    5  C   UNL     1      -7.694   8.443  64.724  1.00  0.00    -0.109 C  
HETATM    6  H   UNL     1      -6.978  10.882  64.288  1.00  0.00     0.000 HD 
ENDROOT
BRANCH   5   7
HETATM    7  N   UNL     1      -6.664   8.759  65.703  1.00  0.00    -0.067 NA 
HETATM    8  H   UNL     1      -5.701   8.448  65.571  1.00  0.00     0.000 HD 
BRANCH   7   9
HETATM    9  C   UNL     1      -7.025   9.493  66.816  1.00  0.00    -0.081 A  
HETATM   10  N   UNL     1      -7.767  10.582  66.697  1.00  0.00    -0.117 NA 
HETATM   11  C   UNL     1      -8.047  11.220  67.834  1.00  0.00    -0.121 A  
HETATM   12  N   UNL     1      -6.605   9.006  67.977  1.00  0.00    -0.060 NA 
HETATM   13  N   UNL     1      -7.652  10.807  69.039  1.00  0.00    -0.116 NA 
HETATM   14  C   UNL     1      -6.962   9.675  69.062  1.00  0.00    -0.058 A  
BRANCH  11  15
HETATM   15  C   UNL     1      -8.861  12.464  67.775  1.00  0.00    -0.176 A  
HETATM   16  C   UNL     1      -8.928  14.793  67.428  1.00  0.00    -0.192 A  
HETATM   17  F   UNL     1      -8.334  17.034  68.063  1.00  0.00    -0.192 F  
HETATM   18  N   UNL     1      -8.215  13.630  67.489  1.00  0.00    -0.172 NA 
HETATM   19  C   UNL     1     -10.302  14.827  67.666  1.00  0.00    -0.237 A  
HETATM   20  C   UNL     1      -8.218  16.095  67.078  1.00  0.00    -0.216 C  
HETATM   21  C   UNL     1     -10.241  12.452  68.003  1.00  0.00    -0.219 A  
HETATM   22  C   UNL     1     -10.964  13.641  67.953  1.00  0.00    -0.277 A  
HETATM   23  F   UNL     1      -6.883  15.967  66.842  1.00  0.00    -0.223 F  
HETATM   24  F   UNL     1      -8.737  16.681  65.958  1.00  0.00    -0.314 F  
ENDBRANCH  11  15
BRANCH  14  25
HETATM   25  N   UNL     1      -6.648   9.083  70.287  1.00  0.00    -0.041 NA 
HETATM   26  H   UNL     1      -5.700   9.259  70.621  1.00  0.00     0.000 HD 
BRANCH  25  27
HETATM   27  C   UNL     1      -7.432   8.287  71.127  1.00  0.00    -0.076 A  
HETATM   28  C   UNL     1      -9.225   6.695  71.436  1.00  0.00    -0.151 A  
HETATM   29  C   UNL     1      -8.377   7.414  70.584  1.00  0.00    -0.127 A  
HETATM   30  N   UNL     1      -9.132   6.796  72.793  1.00  0.00    -0.135 NA 
HETATM   31  C   UNL     1     -10.312   5.804  70.853  1.00  0.00    -0.237 C  
HETATM   32  C   UNL     1      -8.213   7.639  73.297  1.00  0.00    -0.138 A  
HETATM   33  F   UNL     1     -11.568   6.175  71.236  1.00  0.00    -0.342 F  
HETATM   34  F   UNL     1     -10.340   5.806  69.485  1.00  0.00    -0.225 F  
HETATM   35  F   UNL     1     -10.182   4.493  71.208  1.00  0.00    -0.251 F  
HETATM   36  C   UNL     1      -7.371   8.408  72.515  1.00  0.00    -0.119 A  
ENDBRANCH  25  27
ENDBRANCH  14  25
ENDBRANCH   7   9
ENDBRANCH   5   7
TORSDOF 5
ENDMDL
MODEL      260
REMARK 921   NORMALIZED FREE ENERGY PREDICTED BY IDOCK:   -4.34 KCAL/MOL
REMARK 922        TOTAL FREE ENERGY PREDICTED BY IDOCK:   -6.78 KCAL/MOL
REMARK 923 INTER-LIGAND FREE ENERGY PREDICTED BY IDOCK:   -6.06 KCAL/MOL
REMARK 924 INTRA-LIGAND FREE ENERGY PREDICTED BY IDOCK:   -0.72 KCAL/MOL
REMARK 927      BINDING AFFINITY PREDICTED BY RF-SCORE:    0.00 PKD
ROOT
HETATM    1  C   UNL     1     -12.277  13.249  65.099  1.00  0.00    -0.487 C  
HETATM    2  C   UNL     1     -11.234  12.261  65.630  1.00  0.00    -0.333 C  
HETATM    3  C   UNL     1     -11.614  11.815  67.047  1.00  0.00    -0.321 C  
HETATM    4  O   UNL     1     -11.239  11.100  64.784  1.00  0.00    -0.146 OA 
HETATM    5  C   UNL     1      -9.824  12.907  65.571  1.00  0.00    -0.146 C  
HETATM    6  H   UNL     1     -10.591  10.487  65.114  1.00  0.00     0.000 HD 
ENDROOT
BRANCH   5   7
HETATM    7  N   UNL     1      -8.841  12.031  66.193  1.00  0.00    -0.391 NA 
HETATM    8  H   UNL     1      -8.812  11.035  65.973  1.00  0.00     0.000 HD 
BRANCH   7   9
HETATM    9  C   UNL     1      -7.949  12.584  67.091  1.00  0.00    -0.140 A  
HETATM   10  N   UNL     1      -7.843  13.898  67.216  1.00  0.00    -0.155 NA 
HETATM   11  C   UNL     1      -6.943  14.324  68.102  1.00  0.00    -0.129 A  
HETATM   12  N   UNL     1      -7.258  11.712  67.813  1.00  0.00    -0.094 NA 
HETATM   13  N   UNL     1      -6.198  13.516  68.858  1.00  0.00    -0.087 NA 
HETATM   14  C   UNL     1      -6.416  12.217  68.702  1.00  0.00    -0.073 A  
BRANCH  11  15
HETATM   15  C   UNL     1      -6.754  15.789  68.284  1.00  0.00    -0.119 A  
HETATM   16  C   UNL     1      -6.500  17.908  67.287  1.00  0.00    -0.164 A  
HETATM   17  F   UNL     1      -5.265  19.465  65.934  1.00  0.00    -0.153 F  
HETATM   18  N   UNL     1      -6.675  16.560  67.162  1.00  0.00    -0.180 NA 
HETATM   19  C   UNL     1      -6.386  18.522  68.534  1.00  0.00    -0.219 A  
HETATM   20  C   UNL     1      -6.443  18.780  66.039  1.00  0.00    -0.222 C  
HETATM   21  C   UNL     1      -6.661  16.368  69.554  1.00  0.00    -0.202 A  
HETATM   22  C   UNL     1      -6.470  17.741  69.678  1.00  0.00    -0.130 A  
HETATM   23  F   UNL     1      -6.583  18.101  64.866  1.00  0.00    -0.164 F  
HETATM   24  F   UNL     1      -7.418  19.737  66.032  1.00  0.00    -0.257 F  
ENDBRANCH  11  15
BRANCH  14  25
HETATM   25  N   UNL     1      -5.802  11.306  69.562  1.00  0.00    -0.057 NA 
HETATM   26  H   UNL     1      -4.792  11.414  69.655  1.00  0.00     0.000 HD 
BRANCH  25  27
HETATM   27  C   UNL     1      -6.357  10.268  70.317  1.00  0.00    -0.123 A  
HETATM   28  C   UNL     1      -8.280   8.982  71.020  1.00  0.00    -0.176 A  
HETATM   29  C   UNL     1      -7.712   9.956  70.189  1.00  0.00    -0.188 A  
HETATM   30  N   UNL     1      -7.535   8.299  71.936  1.00  0.00    -0.091 NA 
HETATM   31  C   UNL     1      -9.772   8.693  70.945  1.00  0.00    -0.204 C  
HETATM   32  C   UNL     1      -6.231   8.611  72.042  1.00  0.00    -0.072 A  
HETATM   33  F   UNL     1     -10.420   8.922  72.124  1.00  0.00    -0.378 F  
HETATM   34  F   UNL     1     -10.428   9.461  70.022  1.00  0.00    -0.197 F  
HETATM   35  F   UNL     1     -10.054   7.402  70.606  1.00  0.00    -0.189 F  
HETATM   36  C   UNL     1      -5.615   9.587  71.282  1.00  0.00    -0.071 A  
ENDBRANCH  25  27
ENDBRANCH  14  25
ENDBRANCH   7   9
ENDBRANCH   5   7
TORSDOF 5
ENDMDL
MODEL      261
REMARK 921   NORMALIZED FREE ENERGY PREDICTED BY IDOCK:   -4.31 KCAL/MOL
REMARK 922        TOTAL FREE ENERGY PREDICTED BY IDOCK:   -6.73 KCAL/MOL
REMARK 923 INTER-LIGAND FREE ENERGY PREDICTED BY IDOCK:   -5.67 KCAL/MOL
REMARK 924 INTRA-LIGAND FREE ENERGY PREDICTED BY IDOCK:   -1.06 KCAL/MOL
REMARK 927      BINDING AFFINITY PREDICTED BY RF-SCORE:    0.00 PKD
ROOT
HETATM    1  C   UNL     1      -5.857  12.569  67.431  1.00  0.00    -0.137 C  
HETATM    2  C   UNL     1      -6.328  11.175  67.004  1.00  0.00    -0.097 C  
HETATM    3  C   UNL     1      -5.619  10.760  65.710  1.00  0.00    -0.145 C  
HETATM    4  O   UNL     1      -5.959  10.240  68.030  1.00  0.00    -0.045 OA 
HETATM    5  C   UNL     1      -7.873  11.166  66.862  1.00  0.00    -0.152 C  
HETATM    6  H   UNL     1      -6.252   9.375  67.765  1.00  0.00     0.000 HD 
ENDROOT
BRANCH   5   7
HETATM    7  N   UNL     1      -8.323   9.887  66.331  1.00  0.00    -0.124 NA 
HETATM    8  H   UNL     1      -8.540   9.778  65.340  1.00  0.00     0.000 HD 
BRANCH   7   9
HETATM    9  C   UNL     1      -8.450   8.826  67.205  1.00  0.00    -0.111 A  
HETATM   10  N   UNL     1      -9.243   8.911  68.261  1.00  0.00    -0.140 NA 
HETATM   11  C   UNL     1      -9.281   7.833  69.045  1.00  0.00    -0.143 A  
HETATM   12  N   UNL     1      -7.755   7.742  66.885  1.00  0.00    -0.101 NA 
HETATM   13  N   UNL     1      -8.604   6.709  68.804  1.00  0.00    -0.122 NA 
HETATM   14  C   UNL     1      -7.881   6.700  67.692  1.00  0.00    -0.111 A  
BRANCH  11  15
HETATM   15  C   UNL     1     -10.138   7.862  70.262  1.00  0.00    -0.196 A  
HETATM   16  C   UNL     1     -11.055   6.688  72.086  1.00  0.00    -0.254 A  
HETATM   17  F   UNL     1     -12.484   4.975  72.985  1.00  0.00    -0.301 F  
HETATM   18  N   UNL     1     -10.276   6.702  70.965  1.00  0.00    -0.191 NA 
HETATM   19  C   UNL     1     -11.729   7.826  72.528  1.00  0.00    -0.393 A  
HETATM   20  C   UNL     1     -11.190   5.404  72.895  1.00  0.00    -0.314 C  
HETATM   21  C   UNL     1     -10.782   9.030  70.681  1.00  0.00    -0.292 A  
HETATM   22  C   UNL     1     -11.587   9.010  71.817  1.00  0.00    -0.444 A  
HETATM   23  F   UNL     1     -10.483   4.348  72.404  1.00  0.00    -0.238 F  
HETATM   24  F   UNL     1     -10.771   5.560  74.186  1.00  0.00    -0.276 F  
ENDBRANCH  11  15
BRANCH  14  25
HETATM   25  N   UNL     1      -7.271   5.515  67.276  1.00  0.00    -0.074 NA 
HETATM   26  H   UNL     1      -6.257   5.490  67.388  1.00  0.00     0.000 HD 
BRANCH  25  27
HETATM   27  C   UNL     1      -7.834   4.359  66.729  1.00  0.00    -0.098 A  
HETATM   28  C   UNL     1      -9.068   3.258  64.964  1.00  0.00    -0.143 A  
HETATM   29  C   UNL     1      -8.419   4.395  65.461  1.00  0.00    -0.116 A  
HETATM   30  N   UNL     1      -9.117   2.093  65.674  1.00  0.00    -0.114 NA 
HETATM   31  C   UNL     1      -9.778   3.313  63.620  1.00  0.00    -0.134 C  
HETATM   32  C   UNL     1      -8.545   2.077  66.891  1.00  0.00    -0.109 A  
HETATM   33  F   UNL     1     -11.113   3.045  63.711  1.00  0.00    -0.247 F  
HETATM   34  F   UNL     1      -9.698   4.536  63.013  1.00  0.00    -0.146 F  
HETATM   35  F   UNL     1      -9.278   2.427  62.710  1.00  0.00    -0.089 F  
HETATM   36  C   UNL     1      -7.923   3.173  67.459  1.00  0.00    -0.076 A  
ENDBRANCH  25  27
ENDBRANCH  14  25
ENDBRANCH   7   9
ENDBRANCH   5   7
TORSDOF 5
ENDMDL
MODEL      262
REMARK 921   NORMALIZED FREE ENERGY PREDICTED BY IDOCK:   -4.18 KCAL/MOL
REMARK 922        TOTAL FREE ENERGY PREDICTED BY IDOCK:   -6.57 KCAL/MOL
REMARK 923 INTER-LIGAND FREE ENERGY PREDICTED BY IDOCK:   -5.54 KCAL/MOL
REMARK 924 INTRA-LIGAND FREE ENERGY PREDICTED BY IDOCK:   -1.02 KCAL/MOL
REMARK 927      BINDING AFFINITY PREDICTED BY RF-SCORE:    0.00 PKD
ROOT
HETATM    1  C   UNL     1     -10.520   2.265  72.651  1.00  0.00    -0.214 C  
HETATM    2  C   UNL     1     -10.122   3.728  72.872  1.00  0.00    -0.157 C  
HETATM    3  C   UNL     1     -11.362   4.557  73.224  1.00  0.00    -0.364 C  
HETATM    4  O   UNL     1      -9.219   3.787  73.988  1.00  0.00    -0.090 OA 
HETATM    5  C   UNL     1      -9.386   4.265  71.616  1.00  0.00    -0.139 C  
HETATM    6  H   UNL     1      -8.972   4.694  74.125  1.00  0.00     0.000 HD 
ENDROOT
BRANCH   5   7
HETATM    7  N   UNL     1      -9.118   5.689  71.759  1.00  0.00    -0.136 NA 
HETATM    8  H   UNL     1      -9.046   6.119  72.682  1.00  0.00     0.000 HD 
BRANCH   7   9
HETATM    9  C   UNL     1      -8.965   6.443  70.612  1.00  0.00    -0.144 A  
HETATM   10  N   UNL     1      -8.789   5.859  69.438  1.00  0.00    -0.121 NA 
HETATM   11  C   UNL     1      -8.640   6.681  68.398  1.00  0.00    -0.124 A  
HETATM   12  N   UNL     1      -9.041   7.756  70.783  1.00  0.00    -0.148 NA 
HETATM   13  N   UNL     1      -8.688   8.011  68.485  1.00  0.00    -0.131 NA 
HETATM   14  C   UNL     1      -8.926   8.501  69.694  1.00  0.00    -0.145 A  
BRANCH  11  15
HETATM   15  C   UNL     1      -8.419   6.095  67.048  1.00  0.00    -0.105 A  
HETATM   16  C   UNL     1      -8.378   4.173  65.687  1.00  0.00    -0.109 A  
HETATM   17  F   UNL     1      -7.451   2.039  65.085  1.00  0.00    -0.059 F  
HETATM   18  N   UNL     1      -8.574   4.747  66.910  1.00  0.00    -0.105 NA 
HETATM   19  C   UNL     1      -8.008   4.925  64.572  1.00  0.00    -0.103 A  
HETATM   20  C   UNL     1      -8.580   2.673  65.518  1.00  0.00    -0.108 C  
HETATM   21  C   UNL     1      -8.066   6.888  65.951  1.00  0.00    -0.119 A  
HETATM   22  C   UNL     1      -7.854   6.298  64.708  1.00  0.00    -0.110 A  
HETATM   23  F   UNL     1      -8.960   2.021  66.652  1.00  0.00    -0.115 F  
HETATM   24  F   UNL     1      -9.536   2.382  64.586  1.00  0.00    -0.143 F  
ENDBRANCH  11  15
BRANCH  14  25
HETATM   25  N   UNL     1      -9.154   9.869  69.851  1.00  0.00    -0.291 NA 
HETATM   26  H   UNL     1      -9.490  10.148  70.773  1.00  0.00     0.000 HD 
BRANCH  25  27
HETATM   27  C   UNL     1      -8.994  10.917  68.940  1.00  0.00    -0.140 A  
HETATM   28  C   UNL     1      -9.897  12.361  67.223  1.00  0.00    -0.207 A  
HETATM   29  C   UNL     1     -10.087  11.380  68.204  1.00  0.00    -0.200 A  
HETATM   30  N   UNL     1      -8.670  12.910  66.987  1.00  0.00    -0.209 NA 
HETATM   31  C   UNL     1     -11.066  12.812  66.360  1.00  0.00    -0.285 C  
HETATM   32  C   UNL     1      -7.630  12.454  67.709  1.00  0.00    -0.134 A  
HETATM   33  F   UNL     1     -10.863  12.590  65.029  1.00  0.00    -0.289 F  
HETATM   34  F   UNL     1     -12.238  12.171  66.656  1.00  0.00    -0.353 F  
HETATM   35  F   UNL     1     -11.343  14.143  66.481  1.00  0.00    -0.308 F  
HETATM   36  C   UNL     1      -7.740  11.461  68.664  1.00  0.00    -0.137 A  
ENDBRANCH  25  27
ENDBRANCH  14  25
ENDBRANCH   7   9
ENDBRANCH   5   7
TORSDOF 5
ENDMDL
MODEL      263
REMARK 921   NORMALIZED FREE ENERGY PREDICTED BY IDOCK:   -4.16 KCAL/MOL
REMARK 922        TOTAL FREE ENERGY PREDICTED BY IDOCK:   -6.54 KCAL/MOL
REMARK 923 INTER-LIGAND FREE ENERGY PREDICTED BY IDOCK:   -5.52 KCAL/MOL
REMARK 924 INTRA-LIGAND FREE ENERGY PREDICTED BY IDOCK:   -1.03 KCAL/MOL
REMARK 927      BINDING AFFINITY PREDICTED BY RF-SCORE:    0.00 PKD
ROOT
HETATM    1  C   UNL     1      -9.738   9.786  62.341  1.00  0.00     0.300 C  
HETATM    2  C   UNL     1      -9.163  10.658  63.461  1.00  0.00    -0.262 C  
HETATM    3  C   UNL     1      -8.616  11.965  62.874  1.00  0.00     0.965 C  
HETATM    4  O   UNL     1     -10.227  10.991  64.367  1.00  0.00    -0.297 OA 
HETATM    5  C   UNL     1      -8.083   9.863  64.242  1.00  0.00    -0.152 C  
HETATM    6  H   UNL     1      -9.870  11.532  65.062  1.00  0.00     0.000 HD 
ENDROOT
BRANCH   5   7
HETATM    7  N   UNL     1      -7.435  10.721  65.224  1.00  0.00    -0.356 NA 
HETATM    8  H   UNL     1      -6.517  11.127  65.041  1.00  0.00     0.000 HD 
BRANCH   7   9
HETATM    9  C   UNL     1      -8.097  10.970  66.410  1.00  0.00    -0.166 A  
HETATM   10  N   UNL     1      -8.810  12.074  66.568  1.00  0.00    -0.198 NA 
HETATM   11  C   UNL     1      -9.397  12.219  67.756  1.00  0.00    -0.194 A  
HETATM   12  N   UNL     1      -7.985  10.021  67.331  1.00  0.00    -0.106 NA 
HETATM   13  N   UNL     1      -9.324  11.322  68.741  1.00  0.00    -0.164 NA 
HETATM   14  C   UNL     1      -8.634  10.223  68.468  1.00  0.00    -0.126 A  
BRANCH  11  15
HETATM   15  C   UNL     1     -10.200  13.445  68.013  1.00  0.00    -0.243 A  
HETATM   16  C   UNL     1     -10.519  15.744  67.610  1.00  0.00    -0.282 A  
HETATM   17  F   UNL     1      -9.798  18.031  67.776  1.00  0.00    -0.272 F  
HETATM   18  N   UNL     1      -9.809  14.598  67.398  1.00  0.00    -0.221 NA 
HETATM   19  C   UNL     1     -11.631  15.776  68.453  1.00  0.00    -0.343 A  
HETATM   20  C   UNL     1     -10.107  17.028  66.902  1.00  0.00    -0.298 C  
HETATM   21  C   UNL     1     -11.319  13.430  68.852  1.00  0.00    -0.331 A  
HETATM   22  C   UNL     1     -12.034  14.604  69.077  1.00  0.00    -0.318 A  
HETATM   23  F   UNL     1      -9.025  16.902  66.084  1.00  0.00    -0.280 F  
HETATM   24  F   UNL     1     -11.107  17.530  66.118  1.00  0.00    -0.097 F  
ENDBRANCH  11  15
BRANCH  14  25
HETATM   25  N   UNL     1      -8.639   9.162  69.376  1.00  0.00    -0.133 NA 
HETATM   26  H   UNL     1      -7.984   9.255  70.152  1.00  0.00     0.000 HD 
BRANCH  25  27
HETATM   27  C   UNL     1      -9.404   7.992  69.386  1.00  0.00    -0.155 A  
HETATM   28  C   UNL     1      -9.870   5.783  68.520  1.00  0.00    -0.141 A  
HETATM   29  C   UNL     1      -9.043   6.911  68.577  1.00  0.00    -0.127 A  
HETATM   30  N   UNL     1     -11.011   5.691  69.263  1.00  0.00    -0.257 NA 
HETATM   31  C   UNL     1      -9.528   4.636  67.580  1.00  0.00    -0.153 C  
HETATM   32  C   UNL     1     -11.339   6.740  70.038  1.00  0.00    -0.342 A  
HETATM   33  F   UNL     1     -10.500   4.398  66.652  1.00  0.00    -0.246 F  
HETATM   34  F   UNL     1      -8.387   4.849  66.856  1.00  0.00    -0.106 F  
HETATM   35  F   UNL     1      -9.328   3.451  68.227  1.00  0.00    -0.178 F  
HETATM   36  C   UNL     1     -10.591   7.900  70.112  1.00  0.00    -0.237 A  
ENDBRANCH  25  27
ENDBRANCH  14  25
ENDBRANCH   7   9
ENDBRANCH   5   7
TORSDOF 5
ENDMDL
MODEL      264
REMARK 921   NORMALIZED FREE ENERGY PREDICTED BY IDOCK:   -4.15 KCAL/MOL
REMARK 922        TOTAL FREE ENERGY PREDICTED BY IDOCK:   -6.53 KCAL/MOL
REMARK 923 INTER-LIGAND FREE ENERGY PREDICTED BY IDOCK:   -5.53 KCAL/MOL
REMARK 924 INTRA-LIGAND FREE ENERGY PREDICTED BY IDOCK:   -1.00 KCAL/MOL
REMARK 927      BINDING AFFINITY PREDICTED BY RF-SCORE:    0.00 PKD
ROOT
HETATM    1  C   UNL     1     -10.533   1.988  72.896  1.00  0.00    -0.232 C  
HETATM    2  C   UNL     1     -10.053   3.436  73.036  1.00  0.00    -0.150 C  
HETATM    3  C   UNL     1     -11.200   4.316  73.548  1.00  0.00    -0.361 C  
HETATM    4  O   UNL     1      -8.999   3.472  74.010  1.00  0.00    -0.087 OA 
HETATM    5  C   UNL     1      -9.487   3.933  71.679  1.00  0.00    -0.151 C  
HETATM    6  H   UNL     1      -8.702   4.371  74.096  1.00  0.00     0.000 HD 
ENDROOT
BRANCH   5   7
HETATM    7  N   UNL     1      -9.149   5.346  71.760  1.00  0.00    -0.138 NA 
HETATM    8  H   UNL     1      -8.908   5.778  72.653  1.00  0.00     0.000 HD 
BRANCH   7   9
HETATM    9  C   UNL     1      -9.163   6.089  70.595  1.00  0.00    -0.150 A  
HETATM   10  N   UNL     1      -9.226   5.494  69.415  1.00  0.00    -0.115 NA 
HETATM   11  C   UNL     1      -9.221   6.305  68.357  1.00  0.00    -0.112 A  
HETATM   12  N   UNL     1      -9.144   7.405  70.762  1.00  0.00    -0.151 NA 
HETATM   13  N   UNL     1      -9.189   7.636  68.436  1.00  0.00    -0.140 NA 
HETATM   14  C   UNL     1      -9.186   8.140  69.662  1.00  0.00    -0.155 A  
BRANCH  11  15
HETATM   15  C   UNL     1      -9.270   5.706  66.995  1.00  0.00    -0.117 A  
HETATM   16  C   UNL     1      -8.456   5.702  64.785  1.00  0.00    -0.102 A  
HETATM   17  F   UNL     1      -8.168   6.758  62.645  1.00  0.00    -0.104 F  
HETATM   18  N   UNL     1      -8.439   6.224  66.046  1.00  0.00    -0.137 NA 
HETATM   19  C   UNL     1      -9.313   4.660  64.431  1.00  0.00    -0.055 A  
HETATM   20  C   UNL     1      -7.507   6.253  63.728  1.00  0.00    -0.080 C  
HETATM   21  C   UNL     1     -10.133   4.650  66.686  1.00  0.00    -0.263 A  
HETATM   22  C   UNL     1     -10.158   4.129  65.395  1.00  0.00    -0.207 A  
HETATM   23  F   UNL     1      -6.692   7.254  64.165  1.00  0.00    -0.044 F  
HETATM   24  F   UNL     1      -6.676   5.292  63.228  1.00  0.00    -0.030 F  
ENDBRANCH  11  15
BRANCH  14  25
HETATM   25  N   UNL     1      -9.316   9.519  69.842  1.00  0.00    -0.207 NA 
HETATM   26  H   UNL     1      -9.623   9.806  70.771  1.00  0.00     0.000 HD 
BRANCH  25  27
HETATM   27  C   UNL     1      -9.091  10.567  68.945  1.00  0.00    -0.177 A  
HETATM   28  C   UNL     1      -9.939  12.309  67.498  1.00  0.00    -0.199 A  
HETATM   29  C   UNL     1     -10.163  11.327  68.471  1.00  0.00    -0.214 A  
HETATM   30  N   UNL     1      -8.689  12.572  67.019  1.00  0.00    -0.205 NA 
HETATM   31  C   UNL     1     -11.111  13.085  66.916  1.00  0.00    -0.277 C  
HETATM   32  C   UNL     1      -7.669  11.832  67.490  1.00  0.00    -0.143 A  
HETATM   33  F   UNL     1     -11.241  12.924  65.567  1.00  0.00    -0.296 F  
HETATM   34  F   UNL     1     -12.320  12.715  67.439  1.00  0.00    -0.325 F  
HETATM   35  F   UNL     1     -11.024  14.430  67.128  1.00  0.00    -0.282 F  
HETATM   36  C   UNL     1      -7.824  10.821  68.421  1.00  0.00    -0.120 A  
ENDBRANCH  25  27
ENDBRANCH  14  25
ENDBRANCH   7   9
ENDBRANCH   5   7
TORSDOF 5
ENDMDL
MODEL      265
REMARK 921   NORMALIZED FREE ENERGY PREDICTED BY IDOCK:   -4.14 KCAL/MOL
REMARK 922        TOTAL FREE ENERGY PREDICTED BY IDOCK:   -6.52 KCAL/MOL
REMARK 923 INTER-LIGAND FREE ENERGY PREDICTED BY IDOCK:   -5.54 KCAL/MOL
REMARK 924 INTRA-LIGAND FREE ENERGY PREDICTED BY IDOCK:   -0.98 KCAL/MOL
REMARK 927      BINDING AFFINITY PREDICTED BY RF-SCORE:    0.00 PKD
ROOT
HETATM    1  C   UNL     1     -11.068  15.109  65.709  1.00  0.00    -0.330 C  
HETATM    2  C   UNL     1     -11.465  13.781  65.057  1.00  0.00    -0.332 C  
HETATM    3  C   UNL     1     -12.196  12.899  66.076  1.00  0.00    -0.431 C  
HETATM    4  O   UNL     1     -12.375  14.061  63.981  1.00  0.00    -0.646 OA 
HETATM    5  C   UNL     1     -10.206  13.089  64.470  1.00  0.00    -0.308 C  
HETATM    6  H   UNL     1     -12.621  13.237  63.576  1.00  0.00     0.000 HD 
ENDROOT
BRANCH   5   7
HETATM    7  N   UNL     1     -10.546  11.768  63.963  1.00  0.00    -0.336 NA 
HETATM    8  H   UNL     1     -11.275  11.648  63.259  1.00  0.00     0.000 HD 
BRANCH   7   9
HETATM    9  C   UNL     1      -9.856  10.680  64.462  1.00  0.00    -0.327 A  
HETATM   10  N   UNL     1      -9.891  10.391  65.753  1.00  0.00    -0.224 NA 
HETATM   11  C   UNL     1      -9.179   9.328  66.127  1.00  0.00    -0.196 A  
HETATM   12  N   UNL     1      -9.206   9.959  63.557  1.00  0.00    -0.264 NA 
HETATM   13  N   UNL     1      -8.487   8.558  65.286  1.00  0.00    -0.169 NA 
HETATM   14  C   UNL     1      -8.560   8.894  64.005  1.00  0.00    -0.100 A  
BRANCH  11  15
HETATM   15  C   UNL     1      -9.156   8.953  67.567  1.00  0.00    -0.133 A  
HETATM   16  C   UNL     1      -7.917   8.764  69.562  1.00  0.00    -0.096 A  
HETATM   17  F   UNL     1      -6.140   7.785  70.853  1.00  0.00    -0.034 F  
HETATM   18  N   UNL     1      -7.979   9.099  68.240  1.00  0.00    -0.103 NA 
HETATM   19  C   UNL     1      -9.023   8.260  70.245  1.00  0.00    -0.142 A  
HETATM   20  C   UNL     1      -6.614   8.954  70.328  1.00  0.00    -0.042 C  
HETATM   21  C   UNL     1     -10.294   8.467  68.220  1.00  0.00    -0.244 A  
HETATM   22  C   UNL     1     -10.224   8.113  69.565  1.00  0.00    -0.213 A  
HETATM   23  F   UNL     1      -5.592   9.470  69.588  1.00  0.00    -0.033 F  
HETATM   24  F   UNL     1      -6.760   9.795  71.394  1.00  0.00    -0.033 F  
ENDBRANCH  11  15
BRANCH  14  25
HETATM   25  N   UNL     1      -8.003   8.054  63.039  1.00  0.00    -0.167 NA 
HETATM   26  H   UNL     1      -7.846   8.488  62.129  1.00  0.00     0.000 HD 
BRANCH  25  27
HETATM   27  C   UNL     1      -7.627   6.711  63.126  1.00  0.00    -0.088 A  
HETATM   28  C   UNL     1      -8.190   4.397  63.548  1.00  0.00    -0.099 A  
HETATM   29  C   UNL     1      -8.589   5.727  63.364  1.00  0.00     0.147 A  
HETATM   30  N   UNL     1      -6.880   4.024  63.466  1.00  0.00    -0.043 NA 
HETATM   31  C   UNL     1      -9.223   3.333  63.890  1.00  0.00    -0.103 C  
HETATM   32  C   UNL     1      -5.969   4.985  63.232  1.00  0.00    -0.017 A  
HETATM   33  F   UNL     1      -8.984   2.724  65.087  1.00  0.00    -0.114 F  
HETATM   34  F   UNL     1     -10.496   3.823  63.984  1.00  0.00    -0.195 F  
HETATM   35  F   UNL     1      -9.290   2.332  62.965  1.00  0.00    -0.090 F  
HETATM   36  C   UNL     1      -6.288   6.321  63.080  1.00  0.00    -0.033 A  
ENDBRANCH  25  27
ENDBRANCH  14  25
ENDBRANCH   7   9
ENDBRANCH   5   7
TORSDOF 5
ENDMDL
MODEL      266
REMARK 921   NORMALIZED FREE ENERGY PREDICTED BY IDOCK:   -4.14 KCAL/MOL
REMARK 922        TOTAL FREE ENERGY PREDICTED BY IDOCK:   -6.52 KCAL/MOL
REMARK 923 INTER-LIGAND FREE ENERGY PREDICTED BY IDOCK:   -6.93 KCAL/MOL
REMARK 924 INTRA-LIGAND FREE ENERGY PREDICTED BY IDOCK:    0.41 KCAL/MOL
REMARK 927      BINDING AFFINITY PREDICTED BY RF-SCORE:    0.00 PKD
ROOT
HETATM    1  C   UNL     1      -6.353  10.402  63.668  1.00  0.00    -0.059 C  
HETATM    2  C   UNL     1      -7.753  10.411  64.290  1.00  0.00    -0.038 C  
HETATM    3  C   UNL     1      -7.690  11.002  65.704  1.00  0.00     0.090 C  
HETATM    4  O   UNL     1      -8.596  11.258  63.494  1.00  0.00    -0.392 OA 
HETATM    5  C   UNL     1      -8.341   8.975  64.275  1.00  0.00    -0.173 C  
HETATM    6  H   UNL     1      -9.465  11.263  63.880  1.00  0.00     0.000 HD 
ENDROOT
BRANCH   5   7
HETATM    7  N   UNL     1      -9.614   8.944  64.980  1.00  0.00    -0.335 NA 
HETATM    8  H   UNL     1     -10.486   8.761  64.482  1.00  0.00     0.000 HD 
BRANCH   7   9
HETATM    9  C   UNL     1      -9.610   9.169  66.343  1.00  0.00    -0.245 A  
HETATM   10  N   UNL     1     -10.277  10.188  66.861  1.00  0.00    -0.225 NA 
HETATM   11  C   UNL     1     -10.195  10.320  68.186  1.00  0.00    -0.164 A  
HETATM   12  N   UNL     1      -8.931   8.285  67.062  1.00  0.00    -0.136 NA 
HETATM   13  N   UNL     1      -9.523   9.485  68.980  1.00  0.00    -0.154 NA 
HETATM   14  C   UNL     1      -8.935   8.462  68.374  1.00  0.00    -0.136 A  
BRANCH  11  15
HETATM   15  C   UNL     1     -10.903  11.455  68.838  1.00  0.00    -0.215 A  
HETATM   16  C   UNL     1     -11.273  13.778  68.951  1.00  0.00    -0.272 A  
HETATM   17  F   UNL     1     -10.500  16.015  69.374  1.00  0.00    -0.203 F  
HETATM   18  N   UNL     1     -10.643  12.712  68.377  1.00  0.00    -0.238 NA 
HETATM   19  C   UNL     1     -12.167  13.623  70.010  1.00  0.00    -0.395 A  
HETATM   20  C   UNL     1     -11.011  15.182  68.420  1.00  0.00    -0.271 C  
HETATM   21  C   UNL     1     -11.807  11.254  69.887  1.00  0.00    -0.436 A  
HETATM   22  C   UNL     1     -12.437  12.345  70.479  1.00  0.00    -0.270 A  
HETATM   23  F   UNL     1     -10.141  15.240  67.373  1.00  0.00    -0.227 F  
HETATM   24  F   UNL     1     -12.154  15.791  67.985  1.00  0.00    -0.216 F  
ENDBRANCH  11  15
BRANCH  14  25
HETATM   25  N   UNL     1      -8.349   7.452  69.138  1.00  0.00    -0.131 NA 
HETATM   26  H   UNL     1      -7.332   7.501  69.211  1.00  0.00     0.000 HD 
BRANCH  25  27
HETATM   27  C   UNL     1      -8.939   6.384  69.820  1.00  0.00    -0.141 A  
HETATM   28  C   UNL     1     -10.279   5.547  71.651  1.00  0.00    -0.209 A  
HETATM   29  C   UNL     1      -9.772   6.625  70.915  1.00  0.00    -0.190 A  
HETATM   30  N   UNL     1     -10.008   4.254  71.308  1.00  0.00    -0.182 NA 
HETATM   31  C   UNL     1     -11.120   5.802  72.893  1.00  0.00    -0.281 C  
HETATM   32  C   UNL     1      -9.207   4.042  70.248  1.00  0.00    -0.140 A  
HETATM   33  F   UNL     1     -10.572   5.274  74.026  1.00  0.00    -0.236 F  
HETATM   34  F   UNL     1     -11.297   7.131  73.166  1.00  0.00    -0.299 F  
HETATM   35  F   UNL     1     -12.379   5.281  72.807  1.00  0.00    -0.304 F  
HETATM   36  C   UNL     1      -8.641   5.059  69.502  1.00  0.00    -0.102 A  
ENDBRANCH  25  27
ENDBRANCH  14  25
ENDBRANCH   7   9
ENDBRANCH   5   7
TORSDOF 5
ENDMDL
MODEL      267
REMARK 921   NORMALIZED FREE ENERGY PREDICTED BY IDOCK:   -4.09 KCAL/MOL
REMARK 922        TOTAL FREE ENERGY PREDICTED BY IDOCK:   -6.45 KCAL/MOL
REMARK 923 INTER-LIGAND FREE ENERGY PREDICTED BY IDOCK:   -5.64 KCAL/MOL
REMARK 924 INTRA-LIGAND FREE ENERGY PREDICTED BY IDOCK:   -0.81 KCAL/MOL
REMARK 927      BINDING AFFINITY PREDICTED BY RF-SCORE:    0.00 PKD
ROOT
HETATM    1  C   UNL     1      -6.032  14.345  69.038  1.00  0.00    -0.089 C  
HETATM    2  C   UNL     1      -6.026  12.814  68.981  1.00  0.00    -0.084 C  
HETATM    3  C   UNL     1      -5.488  12.346  67.625  1.00  0.00    -0.114 C  
HETATM    4  O   UNL     1      -5.140  12.328  70.001  1.00  0.00    -0.074 OA 
HETATM    5  C   UNL     1      -7.453  12.274  69.271  1.00  0.00     0.252 C  
HETATM    6  H   UNL     1      -5.136  11.378  69.966  1.00  0.00     0.000 HD 
ENDROOT
BRANCH   5   7
HETATM    7  N   UNL     1      -7.491  10.830  69.092  1.00  0.00    -0.113 NA 
HETATM    8  H   UNL     1      -7.101  10.203  69.796  1.00  0.00     0.000 HD 
BRANCH   7   9
HETATM    9  C   UNL     1      -8.071  10.330  67.942  1.00  0.00    -0.102 A  
HETATM   10  N   UNL     1      -8.836  11.098  67.182  1.00  0.00    -0.141 NA 
HETATM   11  C   UNL     1      -9.354  10.511  66.103  1.00  0.00    -0.176 A  
HETATM   12  N   UNL     1      -7.774   9.068  67.661  1.00  0.00    -0.096 NA 
HETATM   13  N   UNL     1      -9.119   9.244  65.755  1.00  0.00    -0.193 NA 
HETATM   14  C   UNL     1      -8.294   8.573  66.548  1.00  0.00    -0.113 A  
BRANCH  11  15
HETATM   15  C   UNL     1     -10.240  11.306  65.211  1.00  0.00    -0.274 A  
HETATM   16  C   UNL     1     -11.644  13.179  64.945  1.00  0.00    -0.323 A  
HETATM   17  F   UNL     1     -13.638  14.410  65.482  1.00  0.00    -0.351 F  
HETATM   18  N   UNL     1     -10.823  12.424  65.731  1.00  0.00    -0.268 NA 
HETATM   19  C   UNL     1     -11.918  12.833  63.622  1.00  0.00    -0.616 A  
HETATM   20  C   UNL     1     -12.273  14.446  65.510  1.00  0.00    -0.348 C  
HETATM   21  C   UNL     1     -10.476  10.933  63.883  1.00  0.00    -0.359 A  
HETATM   22  C   UNL     1     -11.324  11.698  63.087  1.00  0.00    -0.153 A  
HETATM   23  F   UNL     1     -11.935  14.720  66.801  1.00  0.00    -0.379 F  
HETATM   24  F   UNL     1     -11.928  15.558  64.794  1.00  0.00    -0.276 F  
ENDBRANCH  11  15
BRANCH  14  25
HETATM   25  N   UNL     1      -7.864   7.299  66.175  1.00  0.00    -0.104 NA 
HETATM   26  H   UNL     1      -7.022   7.279  65.600  1.00  0.00     0.000 HD 
BRANCH  25  27
HETATM   27  C   UNL     1      -8.408   6.045  66.469  1.00  0.00    -0.113 A  
HETATM   28  C   UNL     1      -9.063   3.826  65.768  1.00  0.00    -0.149 A  
HETATM   29  C   UNL     1      -8.428   5.043  65.496  1.00  0.00    -0.134 A  
HETATM   30  N   UNL     1      -9.639   3.572  66.978  1.00  0.00    -0.180 NA 
HETATM   31  C   UNL     1      -9.162   2.760  64.686  1.00  0.00    -0.135 C  
HETATM   32  C   UNL     1      -9.606   4.548  67.904  1.00  0.00    -0.157 A  
HETATM   33  F   UNL     1     -10.450   2.438  64.370  1.00  0.00    -0.005 F  
HETATM   34  F   UNL     1      -8.586   3.133  63.502  1.00  0.00    -0.088 F  
HETATM   35  F   UNL     1      -8.554   1.588  65.028  1.00  0.00    -0.080 F  
HETATM   36  C   UNL     1      -9.031   5.786  67.690  1.00  0.00    -0.107 A  
ENDBRANCH  25  27
ENDBRANCH  14  25
ENDBRANCH   7   9
ENDBRANCH   5   7
TORSDOF 5
ENDMDL
MODEL      268
REMARK 921   NORMALIZED FREE ENERGY PREDICTED BY IDOCK:   -4.07 KCAL/MOL
REMARK 922        TOTAL FREE ENERGY PREDICTED BY IDOCK:   -6.42 KCAL/MOL
REMARK 923 INTER-LIGAND FREE ENERGY PREDICTED BY IDOCK:   -5.51 KCAL/MOL
REMARK 924 INTRA-LIGAND FREE ENERGY PREDICTED BY IDOCK:   -0.92 KCAL/MOL
REMARK 927      BINDING AFFINITY PREDICTED BY RF-SCORE:    0.00 PKD
ROOT
HETATM    1  C   UNL     1     -10.250   5.122  72.665  1.00  0.00    -0.232 C  
HETATM    2  C   UNL     1     -10.241   6.643  72.480  1.00  0.00    -0.182 C  
HETATM    3  C   UNL     1     -11.679   7.176  72.485  1.00  0.00    -0.220 C  
HETATM    4  O   UNL     1      -9.548   7.230  73.593  1.00  0.00    -0.219 OA 
HETATM    5  C   UNL     1      -9.479   7.008  71.178  1.00  0.00    -0.165 C  
HETATM    6  H   UNL     1      -9.543   8.173  73.479  1.00  0.00     0.000 HD 
ENDROOT
BRANCH   5   7
HETATM    7  N   UNL     1      -9.575   8.437  70.921  1.00  0.00    -0.168 NA 
HETATM    8  H   UNL     1      -9.783   9.093  71.675  1.00  0.00     0.000 HD 
BRANCH   7   9
HETATM    9  C   UNL     1      -9.377   8.882  69.629  1.00  0.00    -0.163 A  
HETATM   10  N   UNL     1      -9.200   8.023  68.638  1.00  0.00    -0.143 NA 
HETATM   11  C   UNL     1      -9.005   8.561  67.433  1.00  0.00    -0.134 A  
HETATM   12  N   UNL     1      -9.412  10.199  69.472  1.00  0.00    -0.220 NA 
HETATM   13  N   UNL     1      -9.011   9.873  67.191  1.00  0.00    -0.138 NA 
HETATM   14  C   UNL     1      -9.253  10.651  68.238  1.00  0.00    -0.153 A  
BRANCH  11  15
HETATM   15  C   UNL     1      -8.780   7.657  66.273  1.00  0.00    -0.152 A  
HETATM   16  C   UNL     1      -8.925   5.483  65.378  1.00  0.00    -0.099 A  
HETATM   17  F   UNL     1      -8.276   3.168  65.353  1.00  0.00    -0.090 F  
HETATM   18  N   UNL     1      -9.118   6.344  66.420  1.00  0.00    -0.152 NA 
HETATM   19  C   UNL     1      -8.377   5.905  64.167  1.00  0.00    -0.017 A  
HETATM   20  C   UNL     1      -9.329   4.022  65.524  1.00  0.00    -0.159 C  
HETATM   21  C   UNL     1      -8.244   8.124  65.068  1.00  0.00    -0.157 A  
HETATM   22  C   UNL     1      -8.036   7.241  64.012  1.00  0.00    -0.087 A  
HETATM   23  F   UNL     1      -9.874   3.701  66.731  1.00  0.00    -0.227 F  
HETATM   24  F   UNL     1     -10.252   3.645  64.589  1.00  0.00    -0.176 F  
ENDBRANCH  11  15
BRANCH  14  25
HETATM   25  N   UNL     1      -9.438  12.022  68.050  1.00  0.00    -0.193 NA 
HETATM   26  H   UNL     1     -10.406  12.310  67.904  1.00  0.00     0.000 HD 
BRANCH  25  27
HETATM   27  C   UNL     1      -8.503  13.060  68.030  1.00  0.00    -0.181 A  
HETATM   28  C   UNL     1      -7.989  15.418  67.876  1.00  0.00    -0.135 A  
HETATM   29  C   UNL     1      -8.931  14.390  67.995  1.00  0.00    -0.183 A  
HETATM   30  N   UNL     1      -6.650  15.162  67.828  1.00  0.00    -0.153 NA 
HETATM   31  C   UNL     1      -8.450  16.863  67.753  1.00  0.00    -0.196 C  
HETATM   32  C   UNL     1      -6.257  13.876  67.867  1.00  0.00    -0.158 A  
HETATM   33  F   UNL     1      -8.049  17.455  66.591  1.00  0.00    -0.218 F  
HETATM   34  F   UNL     1      -9.811  17.002  67.775  1.00  0.00    -0.250 F  
HETATM   35  F   UNL     1      -7.991  17.662  68.760  1.00  0.00    -0.269 F  
HETATM   36  C   UNL     1      -7.133  12.811  67.945  1.00  0.00    -0.118 A  
ENDBRANCH  25  27
ENDBRANCH  14  25
ENDBRANCH   7   9
ENDBRANCH   5   7
TORSDOF 5
ENDMDL
MODEL      269
REMARK 921   NORMALIZED FREE ENERGY PREDICTED BY IDOCK:   -4.05 KCAL/MOL
REMARK 922        TOTAL FREE ENERGY PREDICTED BY IDOCK:   -6.40 KCAL/MOL
REMARK 923 INTER-LIGAND FREE ENERGY PREDICTED BY IDOCK:   -6.75 KCAL/MOL
REMARK 924 INTRA-LIGAND FREE ENERGY PREDICTED BY IDOCK:    0.36 KCAL/MOL
REMARK 927      BINDING AFFINITY PREDICTED BY RF-SCORE:    0.00 PKD
ROOT
HETATM    1  C   UNL     1     -10.236  20.318  66.238  1.00  0.00    -0.447 C  
HETATM    2  C   UNL     1      -9.254  19.183  66.544  1.00  0.00    -0.345 C  
HETATM    3  C   UNL     1      -9.943  17.829  66.332  1.00  0.00    -0.345 C  
HETATM    4  O   UNL     1      -8.158  19.271  65.620  1.00  0.00    -0.414 OA 
HETATM    5  C   UNL     1      -8.699  19.345  67.984  1.00  0.00    -0.320 C  
HETATM    6  H   UNL     1      -7.549  18.566  65.810  1.00  0.00     0.000 HD 
ENDROOT
BRANCH   5   7
HETATM    7  N   UNL     1      -7.867  18.203  68.336  1.00  0.00    -0.289 NA 
HETATM    8  H   UNL     1      -6.853  18.293  68.402  1.00  0.00     0.000 HD 
BRANCH   7   9
HETATM    9  C   UNL     1      -8.489  16.993  68.578  1.00  0.00    -0.257 A  
HETATM   10  N   UNL     1      -9.624  16.940  69.256  1.00  0.00    -0.148 NA 
HETATM   11  C   UNL     1     -10.130  15.721  69.443  1.00  0.00    -0.268 A  
HETATM   12  N   UNL     1      -7.884  15.932  68.059  1.00  0.00    -0.134 NA 
HETATM   13  N   UNL     1      -9.580  14.603  68.969  1.00  0.00    -0.185 NA 
HETATM   14  C   UNL     1      -8.475  14.763  68.253  1.00  0.00    -0.151 A  
BRANCH  11  15
HETATM   15  C   UNL     1     -11.396  15.581  70.214  1.00  0.00    -0.332 A  
HETATM   16  C   UNL     1     -12.487  15.692  72.298  1.00  0.00    -0.426 A  
HETATM   17  F   UNL     1     -12.824  14.902  74.543  1.00  0.00    -0.372 F  
HETATM   18  N   UNL     1     -11.347  15.812  71.557  1.00  0.00    -0.381 NA 
HETATM   19  C   UNL     1     -13.703  15.325  71.723  1.00  0.00    -0.605 A  
HETATM   20  C   UNL     1     -12.447  15.980  73.794  1.00  0.00    -0.605 C  
HETATM   21  C   UNL     1     -12.599  15.227  69.595  1.00  0.00    -0.087 A  
HETATM   22  C   UNL     1     -13.757  15.093  70.356  1.00  0.00     0.260 A  
HETATM   23  F   UNL     1     -11.225  16.351  74.267  1.00  0.00     0.629 F  
HETATM   24  F   UNL     1     -13.302  16.984  74.150  1.00  0.00     0.145 F  
ENDBRANCH  11  15
BRANCH  14  25
HETATM   25  N   UNL     1      -7.922  13.670  67.583  1.00  0.00    -0.162 NA 
HETATM   26  H   UNL     1      -6.917  13.728  67.419  1.00  0.00     0.000 HD 
BRANCH  25  27
HETATM   27  C   UNL     1      -8.533  12.509  67.102  1.00  0.00    -0.186 A  
HETATM   28  C   UNL     1      -8.448  10.142  66.612  1.00  0.00    -0.126 A  
HETATM   29  C   UNL     1      -7.871  11.281  67.185  1.00  0.00    -0.151 A  
HETATM   30  N   UNL     1      -9.666  10.187  65.998  1.00  0.00    -0.211 NA 
HETATM   31  C   UNL     1      -7.697   8.819  66.626  1.00  0.00    -0.093 C  
HETATM   32  C   UNL     1     -10.290  11.377  65.931  1.00  0.00    -0.250 A  
HETATM   33  F   UNL     1      -7.447   8.334  65.375  1.00  0.00    -0.076 F  
HETATM   34  F   UNL     1      -6.473   8.896  67.232  1.00  0.00    -0.057 F  
HETATM   35  F   UNL     1      -8.364   7.828  67.287  1.00  0.00    -0.113 F  
HETATM   36  C   UNL     1      -9.760  12.548  66.440  1.00  0.00    -0.253 A  
ENDBRANCH  25  27
ENDBRANCH  14  25
ENDBRANCH   7   9
ENDBRANCH   5   7
TORSDOF 5
ENDMDL
MODEL      270
REMARK 921   NORMALIZED FREE ENERGY PREDICTED BY IDOCK:   -3.98 KCAL/MOL
REMARK 922        TOTAL FREE ENERGY PREDICTED BY IDOCK:   -6.30 KCAL/MOL
REMARK 923 INTER-LIGAND FREE ENERGY PREDICTED BY IDOCK:   -5.42 KCAL/MOL
REMARK 924 INTRA-LIGAND FREE ENERGY PREDICTED BY IDOCK:   -0.88 KCAL/MOL
REMARK 927      BINDING AFFINITY PREDICTED BY RF-SCORE:    0.00 PKD
ROOT
HETATM    1  C   UNL     1     -13.768   9.415  71.394  1.00  0.00    -0.309 C  
HETATM    2  C   UNL     1     -12.288   9.019  71.414  1.00  0.00    -0.318 C  
HETATM    3  C   UNL     1     -11.870   8.640  72.839  1.00  0.00     0.195 C  
HETATM    4  O   UNL     1     -12.119   7.861  70.581  1.00  0.00    -0.484 OA 
HETATM    5  C   UNL     1     -11.429  10.173  70.832  1.00  0.00    -0.360 C  
HETATM    6  H   UNL     1     -11.201   7.615  70.593  1.00  0.00     0.000 HD 
ENDROOT
BRANCH   5   7
HETATM    7  N   UNL     1     -10.013   9.865  70.965  1.00  0.00    -0.210 NA 
HETATM    8  H   UNL     1      -9.466  10.237  71.742  1.00  0.00     0.000 HD 
BRANCH   7   9
HETATM    9  C   UNL     1      -9.429   9.055  70.011  1.00  0.00    -0.187 A  
HETATM   10  N   UNL     1      -9.390   9.426  68.741  1.00  0.00    -0.145 NA 
HETATM   11  C   UNL     1      -8.814   8.564  67.903  1.00  0.00    -0.137 A  
HETATM   12  N   UNL     1      -8.901   7.928  70.471  1.00  0.00    -0.140 NA 
HETATM   13  N   UNL     1      -8.272   7.405  68.280  1.00  0.00    -0.124 NA 
HETATM   14  C   UNL     1      -8.309   7.147  69.580  1.00  0.00    -0.133 A  
BRANCH  11  15
HETATM   15  C   UNL     1      -8.750   8.905  66.456  1.00  0.00    -0.130 A  
HETATM   16  C   UNL     1      -7.849   8.435  64.331  1.00  0.00    -0.141 A  
HETATM   17  F   UNL     1      -5.987   8.304  62.816  1.00  0.00    -0.076 F  
HETATM   18  N   UNL     1      -7.935   8.151  65.664  1.00  0.00    -0.102 NA 
HETATM   19  C   UNL     1      -8.561   9.487  63.755  1.00  0.00    -0.222 A  
HETATM   20  C   UNL     1      -6.965   7.578  63.434  1.00  0.00    -0.060 C  
HETATM   21  C   UNL     1      -9.495   9.958  65.914  1.00  0.00    -0.272 A  
HETATM   22  C   UNL     1      -9.394  10.253  64.557  1.00  0.00    -0.328 A  
HETATM   23  F   UNL     1      -6.322   6.562  64.075  1.00  0.00    -0.033 F  
HETATM   24  F   UNL     1      -7.671   6.989  62.423  1.00  0.00    -0.083 F  
ENDBRANCH  11  15
BRANCH  14  25
HETATM   25  N   UNL     1      -7.625   6.039  70.084  1.00  0.00    -0.092 NA 
HETATM   26  H   UNL     1      -6.673   5.925  69.736  1.00  0.00     0.000 HD 
BRANCH  25  27
HETATM   27  C   UNL     1      -8.044   5.061  70.991  1.00  0.00    -0.101 A  
HETATM   28  C   UNL     1      -9.696   4.198  72.531  1.00  0.00    -0.149 A  
HETATM   29  C   UNL     1      -9.322   5.124  71.550  1.00  0.00    -0.187 A  
HETATM   30  N   UNL     1      -8.853   3.204  72.937  1.00  0.00    -0.084 NA 
HETATM   31  C   UNL     1     -11.056   4.309  73.205  1.00  0.00    -0.249 C  
HETATM   32  C   UNL     1      -7.628   3.157  72.384  1.00  0.00    -0.057 A  
HETATM   33  F   UNL     1     -10.969   4.489  74.555  1.00  0.00    -0.285 F  
HETATM   34  F   UNL     1     -11.802   5.361  72.750  1.00  0.00    -0.347 F  
HETATM   35  F   UNL     1     -11.839   3.206  73.022  1.00  0.00    -0.030 F  
HETATM   36  C   UNL     1      -7.180   4.063  71.440  1.00  0.00    -0.039 A  
ENDBRANCH  25  27
ENDBRANCH  14  25
ENDBRANCH   7   9
ENDBRANCH   5   7
TORSDOF 5
ENDMDL
MODEL      271
REMARK 921   NORMALIZED FREE ENERGY PREDICTED BY IDOCK:   -3.93 KCAL/MOL
REMARK 922        TOTAL FREE ENERGY PREDICTED BY IDOCK:   -6.25 KCAL/MOL
REMARK 923 INTER-LIGAND FREE ENERGY PREDICTED BY IDOCK:   -5.91 KCAL/MOL
REMARK 924 INTRA-LIGAND FREE ENERGY PREDICTED BY IDOCK:   -0.34 KCAL/MOL
REMARK 927      BINDING AFFINITY PREDICTED BY RF-SCORE:    0.00 PKD
ROOT
HETATM    1  C   UNL     1      -5.900  11.871  70.804  1.00  0.00     0.004 C  
HETATM    2  C   UNL     1      -6.249  11.839  69.313  1.00  0.00    -0.092 C  
HETATM    3  C   UNL     1      -7.460  12.738  69.042  1.00  0.00     0.103 C  
HETATM    4  O   UNL     1      -5.133  12.365  68.576  1.00  0.00    -0.051 OA 
HETATM    5  C   UNL     1      -6.487  10.372  68.863  1.00  0.00    -0.052 C  
HETATM    6  H   UNL     1      -5.350  12.345  67.651  1.00  0.00     0.000 HD 
ENDROOT
BRANCH   5   7
HETATM    7  N   UNL     1      -6.947  10.337  67.482  1.00  0.00    -0.084 NA 
HETATM    8  H   UNL     1      -6.282  10.324  66.708  1.00  0.00     0.000 HD 
BRANCH   7   9
HETATM    9  C   UNL     1      -8.308  10.321  67.247  1.00  0.00    -0.121 A  
HETATM   10  N   UNL     1      -8.925  11.393  66.777  1.00  0.00    -0.170 NA 
HETATM   11  C   UNL     1     -10.241  11.272  66.599  1.00  0.00    -0.229 A  
HETATM   12  N   UNL     1      -8.912   9.167  67.496  1.00  0.00    -0.122 NA 
HETATM   13  N   UNL     1     -10.927  10.154  66.837  1.00  0.00    -0.112 NA 
HETATM   14  C   UNL     1     -10.212   9.116  67.252  1.00  0.00    -0.254 A  
BRANCH  11  15
HETATM   15  C   UNL     1     -11.006  12.443  66.090  1.00  0.00    -0.286 A  
HETATM   16  C   UNL     1     -11.092  14.770  65.734  1.00  0.00    -0.338 A  
HETATM   17  F   UNL     1     -11.155  17.026  66.563  1.00  0.00    -0.100 F  
HETATM   18  N   UNL     1     -10.422  13.671  66.189  1.00  0.00    -0.292 NA 
HETATM   19  C   UNL     1     -12.370  14.676  65.182  1.00  0.00    -0.248 A  
HETATM   20  C   UNL     1     -10.433  16.141  65.812  1.00  0.00    -0.367 C  
HETATM   21  C   UNL     1     -12.279  12.303  65.527  1.00  0.00    -0.242 A  
HETATM   22  C   UNL     1     -12.966  13.427  65.077  1.00  0.00    -0.220 A  
HETATM   23  F   UNL     1      -9.180  16.138  66.346  1.00  0.00    -0.232 F  
HETATM   24  F   UNL     1     -10.311  16.726  64.584  1.00  0.00     0.026 F  
ENDBRANCH  11  15
BRANCH  14  25
HETATM   25  N   UNL     1     -10.818   7.864  67.370  1.00  0.00    -0.521 NA 
HETATM   26  H   UNL     1     -11.625   7.716  66.763  1.00  0.00     0.000 HD 
BRANCH  25  27
HETATM   27  C   UNL     1     -10.490   6.781  68.191  1.00  0.00    -0.211 A  
HETATM   28  C   UNL     1      -9.633   4.536  68.460  1.00  0.00    -0.149 A  
HETATM   29  C   UNL     1      -9.867   5.654  67.650  1.00  0.00    -0.154 A  
HETATM   30  N   UNL     1      -9.965   4.527  69.783  1.00  0.00    -0.229 NA 
HETATM   31  C   UNL     1      -9.030   3.274  67.860  1.00  0.00    -0.148 C  
HETATM   32  C   UNL     1     -10.561   5.623  70.286  1.00  0.00    -0.300 A  
HETATM   33  F   UNL     1      -9.843   2.185  67.981  1.00  0.00    -0.241 F  
HETATM   34  F   UNL     1      -8.771   3.381  66.520  1.00  0.00    -0.106 F  
HETATM   35  F   UNL     1      -7.841   2.922  68.430  1.00  0.00    -0.055 F  
HETATM   36  C   UNL     1     -10.857   6.745  69.536  1.00  0.00    -0.315 A  
ENDBRANCH  25  27
ENDBRANCH  14  25
ENDBRANCH   7   9
ENDBRANCH   5   7
TORSDOF 5
ENDMDL
MODEL      272
REMARK 921   NORMALIZED FREE ENERGY PREDICTED BY IDOCK:   -3.93 KCAL/MOL
REMARK 922        TOTAL FREE ENERGY PREDICTED BY IDOCK:   -6.25 KCAL/MOL
REMARK 923 INTER-LIGAND FREE ENERGY PREDICTED BY IDOCK:   -5.22 KCAL/MOL
REMARK 924 INTRA-LIGAND FREE ENERGY PREDICTED BY IDOCK:   -1.03 KCAL/MOL
REMARK 927      BINDING AFFINITY PREDICTED BY RF-SCORE:    0.00 PKD
ROOT
HETATM    1  C   UNL     1      -8.706   6.674  66.242  1.00  0.00    -0.150 C  
HETATM    2  C   UNL     1      -7.621   7.755  66.219  1.00  0.00    -0.087 C  
HETATM    3  C   UNL     1      -6.319   7.197  66.807  1.00  0.00    -0.050 C  
HETATM    4  O   UNL     1      -7.370   8.115  64.851  1.00  0.00    -0.080 OA 
HETATM    5  C   UNL     1      -8.121   9.014  66.976  1.00  0.00    -0.106 C  
HETATM    6  H   UNL     1      -6.697   8.786  64.837  1.00  0.00     0.000 HD 
ENDROOT
BRANCH   5   7
HETATM    7  N   UNL     1      -7.054   9.999  67.076  1.00  0.00    -0.088 NA 
HETATM    8  H   UNL     1      -6.471  10.226  66.269  1.00  0.00     0.000 HD 
BRANCH   7   9
HETATM    9  C   UNL     1      -6.851  10.620  68.293  1.00  0.00    -0.068 A  
HETATM   10  N   UNL     1      -6.670  11.929  68.362  1.00  0.00    -0.062 NA 
HETATM   11  C   UNL     1      -6.471  12.423  69.585  1.00  0.00    -0.063 A  
HETATM   12  N   UNL     1      -6.885   9.819  69.350  1.00  0.00    -0.053 NA 
HETATM   13  N   UNL     1      -6.475  11.686  70.697  1.00  0.00    -0.027 NA 
HETATM   14  C   UNL     1      -6.721  10.394  70.531  1.00  0.00    -0.031 A  
BRANCH  11  15
HETATM   15  C   UNL     1      -6.242  13.885  69.739  1.00  0.00    -0.136 A  
HETATM   16  C   UNL     1      -6.711  16.069  68.992  1.00  0.00    -0.157 A  
HETATM   17  F   UNL     1      -6.625  17.783  67.309  1.00  0.00    -0.160 F  
HETATM   18  N   UNL     1      -6.897  14.721  68.883  1.00  0.00    -0.099 NA 
HETATM   19  C   UNL     1      -5.856  16.619  69.946  1.00  0.00    -0.217 A  
HETATM   20  C   UNL     1      -7.464  17.011  68.061  1.00  0.00    -0.182 C  
HETATM   21  C   UNL     1      -5.388  14.397  70.721  1.00  0.00    -0.137 A  
HETATM   22  C   UNL     1      -5.191  15.772  70.821  1.00  0.00    -0.160 A  
HETATM   23  F   UNL     1      -8.292  16.390  67.175  1.00  0.00    -0.172 F  
HETATM   24  F   UNL     1      -8.250  17.894  68.745  1.00  0.00    -0.288 F  
ENDBRANCH  11  15
BRANCH  14  25
HETATM   25  N   UNL     1      -6.906   9.578  71.649  1.00  0.00    -0.304 NA 
HETATM   26  H   UNL     1      -6.197   9.675  72.376  1.00  0.00     0.000 HD 
BRANCH  25  27
HETATM   27  C   UNL     1      -7.912   8.649  71.926  1.00  0.00    -0.076 A  
HETATM   28  C   UNL     1     -10.246   8.014  71.904  1.00  0.00    -0.214 A  
HETATM   29  C   UNL     1      -9.229   8.903  71.535  1.00  0.00    -0.322 A  
HETATM   30  N   UNL     1      -9.982   6.877  72.612  1.00  0.00    -0.168 NA 
HETATM   31  C   UNL     1     -11.693   8.324  71.554  1.00  0.00    -0.292 C  
HETATM   32  C   UNL     1      -8.707   6.648  72.976  1.00  0.00    -0.120 A  
HETATM   33  F   UNL     1     -12.497   8.433  72.651  1.00  0.00    -0.410 F  
HETATM   34  F   UNL     1     -11.847   9.505  70.879  1.00  0.00    -0.301 F  
HETATM   35  F   UNL     1     -12.270   7.377  70.758  1.00  0.00    -0.328 F  
HETATM   36  C   UNL     1      -7.662   7.502  72.680  1.00  0.00    -0.110 A  
ENDBRANCH  25  27
ENDBRANCH  14  25
ENDBRANCH   7   9
ENDBRANCH   5   7
TORSDOF 5
ENDMDL
MODEL      273
REMARK 921   NORMALIZED FREE ENERGY PREDICTED BY IDOCK:   -3.91 KCAL/MOL
REMARK 922        TOTAL FREE ENERGY PREDICTED BY IDOCK:   -6.22 KCAL/MOL
REMARK 923 INTER-LIGAND FREE ENERGY PREDICTED BY IDOCK:   -5.20 KCAL/MOL
REMARK 924 INTRA-LIGAND FREE ENERGY PREDICTED BY IDOCK:   -1.02 KCAL/MOL
REMARK 927      BINDING AFFINITY PREDICTED BY RF-SCORE:    0.00 PKD
ROOT
HETATM    1  C   UNL     1      -6.993  15.600  69.844  1.00  0.00    -0.045 C  
HETATM    2  C   UNL     1      -6.404  14.210  69.582  1.00  0.00    -0.131 C  
HETATM    3  C   UNL     1      -5.134  14.335  68.732  1.00  0.00    -0.089 C  
HETATM    4  O   UNL     1      -6.037  13.629  70.843  1.00  0.00    -0.367 OA 
HETATM    5  C   UNL     1      -7.475  13.305  68.916  1.00  0.00     0.002 C  
HETATM    6  H   UNL     1      -5.672  12.767  70.680  1.00  0.00     0.000 HD 
ENDROOT
BRANCH   5   7
HETATM    7  N   UNL     1      -6.892  12.025  68.542  1.00  0.00    -0.072 NA 
HETATM    8  H   UNL     1      -6.095  11.642  69.053  1.00  0.00     0.000 HD 
BRANCH   7   9
HETATM    9  C   UNL     1      -7.445  11.342  67.476  1.00  0.00    -0.113 A  
HETATM   10  N   UNL     1      -8.451  11.860  66.791  1.00  0.00    -0.180 NA 
HETATM   11  C   UNL     1      -8.917  11.111  65.791  1.00  0.00    -0.196 A  
HETATM   12  N   UNL     1      -6.874  10.179  67.192  1.00  0.00    -0.081 NA 
HETATM   13  N   UNL     1      -8.411   9.926  65.447  1.00  0.00    -0.140 NA 
HETATM   14  C   UNL     1      -7.368   9.517  66.156  1.00  0.00    -0.093 A  
BRANCH  11  15
HETATM   15  C   UNL     1     -10.061  11.620  64.987  1.00  0.00    -0.263 A  
HETATM   16  C   UNL     1     -11.721  13.266  64.695  1.00  0.00    -0.364 A  
HETATM   17  F   UNL     1     -13.707  14.406  65.425  1.00  0.00    -0.189 F  
HETATM   18  N   UNL     1     -10.666  12.769  65.405  1.00  0.00    -0.278 NA 
HETATM   19  C   UNL     1     -12.210  12.625  63.558  1.00  0.00    -0.638 A  
HETATM   20  C   UNL     1     -12.381  14.566  65.138  1.00  0.00    -0.323 C  
HETATM   21  C   UNL     1     -10.510  10.955  63.841  1.00  0.00    -0.359 A  
HETATM   22  C   UNL     1     -11.594  11.458  63.127  1.00  0.00     0.138 A  
HETATM   23  F   UNL     1     -11.828  15.134  66.245  1.00  0.00    -0.257 F  
HETATM   24  F   UNL     1     -12.336  15.526  64.167  1.00  0.00    -0.469 F  
ENDBRANCH  11  15
BRANCH  14  25
HETATM   25  N   UNL     1      -6.675   8.370  65.766  1.00  0.00    -0.053 NA 
HETATM   26  H   UNL     1      -6.205   8.436  64.863  1.00  0.00     0.000 HD 
BRANCH  25  27
HETATM   27  C   UNL     1      -6.524   7.144  66.421  1.00  0.00    -0.051 A  
HETATM   28  C   UNL     1      -7.324   5.500  68.004  1.00  0.00    -0.073 A  
HETATM   29  C   UNL     1      -7.526   6.678  67.276  1.00  0.00    -0.092 A  
HETATM   30  N   UNL     1      -6.180   4.766  67.876  1.00  0.00    -0.034 NA 
HETATM   31  C   UNL     1      -8.374   5.028  68.998  1.00  0.00    -0.086 C  
HETATM   32  C   UNL     1      -5.229   5.229  67.045  1.00  0.00    -0.008 A  
HETATM   33  F   UNL     1      -7.901   4.944  70.275  1.00  0.00    -0.059 F  
HETATM   34  F   UNL     1      -9.461   5.857  69.073  1.00  0.00    -0.123 F  
HETATM   35  F   UNL     1      -8.881   3.796  68.702  1.00  0.00    -0.104 F  
HETATM   36  C   UNL     1      -5.346   6.404  66.327  1.00  0.00    -0.013 A  
ENDBRANCH  25  27
ENDBRANCH  14  25
ENDBRANCH   7   9
ENDBRANCH   5   7
TORSDOF 5
ENDMDL
MODEL      274
REMARK 921   NORMALIZED FREE ENERGY PREDICTED BY IDOCK:   -3.89 KCAL/MOL
REMARK 922        TOTAL FREE ENERGY PREDICTED BY IDOCK:   -6.19 KCAL/MOL
REMARK 923 INTER-LIGAND FREE ENERGY PREDICTED BY IDOCK:   -5.03 KCAL/MOL
REMARK 924 INTRA-LIGAND FREE ENERGY PREDICTED BY IDOCK:   -1.16 KCAL/MOL
REMARK 927      BINDING AFFINITY PREDICTED BY RF-SCORE:    0.00 PKD
ROOT
HETATM    1  C   UNL     1      -8.190   8.467  72.553  1.00  0.00    -0.198 C  
HETATM    2  C   UNL     1      -7.365   8.452  71.263  1.00  0.00    -0.086 C  
HETATM    3  C   UNL     1      -6.228   7.430  71.384  1.00  0.00    -0.036 C  
HETATM    4  O   UNL     1      -8.219   8.038  70.185  1.00  0.00    -0.116 OA 
HETATM    5  C   UNL     1      -6.845   9.883  70.957  1.00  0.00     0.147 C  
HETATM    6  H   UNL     1      -7.707   8.029  69.384  1.00  0.00     0.000 HD 
ENDROOT
BRANCH   5   7
HETATM    7  N   UNL     1      -5.953   9.860  69.808  1.00  0.00    -0.041 NA 
HETATM    8  H   UNL     1      -4.975   9.583  69.908  1.00  0.00     0.000 HD 
BRANCH   7   9
HETATM    9  C   UNL     1      -6.464  10.223  68.577  1.00  0.00    -0.052 A  
HETATM   10  N   UNL     1      -6.787   9.305  67.682  1.00  0.00    -0.075 NA 
HETATM   11  C   UNL     1      -7.260   9.766  66.523  1.00  0.00    -0.094 A  
HETATM   12  N   UNL     1      -6.626  11.527  68.394  1.00  0.00    -0.058 NA 
HETATM   13  N   UNL     1      -7.441  11.060  66.252  1.00  0.00    -0.133 NA 
HETATM   14  C   UNL     1      -7.141  11.901  67.233  1.00  0.00    -0.143 A  
BRANCH  11  15
HETATM   15  C   UNL     1      -7.628   8.792  65.460  1.00  0.00    -0.087 A  
HETATM   16  C   UNL     1      -8.005   6.547  64.853  1.00  0.00    -0.124 A  
HETATM   17  F   UNL     1      -7.227   4.298  64.513  1.00  0.00    -0.062 F  
HETATM   18  N   UNL     1      -7.673   7.472  65.801  1.00  0.00    -0.093 NA 
HETATM   19  C   UNL     1      -8.286   6.912  63.536  1.00  0.00     0.099 A  
HETATM   20  C   UNL     1      -8.089   5.075  65.233  1.00  0.00    -0.117 C  
HETATM   21  C   UNL     1      -7.919   9.201  64.155  1.00  0.00    -0.140 A  
HETATM   22  C   UNL     1      -8.244   8.254  63.187  1.00  0.00    -0.104 A  
HETATM   23  F   UNL     1      -7.820   4.811  66.543  1.00  0.00    -0.094 F  
HETATM   24  F   UNL     1      -9.329   4.550  64.998  1.00  0.00    -0.142 F  
ENDBRANCH  11  15
BRANCH  14  25
HETATM   25  N   UNL     1      -7.451  13.256  67.098  1.00  0.00    -0.373 NA 
HETATM   26  H   UNL     1      -6.646  13.875  67.006  1.00  0.00     0.000 HD 
BRANCH  25  27
HETATM   27  C   UNL     1      -8.694  13.894  67.070  1.00  0.00    -0.200 A  
HETATM   28  C   UNL     1     -10.013  15.906  66.824  1.00  0.00    -0.248 A  
HETATM   29  C   UNL     1      -8.777  15.253  66.753  1.00  0.00    -0.304 A  
HETATM   30  N   UNL     1     -11.157  15.242  67.162  1.00  0.00    -0.336 NA 
HETATM   31  C   UNL     1     -10.100  17.402  66.560  1.00  0.00    -0.320 C  
HETATM   32  C   UNL     1     -11.056  13.934  67.460  1.00  0.00    -0.286 A  
HETATM   33  F   UNL     1     -10.577  18.105  67.628  1.00  0.00    -0.371 F  
HETATM   34  F   UNL     1      -8.892  17.972  66.268  1.00  0.00    -0.274 F  
HETATM   35  F   UNL     1     -10.911  17.718  65.509  1.00  0.00    -0.345 F  
HETATM   36  C   UNL     1      -9.863  13.237  67.449  1.00  0.00    -0.227 A  
ENDBRANCH  25  27
ENDBRANCH  14  25
ENDBRANCH   7   9
ENDBRANCH   5   7
TORSDOF 5
ENDMDL
MODEL      275
REMARK 921   NORMALIZED FREE ENERGY PREDICTED BY IDOCK:   -3.87 KCAL/MOL
REMARK 922        TOTAL FREE ENERGY PREDICTED BY IDOCK:   -6.17 KCAL/MOL
REMARK 923 INTER-LIGAND FREE ENERGY PREDICTED BY IDOCK:   -5.37 KCAL/MOL
REMARK 924 INTRA-LIGAND FREE ENERGY PREDICTED BY IDOCK:   -0.80 KCAL/MOL
REMARK 927      BINDING AFFINITY PREDICTED BY RF-SCORE:    0.00 PKD
ROOT
HETATM    1  C   UNL     1     -13.503  14.942  65.290  1.00  0.00     1.339 C  
HETATM    2  C   UNL     1     -12.156  14.219  65.388  1.00  0.00    -0.396 C  
HETATM    3  C   UNL     1     -11.264  14.617  64.206  1.00  0.00    -0.057 C  
HETATM    4  O   UNL     1     -11.503  14.642  66.596  1.00  0.00    -0.351 OA 
HETATM    5  C   UNL     1     -12.388  12.686  65.465  1.00  0.00    -0.391 C  
HETATM    6  H   UNL     1     -10.667  14.193  66.657  1.00  0.00     0.000 HD 
ENDROOT
BRANCH   5   7
HETATM    7  N   UNL     1     -11.116  11.980  65.427  1.00  0.00    -0.312 NA 
HETATM    8  H   UNL     1     -10.794  11.525  64.572  1.00  0.00     0.000 HD 
BRANCH   7   9
HETATM    9  C   UNL     1     -10.356  11.943  66.580  1.00  0.00    -0.216 A  
HETATM   10  N   UNL     1      -9.343  12.777  66.749  1.00  0.00    -0.236 NA 
HETATM   11  C   UNL     1      -8.669  12.646  67.892  1.00  0.00    -0.181 A  
HETATM   12  N   UNL     1     -10.740  11.049  67.482  1.00  0.00    -0.227 NA 
HETATM   13  N   UNL     1      -8.979  11.766  68.845  1.00  0.00     0.039 NA 
HETATM   14  C   UNL     1     -10.045  11.012  68.609  1.00  0.00    -0.197 A  
BRANCH  11  15
HETATM   15  C   UNL     1      -7.505  13.538  68.144  1.00  0.00    -0.132 A  
HETATM   16  C   UNL     1      -6.400  15.562  67.666  1.00  0.00    -0.155 A  
HETATM   17  F   UNL     1      -5.241  17.021  66.146  1.00  0.00    -0.183 F  
HETATM   18  N   UNL     1      -7.453  14.718  67.463  1.00  0.00    -0.186 NA 
HETATM   19  C   UNL     1      -5.362  15.247  68.542  1.00  0.00    -0.098 A  
HETATM   20  C   UNL     1      -6.352  16.896  66.932  1.00  0.00    -0.202 C  
HETATM   21  C   UNL     1      -6.493  13.191  69.046  1.00  0.00    -0.103 A  
HETATM   22  C   UNL     1      -5.414  14.048  69.241  1.00  0.00    -0.082 A  
HETATM   23  F   UNL     1      -7.414  17.132  66.112  1.00  0.00    -0.279 F  
HETATM   24  F   UNL     1      -6.305  17.958  67.791  1.00  0.00    -0.164 F  
ENDBRANCH  11  15
BRANCH  14  25
HETATM   25  N   UNL     1     -10.539  10.180  69.615  1.00  0.00    -0.239 NA 
HETATM   26  H   UNL     1     -10.811  10.658  70.475  1.00  0.00     0.000 HD 
BRANCH  25  27
HETATM   27  C   UNL     1     -10.719   8.794  69.627  1.00  0.00    -0.208 A  
HETATM   28  C   UNL     1     -10.485   6.639  68.556  1.00  0.00    -0.213 A  
HETATM   29  C   UNL     1     -10.215   8.012  68.585  1.00  0.00    -0.225 A  
HETATM   30  N   UNL     1     -11.204   6.029  69.542  1.00  0.00    -0.403 NA 
HETATM   31  C   UNL     1     -10.010   5.794  67.382  1.00  0.00    -0.150 C  
HETATM   32  C   UNL     1     -11.678   6.798  70.539  1.00  0.00    -0.375 A  
HETATM   33  F   UNL     1     -11.033   5.191  66.710  1.00  0.00    -0.283 F  
HETATM   34  F   UNL     1      -9.334   6.513  66.435  1.00  0.00    -0.159 F  
HETATM   35  F   UNL     1      -9.159   4.793  67.750  1.00  0.00    -0.107 F  
HETATM   36  C   UNL     1     -11.482   8.164  70.609  1.00  0.00    -0.237 A  
ENDBRANCH  25  27
ENDBRANCH  14  25
ENDBRANCH   7   9
ENDBRANCH   5   7
TORSDOF 5
ENDMDL
MODEL      276
REMARK 921   NORMALIZED FREE ENERGY PREDICTED BY IDOCK:   -3.84 KCAL/MOL
REMARK 922        TOTAL FREE ENERGY PREDICTED BY IDOCK:   -6.13 KCAL/MOL
REMARK 923 INTER-LIGAND FREE ENERGY PREDICTED BY IDOCK:   -5.34 KCAL/MOL
REMARK 924 INTRA-LIGAND FREE ENERGY PREDICTED BY IDOCK:   -0.78 KCAL/MOL
REMARK 927      BINDING AFFINITY PREDICTED BY RF-SCORE:    0.00 PKD
ROOT
HETATM    1  C   UNL     1      -8.272  10.786  64.171  1.00  0.00     0.116 C  
HETATM    2  C   UNL     1      -9.596  10.831  64.939  1.00  0.00    -0.256 C  
HETATM    3  C   UNL     1      -9.826  12.240  65.497  1.00  0.00    -0.223 C  
HETATM    4  O   UNL     1     -10.662  10.540  64.021  1.00  0.00    -0.345 OA 
HETATM    5  C   UNL     1      -9.595   9.747  66.050  1.00  0.00    -0.235 C  
HETATM    6  H   UNL     1     -11.483  10.568  64.497  1.00  0.00     0.000 HD 
ENDROOT
BRANCH   5   7
HETATM    7  N   UNL     1     -10.791   9.865  66.872  1.00  0.00    -0.131 NA 
HETATM    8  H   UNL     1     -11.721   9.784  66.459  1.00  0.00     0.000 HD 
BRANCH   7   9
HETATM    9  C   UNL     1     -10.633  10.090  68.225  1.00  0.00    -0.226 A  
HETATM   10  N   UNL     1     -11.502  10.833  68.892  1.00  0.00    -0.281 NA 
HETATM   11  C   UNL     1     -11.247  10.996  70.191  1.00  0.00    -0.183 A  
HETATM   12  N   UNL     1      -9.590   9.489  68.782  1.00  0.00    -0.155 NA 
HETATM   13  N   UNL     1     -10.214  10.440  70.825  1.00  0.00     0.503 NA 
HETATM   14  C   UNL     1      -9.432   9.666  70.084  1.00  0.00    -0.253 A  
BRANCH  11  15
HETATM   15  C   UNL     1     -12.171  11.835  71.002  1.00  0.00    -0.198 A  
HETATM   16  C   UNL     1     -13.053  13.972  71.451  1.00  0.00    -0.353 A  
HETATM   17  F   UNL     1     -12.793  16.244  72.192  1.00  0.00    -0.482 F  
HETATM   18  N   UNL     1     -12.219  13.170  70.727  1.00  0.00    -0.348 NA 
HETATM   19  C   UNL     1     -13.850  13.468  72.479  1.00  0.00    -0.624 A  
HETATM   20  C   UNL     1     -13.136  15.459  71.129  1.00  0.00    -0.498 C  
HETATM   21  C   UNL     1     -12.967  11.286  72.014  1.00  0.00    -0.379 A  
HETATM   22  C   UNL     1     -13.807  12.110  72.759  1.00  0.00     0.968 A  
HETATM   23  F   UNL     1     -12.340  15.861  70.099  1.00  0.00    -0.377 F  
HETATM   24  F   UNL     1     -14.402  15.844  70.789  1.00  0.00    -0.064 F  
ENDBRANCH  11  15
BRANCH  14  25
HETATM   25  N   UNL     1      -8.426   8.916  70.695  1.00  0.00    -0.164 NA 
HETATM   26  H   UNL     1      -7.628   9.456  71.031  1.00  0.00     0.000 HD 
BRANCH  25  27
HETATM   27  C   UNL     1      -8.342   7.539  70.919  1.00  0.00    -0.114 A  
HETATM   28  C   UNL     1      -8.591   5.266  70.130  1.00  0.00    -0.117 A  
HETATM   29  C   UNL     1      -8.579   6.643  69.874  1.00  0.00    -0.140 A  
HETATM   30  N   UNL     1      -8.340   4.767  71.375  1.00  0.00    -0.106 NA 
HETATM   31  C   UNL     1      -8.929   4.287  69.016  1.00  0.00    -0.108 C  
HETATM   32  C   UNL     1      -8.110   5.645  72.367  1.00  0.00    -0.107 A  
HETATM   33  F   UNL     1     -10.031   3.529  69.288  1.00  0.00    -0.199 F  
HETATM   34  F   UNL     1      -9.200   4.896  67.821  1.00  0.00    -0.111 F  
HETATM   35  F   UNL     1      -7.923   3.405  68.750  1.00  0.00    -0.060 F  
HETATM   36  C   UNL     1      -8.123   7.016  72.193  1.00  0.00    -0.093 A  
ENDBRANCH  25  27
ENDBRANCH  14  25
ENDBRANCH   7   9
ENDBRANCH   5   7
TORSDOF 5
ENDMDL
MODEL      277
REMARK 921   NORMALIZED FREE ENERGY PREDICTED BY IDOCK:   -3.81 KCAL/MOL
REMARK 922        TOTAL FREE ENERGY PREDICTED BY IDOCK:   -6.09 KCAL/MOL
REMARK 923 INTER-LIGAND FREE ENERGY PREDICTED BY IDOCK:   -5.16 KCAL/MOL
REMARK 924 INTRA-LIGAND FREE ENERGY PREDICTED BY IDOCK:   -0.93 KCAL/MOL
REMARK 927      BINDING AFFINITY PREDICTED BY RF-SCORE:    0.00 PKD
ROOT
HETATM    1  C   UNL     1     -10.520   1.815  72.487  1.00  0.00    -0.230 C  
HETATM    2  C   UNL     1     -10.127   3.283  72.680  1.00  0.00    -0.160 C  
HETATM    3  C   UNL     1     -11.254   4.033  73.400  1.00  0.00    -0.313 C  
HETATM    4  O   UNL     1      -8.959   3.332  73.516  1.00  0.00    -0.082 OA 
HETATM    5  C   UNL     1      -9.776   3.916  71.307  1.00  0.00    -0.177 C  
HETATM    6  H   UNL     1      -8.715   4.242  73.635  1.00  0.00     0.000 HD 
ENDROOT
BRANCH   5   7
HETATM    7  N   UNL     1      -9.528   5.342  71.458  1.00  0.00    -0.147 NA 
HETATM    8  H   UNL     1      -9.433   5.763  72.383  1.00  0.00     0.000 HD 
BRANCH   7   9
HETATM    9  C   UNL     1      -9.424   6.111  70.315  1.00  0.00    -0.160 A  
HETATM   10  N   UNL     1      -9.024   5.575  69.174  1.00  0.00    -0.108 NA 
HETATM   11  C   UNL     1      -8.948   6.410  68.137  1.00  0.00    -0.116 A  
HETATM   12  N   UNL     1      -9.781   7.381  70.453  1.00  0.00    -0.176 NA 
HETATM   13  N   UNL     1      -9.274   7.702  68.193  1.00  0.00    -0.138 NA 
HETATM   14  C   UNL     1      -9.718   8.134  69.365  1.00  0.00    -0.170 A  
BRANCH  11  15
HETATM   15  C   UNL     1      -8.487   5.882  66.824  1.00  0.00    -0.109 A  
HETATM   16  C   UNL     1      -9.027   4.776  64.816  1.00  0.00    -0.146 A  
HETATM   17  F   UNL     1      -9.758   2.825  63.617  1.00  0.00    -0.105 F  
HETATM   18  N   UNL     1      -9.411   5.275  66.027  1.00  0.00    -0.158 NA 
HETATM   19  C   UNL     1      -7.706   4.855  64.373  1.00  0.00    -0.083 A  
HETATM   20  C   UNL     1     -10.060   4.125  63.905  1.00  0.00    -0.077 C  
HETATM   21  C   UNL     1      -7.155   5.997  66.411  1.00  0.00    -0.068 A  
HETATM   22  C   UNL     1      -6.763   5.476  65.181  1.00  0.00    -0.044 A  
HETATM   23  F   UNL     1     -11.327   4.109  64.407  1.00  0.00    -0.304 F  
HETATM   24  F   UNL     1     -10.150   4.752  62.695  1.00  0.00    -0.046 F  
ENDBRANCH  11  15
BRANCH  14  25
HETATM   25  N   UNL     1     -10.234   9.426  69.474  1.00  0.00    -0.199 NA 
HETATM   26  H   UNL     1     -10.674   9.642  70.369  1.00  0.00     0.000 HD 
BRANCH  25  27
HETATM   27  C   UNL     1     -10.241  10.472  68.546  1.00  0.00    -0.174 A  
HETATM   28  C   UNL     1      -9.336  12.561  67.733  1.00  0.00    -0.198 A  
HETATM   29  C   UNL     1      -9.263  11.467  68.604  1.00  0.00    -0.136 A  
HETATM   30  N   UNL     1     -10.323  12.669  66.798  1.00  0.00    -0.233 NA 
HETATM   31  C   UNL     1      -8.322  13.691  67.843  1.00  0.00    -0.174 C  
HETATM   32  C   UNL     1     -11.254  11.699  66.756  1.00  0.00    -0.308 A  
HETATM   33  F   UNL     1      -8.895  14.898  68.117  1.00  0.00    -0.158 F  
HETATM   34  F   UNL     1      -7.401  13.498  68.837  1.00  0.00    -0.100 F  
HETATM   35  F   UNL     1      -7.591  13.871  66.705  1.00  0.00    -0.004 F  
HETATM   36  C   UNL     1     -11.265  10.612  67.610  1.00  0.00    -0.361 A  
ENDBRANCH  25  27
ENDBRANCH  14  25
ENDBRANCH   7   9
ENDBRANCH   5   7
TORSDOF 5
ENDMDL
MODEL      278
REMARK 921   NORMALIZED FREE ENERGY PREDICTED BY IDOCK:   -3.78 KCAL/MOL
REMARK 922        TOTAL FREE ENERGY PREDICTED BY IDOCK:   -6.04 KCAL/MOL
REMARK 923 INTER-LIGAND FREE ENERGY PREDICTED BY IDOCK:   -5.24 KCAL/MOL
REMARK 924 INTRA-LIGAND FREE ENERGY PREDICTED BY IDOCK:   -0.81 KCAL/MOL
REMARK 927      BINDING AFFINITY PREDICTED BY RF-SCORE:    0.00 PKD
ROOT
HETATM    1  C   UNL     1     -12.763   7.194  71.298  1.00  0.00    -0.412 C  
HETATM    2  C   UNL     1     -11.509   6.855  70.487  1.00  0.00    -0.342 C  
HETATM    3  C   UNL     1     -10.871   5.570  71.028  1.00  0.00    -0.243 C  
HETATM    4  O   UNL     1     -11.901   6.616  69.126  1.00  0.00    -0.592 OA 
HETATM    5  C   UNL     1     -10.528   8.059  70.512  1.00  0.00    -0.214 C  
HETATM    6  H   UNL     1     -11.123   6.405  68.623  1.00  0.00     0.000 HD 
ENDROOT
BRANCH   5   7
HETATM    7  N   UNL     1      -9.278   7.704  69.856  1.00  0.00    -0.148 NA 
HETATM    8  H   UNL     1      -8.802   6.827  70.073  1.00  0.00     0.000 HD 
BRANCH   7   9
HETATM    9  C   UNL     1      -8.752   8.586  68.933  1.00  0.00    -0.131 A  
HETATM   10  N   UNL     1      -8.340   9.788  69.305  1.00  0.00    -0.130 NA 
HETATM   11  C   UNL     1      -7.861  10.563  68.331  1.00  0.00    -0.110 A  
HETATM   12  N   UNL     1      -8.669   8.125  67.692  1.00  0.00    -0.129 NA 
HETATM   13  N   UNL     1      -7.757  10.182  67.057  1.00  0.00    -0.095 NA 
HETATM   14  C   UNL     1      -8.142   8.941  66.793  1.00  0.00    -0.111 A  
BRANCH  11  15
HETATM   15  C   UNL     1      -7.396  11.935  68.671  1.00  0.00    -0.115 A  
HETATM   16  C   UNL     1      -7.830  14.250  68.661  1.00  0.00    -0.140 A  
HETATM   17  F   UNL     1      -8.203  16.318  67.493  1.00  0.00    -0.144 F  
HETATM   18  N   UNL     1      -8.223  12.976  68.366  1.00  0.00    -0.146 NA 
HETATM   19  C   UNL     1      -6.597  14.522  69.253  1.00  0.00    -0.125 A  
HETATM   20  C   UNL     1      -8.762  15.416  68.353  1.00  0.00    -0.171 C  
HETATM   21  C   UNL     1      -6.159  12.163  69.281  1.00  0.00    -0.090 A  
HETATM   22  C   UNL     1      -5.756  13.464  69.568  1.00  0.00    -0.099 A  
HETATM   23  F   UNL     1      -9.952  15.058  67.794  1.00  0.00    -0.222 F  
HETATM   24  F   UNL     1      -9.079  16.133  69.471  1.00  0.00    -0.241 F  
ENDBRANCH  11  15
BRANCH  14  25
HETATM   25  N   UNL     1      -7.918   8.405  65.523  1.00  0.00    -0.108 NA 
HETATM   26  H   UNL     1      -7.799   9.092  64.779  1.00  0.00     0.000 HD 
BRANCH  25  27
HETATM   27  C   UNL     1      -7.830   7.071  65.115  1.00  0.00    -0.124 A  
HETATM   28  C   UNL     1      -8.823   4.878  64.881  1.00  0.00    -0.152 A  
HETATM   29  C   UNL     1      -8.947   6.236  65.199  1.00  0.00     0.216 A  
HETATM   30  N   UNL     1      -7.641   4.347  64.454  1.00  0.00    -0.071 NA 
HETATM   31  C   UNL     1     -10.014   3.946  65.048  1.00  0.00    -0.184 C  
HETATM   32  C   UNL     1      -6.578   5.167  64.376  1.00  0.00    -0.042 A  
HETATM   33  F   UNL     1      -9.778   2.932  65.930  1.00  0.00    -0.081 F  
HETATM   34  F   UNL     1     -11.135   4.575  65.516  1.00  0.00    -0.344 F  
HETATM   35  F   UNL     1     -10.397   3.348  63.882  1.00  0.00    -0.159 F  
HETATM   36  C   UNL     1      -6.619   6.507  64.712  1.00  0.00    -0.038 A  
ENDBRANCH  25  27
ENDBRANCH  14  25
ENDBRANCH   7   9
ENDBRANCH   5   7
TORSDOF 5
ENDMDL
MODEL      279
REMARK 921   NORMALIZED FREE ENERGY PREDICTED BY IDOCK:   -3.72 KCAL/MOL
REMARK 922        TOTAL FREE ENERGY PREDICTED BY IDOCK:   -5.97 KCAL/MOL
REMARK 923 INTER-LIGAND FREE ENERGY PREDICTED BY IDOCK:   -5.95 KCAL/MOL
REMARK 924 INTRA-LIGAND FREE ENERGY PREDICTED BY IDOCK:   -0.02 KCAL/MOL
REMARK 927      BINDING AFFINITY PREDICTED BY RF-SCORE:    0.00 PKD
ROOT
HETATM    1  C   UNL     1      -5.951  13.217  71.694  1.00  0.00     0.730 C  
HETATM    2  C   UNL     1      -6.128  13.834  70.303  1.00  0.00    -0.133 C  
HETATM    3  C   UNL     1      -7.509  14.492  70.198  1.00  0.00     0.414 C  
HETATM    4  O   UNL     1      -5.136  14.858  70.133  1.00  0.00    -0.094 OA 
HETATM    5  C   UNL     1      -5.905  12.748  69.217  1.00  0.00    -0.087 C  
HETATM    6  H   UNL     1      -5.246  15.241  69.270  1.00  0.00     0.000 HD 
ENDROOT
BRANCH   5   7
HETATM    7  N   UNL     1      -6.199  13.287  67.897  1.00  0.00    -0.128 NA 
HETATM    8  H   UNL     1      -5.449  13.498  67.238  1.00  0.00     0.000 HD 
BRANCH   7   9
HETATM    9  C   UNL     1      -7.520  13.506  67.560  1.00  0.00    -0.167 A  
HETATM   10  N   UNL     1      -7.936  14.710  67.202  1.00  0.00    -0.192 NA 
HETATM   11  C   UNL     1      -9.233  14.812  66.910  1.00  0.00    -0.245 A  
HETATM   12  N   UNL     1      -8.299  12.432  67.596  1.00  0.00    -0.157 NA 
HETATM   13  N   UNL     1     -10.086  13.787  66.934  1.00  0.00    -0.256 NA 
HETATM   14  C   UNL     1      -9.564  12.609  67.250  1.00  0.00    -0.203 A  
BRANCH  11  15
HETATM   15  C   UNL     1      -9.777  16.140  66.516  1.00  0.00    -0.263 A  
HETATM   16  C   UNL     1      -9.948  18.443  66.977  1.00  0.00    -0.342 A  
HETATM   17  F   UNL     1     -10.675  20.265  68.367  1.00  0.00    -0.455 F  
HETATM   18  N   UNL     1      -9.466  17.209  67.304  1.00  0.00    -0.241 NA 
HETATM   19  C   UNL     1     -10.764  18.643  65.863  1.00  0.00    -0.274 A  
HETATM   20  C   UNL     1      -9.579  19.648  67.834  1.00  0.00    -0.356 C  
HETATM   21  C   UNL     1     -10.578  16.300  65.381  1.00  0.00    -0.371 A  
HETATM   22  C   UNL     1     -11.078  17.558  65.057  1.00  0.00     0.586 A  
HETATM   23  F   UNL     1      -8.764  19.365  68.888  1.00  0.00    -0.385 F  
HETATM   24  F   UNL     1      -8.935  20.615  67.116  1.00  0.00    -0.431 F  
ENDBRANCH  11  15
BRANCH  14  25
HETATM   25  N   UNL     1     -10.346  11.457  67.142  1.00  0.00    -0.206 NA 
HETATM   26  H   UNL     1     -10.987  11.443  66.349  1.00  0.00     0.000 HD 
BRANCH  25  27
HETATM   27  C   UNL     1     -10.385  10.320  67.954  1.00  0.00    -0.196 A  
HETATM   28  C   UNL     1     -10.891   9.271  70.073  1.00  0.00    -0.238 A  
HETATM   29  C   UNL     1     -10.945  10.389  69.232  1.00  0.00    -0.287 A  
HETATM   30  N   UNL     1     -10.332   8.094  69.667  1.00  0.00    -0.217 NA 
HETATM   31  C   UNL     1     -11.424   9.362  71.495  1.00  0.00    -0.397 C  
HETATM   32  C   UNL     1      -9.802   8.046  68.432  1.00  0.00    -0.171 A  
HETATM   33  F   UNL     1     -10.471   9.114  72.440  1.00  0.00    -0.341 F  
HETATM   34  F   UNL     1     -11.926  10.596  71.809  1.00  0.00    -0.343 F  
HETATM   35  F   UNL     1     -12.440   8.487  71.746  1.00  0.00    -0.303 F  
HETATM   36  C   UNL     1      -9.786   9.122  67.564  1.00  0.00    -0.204 A  
ENDBRANCH  25  27
ENDBRANCH  14  25
ENDBRANCH   7   9
ENDBRANCH   5   7
TORSDOF 5
ENDMDL
MODEL      280
REMARK 921   NORMALIZED FREE ENERGY PREDICTED BY IDOCK:   -3.71 KCAL/MOL
REMARK 922        TOTAL FREE ENERGY PREDICTED BY IDOCK:   -5.96 KCAL/MOL
REMARK 923 INTER-LIGAND FREE ENERGY PREDICTED BY IDOCK:   -5.25 KCAL/MOL
REMARK 924 INTRA-LIGAND FREE ENERGY PREDICTED BY IDOCK:   -0.71 KCAL/MOL
REMARK 927      BINDING AFFINITY PREDICTED BY RF-SCORE:    0.00 PKD
ROOT
HETATM    1  C   UNL     1      -5.149  14.184  72.233  1.00  0.00    -0.210 C  
HETATM    2  C   UNL     1      -5.728  14.545  70.861  1.00  0.00    -0.176 C  
HETATM    3  C   UNL     1      -7.253  14.664  70.955  1.00  0.00     1.147 C  
HETATM    4  O   UNL     1      -5.207  15.826  70.474  1.00  0.00    -0.148 OA 
HETATM    5  C   UNL     1      -5.279  13.494  69.811  1.00  0.00    -0.087 C  
HETATM    6  H   UNL     1      -5.566  16.050  69.622  1.00  0.00     0.000 HD 
ENDROOT
BRANCH   5   7
HETATM    7  N   UNL     1      -5.927  13.749  68.533  1.00  0.00    -0.086 NA 
HETATM    8  H   UNL     1      -5.619  14.515  67.932  1.00  0.00     0.000 HD 
BRANCH   7   9
HETATM    9  C   UNL     1      -6.971  12.928  68.154  1.00  0.00    -0.102 A  
HETATM   10  N   UNL     1      -8.062  13.433  67.602  1.00  0.00    -0.161 NA 
HETATM   11  C   UNL     1      -9.013  12.552  67.286  1.00  0.00    -0.192 A  
HETATM   12  N   UNL     1      -6.774  11.632  68.357  1.00  0.00    -0.061 NA 
HETATM   13  N   UNL     1      -8.901  11.236  67.469  1.00  0.00    -0.139 NA 
HETATM   14  C   UNL     1      -7.748  10.820  67.976  1.00  0.00    -0.101 A  
BRANCH  11  15
HETATM   15  C   UNL     1     -10.277  13.049  66.678  1.00  0.00    -0.257 A  
HETATM   16  C   UNL     1     -11.831  12.915  64.913  1.00  0.00    -0.366 A  
HETATM   17  F   UNL     1     -12.410  13.165  62.593  1.00  0.00    -0.321 F  
HETATM   18  N   UNL     1     -10.678  12.485  65.503  1.00  0.00    -0.265 NA 
HETATM   19  C   UNL     1     -12.608  13.930  65.471  1.00  0.00    -0.560 A  
HETATM   20  C   UNL     1     -12.302  12.268  63.617  1.00  0.00    -0.562 C  
HETATM   21  C   UNL     1     -11.036  14.058  67.280  1.00  0.00    -0.314 A  
HETATM   22  C   UNL     1     -12.205  14.504  66.669  1.00  0.00    -0.250 A  
HETATM   23  F   UNL     1     -11.494  11.273  63.155  1.00  0.00    -0.383 F  
HETATM   24  F   UNL     1     -13.543  11.710  63.740  1.00  0.00    -0.302 F  
ENDBRANCH  11  15
BRANCH  14  25
HETATM   25  N   UNL     1      -7.481   9.452  68.051  1.00  0.00    -0.080 NA 
HETATM   26  H   UNL     1      -6.673   9.140  67.511  1.00  0.00     0.000 HD 
BRANCH  25  27
HETATM   27  C   UNL     1      -8.149   8.443  68.751  1.00  0.00    -0.121 A  
HETATM   28  C   UNL     1      -8.687   6.106  69.057  1.00  0.00    -0.124 A  
HETATM   29  C   UNL     1      -7.940   7.102  68.418  1.00  0.00    -0.124 A  
HETATM   30  N   UNL     1      -9.597   6.404  70.030  1.00  0.00    -0.158 NA 
HETATM   31  C   UNL     1      -8.527   4.650  68.643  1.00  0.00    -0.085 C  
HETATM   32  C   UNL     1      -9.780   7.700  70.339  1.00  0.00    -0.179 A  
HETATM   33  F   UNL     1      -9.685   4.095  68.183  1.00  0.00    -0.205 F  
HETATM   34  F   UNL     1      -7.619   4.470  67.636  1.00  0.00    -0.074 F  
HETATM   35  F   UNL     1      -8.101   3.845  69.660  1.00  0.00    -0.055 F  
HETATM   36  C   UNL     1      -9.107   8.736  69.721  1.00  0.00    -0.151 A  
ENDBRANCH  25  27
ENDBRANCH  14  25
ENDBRANCH   7   9
ENDBRANCH   5   7
TORSDOF 5
ENDMDL
MODEL      281
REMARK 921   NORMALIZED FREE ENERGY PREDICTED BY IDOCK:   -3.69 KCAL/MOL
REMARK 922        TOTAL FREE ENERGY PREDICTED BY IDOCK:   -5.93 KCAL/MOL
REMARK 923 INTER-LIGAND FREE ENERGY PREDICTED BY IDOCK:   -4.92 KCAL/MOL
REMARK 924 INTRA-LIGAND FREE ENERGY PREDICTED BY IDOCK:   -1.01 KCAL/MOL
REMARK 927      BINDING AFFINITY PREDICTED BY RF-SCORE:    0.00 PKD
ROOT
HETATM    1  C   UNL     1      -9.917   3.986  72.135  1.00  0.00    -0.242 C  
HETATM    2  C   UNL     1     -10.011   5.510  72.015  1.00  0.00    -0.181 C  
HETATM    3  C   UNL     1     -11.261   6.013  72.746  1.00  0.00    -0.299 C  
HETATM    4  O   UNL     1      -8.862   6.086  72.655  1.00  0.00    -0.126 OA 
HETATM    5  C   UNL     1      -9.998   5.918  70.517  1.00  0.00    -0.189 C  
HETATM    6  H   UNL     1      -8.921   7.032  72.579  1.00  0.00     0.000 HD 
ENDROOT
BRANCH   5   7
HETATM    7  N   UNL     1     -10.219   7.350  70.383  1.00  0.00    -0.197 NA 
HETATM    8  H   UNL     1     -10.540   7.908  71.175  1.00  0.00     0.000 HD 
BRANCH   7   9
HETATM    9  C   UNL     1      -9.983   7.935  69.154  1.00  0.00    -0.184 A  
HETATM   10  N   UNL     1      -9.560   7.210  68.130  1.00  0.00    -0.131 NA 
HETATM   11  C   UNL     1      -9.352   7.877  66.995  1.00  0.00    -0.160 A  
HETATM   12  N   UNL     1     -10.240   9.235  69.086  1.00  0.00    -0.199 NA 
HETATM   13  N   UNL     1      -9.572   9.184  66.845  1.00  0.00    -0.165 NA 
HETATM   14  C   UNL     1     -10.049   9.814  67.911  1.00  0.00    -0.173 A  
BRANCH  11  15
HETATM   15  C   UNL     1      -8.859   7.130  65.806  1.00  0.00    -0.064 A  
HETATM   16  C   UNL     1      -8.831   5.118  64.581  1.00  0.00    -0.080 A  
HETATM   17  F   UNL     1      -8.270   2.790  64.369  1.00  0.00    -0.080 F  
HETATM   18  N   UNL     1      -9.264   5.836  65.659  1.00  0.00    -0.081 NA 
HETATM   19  C   UNL     1      -7.971   5.665  63.630  1.00  0.00    -0.116 A  
HETATM   20  C   UNL     1      -9.304   3.682  64.394  1.00  0.00    -0.146 C  
HETATM   21  C   UNL     1      -8.011   7.723  64.864  1.00  0.00    -0.139 A  
HETATM   22  C   UNL     1      -7.560   6.983  63.774  1.00  0.00    -0.105 A  
HETATM   23  F   UNL     1     -10.157   3.235  65.358  1.00  0.00    -0.068 F  
HETATM   24  F   UNL     1      -9.961   3.505  63.209  1.00  0.00    -0.119 F  
ENDBRANCH  11  15
BRANCH  14  25
HETATM   25  N   UNL     1     -10.460  11.143  67.799  1.00  0.00    -0.185 NA 
HETATM   26  H   UNL     1     -11.470  11.282  67.785  1.00  0.00     0.000 HD 
BRANCH  25  27
HETATM   27  C   UNL     1      -9.701  12.313  67.705  1.00  0.00    -0.194 A  
HETATM   28  C   UNL     1      -7.670  13.540  68.171  1.00  0.00    -0.139 A  
HETATM   29  C   UNL     1      -8.388  12.338  68.180  1.00  0.00    -0.174 A  
HETATM   30  N   UNL     1      -8.208  14.692  67.676  1.00  0.00    -0.157 NA 
HETATM   31  C   UNL     1      -6.269  13.595  68.761  1.00  0.00    -0.089 C  
HETATM   32  C   UNL     1      -9.473  14.647  67.219  1.00  0.00    -0.219 A  
HETATM   33  F   UNL     1      -6.162  14.474  69.799  1.00  0.00    -0.102 F  
HETATM   34  F   UNL     1      -5.844  12.395  69.263  1.00  0.00    -0.067 F  
HETATM   35  F   UNL     1      -5.317  13.964  67.856  1.00  0.00    -0.102 F  
HETATM   36  C   UNL     1     -10.251  13.506  67.234  1.00  0.00    -0.242 A  
ENDBRANCH  25  27
ENDBRANCH  14  25
ENDBRANCH   7   9
ENDBRANCH   5   7
TORSDOF 5
ENDMDL
MODEL      282
REMARK 921   NORMALIZED FREE ENERGY PREDICTED BY IDOCK:   -3.68 KCAL/MOL
REMARK 922        TOTAL FREE ENERGY PREDICTED BY IDOCK:   -5.92 KCAL/MOL
REMARK 923 INTER-LIGAND FREE ENERGY PREDICTED BY IDOCK:   -5.27 KCAL/MOL
REMARK 924 INTRA-LIGAND FREE ENERGY PREDICTED BY IDOCK:   -0.65 KCAL/MOL
REMARK 927      BINDING AFFINITY PREDICTED BY RF-SCORE:    0.00 PKD
ROOT
HETATM    1  C   UNL     1      -7.510   6.294  72.016  1.00  0.00    -0.094 C  
HETATM    2  C   UNL     1      -8.464   7.377  71.502  1.00  0.00    -0.112 C  
HETATM    3  C   UNL     1      -9.741   6.729  70.956  1.00  0.00    -0.182 C  
HETATM    4  O   UNL     1      -8.832   8.216  72.608  1.00  0.00    -0.177 OA 
HETATM    5  C   UNL     1      -7.742   8.250  70.441  1.00  0.00    -0.084 C  
HETATM    6  H   UNL     1      -9.424   8.888  72.289  1.00  0.00     0.000 HD 
ENDROOT
BRANCH   5   7
HETATM    7  N   UNL     1      -8.674   9.199  69.850  1.00  0.00    -0.149 NA 
HETATM    8  H   UNL     1      -9.334   9.717  70.430  1.00  0.00     0.000 HD 
BRANCH   7   9
HETATM    9  C   UNL     1      -8.642   9.378  68.481  1.00  0.00    -0.123 A  
HETATM   10  N   UNL     1      -8.639   8.338  67.662  1.00  0.00    -0.130 NA 
HETATM   11  C   UNL     1      -8.594   8.625  66.361  1.00  0.00    -0.119 A  
HETATM   12  N   UNL     1      -8.648  10.641  68.075  1.00  0.00    -0.120 NA 
HETATM   13  N   UNL     1      -8.582   9.865  65.870  1.00  0.00    -0.134 NA 
HETATM   14  C   UNL     1      -8.645  10.841  66.766  1.00  0.00    -0.136 A  
BRANCH  11  15
HETATM   15  C   UNL     1      -8.569   7.506  65.381  1.00  0.00    -0.049 A  
HETATM   16  C   UNL     1      -9.231   5.312  64.838  1.00  0.00     0.087 A  
HETATM   17  F   UNL     1      -9.190   2.941  65.234  1.00  0.00    -0.136 F  
HETATM   18  N   UNL     1      -9.233   6.361  65.711  1.00  0.00    -0.014 NA 
HETATM   19  C   UNL     1      -8.555   5.369  63.619  1.00  0.00    -0.004 A  
HETATM   20  C   UNL     1      -9.997   4.042  65.186  1.00  0.00    -0.198 C  
HETATM   21  C   UNL     1      -7.893   7.611  64.160  1.00  0.00    -0.133 A  
HETATM   22  C   UNL     1      -7.882   6.534  63.278  1.00  0.00    -0.104 A  
HETATM   23  F   UNL     1     -10.644   4.080  66.384  1.00  0.00    -0.058 F  
HETATM   24  F   UNL     1     -10.955   3.746  64.258  1.00  0.00    -0.282 F  
ENDBRANCH  11  15
BRANCH  14  25
HETATM   25  N   UNL     1      -8.802  12.161  66.339  1.00  0.00    -0.359 NA 
HETATM   26  H   UNL     1      -8.632  12.316  65.345  1.00  0.00     0.000 HD 
BRANCH  25  27
HETATM   27  C   UNL     1      -9.157  13.303  67.063  1.00  0.00    -0.232 A  
HETATM   28  C   UNL     1     -10.531  14.385  68.733  1.00  0.00    -0.244 A  
HETATM   29  C   UNL     1     -10.110  13.220  68.081  1.00  0.00    -0.241 A  
HETATM   30  N   UNL     1     -10.008  15.608  68.425  1.00  0.00    -0.208 NA 
HETATM   31  C   UNL     1     -11.627  14.315  69.786  1.00  0.00    -0.293 C  
HETATM   32  C   UNL     1      -9.089  15.666  67.444  1.00  0.00    -0.194 A  
HETATM   33  F   UNL     1     -12.722  15.064  69.467  1.00  0.00    -0.218 F  
HETATM   34  F   UNL     1     -12.105  13.049  69.989  1.00  0.00    -0.357 F  
HETATM   35  F   UNL     1     -11.221  14.748  71.015  1.00  0.00    -0.305 F  
HETATM   36  C   UNL     1      -8.658  14.563  66.733  1.00  0.00    -0.163 A  
ENDBRANCH  25  27
ENDBRANCH  14  25
ENDBRANCH   7   9
ENDBRANCH   5   7
TORSDOF 5
ENDMDL
MODEL      283
REMARK 921   NORMALIZED FREE ENERGY PREDICTED BY IDOCK:   -3.61 KCAL/MOL
REMARK 922        TOTAL FREE ENERGY PREDICTED BY IDOCK:   -5.83 KCAL/MOL
REMARK 923 INTER-LIGAND FREE ENERGY PREDICTED BY IDOCK:   -5.03 KCAL/MOL
REMARK 924 INTRA-LIGAND FREE ENERGY PREDICTED BY IDOCK:   -0.80 KCAL/MOL
REMARK 927      BINDING AFFINITY PREDICTED BY RF-SCORE:    0.00 PKD
ROOT
HETATM    1  C   UNL     1     -11.817   8.164  71.801  1.00  0.00    -0.346 C  
HETATM    2  C   UNL     1     -10.711   8.164  70.740  1.00  0.00    -0.222 C  
HETATM    3  C   UNL     1     -10.326   6.722  70.391  1.00  0.00    -0.223 C  
HETATM    4  O   UNL     1     -11.224   8.786  69.552  1.00  0.00    -0.436 OA 
HETATM    5  C   UNL     1      -9.501   8.994  71.246  1.00  0.00    -0.269 C  
HETATM    6  H   UNL     1     -10.538   8.786  68.894  1.00  0.00     0.000 HD 
ENDROOT
BRANCH   5   7
HETATM    7  N   UNL     1      -8.393   8.895  70.307  1.00  0.00    -0.131 NA 
HETATM    8  H   UNL     1      -7.759   8.095  70.326  1.00  0.00     0.000 HD 
BRANCH   7   9
HETATM    9  C   UNL     1      -8.222   9.912  69.389  1.00  0.00    -0.146 A  
HETATM   10  N   UNL     1      -7.535  10.998  69.704  1.00  0.00    -0.037 NA 
HETATM   11  C   UNL     1      -7.443  11.923  68.748  1.00  0.00    -0.100 A  
HETATM   12  N   UNL     1      -8.761   9.695  68.196  1.00  0.00    -0.120 NA 
HETATM   13  N   UNL     1      -7.967  11.791  67.528  1.00  0.00    -0.139 NA 
HETATM   14  C   UNL     1      -8.587  10.644  67.289  1.00  0.00    -0.126 A  
BRANCH  11  15
HETATM   15  C   UNL     1      -6.701  13.180  69.036  1.00  0.00    -0.103 A  
HETATM   16  C   UNL     1      -6.181  15.385  68.390  1.00  0.00    -0.109 A  
HETATM   17  F   UNL     1      -5.188  16.953  66.862  1.00  0.00    -0.146 F  
HETATM   18  N   UNL     1      -6.847  14.216  68.161  1.00  0.00    -0.112 NA 
HETATM   19  C   UNL     1      -5.339  15.549  69.490  1.00  0.00    -0.100 A  
HETATM   20  C   UNL     1      -6.364  16.557  67.434  1.00  0.00    -0.167 C  
HETATM   21  C   UNL     1      -5.880  13.309  70.161  1.00  0.00    -0.147 A  
HETATM   22  C   UNL     1      -5.192  14.498  70.386  1.00  0.00    -0.106 A  
HETATM   23  F   UNL     1      -7.217  16.317  66.400  1.00  0.00    -0.248 F  
HETATM   24  F   UNL     1      -6.850  17.667  68.064  1.00  0.00    -0.176 F  
ENDBRANCH  11  15
BRANCH  14  25
HETATM   25  N   UNL     1      -9.023  10.352  65.995  1.00  0.00    -0.154 NA 
HETATM   26  H   UNL     1      -9.638  11.051  65.579  1.00  0.00     0.000 HD 
BRANCH  25  27
HETATM   27  C   UNL     1      -8.746   9.249  65.182  1.00  0.00    -0.185 A  
HETATM   28  C   UNL     1      -8.052   6.946  64.934  1.00  0.00    -0.109 A  
HETATM   29  C   UNL     1      -8.424   8.017  65.756  1.00  0.00    -0.159 A  
HETATM   30  N   UNL     1      -8.028   7.060  63.574  1.00  0.00    -0.108 NA 
HETATM   31  C   UNL     1      -7.620   5.626  65.554  1.00  0.00    -0.083 C  
HETATM   32  C   UNL     1      -8.346   8.253  63.040  1.00  0.00    -0.071 A  
HETATM   33  F   UNL     1      -6.344   5.273  65.222  1.00  0.00    -0.031 F  
HETATM   34  F   UNL     1      -7.645   5.634  66.922  1.00  0.00    -0.089 F  
HETATM   35  F   UNL     1      -8.409   4.575  65.186  1.00  0.00    -0.111 F  
HETATM   36  C   UNL     1      -8.684   9.362  63.793  1.00  0.00    -0.223 A  
ENDBRANCH  25  27
ENDBRANCH  14  25
ENDBRANCH   7   9
ENDBRANCH   5   7
TORSDOF 5
ENDMDL
MODEL      284
REMARK 921   NORMALIZED FREE ENERGY PREDICTED BY IDOCK:   -3.58 KCAL/MOL
REMARK 922        TOTAL FREE ENERGY PREDICTED BY IDOCK:   -5.79 KCAL/MOL
REMARK 923 INTER-LIGAND FREE ENERGY PREDICTED BY IDOCK:   -4.85 KCAL/MOL
REMARK 924 INTRA-LIGAND FREE ENERGY PREDICTED BY IDOCK:   -0.94 KCAL/MOL
REMARK 927      BINDING AFFINITY PREDICTED BY RF-SCORE:    0.00 PKD
ROOT
HETATM    1  C   UNL     1     -12.507   9.934  70.178  1.00  0.00     0.078 C  
HETATM    2  C   UNL     1     -11.071   9.399  70.197  1.00  0.00    -0.242 C  
HETATM    3  C   UNL     1     -10.607   9.206  71.645  1.00  0.00    -0.427 C  
HETATM    4  O   UNL     1     -11.059   8.115  69.553  1.00  0.00    -0.429 OA 
HETATM    5  C   UNL     1     -10.146  10.358  69.401  1.00  0.00    -0.229 C  
HETATM    6  H   UNL     1     -10.168   7.784  69.565  1.00  0.00     0.000 HD 
ENDROOT
BRANCH   5   7
HETATM    7  N   UNL     1      -8.758   9.934  69.520  1.00  0.00    -0.176 NA 
HETATM    8  H   UNL     1      -8.075  10.506  70.018  1.00  0.00     0.000 HD 
BRANCH   7   9
HETATM    9  C   UNL     1      -8.390   8.735  68.940  1.00  0.00    -0.127 A  
HETATM   10  N   UNL     1      -8.420   8.583  67.626  1.00  0.00    -0.128 NA 
HETATM   11  C   UNL     1      -8.057   7.382  67.174  1.00  0.00    -0.114 A  
HETATM   12  N   UNL     1      -7.988   7.797  69.787  1.00  0.00    -0.113 NA 
HETATM   13  N   UNL     1      -7.653   6.380  67.957  1.00  0.00    -0.101 NA 
HETATM   14  C   UNL     1      -7.602   6.647  69.255  1.00  0.00    -0.100 A  
BRANCH  11  15
HETATM   15  C   UNL     1      -8.083   7.130  65.708  1.00  0.00    -0.130 A  
HETATM   16  C   UNL     1      -8.410   5.596  63.950  1.00  0.00    -0.058 A  
HETATM   17  F   UNL     1      -7.773   3.624  62.731  1.00  0.00    -0.054 F  
HETATM   18  N   UNL     1      -8.377   5.867  65.288  1.00  0.00    -0.144 NA 
HETATM   19  C   UNL     1      -8.135   6.575  62.995  1.00  0.00    -0.047 A  
HETATM   20  C   UNL     1      -8.768   4.195  63.473  1.00  0.00    -0.113 C  
HETATM   21  C   UNL     1      -7.819   8.145  64.782  1.00  0.00    -0.137 A  
HETATM   22  C   UNL     1      -7.839   7.863  63.419  1.00  0.00    -0.139 A  
HETATM   23  F   UNL     1      -9.041   3.308  64.471  1.00  0.00    -0.115 F  
HETATM   24  F   UNL     1      -9.869   4.190  62.664  1.00  0.00    -0.137 F  
ENDBRANCH  11  15
BRANCH  14  25
HETATM   25  N   UNL     1      -7.039   5.716  70.129  1.00  0.00    -0.064 NA 
HETATM   26  H   UNL     1      -6.038   5.563  70.010  1.00  0.00     0.000 HD 
BRANCH  25  27
HETATM   27  C   UNL     1      -7.636   4.961  71.143  1.00  0.00    -0.082 A  
HETATM   28  C   UNL     1      -9.478   4.568  72.659  1.00  0.00    -0.134 A  
HETATM   29  C   UNL     1      -8.928   5.265  71.577  1.00  0.00    -0.149 A  
HETATM   30  N   UNL     1      -8.798   3.566  73.287  1.00  0.00    -0.088 NA 
HETATM   31  C   UNL     1     -10.853   4.948  73.190  1.00  0.00    -0.282 C  
HETATM   32  C   UNL     1      -7.556   3.284  72.852  1.00  0.00    -0.055 A  
HETATM   33  F   UNL     1     -10.829   5.342  74.496  1.00  0.00    -0.260 F  
HETATM   34  F   UNL     1     -11.428   5.988  72.512  1.00  0.00    -0.294 F  
HETATM   35  F   UNL     1     -11.757   3.929  73.121  1.00  0.00    -0.233 F  
HETATM   36  C   UNL     1      -6.937   3.959  71.817  1.00  0.00    -0.027 A  
ENDBRANCH  25  27
ENDBRANCH  14  25
ENDBRANCH   7   9
ENDBRANCH   5   7
TORSDOF 5
ENDMDL
MODEL      285
REMARK 921   NORMALIZED FREE ENERGY PREDICTED BY IDOCK:   -3.56 KCAL/MOL
REMARK 922        TOTAL FREE ENERGY PREDICTED BY IDOCK:   -5.77 KCAL/MOL
REMARK 923 INTER-LIGAND FREE ENERGY PREDICTED BY IDOCK:   -5.34 KCAL/MOL
REMARK 924 INTRA-LIGAND FREE ENERGY PREDICTED BY IDOCK:   -0.43 KCAL/MOL
REMARK 927      BINDING AFFINITY PREDICTED BY RF-SCORE:    0.00 PKD
ROOT
HETATM    1  C   UNL     1     -10.010   4.849  73.105  1.00  0.00    -0.183 C  
HETATM    2  C   UNL     1      -9.730   6.308  72.733  1.00  0.00    -0.158 C  
HETATM    3  C   UNL     1     -10.943   6.903  72.009  1.00  0.00    -0.266 C  
HETATM    4  O   UNL     1      -9.528   7.053  73.944  1.00  0.00    -0.199 OA 
HETATM    5  C   UNL     1      -8.434   6.391  71.883  1.00  0.00    -0.123 C  
HETATM    6  H   UNL     1      -9.354   7.959  73.713  1.00  0.00     0.000 HD 
ENDROOT
BRANCH   5   7
HETATM    7  N   UNL     1      -8.226   7.753  71.411  1.00  0.00    -0.097 NA 
HETATM    8  H   UNL     1      -7.731   8.437  71.985  1.00  0.00     0.000 HD 
BRANCH   7   9
HETATM    9  C   UNL     1      -8.718   8.095  70.167  1.00  0.00    -0.130 A  
HETATM   10  N   UNL     1      -8.930   9.362  69.849  1.00  0.00    -0.182 NA 
HETATM   11  C   UNL     1      -9.418   9.578  68.627  1.00  0.00    -0.142 A  
HETATM   12  N   UNL     1      -8.919   7.078  69.339  1.00  0.00    -0.139 NA 
HETATM   13  N   UNL     1      -9.662   8.614  67.739  1.00  0.00    -0.159 NA 
HETATM   14  C   UNL     1      -9.364   7.382  68.129  1.00  0.00    -0.135 A  
BRANCH  11  15
HETATM   15  C   UNL     1      -9.700  10.977  68.206  1.00  0.00    -0.177 A  
HETATM   16  C   UNL     1     -10.833  12.999  68.625  1.00  0.00    -0.259 A  
HETATM   17  F   UNL     1     -12.861  14.273  68.831  1.00  0.00    -0.055 F  
HETATM   18  N   UNL     1     -10.548  11.712  68.980  1.00  0.00    -0.189 NA 
HETATM   19  C   UNL     1     -10.291  13.584  67.480  1.00  0.00    -0.237 A  
HETATM   20  C   UNL     1     -11.754  13.837  69.502  1.00  0.00    -0.323 C  
HETATM   21  C   UNL     1      -9.121  11.532  67.059  1.00  0.00    -0.175 A  
HETATM   22  C   UNL     1      -9.424  12.840  66.692  1.00  0.00    -0.249 A  
HETATM   23  F   UNL     1     -12.222  13.195  70.609  1.00  0.00    -0.396 F  
HETATM   24  F   UNL     1     -11.143  14.969  69.962  1.00  0.00    -0.243 F  
ENDBRANCH  11  15
BRANCH  14  25
HETATM   25  N   UNL     1      -9.433   6.332  67.212  1.00  0.00    -0.117 NA 
HETATM   26  H   UNL     1     -10.011   5.543  67.502  1.00  0.00     0.000 HD 
BRANCH  25  27
HETATM   27  C   UNL     1      -8.834   6.194  65.957  1.00  0.00    -0.153 A  
HETATM   28  C   UNL     1      -7.514   7.113  64.150  1.00  0.00    -0.099 A  
HETATM   29  C   UNL     1      -8.029   7.217  65.448  1.00  0.00    -0.125 A  
HETATM   30  N   UNL     1      -7.748   6.017  63.372  1.00  0.00    -0.090 NA 
HETATM   31  C   UNL     1      -6.706   8.258  63.558  1.00  0.00    -0.084 C  
HETATM   32  C   UNL     1      -8.522   5.041  63.881  1.00  0.00    -0.129 A  
HETATM   33  F   UNL     1      -7.266   8.777  62.427  1.00  0.00    -0.098 F  
HETATM   34  F   UNL     1      -6.565   9.320  64.408  1.00  0.00    -0.080 F  
HETATM   35  F   UNL     1      -5.434   7.899  63.217  1.00  0.00    -0.046 F  
HETATM   36  C   UNL     1      -9.094   5.096  65.137  1.00  0.00    -0.101 A  
ENDBRANCH  25  27
ENDBRANCH  14  25
ENDBRANCH   7   9
ENDBRANCH   5   7
TORSDOF 5
ENDMDL
MODEL      286
REMARK 921   NORMALIZED FREE ENERGY PREDICTED BY IDOCK:   -3.46 KCAL/MOL
REMARK 922        TOTAL FREE ENERGY PREDICTED BY IDOCK:   -5.63 KCAL/MOL
REMARK 923 INTER-LIGAND FREE ENERGY PREDICTED BY IDOCK:   -4.71 KCAL/MOL
REMARK 924 INTRA-LIGAND FREE ENERGY PREDICTED BY IDOCK:   -0.92 KCAL/MOL
REMARK 927      BINDING AFFINITY PREDICTED BY RF-SCORE:    0.00 PKD
ROOT
HETATM    1  C   UNL     1     -13.750   9.379  71.347  1.00  0.00    -0.309 C  
HETATM    2  C   UNL     1     -12.256   9.042  71.398  1.00  0.00    -0.323 C  
HETATM    3  C   UNL     1     -11.862   8.642  72.825  1.00  0.00    -0.058 C  
HETATM    4  O   UNL     1     -12.018   7.914  70.541  1.00  0.00    -0.480 OA 
HETATM    5  C   UNL     1     -11.430  10.245  70.871  1.00  0.00    -0.339 C  
HETATM    6  H   UNL     1     -11.091   7.705  70.573  1.00  0.00     0.000 HD 
ENDROOT
BRANCH   5   7
HETATM    7  N   UNL     1     -10.006   9.990  71.035  1.00  0.00    -0.130 NA 
HETATM    8  H   UNL     1      -9.497  10.357  71.840  1.00  0.00     0.000 HD 
BRANCH   7   9
HETATM    9  C   UNL     1      -9.362   9.238  70.073  1.00  0.00    -0.209 A  
HETATM   10  N   UNL     1      -9.333   9.637  68.811  1.00  0.00    -0.145 NA 
HETATM   11  C   UNL     1      -8.695   8.829  67.963  1.00  0.00    -0.141 A  
HETATM   12  N   UNL     1      -8.769   8.137  70.517  1.00  0.00    -0.133 NA 
HETATM   13  N   UNL     1      -8.085   7.699  68.324  1.00  0.00    -0.123 NA 
HETATM   14  C   UNL     1      -8.121   7.413  69.619  1.00  0.00    -0.128 A  
BRANCH  11  15
HETATM   15  C   UNL     1      -8.637   9.203  66.524  1.00  0.00    -0.127 A  
HETATM   16  C   UNL     1      -8.088   8.580  64.320  1.00  0.00    -0.155 A  
HETATM   17  F   UNL     1      -6.479   7.954  62.647  1.00  0.00    -0.078 F  
HETATM   18  N   UNL     1      -8.158   8.274  65.648  1.00  0.00    -0.116 NA 
HETATM   19  C   UNL     1      -8.479   9.827  63.831  1.00  0.00    -0.186 A  
HETATM   20  C   UNL     1      -7.585   7.536  63.331  1.00  0.00    -0.118 C  
HETATM   21  C   UNL     1      -9.055  10.459  66.072  1.00  0.00    -0.187 A  
HETATM   22  C   UNL     1      -8.970  10.773  64.719  1.00  0.00    -0.194 A  
HETATM   23  F   UNL     1      -7.245   6.342  63.892  1.00  0.00    -0.048 F  
HETATM   24  F   UNL     1      -8.513   7.243  62.372  1.00  0.00    -0.131 F  
ENDBRANCH  11  15
BRANCH  14  25
HETATM   25  N   UNL     1      -7.374   6.340  70.109  1.00  0.00    -0.083 NA 
HETATM   26  H   UNL     1      -6.832   6.540  70.949  1.00  0.00     0.000 HD 
BRANCH  25  27
HETATM   27  C   UNL     1      -7.255   5.034  69.626  1.00  0.00    -0.056 A  
HETATM   28  C   UNL     1      -7.939   3.293  68.093  1.00  0.00    -0.070 A  
HETATM   29  C   UNL     1      -7.990   4.629  68.509  1.00  0.00    -0.080 A  
HETATM   30  N   UNL     1      -7.159   2.372  68.731  1.00  0.00    -0.044 NA 
HETATM   31  C   UNL     1      -8.800   2.824  66.929  1.00  0.00    -0.140 C  
HETATM   32  C   UNL     1      -6.456   2.782  69.802  1.00  0.00    -0.029 A  
HETATM   33  F   UNL     1      -9.679   1.841  67.277  1.00  0.00    -0.071 F  
HETATM   34  F   UNL     1      -9.569   3.818  66.389  1.00  0.00    -0.172 F  
HETATM   35  F   UNL     1      -8.072   2.327  65.887  1.00  0.00    -0.078 F  
HETATM   36  C   UNL     1      -6.490   4.075  70.290  1.00  0.00    -0.032 A  
ENDBRANCH  25  27
ENDBRANCH  14  25
ENDBRANCH   7   9
ENDBRANCH   5   7
TORSDOF 5
ENDMDL
MODEL      287
REMARK 921   NORMALIZED FREE ENERGY PREDICTED BY IDOCK:   -3.44 KCAL/MOL
REMARK 922        TOTAL FREE ENERGY PREDICTED BY IDOCK:   -5.61 KCAL/MOL
REMARK 923 INTER-LIGAND FREE ENERGY PREDICTED BY IDOCK:   -4.66 KCAL/MOL
REMARK 924 INTRA-LIGAND FREE ENERGY PREDICTED BY IDOCK:   -0.95 KCAL/MOL
REMARK 927      BINDING AFFINITY PREDICTED BY RF-SCORE:    0.00 PKD
ROOT
HETATM    1  C   UNL     1      -6.073   4.124  71.237  1.00  0.00    -0.014 C  
HETATM    2  C   UNL     1      -6.978   5.357  71.151  1.00  0.00    -0.060 C  
HETATM    3  C   UNL     1      -8.434   4.921  70.952  1.00  0.00    -0.116 C  
HETATM    4  O   UNL     1      -6.895   6.066  72.397  1.00  0.00    -0.070 OA 
HETATM    5  C   UNL     1      -6.480   6.294  70.018  1.00  0.00    -0.043 C  
HETATM    6  H   UNL     1      -7.456   6.832  72.344  1.00  0.00     0.000 HD 
ENDROOT
BRANCH   5   7
HETATM    7  N   UNL     1      -7.405   7.403  69.838  1.00  0.00    -0.081 NA 
HETATM    8  H   UNL     1      -7.873   7.831  70.637  1.00  0.00     0.000 HD 
BRANCH   7   9
HETATM    9  C   UNL     1      -7.632   7.862  68.555  1.00  0.00    -0.105 A  
HETATM   10  N   UNL     1      -7.739   7.016  67.543  1.00  0.00    -0.109 NA 
HETATM   11  C   UNL     1      -7.945   7.566  66.346  1.00  0.00    -0.107 A  
HETATM   12  N   UNL     1      -7.761   9.177  68.438  1.00  0.00    -0.093 NA 
HETATM   13  N   UNL     1      -8.073   8.878  66.140  1.00  0.00    -0.112 NA 
HETATM   14  C   UNL     1      -8.008   9.641  67.223  1.00  0.00    -0.106 A  
BRANCH  11  15
HETATM   15  C   UNL     1      -8.057   6.677  65.158  1.00  0.00    -0.133 A  
HETATM   16  C   UNL     1      -8.919   4.696  64.222  1.00  0.00    -0.136 A  
HETATM   17  F   UNL     1      -9.050   2.297  64.121  1.00  0.00    -0.096 F  
HETATM   18  N   UNL     1      -8.794   5.537  65.289  1.00  0.00    -0.141 NA 
HETATM   19  C   UNL     1      -8.301   4.959  63.000  1.00  0.00    -0.115 A  
HETATM   20  C   UNL     1      -9.767   3.437  64.350  1.00  0.00    -0.168 C  
HETATM   21  C   UNL     1      -7.435   6.988  63.945  1.00  0.00    -0.096 A  
HETATM   22  C   UNL     1      -7.553   6.121  62.862  1.00  0.00    -0.081 A  
HETATM   23  F   UNL     1     -10.351   3.268  65.570  1.00  0.00     0.109 F  
HETATM   24  F   UNL     1     -10.790   3.407  63.444  1.00  0.00    -0.210 F  
ENDBRANCH  11  15
BRANCH  14  25
HETATM   25  N   UNL     1      -8.292  11.004  67.124  1.00  0.00    -0.129 NA 
HETATM   26  H   UNL     1      -7.475  11.610  67.044  1.00  0.00     0.000 HD 
BRANCH  25  27
HETATM   27  C   UNL     1      -9.522  11.667  67.118  1.00  0.00    -0.176 A  
HETATM   28  C   UNL     1     -11.029  13.302  68.069  1.00  0.00    -0.244 A  
HETATM   29  C   UNL     1      -9.761  12.711  68.016  1.00  0.00    -0.215 A  
HETATM   30  N   UNL     1     -12.039  12.910  67.240  1.00  0.00    -0.381 NA 
HETATM   31  C   UNL     1     -11.322  14.384  69.099  1.00  0.00    -0.277 C  
HETATM   32  C   UNL     1     -11.788  11.906  66.380  1.00  0.00    -0.033 A  
HETATM   33  F   UNL     1     -12.330  14.046  69.954  1.00  0.00    -0.341 F  
HETATM   34  F   UNL     1     -10.253  14.672  69.902  1.00  0.00    -0.136 F  
HETATM   35  F   UNL     1     -11.685  15.575  68.541  1.00  0.00    -0.328 F  
HETATM   36  C   UNL     1     -10.574  11.252  66.301  1.00  0.00    -0.315 A  
ENDBRANCH  25  27
ENDBRANCH  14  25
ENDBRANCH   7   9
ENDBRANCH   5   7
TORSDOF 5
ENDMDL
MODEL      288
REMARK 921   NORMALIZED FREE ENERGY PREDICTED BY IDOCK:   -3.39 KCAL/MOL
REMARK 922        TOTAL FREE ENERGY PREDICTED BY IDOCK:   -5.55 KCAL/MOL
REMARK 923 INTER-LIGAND FREE ENERGY PREDICTED BY IDOCK:   -4.62 KCAL/MOL
REMARK 924 INTRA-LIGAND FREE ENERGY PREDICTED BY IDOCK:   -0.92 KCAL/MOL
REMARK 927      BINDING AFFINITY PREDICTED BY RF-SCORE:    0.00 PKD
ROOT
HETATM    1  C   UNL     1      -7.730   8.524  74.543  1.00  0.00    -0.213 C  
HETATM    2  C   UNL     1      -7.147   8.498  73.126  1.00  0.00    -0.005 C  
HETATM    3  C   UNL     1      -6.443   7.159  72.878  1.00  0.00    -0.063 C  
HETATM    4  O   UNL     1      -8.230   8.609  72.189  1.00  0.00    -0.285 OA 
HETATM    5  C   UNL     1      -6.199   9.711  72.928  1.00  0.00     0.698 C  
HETATM    6  H   UNL     1      -7.868   8.593  71.311  1.00  0.00     0.000 HD 
ENDROOT
BRANCH   5   7
HETATM    7  N   UNL     1      -5.537   9.628  71.635  1.00  0.00    -0.123 NA 
HETATM    8  H   UNL     1      -4.738   9.008  71.493  1.00  0.00     0.000 HD 
BRANCH   7   9
HETATM    9  C   UNL     1      -6.018  10.410  70.603  1.00  0.00    -0.105 A  
HETATM   10  N   UNL     1      -6.866   9.913  69.717  1.00  0.00    -0.070 NA 
HETATM   11  C   UNL     1      -7.257  10.752  68.757  1.00  0.00    -0.091 A  
HETATM   12  N   UNL     1      -5.596  11.668  70.602  1.00  0.00    -0.191 NA 
HETATM   13  N   UNL     1      -6.870  12.025  68.673  1.00  0.00    -0.085 NA 
HETATM   14  C   UNL     1      -6.065  12.447  69.640  1.00  0.00    -0.135 A  
BRANCH  11  15
HETATM   15  C   UNL     1      -8.196  10.258  67.713  1.00  0.00    -0.110 A  
HETATM   16  C   UNL     1      -9.308   8.427  66.733  1.00  0.00    -0.184 A  
HETATM   17  F   UNL     1      -9.284   6.350  65.522  1.00  0.00    -0.103 F  
HETATM   18  N   UNL     1      -8.454   8.919  67.677  1.00  0.00    -0.120 NA 
HETATM   19  C   UNL     1      -9.917   9.254  65.789  1.00  0.00    -0.215 A  
HETATM   20  C   UNL     1      -9.626   6.938  66.707  1.00  0.00    -0.168 C  
HETATM   21  C   UNL     1      -8.799  11.124  66.795  1.00  0.00    -0.162 A  
HETATM   22  C   UNL     1      -9.660  10.618  65.825  1.00  0.00    -0.258 A  
HETATM   23  F   UNL     1      -9.005   6.208  67.676  1.00  0.00    -0.116 F  
HETATM   24  F   UNL     1     -10.962   6.691  66.858  1.00  0.00    -0.372 F  
ENDBRANCH  11  15
BRANCH  14  25
HETATM   25  N   UNL     1      -5.741  13.802  69.725  1.00  0.00    -0.101 NA 
HETATM   26  H   UNL     1      -4.792  13.999  70.044  1.00  0.00     0.000 HD 
BRANCH  25  27
HETATM   27  C   UNL     1      -6.514  14.931  69.440  1.00  0.00    -0.131 A  
HETATM   28  C   UNL     1      -8.448  15.940  68.396  1.00  0.00    -0.176 A  
HETATM   29  C   UNL     1      -7.729  14.796  68.764  1.00  0.00    -0.136 A  
HETATM   30  N   UNL     1      -8.011  17.193  68.711  1.00  0.00    -0.266 NA 
HETATM   31  C   UNL     1      -9.731  15.806  67.588  1.00  0.00    -0.222 C  
HETATM   32  C   UNL     1      -6.841  17.303  69.365  1.00  0.00    -0.159 A  
HETATM   33  F   UNL     1      -9.669  16.439  66.381  1.00  0.00    -0.238 F  
HETATM   34  F   UNL     1     -10.055  14.509  67.295  1.00  0.00    -0.239 F  
HETATM   35  F   UNL     1     -10.824  16.315  68.225  1.00  0.00    -0.279 F  
HETATM   36  C   UNL     1      -6.062  16.219  69.724  1.00  0.00    -0.198 A  
ENDBRANCH  25  27
ENDBRANCH  14  25
ENDBRANCH   7   9
ENDBRANCH   5   7
TORSDOF 5
ENDMDL
MODEL      289
REMARK 921   NORMALIZED FREE ENERGY PREDICTED BY IDOCK:   -3.39 KCAL/MOL
REMARK 922        TOTAL FREE ENERGY PREDICTED BY IDOCK:   -5.54 KCAL/MOL
REMARK 923 INTER-LIGAND FREE ENERGY PREDICTED BY IDOCK:   -5.64 KCAL/MOL
REMARK 924 INTRA-LIGAND FREE ENERGY PREDICTED BY IDOCK:    0.10 KCAL/MOL
REMARK 927      BINDING AFFINITY PREDICTED BY RF-SCORE:    0.00 PKD
ROOT
HETATM    1  C   UNL     1      -5.957  13.219  71.696  1.00  0.00     0.604 C  
HETATM    2  C   UNL     1      -6.130  13.825  70.300  1.00  0.00    -0.133 C  
HETATM    3  C   UNL     1      -7.506  14.494  70.191  1.00  0.00     0.414 C  
HETATM    4  O   UNL     1      -5.130  14.840  70.121  1.00  0.00    -0.090 OA 
HETATM    5  C   UNL     1      -5.918  12.728  69.223  1.00  0.00    -0.093 C  
HETATM    6  H   UNL     1      -5.237  15.216  69.254  1.00  0.00     0.000 HD 
ENDROOT
BRANCH   5   7
HETATM    7  N   UNL     1      -6.208  13.259  67.899  1.00  0.00    -0.128 NA 
HETATM    8  H   UNL     1      -5.458  13.449  67.234  1.00  0.00     0.000 HD 
BRANCH   7   9
HETATM    9  C   UNL     1      -7.527  13.497  67.566  1.00  0.00    -0.167 A  
HETATM   10  N   UNL     1      -7.921  14.701  67.184  1.00  0.00    -0.192 NA 
HETATM   11  C   UNL     1      -9.218  14.823  66.898  1.00  0.00    -0.245 A  
HETATM   12  N   UNL     1      -8.328  12.441  67.630  1.00  0.00    -0.157 NA 
HETATM   13  N   UNL     1     -10.092  13.817  66.950  1.00  0.00    -0.256 NA 
HETATM   14  C   UNL     1      -9.592  12.636  67.289  1.00  0.00    -0.203 A  
BRANCH  11  15
HETATM   15  C   UNL     1      -9.737  16.153  66.479  1.00  0.00    -0.263 A  
HETATM   16  C   UNL     1      -9.857  18.470  66.889  1.00  0.00    -0.334 A  
HETATM   17  F   UNL     1     -10.537  20.336  68.244  1.00  0.00    -0.489 F  
HETATM   18  N   UNL     1      -9.399  17.233  67.240  1.00  0.00    -0.234 NA 
HETATM   19  C   UNL     1     -10.677  18.662  65.777  1.00  0.00    -0.224 A  
HETATM   20  C   UNL     1      -9.458  19.685  67.716  1.00  0.00    -0.348 C  
HETATM   21  C   UNL     1     -10.543  16.305  65.346  1.00  0.00    -0.371 A  
HETATM   22  C   UNL     1     -11.020  17.566  64.997  1.00  0.00     0.458 A  
HETATM   23  F   UNL     1      -8.640  19.409  68.771  1.00  0.00    -0.374 F  
HETATM   24  F   UNL     1      -8.799  20.623  66.973  1.00  0.00    -0.404 F  
ENDBRANCH  11  15
BRANCH  14  25
HETATM   25  N   UNL     1     -10.397  11.498  67.212  1.00  0.00    -0.201 NA 
HETATM   26  H   UNL     1     -11.038  11.476  66.418  1.00  0.00     0.000 HD 
BRANCH  25  27
HETATM   27  C   UNL     1     -10.461  10.385  68.054  1.00  0.00    -0.196 A  
HETATM   28  C   UNL     1     -10.462   7.987  68.365  1.00  0.00    -0.163 A  
HETATM   29  C   UNL     1     -10.298   9.099  67.531  1.00  0.00    -0.324 A  
HETATM   30  N   UNL     1     -10.745   8.121  69.693  1.00  0.00    -0.222 NA 
HETATM   31  C   UNL     1     -10.368   6.582  67.787  1.00  0.00    -0.192 C  
HETATM   32  C   UNL     1     -10.894   9.366  70.178  1.00  0.00    -0.249 A  
HETATM   33  F   UNL     1     -11.515   5.861  67.947  1.00  0.00    -0.246 F  
HETATM   34  F   UNL     1     -10.119   6.564  66.441  1.00  0.00    -0.219 F  
HETATM   35  F   UNL     1      -9.372   5.835  68.346  1.00  0.00    -0.119 F  
HETATM   36  C   UNL     1     -10.785  10.507  69.405  1.00  0.00    -0.277 A  
ENDBRANCH  25  27
ENDBRANCH  14  25
ENDBRANCH   7   9
ENDBRANCH   5   7
TORSDOF 5
ENDMDL
MODEL      290
REMARK 921   NORMALIZED FREE ENERGY PREDICTED BY IDOCK:   -3.33 KCAL/MOL
REMARK 922        TOTAL FREE ENERGY PREDICTED BY IDOCK:   -5.47 KCAL/MOL
REMARK 923 INTER-LIGAND FREE ENERGY PREDICTED BY IDOCK:   -4.47 KCAL/MOL
REMARK 924 INTRA-LIGAND FREE ENERGY PREDICTED BY IDOCK:   -1.00 KCAL/MOL
REMARK 927      BINDING AFFINITY PREDICTED BY RF-SCORE:    0.00 PKD
ROOT
HETATM    1  C   UNL     1      -9.020   2.333  72.657  1.00  0.00    -0.094 C  
HETATM    2  C   UNL     1      -9.159   3.856  72.751  1.00  0.00    -0.104 C  
HETATM    3  C   UNL     1     -10.221   4.343  71.758  1.00  0.00    -0.201 C  
HETATM    4  O   UNL     1      -9.605   4.189  74.075  1.00  0.00    -0.104 OA 
HETATM    5  C   UNL     1      -7.777   4.523  72.515  1.00  0.00    -0.086 C  
HETATM    6  H   UNL     1      -9.691   5.133  74.132  1.00  0.00     0.000 HD 
ENDROOT
BRANCH   5   7
HETATM    7  N   UNL     1      -7.917   5.971  72.471  1.00  0.00    -0.105 NA 
HETATM    8  H   UNL     1      -8.095   6.508  73.320  1.00  0.00     0.000 HD 
BRANCH   7   9
HETATM    9  C   UNL     1      -7.803   6.601  71.246  1.00  0.00    -0.102 A  
HETATM   10  N   UNL     1      -7.428   5.926  70.172  1.00  0.00    -0.080 NA 
HETATM   11  C   UNL     1      -7.338   6.634  69.045  1.00  0.00    -0.094 A  
HETATM   12  N   UNL     1      -8.124   7.888  71.239  1.00  0.00    -0.093 NA 
HETATM   13  N   UNL     1      -7.628   7.933  68.954  1.00  0.00    -0.098 NA 
HETATM   14  C   UNL     1      -8.051   8.508  70.072  1.00  0.00    -0.111 A  
BRANCH  11  15
HETATM   15  C   UNL     1      -6.904   5.946  67.799  1.00  0.00    -0.060 A  
HETATM   16  C   UNL     1      -7.050   5.782  65.454  1.00  0.00    -0.069 A  
HETATM   17  F   UNL     1      -8.296   5.332  63.448  1.00  0.00    -0.109 F  
HETATM   18  N   UNL     1      -7.423   6.389  66.619  1.00  0.00    -0.081 NA 
HETATM   19  C   UNL     1      -6.160   4.708  65.437  1.00  0.00    -0.026 A  
HETATM   20  C   UNL     1      -7.601   6.291  64.129  1.00  0.00    -0.098 C  
HETATM   21  C   UNL     1      -5.995   4.883  67.824  1.00  0.00    -0.023 A  
HETATM   22  C   UNL     1      -5.627   4.257  66.636  1.00  0.00    -0.018 A  
HETATM   23  F   UNL     1      -8.446   7.354  64.237  1.00  0.00    -0.076 F  
HETATM   24  F   UNL     1      -6.611   6.691  63.276  1.00  0.00    -0.038 F  
ENDBRANCH  11  15
BRANCH  14  25
HETATM   25  N   UNL     1      -8.530   9.819  70.035  1.00  0.00    -0.205 NA 
HETATM   26  H   UNL     1      -8.113  10.451  70.718  1.00  0.00     0.000 HD 
BRANCH  25  27
HETATM   27  C   UNL     1      -9.493  10.400  69.204  1.00  0.00    -0.208 A  
HETATM   28  C   UNL     1     -10.129  12.078  67.583  1.00  0.00    -0.197 A  
HETATM   29  C   UNL     1      -9.139  11.437  68.338  1.00  0.00    -0.179 A  
HETATM   30  N   UNL     1     -11.437  11.694  67.643  1.00  0.00    -0.417 NA 
HETATM   31  C   UNL     1      -9.765  13.261  66.698  1.00  0.00    -0.270 C  
HETATM   32  C   UNL     1     -11.758  10.691  68.481  1.00  0.00    -0.127 A  
HETATM   33  F   UNL     1     -10.422  14.406  67.043  1.00  0.00    -0.260 F  
HETATM   34  F   UNL     1      -8.436  13.583  66.743  1.00  0.00    -0.199 F  
HETATM   35  F   UNL     1     -10.041  13.051  65.378  1.00  0.00    -0.282 F  
HETATM   36  C   UNL     1     -10.839  10.042  69.283  1.00  0.00    -0.261 A  
ENDBRANCH  25  27
ENDBRANCH  14  25
ENDBRANCH   7   9
ENDBRANCH   5   7
TORSDOF 5
ENDMDL
MODEL      291
REMARK 921   NORMALIZED FREE ENERGY PREDICTED BY IDOCK:   -3.28 KCAL/MOL
REMARK 922        TOTAL FREE ENERGY PREDICTED BY IDOCK:   -5.40 KCAL/MOL
REMARK 923 INTER-LIGAND FREE ENERGY PREDICTED BY IDOCK:   -4.33 KCAL/MOL
REMARK 924 INTRA-LIGAND FREE ENERGY PREDICTED BY IDOCK:   -1.07 KCAL/MOL
REMARK 927      BINDING AFFINITY PREDICTED BY RF-SCORE:    0.00 PKD
ROOT
HETATM    1  C   UNL     1     -10.523   2.267  72.652  1.00  0.00    -0.214 C  
HETATM    2  C   UNL     1     -10.147   3.733  72.887  1.00  0.00    -0.157 C  
HETATM    3  C   UNL     1     -11.397   4.537  73.265  1.00  0.00    -0.364 C  
HETATM    4  O   UNL     1      -9.232   3.793  73.993  1.00  0.00    -0.090 OA 
HETATM    5  C   UNL     1      -9.436   4.299  71.629  1.00  0.00    -0.148 C  
HETATM    6  H   UNL     1      -8.998   4.703  74.138  1.00  0.00     0.000 HD 
ENDROOT
BRANCH   5   7
HETATM    7  N   UNL     1      -9.191   5.725  71.787  1.00  0.00    -0.145 NA 
HETATM    8  H   UNL     1      -9.111   6.144  72.714  1.00  0.00     0.000 HD 
BRANCH   7   9
HETATM    9  C   UNL     1      -9.067   6.497  70.648  1.00  0.00    -0.148 A  
HETATM   10  N   UNL     1      -8.897   5.931  69.464  1.00  0.00    -0.122 NA 
HETATM   11  C   UNL     1      -8.777   6.769  68.433  1.00  0.00    -0.123 A  
HETATM   12  N   UNL     1      -9.165   7.806  70.837  1.00  0.00    -0.152 NA 
HETATM   13  N   UNL     1      -8.849   8.097  68.539  1.00  0.00    -0.134 NA 
HETATM   14  C   UNL     1      -9.078   8.567  69.757  1.00  0.00    -0.153 A  
BRANCH  11  15
HETATM   15  C   UNL     1      -8.565   6.206  67.073  1.00  0.00    -0.108 A  
HETATM   16  C   UNL     1      -8.022   6.593  64.813  1.00  0.00    -0.118 A  
HETATM   17  F   UNL     1      -8.505   7.567  62.669  1.00  0.00    -0.122 F  
HETATM   18  N   UNL     1      -8.224   7.072  66.076  1.00  0.00    -0.122 NA 
HETATM   19  C   UNL     1      -8.169   5.240  64.507  1.00  0.00    -0.135 A  
HETATM   20  C   UNL     1      -7.611   7.549  63.701  1.00  0.00    -0.118 C  
HETATM   21  C   UNL     1      -8.705   4.839  66.812  1.00  0.00    -0.107 A  
HETATM   22  C   UNL     1      -8.512   4.355  65.520  1.00  0.00    -0.116 A  
HETATM   23  F   UNL     1      -7.471   8.847  64.092  1.00  0.00    -0.100 F  
HETATM   24  F   UNL     1      -6.415   7.202  63.137  1.00  0.00    -0.048 F  
ENDBRANCH  11  15
BRANCH  14  25
HETATM   25  N   UNL     1      -9.329   9.929  69.936  1.00  0.00    -0.280 NA 
HETATM   26  H   UNL     1      -9.683  10.185  70.857  1.00  0.00     0.000 HD 
BRANCH  25  27
HETATM   27  C   UNL     1      -9.170  10.995  69.046  1.00  0.00    -0.064 A  
HETATM   28  C   UNL     1      -7.886  12.877  68.236  1.00  0.00    -0.142 A  
HETATM   29  C   UNL     1      -7.996  11.752  69.061  1.00  0.00     0.100 A  
HETATM   30  N   UNL     1      -8.888  13.243  67.384  1.00  0.00    -0.194 NA 
HETATM   31  C   UNL     1      -6.644  13.754  68.305  1.00  0.00    -0.109 C  
HETATM   32  C   UNL     1     -10.010  12.499  67.382  1.00  0.00    -0.207 A  
HETATM   33  F   UNL     1      -6.919  15.042  68.662  1.00  0.00    -0.100 F  
HETATM   34  F   UNL     1      -5.722  13.318  69.217  1.00  0.00    -0.073 F  
HETATM   35  F   UNL     1      -5.971  13.828  67.120  1.00  0.00    -0.019 F  
HETATM   36  C   UNL     1     -10.200  11.400  68.198  1.00  0.00    -0.200 A  
ENDBRANCH  25  27
ENDBRANCH  14  25
ENDBRANCH   7   9
ENDBRANCH   5   7
TORSDOF 5
ENDMDL
MODEL      292
REMARK 921   NORMALIZED FREE ENERGY PREDICTED BY IDOCK:   -2.98 KCAL/MOL
REMARK 922        TOTAL FREE ENERGY PREDICTED BY IDOCK:   -5.01 KCAL/MOL
REMARK 923 INTER-LIGAND FREE ENERGY PREDICTED BY IDOCK:   -5.05 KCAL/MOL
REMARK 924 INTRA-LIGAND FREE ENERGY PREDICTED BY IDOCK:    0.03 KCAL/MOL
REMARK 927      BINDING AFFINITY PREDICTED BY RF-SCORE:    0.00 PKD
ROOT
HETATM    1  C   UNL     1      -9.855   2.824  73.865  1.00  0.00    -0.144 C  
HETATM    2  C   UNL     1      -9.208   4.021  73.161  1.00  0.00    -0.109 C  
HETATM    3  C   UNL     1     -10.296   4.941  72.595  1.00  0.00    -0.250 C  
HETATM    4  O   UNL     1      -8.459   4.767  74.133  1.00  0.00    -0.102 OA 
HETATM    5  C   UNL     1      -8.230   3.517  72.066  1.00  0.00    -0.071 C  
HETATM    6  H   UNL     1      -8.057   5.509  73.696  1.00  0.00     0.000 HD 
ENDROOT
BRANCH   5   7
HETATM    7  N   UNL     1      -7.708   4.641  71.301  1.00  0.00    -0.079 NA 
HETATM    8  H   UNL     1      -6.768   5.000  71.472  1.00  0.00     0.000 HD 
BRANCH   7   9
HETATM    9  C   UNL     1      -8.519   5.208  70.338  1.00  0.00    -0.109 A  
HETATM   10  N   UNL     1      -8.907   6.469  70.438  1.00  0.00    -0.150 NA 
HETATM   11  C   UNL     1      -9.699   6.911  69.460  1.00  0.00    -0.158 A  
HETATM   12  N   UNL     1      -8.836   4.413  69.324  1.00  0.00    -0.087 NA 
HETATM   13  N   UNL     1     -10.076   6.174  68.414  1.00  0.00    -0.146 NA 
HETATM   14  C   UNL     1      -9.590   4.941  68.373  1.00  0.00    -0.146 A  
BRANCH  11  15
HETATM   15  C   UNL     1     -10.190   8.315  69.516  1.00  0.00    -0.210 A  
HETATM   16  C   UNL     1     -11.768   9.846  70.359  1.00  0.00    -0.258 A  
HETATM   17  F   UNL     1     -14.022  10.666  70.535  1.00  0.00     0.267 F  
HETATM   18  N   UNL     1     -11.287   8.571  70.285  1.00  0.00    -0.189 NA 
HETATM   19  C   UNL     1     -11.179  10.897  69.657  1.00  0.00    -0.348 A  
HETATM   20  C   UNL     1     -12.974  10.146  71.241  1.00  0.00    -0.413 C  
HETATM   21  C   UNL     1      -9.559   9.344  68.810  1.00  0.00    -0.156 A  
HETATM   22  C   UNL     1     -10.060  10.641  68.877  1.00  0.00    -0.215 A  
HETATM   23  F   UNL     1     -13.473   9.066  71.905  1.00  0.00    -0.332 F  
HETATM   24  F   UNL     1     -12.692  11.074  72.203  1.00  0.00    -0.454 F  
ENDBRANCH  11  15
BRANCH  14  25
HETATM   25  N   UNL     1      -9.798   4.155  67.238  1.00  0.00    -0.171 NA 
HETATM   26  H   UNL     1     -10.255   3.260  67.411  1.00  0.00     0.000 HD 
BRANCH  25  27
HETATM   27  C   UNL     1      -9.476   4.406  65.901  1.00  0.00    -0.174 A  
HETATM   28  C   UNL     1      -8.332   5.728  64.230  1.00  0.00    -0.059 A  
HETATM   29  C   UNL     1      -8.571   5.419  65.575  1.00  0.00    -0.148 A  
HETATM   30  N   UNL     1      -8.934   5.040  63.218  1.00  0.00    -0.041 NA 
HETATM   31  C   UNL     1      -7.411   6.884  63.867  1.00  0.00    -0.080 C  
HETATM   32  C   UNL     1      -9.799   4.065  63.552  1.00  0.00    -0.141 A  
HETATM   33  F   UNL     1      -8.036   7.856  63.142  1.00  0.00    -0.145 F  
HETATM   34  F   UNL     1      -6.892   7.527  64.957  1.00  0.00    -0.045 F  
HETATM   35  F   UNL     1      -6.330   6.499  63.127  1.00  0.00    -0.034 F  
HETATM   36  C   UNL     1     -10.112   3.734  64.857  1.00  0.00    -0.147 A  
ENDBRANCH  25  27
ENDBRANCH  14  25
ENDBRANCH   7   9
ENDBRANCH   5   7
TORSDOF 5
ENDMDL
MODEL      293
REMARK 921   NORMALIZED FREE ENERGY PREDICTED BY IDOCK:   -2.97 KCAL/MOL
REMARK 922        TOTAL FREE ENERGY PREDICTED BY IDOCK:   -4.99 KCAL/MOL
REMARK 923 INTER-LIGAND FREE ENERGY PREDICTED BY IDOCK:   -3.96 KCAL/MOL
REMARK 924 INTRA-LIGAND FREE ENERGY PREDICTED BY IDOCK:   -1.03 KCAL/MOL
REMARK 927      BINDING AFFINITY PREDICTED BY RF-SCORE:    0.00 PKD
ROOT
HETATM    1  C   UNL     1      -6.340   4.010  71.300  1.00  0.00    -0.015 C  
HETATM    2  C   UNL     1      -6.515   5.525  71.158  1.00  0.00    -0.036 C  
HETATM    3  C   UNL     1      -8.005   5.870  71.055  1.00  0.00    -0.116 C  
HETATM    4  O   UNL     1      -5.996   6.154  72.340  1.00  0.00    -0.036 OA 
HETATM    5  C   UNL     1      -5.704   6.032  69.935  1.00  0.00    -0.017 C  
HETATM    6  H   UNL     1      -6.104   7.094  72.251  1.00  0.00     0.000 HD 
ENDROOT
BRANCH   5   7
HETATM    7  N   UNL     1      -5.964   7.447  69.708  1.00  0.00    -0.024 NA 
HETATM    8  H   UNL     1      -5.920   8.118  70.476  1.00  0.00     0.000 HD 
BRANCH   7   9
HETATM    9  C   UNL     1      -6.274   7.856  68.426  1.00  0.00    -0.048 A  
HETATM   10  N   UNL     1      -6.619   6.976  67.500  1.00  0.00    -0.053 NA 
HETATM   11  C   UNL     1      -6.885   7.478  66.294  1.00  0.00    -0.061 A  
HETATM   12  N   UNL     1      -6.229   9.166  68.224  1.00  0.00    -0.053 NA 
HETATM   13  N   UNL     1      -6.849   8.779  66.002  1.00  0.00    -0.072 NA 
HETATM   14  C   UNL     1      -6.549   9.587  67.010  1.00  0.00    -0.068 A  
BRANCH  11  15
HETATM   15  C   UNL     1      -7.261   6.546  65.197  1.00  0.00    -0.070 A  
HETATM   16  C   UNL     1      -7.289   4.339  64.373  1.00  0.00    -0.070 A  
HETATM   17  F   UNL     1      -6.155   2.368  63.592  1.00  0.00    -0.012 F  
HETATM   18  N   UNL     1      -6.961   5.225  65.358  1.00  0.00    -0.063 NA 
HETATM   19  C   UNL     1      -7.912   4.747  63.194  1.00  0.00    -0.085 A  
HETATM   20  C   UNL     1      -6.985   2.858  64.560  1.00  0.00    -0.049 C  
HETATM   21  C   UNL     1      -7.901   6.994  64.037  1.00  0.00    -0.109 A  
HETATM   22  C   UNL     1      -8.223   6.090  63.028  1.00  0.00    -0.053 A  
HETATM   23  F   UNL     1      -6.395   2.545  65.747  1.00  0.00    -0.022 F  
HETATM   24  F   UNL     1      -8.111   2.087  64.492  1.00  0.00    -0.070 F  
ENDBRANCH  11  15
BRANCH  14  25
HETATM   25  N   UNL     1      -6.647  10.969  66.838  1.00  0.00    -0.102 NA 
HETATM   26  H   UNL     1      -5.756  11.457  66.748  1.00  0.00     0.000 HD 
BRANCH  25  27
HETATM   27  C   UNL     1      -7.778  11.788  66.770  1.00  0.00    -0.086 A  
HETATM   28  C   UNL     1      -9.914  12.338  65.778  1.00  0.00    -0.254 A  
HETATM   29  C   UNL     1      -8.831  11.460  65.912  1.00  0.00    -0.149 A  
HETATM   30  N   UNL     1      -9.990  13.498  66.492  1.00  0.00    -0.280 NA 
HETATM   31  C   UNL     1     -11.025  12.029  64.785  1.00  0.00    -0.311 C  
HETATM   32  C   UNL     1      -8.968  13.794  67.315  1.00  0.00    -0.224 A  
HETATM   33  F   UNL     1     -11.166  12.990  63.827  1.00  0.00    -0.394 F  
HETATM   34  F   UNL     1     -10.829  10.863  64.097  1.00  0.00    -0.438 F  
HETATM   35  F   UNL     1     -12.250  11.900  65.372  1.00  0.00    -0.348 F  
HETATM   36  C   UNL     1      -7.851  12.994  67.467  1.00  0.00    -0.178 A  
ENDBRANCH  25  27
ENDBRANCH  14  25
ENDBRANCH   7   9
ENDBRANCH   5   7
TORSDOF 5
ENDMDL
MODEL      294
REMARK 921   NORMALIZED FREE ENERGY PREDICTED BY IDOCK:   -2.74 KCAL/MOL
REMARK 922        TOTAL FREE ENERGY PREDICTED BY IDOCK:   -4.70 KCAL/MOL
REMARK 923 INTER-LIGAND FREE ENERGY PREDICTED BY IDOCK:   -3.83 KCAL/MOL
REMARK 924 INTRA-LIGAND FREE ENERGY PREDICTED BY IDOCK:   -0.87 KCAL/MOL
REMARK 927      BINDING AFFINITY PREDICTED BY RF-SCORE:    0.00 PKD
ROOT
HETATM    1  C   UNL     1      -6.240  14.748  72.000  1.00  0.00     0.690 C  
HETATM    2  C   UNL     1      -6.118  14.174  70.585  1.00  0.00    -0.170 C  
HETATM    3  C   UNL     1      -5.179  15.051  69.748  1.00  0.00    -0.091 C  
HETATM    4  O   UNL     1      -5.536  12.865  70.676  1.00  0.00    -0.142 OA 
HETATM    5  C   UNL     1      -7.528  14.043  69.950  1.00  0.00     0.540 C  
HETATM    6  H   UNL     1      -5.460  12.509  69.798  1.00  0.00     0.000 HD 
ENDROOT
BRANCH   5   7
HETATM    7  N   UNL     1      -7.418  13.624  68.560  1.00  0.00    -0.115 NA 
HETATM    8  H   UNL     1      -6.963  14.218  67.867  1.00  0.00     0.000 HD 
BRANCH   7   9
HETATM    9  C   UNL     1      -7.947  12.398  68.204  1.00  0.00    -0.153 A  
HETATM   10  N   UNL     1      -8.535  11.628  69.106  1.00  0.00     0.180 NA 
HETATM   11  C   UNL     1      -8.999  10.462  68.657  1.00  0.00    -0.146 A  
HETATM   12  N   UNL     1      -7.846  12.089  66.918  1.00  0.00    -0.133 NA 
HETATM   13  N   UNL     1      -8.926  10.068  67.385  1.00  0.00    -0.131 NA 
HETATM   14  C   UNL     1      -8.371  10.932  66.546  1.00  0.00    -0.155 A  
BRANCH  11  15
HETATM   15  C   UNL     1      -9.656   9.535  69.618  1.00  0.00    -0.202 A  
HETATM   16  C   UNL     1     -11.572   8.991  70.875  1.00  0.00    -0.290 A  
HETATM   17  F   UNL     1     -13.154   9.475  72.620  1.00  0.00    -0.456 F  
HETATM   18  N   UNL     1     -10.937   9.817  69.994  1.00  0.00    -0.260 NA 
HETATM   19  C   UNL     1     -10.944   7.870  71.417  1.00  0.00    -0.264 A  
HETATM   20  C   UNL     1     -13.013   9.281  71.275  1.00  0.00    -0.277 C  
HETATM   21  C   UNL     1      -8.996   8.410  70.125  1.00  0.00    -0.142 A  
HETATM   22  C   UNL     1      -9.643   7.577  71.034  1.00  0.00    -0.162 A  
HETATM   23  F   UNL     1     -13.555  10.383  70.684  1.00  0.00    -0.348 F  
HETATM   24  F   UNL     1     -13.853   8.248  70.970  1.00  0.00    -0.241 F  
ENDBRANCH  11  15
BRANCH  14  25
HETATM   25  N   UNL     1      -8.397  10.676  65.173  1.00  0.00    -0.267 NA 
HETATM   26  H   UNL     1      -8.843  11.399  64.608  1.00  0.00     0.000 HD 
BRANCH  25  27
HETATM   27  C   UNL     1      -7.908   9.582  64.454  1.00  0.00    -0.128 A  
HETATM   28  C   UNL     1      -7.677   7.191  64.171  1.00  0.00    -0.120 A  
HETATM   29  C   UNL     1      -8.251   8.282  64.836  1.00  0.00    -0.154 A  
HETATM   30  N   UNL     1      -6.812   7.360  63.130  1.00  0.00    -0.057 NA 
HETATM   31  C   UNL     1      -7.981   5.773  64.632  1.00  0.00    -0.122 C  
HETATM   32  C   UNL     1      -6.498   8.619  62.775  1.00  0.00    -0.091 A  
HETATM   33  F   UNL     1      -6.867   5.090  65.024  1.00  0.00    -0.045 F  
HETATM   34  F   UNL     1      -8.828   5.722  65.706  1.00  0.00    -0.138 F  
HETATM   35  F   UNL     1      -8.572   5.009  63.669  1.00  0.00    -0.122 F  
HETATM   36  C   UNL     1      -6.995   9.740  63.412  1.00  0.00    -0.118 A  
ENDBRANCH  25  27
ENDBRANCH  14  25
ENDBRANCH   7   9
ENDBRANCH   5   7
TORSDOF 5
ENDMDL
MODEL      295
REMARK 921   NORMALIZED FREE ENERGY PREDICTED BY IDOCK:   -2.65 KCAL/MOL
REMARK 922        TOTAL FREE ENERGY PREDICTED BY IDOCK:   -4.59 KCAL/MOL
REMARK 923 INTER-LIGAND FREE ENERGY PREDICTED BY IDOCK:   -4.16 KCAL/MOL
REMARK 924 INTRA-LIGAND FREE ENERGY PREDICTED BY IDOCK:   -0.43 KCAL/MOL
REMARK 927      BINDING AFFINITY PREDICTED BY RF-SCORE:    0.00 PKD
ROOT
HETATM    1  C   UNL     1      -6.657  12.212  69.957  1.00  0.00     0.160 C  
HETATM    2  C   UNL     1      -6.375  10.713  69.821  1.00  0.00    -0.099 C  
HETATM    3  C   UNL     1      -5.220  10.489  68.837  1.00  0.00    -0.041 C  
HETATM    4  O   UNL     1      -5.967  10.211  71.103  1.00  0.00    -0.214 OA 
HETATM    5  C   UNL     1      -7.670   9.973  69.391  1.00  0.00    -0.129 C  
HETATM    6  H   UNL     1      -5.792   9.280  71.018  1.00  0.00     0.000 HD 
ENDROOT
BRANCH   5   7
HETATM    7  N   UNL     1      -7.386   8.570  69.130  1.00  0.00    -0.077 NA 
HETATM    8  H   UNL     1      -6.904   7.994  69.821  1.00  0.00     0.000 HD 
BRANCH   7   9
HETATM    9  C   UNL     1      -7.787   8.037  67.920  1.00  0.00    -0.126 A  
HETATM   10  N   UNL     1      -8.162   8.825  66.925  1.00  0.00    -0.108 NA 
HETATM   11  C   UNL     1      -8.542   8.206  65.807  1.00  0.00    -0.154 A  
HETATM   12  N   UNL     1      -7.732   6.714  67.837  1.00  0.00    -0.106 NA 
HETATM   13  N   UNL     1      -8.530   6.882  65.646  1.00  0.00    -0.146 NA 
HETATM   14  C   UNL     1      -8.084   6.180  66.678  1.00  0.00    -0.109 A  
BRANCH  11  15
HETATM   15  C   UNL     1      -8.995   9.027  64.652  1.00  0.00    -0.061 A  
HETATM   16  C   UNL     1     -10.470  10.667  63.824  1.00  0.00     0.005 A  
HETATM   17  F   UNL     1     -12.683  11.419  63.265  1.00  0.00    -0.541 F  
HETATM   18  N   UNL     1     -10.024   9.897  64.860  1.00  0.00    -0.242 NA 
HETATM   19  C   UNL     1      -9.911  10.579  62.549  1.00  0.00    -0.049 A  
HETATM   20  C   UNL     1     -11.598  11.664  64.056  1.00  0.00    -0.280 C  
HETATM   21  C   UNL     1      -8.395   8.921  63.393  1.00  0.00    -0.177 A  
HETATM   22  C   UNL     1      -8.860   9.698  62.335  1.00  0.00    -0.262 A  
HETATM   23  F   UNL     1     -12.070  11.698  65.334  1.00  0.00    -0.203 F  
HETATM   24  F   UNL     1     -11.223  12.946  63.767  1.00  0.00    -0.388 F  
ENDBRANCH  11  15
BRANCH  14  25
HETATM   25  N   UNL     1      -7.884   4.805  66.543  1.00  0.00    -0.099 NA 
HETATM   26  H   UNL     1      -7.624   4.497  65.605  1.00  0.00     0.000 HD 
BRANCH  25  27
HETATM   27  C   UNL     1      -7.983   3.784  67.493  1.00  0.00    -0.089 A  
HETATM   28  C   UNL     1      -8.135   3.073  69.799  1.00  0.00    -0.044 A  
HETATM   29  C   UNL     1      -8.135   4.098  68.846  1.00  0.00    -0.074 A  
HETATM   30  N   UNL     1      -8.023   1.761  69.441  1.00  0.00    -0.045 NA 
HETATM   31  C   UNL     1      -8.218   3.410  71.280  1.00  0.00    -0.063 C  
HETATM   32  C   UNL     1      -7.881   1.478  68.133  1.00  0.00    -0.057 A  
HETATM   33  F   UNL     1      -7.136   2.972  71.988  1.00  0.00    -0.033 F  
HETATM   34  F   UNL     1      -8.287   4.754  71.528  1.00  0.00    -0.099 F  
HETATM   35  F   UNL     1      -9.312   2.874  71.894  1.00  0.00    -0.135 F  
HETATM   36  C   UNL     1      -7.834   2.442  67.144  1.00  0.00    -0.070 A  
ENDBRANCH  25  27
ENDBRANCH  14  25
ENDBRANCH   7   9
ENDBRANCH   5   7
TORSDOF 5
ENDMDL
MODEL      296
REMARK 921   NORMALIZED FREE ENERGY PREDICTED BY IDOCK:   -2.53 KCAL/MOL
REMARK 922        TOTAL FREE ENERGY PREDICTED BY IDOCK:   -4.43 KCAL/MOL
REMARK 923 INTER-LIGAND FREE ENERGY PREDICTED BY IDOCK:   -5.05 KCAL/MOL
REMARK 924 INTRA-LIGAND FREE ENERGY PREDICTED BY IDOCK:    0.61 KCAL/MOL
REMARK 927      BINDING AFFINITY PREDICTED BY RF-SCORE:    0.00 PKD
ROOT
HETATM    1  C   UNL     1     -11.457  15.369  67.252  1.00  0.00    -0.166 C  
HETATM    2  C   UNL     1     -11.848  14.041  66.596  1.00  0.00    -0.419 C  
HETATM    3  C   UNL     1     -11.553  12.881  67.555  1.00  0.00    -0.409 C  
HETATM    4  O   UNL     1     -13.262  14.059  66.346  1.00  0.00    -0.273 OA 
HETATM    5  C   UNL     1     -11.110  13.890  65.239  1.00  0.00    -0.318 C  
HETATM    6  H   UNL     1     -13.505  13.235  65.939  1.00  0.00     0.000 HD 
ENDROOT
BRANCH   5   7
HETATM    7  N   UNL     1     -11.369  12.577  64.667  1.00  0.00    -0.306 NA 
HETATM    8  H   UNL     1     -12.184  12.414  64.074  1.00  0.00     0.000 HD 
BRANCH   7   9
HETATM    9  C   UNL     1     -10.482  11.556  64.949  1.00  0.00    -0.291 A  
HETATM   10  N   UNL     1     -10.339  11.107  66.185  1.00  0.00    -0.244 NA 
HETATM   11  C   UNL     1      -9.447  10.129  66.346  1.00  0.00    -0.176 A  
HETATM   12  N   UNL     1      -9.836  11.062  63.900  1.00  0.00    -0.286 NA 
HETATM   13  N   UNL     1      -8.746   9.586  65.350  1.00  0.00    -0.153 NA 
HETATM   14  C   UNL     1      -9.001  10.063  64.139  1.00  0.00    -0.236 A  
BRANCH  11  15
HETATM   15  C   UNL     1      -9.218   9.586  67.713  1.00  0.00    -0.124 A  
HETATM   16  C   UNL     1     -10.076   8.407  69.562  1.00  0.00    -0.200 A  
HETATM   17  F   UNL     1     -11.616   8.197  71.396  1.00  0.00    -0.264 F  
HETATM   18  N   UNL     1     -10.247   8.918  68.308  1.00  0.00    -0.195 NA 
HETATM   19  C   UNL     1      -8.880   8.561  70.263  1.00  0.00    -0.150 A  
HETATM   20  C   UNL     1     -11.209   7.631  70.221  1.00  0.00    -0.216 C  
HETATM   21  C   UNL     1      -7.996   9.748  68.374  1.00  0.00    -0.089 A  
HETATM   22  C   UNL     1      -7.829   9.237  69.658  1.00  0.00    -0.090 A  
HETATM   23  F   UNL     1     -12.332   7.511  69.459  1.00  0.00     0.653 F  
HETATM   24  F   UNL     1     -10.843   6.355  70.544  1.00  0.00    -0.256 F  
ENDBRANCH  11  15
BRANCH  14  25
HETATM   25  N   UNL     1      -8.435   9.447  63.021  1.00  0.00    -0.191 NA 
HETATM   26  H   UNL     1      -8.630   9.905  62.131  1.00  0.00     0.000 HD 
BRANCH  25  27
HETATM   27  C   UNL     1      -7.644   8.298  62.933  1.00  0.00    -0.121 A  
HETATM   28  C   UNL     1      -7.234   5.984  63.503  1.00  0.00    -0.056 A  
HETATM   29  C   UNL     1      -8.077   7.102  63.510  1.00  0.00     0.001 A  
HETATM   30  N   UNL     1      -6.004   6.017  62.914  1.00  0.00    -0.025 NA 
HETATM   31  C   UNL     1      -7.664   4.702  64.201  1.00  0.00    -0.078 C  
HETATM   32  C   UNL     1      -5.606   7.177  62.360  1.00  0.00    -0.037 A  
HETATM   33  F   UNL     1      -6.815   4.329  65.202  1.00  0.00    -0.047 F  
HETATM   34  F   UNL     1      -8.896   4.791  64.790  1.00  0.00    -0.136 F  
HETATM   35  F   UNL     1      -7.744   3.631  63.358  1.00  0.00    -0.062 F  
HETATM   36  C   UNL     1      -6.370   8.329  62.366  1.00  0.00    -0.088 A  
ENDBRANCH  25  27
ENDBRANCH  14  25
ENDBRANCH   7   9
ENDBRANCH   5   7
TORSDOF 5
ENDMDL
MODEL      297
REMARK 921   NORMALIZED FREE ENERGY PREDICTED BY IDOCK:   -2.29 KCAL/MOL
REMARK 922        TOTAL FREE ENERGY PREDICTED BY IDOCK:   -4.13 KCAL/MOL
REMARK 923 INTER-LIGAND FREE ENERGY PREDICTED BY IDOCK:   -3.73 KCAL/MOL
REMARK 924 INTRA-LIGAND FREE ENERGY PREDICTED BY IDOCK:   -0.40 KCAL/MOL
REMARK 927      BINDING AFFINITY PREDICTED BY RF-SCORE:    0.00 PKD
ROOT
HETATM    1  C   UNL     1     -12.688   9.806  70.645  1.00  0.00    -0.157 C  
HETATM    2  C   UNL     1     -11.227   9.359  70.546  1.00  0.00    -0.275 C  
HETATM    3  C   UNL     1     -10.545   9.503  71.912  1.00  0.00     0.247 C  
HETATM    4  O   UNL     1     -11.203   7.969  70.184  1.00  0.00    -0.367 OA 
HETATM    5  C   UNL     1     -10.506  10.169  69.436  1.00  0.00    -0.233 C  
HETATM    6  H   UNL     1     -10.296   7.692  70.123  1.00  0.00     0.000 HD 
ENDROOT
BRANCH   5   7
HETATM    7  N   UNL     1      -9.086   9.848  69.419  1.00  0.00    -0.192 NA 
HETATM    8  H   UNL     1      -8.381  10.585  69.469  1.00  0.00     0.000 HD 
BRANCH   7   9
HETATM    9  C   UNL     1      -8.718   8.520  69.333  1.00  0.00    -0.136 A  
HETATM   10  N   UNL     1      -8.890   7.842  68.209  1.00  0.00    -0.130 NA 
HETATM   11  C   UNL     1      -8.512   6.564  68.240  1.00  0.00    -0.116 A  
HETATM   12  N   UNL     1      -8.166   8.013  70.427  1.00  0.00    -0.116 NA 
HETATM   13  N   UNL     1      -7.962   5.973  69.303  1.00  0.00    -0.102 NA 
HETATM   14  C   UNL     1      -7.778   6.749  70.362  1.00  0.00    -0.100 A  
BRANCH  11  15
HETATM   15  C   UNL     1      -8.693   5.733  67.019  1.00  0.00    -0.109 A  
HETATM   16  C   UNL     1      -8.298   5.462  64.713  1.00  0.00    -0.145 A  
HETATM   17  F   UNL     1      -8.593   6.154  62.429  1.00  0.00    -0.115 F  
HETATM   18  N   UNL     1      -8.152   6.194  65.855  1.00  0.00    -0.115 NA 
HETATM   19  C   UNL     1      -9.000   4.257  64.696  1.00  0.00    -0.146 A  
HETATM   20  C   UNL     1      -7.669   5.954  63.416  1.00  0.00    -0.091 C  
HETATM   21  C   UNL     1      -9.390   4.521  67.049  1.00  0.00    -0.160 A  
HETATM   22  C   UNL     1      -9.549   3.783  65.880  1.00  0.00    -0.166 A  
HETATM   23  F   UNL     1      -6.985   7.127  63.527  1.00  0.00    -0.053 F  
HETATM   24  F   UNL     1      -6.779   5.055  62.898  1.00  0.00    -0.027 F  
ENDBRANCH  11  15
BRANCH  14  25
HETATM   25  N   UNL     1      -7.064   6.261  71.458  1.00  0.00    -0.076 NA 
HETATM   26  H   UNL     1      -6.155   6.699  71.611  1.00  0.00     0.000 HD 
BRANCH  25  27
HETATM   27  C   UNL     1      -7.402   5.266  72.379  1.00  0.00    -0.094 A  
HETATM   28  C   UNL     1      -9.011   3.705  73.286  1.00  0.00    -0.098 A  
HETATM   29  C   UNL     1      -8.643   4.630  72.301  1.00  0.00    -0.122 A  
HETATM   30  N   UNL     1      -8.173   3.378  74.312  1.00  0.00    -0.070 NA 
HETATM   31  C   UNL     1     -10.393   3.069  73.254  1.00  0.00    -0.152 C  
HETATM   32  C   UNL     1      -6.980   3.999  74.368  1.00  0.00    -0.060 A  
HETATM   33  F   UNL     1     -11.129   3.336  74.371  1.00  0.00    -0.211 F  
HETATM   34  F   UNL     1     -11.163   3.495  72.207  1.00  0.00     0.156 F  
HETATM   35  F   UNL     1     -10.357   1.709  73.144  1.00  0.00    -0.129 F  
HETATM   36  C   UNL     1      -6.569   4.949  73.453  1.00  0.00    -0.066 A  
ENDBRANCH  25  27
ENDBRANCH  14  25
ENDBRANCH   7   9
ENDBRANCH   5   7
TORSDOF 5
ENDMDL
MODEL      298
REMARK 921   NORMALIZED FREE ENERGY PREDICTED BY IDOCK:   -2.25 KCAL/MOL
REMARK 922        TOTAL FREE ENERGY PREDICTED BY IDOCK:   -4.06 KCAL/MOL
REMARK 923 INTER-LIGAND FREE ENERGY PREDICTED BY IDOCK:   -5.79 KCAL/MOL
REMARK 924 INTRA-LIGAND FREE ENERGY PREDICTED BY IDOCK:    1.73 KCAL/MOL
REMARK 927      BINDING AFFINITY PREDICTED BY RF-SCORE:    0.00 PKD
ROOT
HETATM    1  C   UNL     1      -9.705   8.132  73.410  1.00  0.00    -0.125 C  
HETATM    2  C   UNL     1     -10.332   7.816  72.049  1.00  0.00    -0.214 C  
HETATM    3  C   UNL     1      -9.275   7.945  70.946  1.00  0.00    -0.160 C  
HETATM    4  O   UNL     1     -10.788   6.454  72.066  1.00  0.00    -0.224 OA 
HETATM    5  C   UNL     1     -11.555   8.741  71.808  1.00  0.00    -0.346 C  
HETATM    6  H   UNL     1     -11.177   6.258  71.221  1.00  0.00     0.000 HD 
ENDROOT
BRANCH   5   7
HETATM    7  N   UNL     1     -12.081   8.543  70.465  1.00  0.00    -0.482 NA 
HETATM    8  H   UNL     1     -13.013   8.155  70.319  1.00  0.00     0.000 HD 
BRANCH   7   9
HETATM    9  C   UNL     1     -11.284   8.895  69.394  1.00  0.00     0.159 A  
HETATM   10  N   UNL     1     -10.444   8.023  68.860  1.00  0.00    -0.213 NA 
HETATM   11  C   UNL     1      -9.714   8.471  67.838  1.00  0.00    -0.162 A  
HETATM   12  N   UNL     1     -11.453  10.132  68.944  1.00  0.00    -0.127 NA 
HETATM   13  N   UNL     1      -9.812   9.702  67.334  1.00  0.00    -0.163 NA 
HETATM   14  C   UNL     1     -10.721  10.486  67.899  1.00  0.00    -0.260 A  
BRANCH  11  15
HETATM   15  C   UNL     1      -8.735   7.551  67.199  1.00  0.00    -0.121 A  
HETATM   16  C   UNL     1      -8.234   5.375  66.450  1.00  0.00    -0.109 A  
HETATM   17  F   UNL     1      -7.835   3.042  66.873  1.00  0.00    -0.073 F  
HETATM   18  N   UNL     1      -9.106   6.250  67.031  1.00  0.00    -0.120 NA 
HETATM   19  C   UNL     1      -6.963   5.770  66.034  1.00  0.00    -0.059 A  
HETATM   20  C   UNL     1      -8.654   3.927  66.231  1.00  0.00    -0.112 C  
HETATM   21  C   UNL     1      -7.475   7.992  66.780  1.00  0.00    -0.090 A  
HETATM   22  C   UNL     1      -6.583   7.095  66.200  1.00  0.00    -0.052 A  
HETATM   23  F   UNL     1      -9.917   3.633  66.648  1.00  0.00    -0.205 F  
HETATM   24  F   UNL     1      -8.607   3.569  64.913  1.00  0.00    -0.104 F  
ENDBRANCH  11  15
BRANCH  14  25
HETATM   25  N   UNL     1     -11.006  11.730  67.334  1.00  0.00    -0.246 NA 
HETATM   26  H   UNL     1     -11.755  11.729  66.642  1.00  0.00     0.000 HD 
BRANCH  25  27
HETATM   27  C   UNL     1     -10.424  12.979  67.571  1.00  0.00    -0.227 A  
HETATM   28  C   UNL     1     -10.540  15.203  68.513  1.00  0.00    -0.237 A  
HETATM   29  C   UNL     1     -11.084  13.922  68.363  1.00  0.00    -0.278 A  
HETATM   30  N   UNL     1      -9.355  15.552  67.932  1.00  0.00    -0.192 NA 
HETATM   31  C   UNL     1     -11.293  16.262  69.305  1.00  0.00    -0.288 C  
HETATM   32  C   UNL     1      -8.732  14.628  67.177  1.00  0.00    -0.222 A  
HETATM   33  F   UNL     1     -11.609  17.361  68.560  1.00  0.00     0.038 F  
HETATM   34  F   UNL     1     -12.484  15.817  69.809  1.00  0.00    -0.368 F  
HETATM   35  F   UNL     1     -10.596  16.725  70.383  1.00  0.00    -0.159 F  
HETATM   36  C   UNL     1      -9.232  13.359  66.955  1.00  0.00    -0.251 A  
ENDBRANCH  25  27
ENDBRANCH  14  25
ENDBRANCH   7   9
ENDBRANCH   5   7
TORSDOF 5
ENDMDL
MODEL      299
REMARK 921   NORMALIZED FREE ENERGY PREDICTED BY IDOCK:   -2.21 KCAL/MOL
REMARK 922        TOTAL FREE ENERGY PREDICTED BY IDOCK:   -4.02 KCAL/MOL
REMARK 923 INTER-LIGAND FREE ENERGY PREDICTED BY IDOCK:   -3.05 KCAL/MOL
REMARK 924 INTRA-LIGAND FREE ENERGY PREDICTED BY IDOCK:   -0.97 KCAL/MOL
REMARK 927      BINDING AFFINITY PREDICTED BY RF-SCORE:    0.00 PKD
ROOT
HETATM    1  C   UNL     1      -6.251  15.302  71.856  1.00  0.00     1.174 C  
HETATM    2  C   UNL     1      -6.125  14.682  70.461  1.00  0.00    -0.169 C  
HETATM    3  C   UNL     1      -5.159  15.512  69.608  1.00  0.00    -0.096 C  
HETATM    4  O   UNL     1      -5.571  13.364  70.601  1.00  0.00    -0.147 OA 
HETATM    5  C   UNL     1      -7.531  14.559  69.815  1.00  0.00     0.103 C  
HETATM    6  H   UNL     1      -5.493  12.979  69.735  1.00  0.00     0.000 HD 
ENDROOT
BRANCH   5   7
HETATM    7  N   UNL     1      -7.415  14.094  68.440  1.00  0.00    -0.115 NA 
HETATM    8  H   UNL     1      -6.979  14.676  67.724  1.00  0.00     0.000 HD 
BRANCH   7   9
HETATM    9  C   UNL     1      -7.911  12.843  68.131  1.00  0.00    -0.153 A  
HETATM   10  N   UNL     1      -8.507  12.104  69.054  1.00  0.00     0.238 NA 
HETATM   11  C   UNL     1      -8.937  10.909  68.650  1.00  0.00    -0.162 A  
HETATM   12  N   UNL     1      -7.772  12.475  66.864  1.00  0.00    -0.019 NA 
HETATM   13  N   UNL     1      -8.824  10.457  67.400  1.00  0.00    -0.132 NA 
HETATM   14  C   UNL     1      -8.265  11.292  66.534  1.00  0.00    -0.165 A  
BRANCH  11  15
HETATM   15  C   UNL     1      -9.601  10.015  69.638  1.00  0.00    -0.226 A  
HETATM   16  C   UNL     1      -9.394   8.268  71.205  1.00  0.00    -0.165 A  
HETATM   17  F   UNL     1      -8.909   5.979  71.754  1.00  0.00    -0.135 F  
HETATM   18  N   UNL     1      -8.821   9.107  70.292  1.00  0.00    -0.192 NA 
HETATM   19  C   UNL     1     -10.761   8.302  71.479  1.00  0.00    -0.295 A  
HETATM   20  C   UNL     1      -8.525   7.273  71.963  1.00  0.00    -0.106 C  
HETATM   21  C   UNL     1     -10.973  10.094  69.897  1.00  0.00    -0.344 A  
HETATM   22  C   UNL     1     -11.556   9.228  70.818  1.00  0.00    -0.345 A  
HETATM   23  F   UNL     1      -7.200   7.322  71.647  1.00  0.00    -0.070 F  
HETATM   24  F   UNL     1      -8.590   7.455  73.315  1.00  0.00    -0.138 F  
ENDBRANCH  11  15
BRANCH  14  25
HETATM   25  N   UNL     1      -8.253  10.970  65.176  1.00  0.00    -0.373 NA 
HETATM   26  H   UNL     1      -8.716  11.646  64.568  1.00  0.00     0.000 HD 
BRANCH  25  27
HETATM   27  C   UNL     1      -7.703   9.866  64.519  1.00  0.00    -0.142 A  
HETATM   28  C   UNL     1      -7.391   7.474  64.337  1.00  0.00    -0.088 A  
HETATM   29  C   UNL     1      -8.023   8.571  64.936  1.00  0.00    -0.137 A  
HETATM   30  N   UNL     1      -6.490   7.631  63.325  1.00  0.00    -0.058 NA 
HETATM   31  C   UNL     1      -7.672   6.066  64.840  1.00  0.00    -0.099 C  
HETATM   32  C   UNL     1      -6.198   8.885  62.935  1.00  0.00    -0.090 A  
HETATM   33  F   UNL     1      -6.555   5.432  65.301  1.00  0.00    -0.036 F  
HETATM   34  F   UNL     1      -8.560   6.028  65.880  1.00  0.00    -0.127 F  
HETATM   35  F   UNL     1      -8.201   5.248  63.884  1.00  0.00    -0.104 F  
HETATM   36  C   UNL     1      -6.753  10.013  63.508  1.00  0.00    -0.135 A  
ENDBRANCH  25  27
ENDBRANCH  14  25
ENDBRANCH   7   9
ENDBRANCH   5   7
TORSDOF 5
ENDMDL
MODEL      300
REMARK 921   NORMALIZED FREE ENERGY PREDICTED BY IDOCK:   -2.09 KCAL/MOL
REMARK 922        TOTAL FREE ENERGY PREDICTED BY IDOCK:   -3.86 KCAL/MOL
REMARK 923 INTER-LIGAND FREE ENERGY PREDICTED BY IDOCK:   -6.29 KCAL/MOL
REMARK 924 INTRA-LIGAND FREE ENERGY PREDICTED BY IDOCK:    2.43 KCAL/MOL
REMARK 927      BINDING AFFINITY PREDICTED BY RF-SCORE:    0.00 PKD
ROOT
HETATM    1  C   UNL     1      -5.737  14.948  71.339  1.00  0.00     0.077 C  
HETATM    2  C   UNL     1      -5.958  14.243  69.997  1.00  0.00    -0.141 C  
HETATM    3  C   UNL     1      -5.613  12.755  70.129  1.00  0.00    -0.140 C  
HETATM    4  O   UNL     1      -7.349  14.345  69.656  1.00  0.00    -0.332 OA 
HETATM    5  C   UNL     1      -5.127  14.948  68.892  1.00  0.00    -0.092 C  
HETATM    6  H   UNL     1      -7.486  13.908  68.823  1.00  0.00     0.000 HD 
ENDROOT
BRANCH   5   7
HETATM    7  N   UNL     1      -5.224  14.210  67.640  1.00  0.00    -0.330 NA 
HETATM    8  H   UNL     1      -4.569  14.384  66.877  1.00  0.00     0.000 HD 
BRANCH   7   9
HETATM    9  C   UNL     1      -6.226  13.269  67.513  1.00  0.00    -0.105 A  
HETATM   10  N   UNL     1      -7.484  13.640  67.338  1.00  0.00    -0.158 NA 
HETATM   11  C   UNL     1      -8.372  12.650  67.241  1.00  0.00    -0.189 A  
HETATM   12  N   UNL     1      -5.824  12.005  67.549  1.00  0.00    -0.093 NA 
HETATM   13  N   UNL     1      -8.054  11.355  67.280  1.00  0.00    -0.141 NA 
HETATM   14  C   UNL     1      -6.762  11.083  67.401  1.00  0.00    -0.080 A  
BRANCH  11  15
HETATM   15  C   UNL     1      -9.809  12.992  67.061  1.00  0.00    -0.238 A  
HETATM   16  C   UNL     1     -11.677  13.080  65.629  1.00  0.00    -0.375 A  
HETATM   17  F   UNL     1     -12.807  13.947  63.692  1.00  0.00    -0.213 F  
HETATM   18  N   UNL     1     -10.362  12.777  65.833  1.00  0.00    -0.277 NA 
HETATM   19  C   UNL     1     -12.473  13.619  66.639  1.00  0.00    -0.291 A  
HETATM   20  C   UNL     1     -12.310  12.813  64.269  1.00  0.00    -0.416 C  
HETATM   21  C   UNL     1     -10.578  13.515  68.106  1.00  0.00    -0.253 A  
HETATM   22  C   UNL     1     -11.915  13.835  67.891  1.00  0.00    -0.391 A  
HETATM   23  F   UNL     1     -11.466  12.267  63.349  1.00  0.00    -0.442 F  
HETATM   24  F   UNL     1     -13.371  11.956  64.352  1.00  0.00    -0.379 F  
ENDBRANCH  11  15
BRANCH  14  25
HETATM   25  N   UNL     1      -6.322   9.762  67.288  1.00  0.00    -0.067 NA 
HETATM   26  H   UNL     1      -5.338   9.655  67.041  1.00  0.00     0.000 HD 
BRANCH  25  27
HETATM   27  C   UNL     1      -7.021   8.565  67.461  1.00  0.00    -0.079 A  
HETATM   28  C   UNL     1      -8.403   7.120  68.821  1.00  0.00    -0.126 A  
HETATM   29  C   UNL     1      -7.787   8.360  68.611  1.00  0.00    -0.116 A  
HETATM   30  N   UNL     1      -8.306   6.107  67.912  1.00  0.00    -0.116 NA 
HETATM   31  C   UNL     1      -9.171   6.860  70.109  1.00  0.00    -0.155 C  
HETATM   32  C   UNL     1      -7.567   6.326  66.809  1.00  0.00    -0.099 A  
HETATM   33  F   UNL     1      -8.661   5.822  70.834  1.00  0.00    -0.126 F  
HETATM   34  F   UNL     1      -9.173   7.927  70.964  1.00  0.00    -0.145 F  
HETATM   35  F   UNL     1     -10.487   6.563  69.901  1.00  0.00    -0.198 F  
HETATM   36  C   UNL     1      -6.901   7.510  66.557  1.00  0.00    -0.062 A  
ENDBRANCH  25  27
ENDBRANCH  14  25
ENDBRANCH   7   9
ENDBRANCH   5   7
TORSDOF 5
ENDMDL
MODEL      301
REMARK 921   NORMALIZED FREE ENERGY PREDICTED BY IDOCK:   -2.07 KCAL/MOL
REMARK 922        TOTAL FREE ENERGY PREDICTED BY IDOCK:   -3.84 KCAL/MOL
REMARK 923 INTER-LIGAND FREE ENERGY PREDICTED BY IDOCK:   -4.25 KCAL/MOL
REMARK 924 INTRA-LIGAND FREE ENERGY PREDICTED BY IDOCK:    0.40 KCAL/MOL
REMARK 927      BINDING AFFINITY PREDICTED BY RF-SCORE:    0.00 PKD
ROOT
HETATM    1  C   UNL     1      -6.293  13.101  71.791  1.00  0.00     2.043 C  
HETATM    2  C   UNL     1      -6.190  13.863  70.466  1.00  0.00    -0.087 C  
HETATM    3  C   UNL     1      -7.509  14.590  70.180  1.00  0.00     0.414 C  
HETATM    4  O   UNL     1      -5.157  14.854  70.594  1.00  0.00    -0.111 OA 
HETATM    5  C   UNL     1      -5.794  12.884  69.328  1.00  0.00    -0.087 C  
HETATM    6  H   UNL     1      -5.093  15.326  69.772  1.00  0.00     0.000 HD 
ENDROOT
BRANCH   5   7
HETATM    7  N   UNL     1      -5.819  13.567  68.043  1.00  0.00    -0.117 NA 
HETATM    8  H   UNL     1      -4.959  13.738  67.523  1.00  0.00     0.000 HD 
BRANCH   7   9
HETATM    9  C   UNL     1      -7.041  13.979  67.547  1.00  0.00    -0.160 A  
HETATM   10  N   UNL     1      -7.285  15.261  67.331  1.00  0.00    -0.200 NA 
HETATM   11  C   UNL     1      -8.501  15.548  66.863  1.00  0.00    -0.254 A  
HETATM   12  N   UNL     1      -7.903  13.005  67.286  1.00  0.00    -0.158 NA 
HETATM   13  N   UNL     1      -9.430  14.632  66.587  1.00  0.00    -0.265 NA 
HETATM   14  C   UNL     1      -9.072  13.371  66.783  1.00  0.00    -0.212 A  
BRANCH  11  15
HETATM   15  C   UNL     1      -8.854  16.972  66.613  1.00  0.00    -0.254 A  
HETATM   16  C   UNL     1      -8.115  19.179  66.254  1.00  0.00    -0.297 A  
HETATM   17  F   UNL     1      -7.008  21.178  67.002  1.00  0.00    -0.359 F  
HETATM   18  N   UNL     1      -7.831  17.864  66.482  1.00  0.00    -0.248 NA 
HETATM   19  C   UNL     1      -9.427  19.644  66.164  1.00  0.00    -0.441 A  
HETATM   20  C   UNL     1      -6.977  20.176  66.074  1.00  0.00    -0.267 C  
HETATM   21  C   UNL     1     -10.184  17.394  66.513  1.00  0.00    -0.329 A  
HETATM   22  C   UNL     1     -10.471  18.738  66.293  1.00  0.00    -0.489 A  
HETATM   23  F   UNL     1      -5.730  19.634  66.156  1.00  0.00    -0.166 F  
HETATM   24  F   UNL     1      -7.027  20.806  64.863  1.00  0.00    -0.283 F  
ENDBRANCH  11  15
BRANCH  14  25
HETATM   25  N   UNL     1      -9.919  12.341  66.369  1.00  0.00    -0.223 NA 
HETATM   26  H   UNL     1     -10.914  12.565  66.392  1.00  0.00     0.000 HD 
BRANCH  25  27
HETATM   27  C   UNL     1      -9.615  11.050  65.929  1.00  0.00    -0.218 A  
HETATM   28  C   UNL     1      -9.086   8.739  66.409  1.00  0.00    -0.177 A  
HETATM   29  C   UNL     1      -9.488  10.006  66.850  1.00  0.00    -0.203 A  
HETATM   30  N   UNL     1      -8.846   8.481  65.091  1.00  0.00    -0.127 NA 
HETATM   31  C   UNL     1      -8.865   7.619  67.415  1.00  0.00    -0.124 C  
HETATM   32  C   UNL     1      -8.978   9.497  64.220  1.00  0.00    -0.205 A  
HETATM   33  F   UNL     1      -7.588   7.139  67.407  1.00  0.00    -0.097 F  
HETATM   34  F   UNL     1      -9.097   7.997  68.709  1.00  0.00    -0.142 F  
HETATM   35  F   UNL     1      -9.673   6.540  67.205  1.00  0.00    -0.132 F  
HETATM   36  C   UNL     1      -9.332  10.781  64.590  1.00  0.00    -0.271 A  
ENDBRANCH  25  27
ENDBRANCH  14  25
ENDBRANCH   7   9
ENDBRANCH   5   7
TORSDOF 5
ENDMDL
MODEL      302
REMARK 921   NORMALIZED FREE ENERGY PREDICTED BY IDOCK:   -1.58 KCAL/MOL
REMARK 922        TOTAL FREE ENERGY PREDICTED BY IDOCK:   -3.21 KCAL/MOL
REMARK 923 INTER-LIGAND FREE ENERGY PREDICTED BY IDOCK:   -4.91 KCAL/MOL
REMARK 924 INTRA-LIGAND FREE ENERGY PREDICTED BY IDOCK:    1.70 KCAL/MOL
REMARK 927      BINDING AFFINITY PREDICTED BY RF-SCORE:    0.00 PKD
ROOT
HETATM    1  C   UNL     1      -6.428  14.250  72.308  1.00  0.00     1.355 C  
HETATM    2  C   UNL     1      -6.107  14.619  70.856  1.00  0.00    -0.071 C  
HETATM    3  C   UNL     1      -7.366  15.155  70.165  1.00  0.00     0.161 C  
HETATM    4  O   UNL     1      -5.126  15.668  70.863  1.00  0.00    -0.157 OA 
HETATM    5  C   UNL     1      -5.508  13.389  70.123  1.00  0.00    -0.115 C  
HETATM    6  H   UNL     1      -4.926  15.896  69.962  1.00  0.00     0.000 HD 
ENDROOT
BRANCH   5   7
HETATM    7  N   UNL     1      -5.320  13.685  68.711  1.00  0.00    -0.071 NA 
HETATM    8  H   UNL     1      -4.414  13.549  68.262  1.00  0.00     0.000 HD 
BRANCH   7   9
HETATM    9  C   UNL     1      -6.402  14.157  67.993  1.00  0.00    -0.149 A  
HETATM   10  N   UNL     1      -6.473  15.429  67.635  1.00  0.00    -0.160 NA 
HETATM   11  C   UNL     1      -7.567  15.779  66.957  1.00  0.00    -0.222 A  
HETATM   12  N   UNL     1      -7.315  13.246  67.680  1.00  0.00    -0.148 NA 
HETATM   13  N   UNL     1      -8.537  14.930  66.613  1.00  0.00    -0.225 NA 
HETATM   14  C   UNL     1      -8.348  13.666  66.968  1.00  0.00    -0.082 A  
BRANCH  11  15
HETATM   15  C   UNL     1      -7.724  17.198  66.536  1.00  0.00    -0.286 A  
HETATM   16  C   UNL     1      -9.007  19.172  66.611  1.00  0.00    -0.328 A  
HETATM   17  F   UNL     1     -11.014  20.400  66.115  1.00  0.00    -0.317 F  
HETATM   18  N   UNL     1      -8.826  17.870  66.977  1.00  0.00    -0.244 NA 
HETATM   19  C   UNL     1      -8.102  19.836  65.783  1.00  0.00    -0.142 A  
HETATM   20  C   UNL     1     -10.219  19.938  67.126  1.00  0.00    -0.443 C  
HETATM   21  C   UNL     1      -6.784  17.832  65.718  1.00  0.00    -0.223 A  
HETATM   22  C   UNL     1      -6.978  19.156  65.335  1.00  0.00    -0.175 A  
HETATM   23  F   UNL     1     -11.038  19.220  67.944  1.00  0.00    -0.435 F  
HETATM   24  F   UNL     1      -9.863  21.048  67.840  1.00  0.00    -0.451 F  
ENDBRANCH  11  15
BRANCH  14  25
HETATM   25  N   UNL     1      -9.229  12.684  66.511  1.00  0.00    -0.317 NA 
HETATM   26  H   UNL     1     -10.031  13.033  65.986  1.00  0.00     0.000 HD 
BRANCH  25  27
HETATM   27  C   UNL     1      -9.181  11.295  66.662  1.00  0.00    -0.180 A  
HETATM   28  C   UNL     1      -9.049   9.342  68.082  1.00  0.00    -0.127 A  
HETATM   29  C   UNL     1      -9.197  10.727  67.938  1.00  0.00    -0.151 A  
HETATM   30  N   UNL     1      -8.923   8.518  67.002  1.00  0.00    -0.134 NA 
HETATM   31  C   UNL     1      -8.984   8.724  69.471  1.00  0.00    -0.145 C  
HETATM   32  C   UNL     1      -8.913   9.084  65.781  1.00  0.00    -0.197 A  
HETATM   33  F   UNL     1      -7.814   8.061  69.705  1.00  0.00    -0.095 F  
HETATM   34  F   UNL     1      -9.082   9.643  70.480  1.00  0.00    -0.256 F  
HETATM   35  F   UNL     1      -9.981   7.822  69.707  1.00  0.00    -0.180 F  
HETATM   36  C   UNL     1      -9.015  10.445  65.569  1.00  0.00    -0.199 A  
ENDBRANCH  25  27
ENDBRANCH  14  25
ENDBRANCH   7   9
ENDBRANCH   5   7
TORSDOF 5
ENDMDL
MODEL      303
REMARK 921   NORMALIZED FREE ENERGY PREDICTED BY IDOCK:   -1.56 KCAL/MOL
REMARK 922        TOTAL FREE ENERGY PREDICTED BY IDOCK:   -3.18 KCAL/MOL
REMARK 923 INTER-LIGAND FREE ENERGY PREDICTED BY IDOCK:   -2.07 KCAL/MOL
REMARK 924 INTRA-LIGAND FREE ENERGY PREDICTED BY IDOCK:   -1.11 KCAL/MOL
REMARK 927      BINDING AFFINITY PREDICTED BY RF-SCORE:    0.00 PKD
ROOT
HETATM    1  C   UNL     1      -5.835   4.244  72.193  1.00  0.00    -0.012 C  
HETATM    2  C   UNL     1      -5.933   5.751  72.448  1.00  0.00    -0.039 C  
HETATM    3  C   UNL     1      -7.405   6.165  72.563  1.00  0.00    -0.086 C  
HETATM    4  O   UNL     1      -5.293   6.040  73.701  1.00  0.00    -0.033 OA 
HETATM    5  C   UNL     1      -5.187   6.522  71.326  1.00  0.00    -0.026 C  
HETATM    6  H   UNL     1      -5.354   6.975  73.859  1.00  0.00     0.000 HD 
ENDROOT
BRANCH   5   7
HETATM    7  N   UNL     1      -5.383   7.956  71.483  1.00  0.00    -0.034 NA 
HETATM    8  H   UNL     1      -5.227   8.411  72.382  1.00  0.00     0.000 HD 
BRANCH   7   9
HETATM    9  C   UNL     1      -5.785   8.684  70.380  1.00  0.00    -0.027 A  
HETATM   10  N   UNL     1      -6.694   8.202  69.547  1.00  0.00    -0.038 NA 
HETATM   11  C   UNL     1      -7.000   8.982  68.510  1.00  0.00    -0.064 A  
HETATM   12  N   UNL     1      -5.224   9.880  70.255  1.00  0.00    -0.036 NA 
HETATM   13  N   UNL     1      -6.472  10.190  68.302  1.00  0.00    -0.053 NA 
HETATM   14  C   UNL     1      -5.614  10.610  69.222  1.00  0.00    -0.037 A  
BRANCH  11  15
HETATM   15  C   UNL     1      -8.000   8.499  67.520  1.00  0.00    -0.106 A  
HETATM   16  C   UNL     1      -9.288   6.707  66.695  1.00  0.00    -0.163 A  
HETATM   17  F   UNL     1      -9.469   4.555  65.639  1.00  0.00    -0.136 F  
HETATM   18  N   UNL     1      -8.373   7.189  67.587  1.00  0.00    -0.117 NA 
HETATM   19  C   UNL     1      -9.844   7.514  65.703  1.00  0.00     0.870 A  
HETATM   20  C   UNL     1      -9.733   5.253  66.783  1.00  0.00    -0.160 C  
HETATM   21  C   UNL     1      -8.547   9.347  66.551  1.00  0.00    -0.142 A  
HETATM   22  C   UNL     1      -9.469   8.849  65.634  1.00  0.00    -0.230 A  
HETATM   23  F   UNL     1      -9.155   4.543  67.793  1.00  0.00    -0.111 F  
HETATM   24  F   UNL     1     -11.081   5.136  66.973  1.00  0.00    -0.180 F  
ENDBRANCH  11  15
BRANCH  14  25
HETATM   25  N   UNL     1      -5.138  11.921  69.174  1.00  0.00    -0.051 NA 
HETATM   26  H   UNL     1      -4.206  12.027  68.773  1.00  0.00     0.000 HD 
BRANCH  25  27
HETATM   27  C   UNL     1      -5.741  13.112  69.590  1.00  0.00    -0.105 A  
HETATM   28  C   UNL     1      -7.306  14.916  69.208  1.00  0.00    -0.175 A  
HETATM   29  C   UNL     1      -6.776  13.674  68.838  1.00  0.00    -0.108 A  
HETATM   30  N   UNL     1      -6.862  15.584  70.311  1.00  0.00     0.079 NA 
HETATM   31  C   UNL     1      -8.375  15.574  68.349  1.00  0.00    -0.154 C  
HETATM   32  C   UNL     1      -5.867  15.025  71.025  1.00  0.00     0.043 A  
HETATM   33  F   UNL     1      -7.993  16.788  67.859  1.00  0.00    -0.166 F  
HETATM   34  F   UNL     1      -8.718  14.836  67.249  1.00  0.00    -0.167 F  
HETATM   35  F   UNL     1      -9.546  15.789  69.017  1.00  0.00    -0.189 F  
HETATM   36  C   UNL     1      -5.272  13.822  70.694  1.00  0.00    -0.117 A  
ENDBRANCH  25  27
ENDBRANCH  14  25
ENDBRANCH   7   9
ENDBRANCH   5   7
TORSDOF 5
ENDMDL
MODEL      304
REMARK 921   NORMALIZED FREE ENERGY PREDICTED BY IDOCK:   -1.45 KCAL/MOL
REMARK 922        TOTAL FREE ENERGY PREDICTED BY IDOCK:   -3.04 KCAL/MOL
REMARK 923 INTER-LIGAND FREE ENERGY PREDICTED BY IDOCK:   -3.69 KCAL/MOL
REMARK 924 INTRA-LIGAND FREE ENERGY PREDICTED BY IDOCK:    0.66 KCAL/MOL
REMARK 927      BINDING AFFINITY PREDICTED BY RF-SCORE:    0.00 PKD
ROOT
HETATM    1  C   UNL     1      -6.329  10.406  63.672  1.00  0.00    -0.059 C  
HETATM    2  C   UNL     1      -7.611  10.254  64.496  1.00  0.00    -0.095 C  
HETATM    3  C   UNL     1      -7.431  10.917  65.866  1.00  0.00    -0.048 C  
HETATM    4  O   UNL     1      -8.673  10.936  63.810  1.00  0.00    -0.322 OA 
HETATM    5  C   UNL     1      -7.984   8.751  64.610  1.00  0.00    -0.135 C  
HETATM    6  H   UNL     1      -9.469  10.841  64.322  1.00  0.00     0.000 HD 
ENDROOT
BRANCH   5   7
HETATM    7  N   UNL     1      -9.125   8.581  65.499  1.00  0.00    -0.379 NA 
HETATM    8  H   UNL     1     -10.003   8.190  65.157  1.00  0.00     0.000 HD 
BRANCH   7   9
HETATM    9  C   UNL     1      -8.986   8.963  66.819  1.00  0.00    -0.130 A  
HETATM   10  N   UNL     1      -9.857   9.787  67.379  1.00  0.00    -0.166 NA 
HETATM   11  C   UNL     1      -9.621  10.100  68.654  1.00  0.00    -0.163 A  
HETATM   12  N   UNL     1      -7.958   8.423  67.460  1.00  0.00    -0.105 NA 
HETATM   13  N   UNL     1      -8.604   9.613  69.367  1.00  0.00    -0.145 NA 
HETATM   14  C   UNL     1      -7.819   8.751  68.735  1.00  0.00    -0.101 A  
BRANCH  11  15
HETATM   15  C   UNL     1     -10.548  11.036  69.345  1.00  0.00    -0.174 A  
HETATM   16  C   UNL     1     -11.621  13.133  69.364  1.00  0.00    -0.300 A  
HETATM   17  F   UNL     1     -11.552  15.533  69.484  1.00  0.00    -0.264 F  
HETATM   18  N   UNL     1     -10.778  12.246  68.759  1.00  0.00    -0.229 NA 
HETATM   19  C   UNL     1     -12.246  12.844  70.577  1.00  0.00    -0.395 A  
HETATM   20  C   UNL     1     -11.908  14.473  68.699  1.00  0.00    -0.320 C  
HETATM   21  C   UNL     1     -11.168  10.700  70.553  1.00  0.00    -0.270 A  
HETATM   22  C   UNL     1     -12.017  11.612  71.174  1.00  0.00     0.112 A  
HETATM   23  F   UNL     1     -11.273  14.663  67.509  1.00  0.00    -0.286 F  
HETATM   24  F   UNL     1     -13.238  14.647  68.440  1.00  0.00     0.951 F  
ENDBRANCH  11  15
BRANCH  14  25
HETATM   25  N   UNL     1      -6.829   8.069  69.447  1.00  0.00    -0.046 NA 
HETATM   26  H   UNL     1      -5.890   8.455  69.357  1.00  0.00     0.000 HD 
BRANCH  25  27
HETATM   27  C   UNL     1      -6.928   6.939  70.264  1.00  0.00    -0.066 A  
HETATM   28  C   UNL     1      -7.316   4.566  70.525  1.00  0.00    -0.049 A  
HETATM   29  C   UNL     1      -7.120   5.677  69.695  1.00  0.00    -0.064 A  
HETATM   30  N   UNL     1      -7.291   4.674  71.885  1.00  0.00    -0.068 NA 
HETATM   31  C   UNL     1      -7.608   3.203  69.915  1.00  0.00    -0.044 C  
HETATM   32  C   UNL     1      -7.101   5.896  72.413  1.00  0.00    -0.085 A  
HETATM   33  F   UNL     1      -8.813   2.692  70.301  1.00  0.00    -0.099 F  
HETATM   34  F   UNL     1      -7.647   3.217  68.547  1.00  0.00    -0.052 F  
HETATM   35  F   UNL     1      -6.677   2.259  70.238  1.00  0.00    -0.030 F  
HETATM   36  C   UNL     1      -6.941   7.040  71.655  1.00  0.00    -0.069 A  
ENDBRANCH  25  27
ENDBRANCH  14  25
ENDBRANCH   7   9
ENDBRANCH   5   7
TORSDOF 5
ENDMDL
MODEL      305
REMARK 921   NORMALIZED FREE ENERGY PREDICTED BY IDOCK:   -1.15 KCAL/MOL
REMARK 922        TOTAL FREE ENERGY PREDICTED BY IDOCK:   -2.65 KCAL/MOL
REMARK 923 INTER-LIGAND FREE ENERGY PREDICTED BY IDOCK:   -5.00 KCAL/MOL
REMARK 924 INTRA-LIGAND FREE ENERGY PREDICTED BY IDOCK:    2.34 KCAL/MOL
REMARK 927      BINDING AFFINITY PREDICTED BY RF-SCORE:    0.00 PKD
ROOT
HETATM    1  C   UNL     1     -11.397  18.626  66.525  1.00  0.00     0.876 C  
HETATM    2  C   UNL     1     -10.413  17.464  66.358  1.00  0.00    -0.267 C  
HETATM    3  C   UNL     1      -9.031  18.005  65.971  1.00  0.00     0.001 C  
HETATM    4  O   UNL     1     -10.287  16.793  67.622  1.00  0.00    -0.291 OA 
HETATM    5  C   UNL     1     -10.966  16.454  65.317  1.00  0.00    -0.195 C  
HETATM    6  H   UNL     1      -9.676  16.072  67.518  1.00  0.00     0.000 HD 
ENDROOT
BRANCH   5   7
HETATM    7  N   UNL     1      -9.983  15.414  65.051  1.00  0.00    -0.293 NA 
HETATM    8  H   UNL     1      -9.559  15.317  64.128  1.00  0.00     0.000 HD 
BRANCH   7   9
HETATM    9  C   UNL     1      -9.641  14.561  66.082  1.00  0.00    -0.297 A  
HETATM   10  N   UNL     1      -9.586  13.253  65.888  1.00  0.00    -0.170 NA 
HETATM   11  C   UNL     1      -9.257  12.523  66.954  1.00  0.00    -0.211 A  
HETATM   12  N   UNL     1      -9.349  15.153  67.234  1.00  0.00    -0.199 NA 
HETATM   13  N   UNL     1      -8.964  13.036  68.149  1.00  0.00    -0.196 NA 
HETATM   14  C   UNL     1      -8.990  14.359  68.231  1.00  0.00    -0.187 A  
BRANCH  11  15
HETATM   15  C   UNL     1      -9.194  11.042  66.815  1.00  0.00    -0.161 A  
HETATM   16  C   UNL     1      -8.206   9.014  67.493  1.00  0.00    -0.109 A  
HETATM   17  F   UNL     1      -6.308   7.548  67.659  1.00  0.00    -0.045 F  
HETATM   18  N   UNL     1      -8.295  10.372  67.592  1.00  0.00    -0.114 NA 
HETATM   19  C   UNL     1      -9.000   8.288  66.605  1.00  0.00    -0.179 A  
HETATM   20  C   UNL     1      -7.227   8.256  68.380  1.00  0.00    -0.092 C  
HETATM   21  C   UNL     1     -10.021  10.350  65.925  1.00  0.00    -0.317 A  
HETATM   22  C   UNL     1      -9.919   8.966  65.816  1.00  0.00     0.026 A  
HETATM   23  F   UNL     1      -6.508   9.040  69.230  1.00  0.00    -0.043 F  
HETATM   24  F   UNL     1      -7.854   7.333  69.169  1.00  0.00    -0.106 F  
ENDBRANCH  11  15
BRANCH  14  25
HETATM   25  N   UNL     1      -8.541  14.988  69.393  1.00  0.00    -0.388 NA 
HETATM   26  H   UNL     1      -9.104  14.811  70.225  1.00  0.00     0.000 HD 
BRANCH  25  27
HETATM   27  C   UNL     1      -7.438  15.822  69.594  1.00  0.00    -0.100 A  
HETATM   28  C   UNL     1      -6.336  17.954  69.290  1.00  0.00    -0.244 A  
HETATM   29  C   UNL     1      -7.480  17.154  69.174  1.00  0.00    -0.147 A  
HETATM   30  N   UNL     1      -5.180  17.477  69.838  1.00  0.00    -0.186 NA 
HETATM   31  C   UNL     1      -6.347  19.380  68.761  1.00  0.00    -0.254 C  
HETATM   32  C   UNL     1      -5.161  16.193  70.239  1.00  0.00    -0.160 A  
HETATM   33  F   UNL     1      -5.416  19.596  67.787  1.00  0.00    -0.181 F  
HETATM   34  F   UNL     1      -7.542  19.741  68.200  1.00  0.00    -0.312 F  
HETATM   35  F   UNL     1      -6.106  20.315  69.726  1.00  0.00    -0.325 F  
HETATM   36  C   UNL     1      -6.239  15.338  70.119  1.00  0.00    -0.131 A  
ENDBRANCH  25  27
ENDBRANCH  14  25
ENDBRANCH   7   9
ENDBRANCH   5   7
TORSDOF 5
ENDMDL
MODEL      306
REMARK 921   NORMALIZED FREE ENERGY PREDICTED BY IDOCK:   -1.11 KCAL/MOL
REMARK 922        TOTAL FREE ENERGY PREDICTED BY IDOCK:   -2.60 KCAL/MOL
REMARK 923 INTER-LIGAND FREE ENERGY PREDICTED BY IDOCK:   -1.59 KCAL/MOL
REMARK 924 INTRA-LIGAND FREE ENERGY PREDICTED BY IDOCK:   -1.00 KCAL/MOL
REMARK 927      BINDING AFFINITY PREDICTED BY RF-SCORE:    0.00 PKD
ROOT
HETATM    1  C   UNL     1      -9.763   3.066  64.436  1.00  0.00    -0.146 C  
HETATM    2  C   UNL     1      -9.041   4.415  64.505  1.00  0.00    -0.152 C  
HETATM    3  C   UNL     1      -8.765   4.930  63.088  1.00  0.00    -0.115 C  
HETATM    4  O   UNL     1      -9.906   5.358  65.158  1.00  0.00    -0.349 OA 
HETATM    5  C   UNL     1      -7.744   4.272  65.347  1.00  0.00    -0.086 C  
HETATM    6  H   UNL     1      -9.458   6.195  65.201  1.00  0.00     0.000 HD 
ENDROOT
BRANCH   5   7
HETATM    7  N   UNL     1      -6.982   5.512  65.312  1.00  0.00    -0.059 NA 
HETATM    8  H   UNL     1      -6.298   5.687  64.575  1.00  0.00     0.000 HD 
BRANCH   7   9
HETATM    9  C   UNL     1      -7.208   6.445  66.304  1.00  0.00    -0.072 A  
HETATM   10  N   UNL     1      -6.765   7.686  66.179  1.00  0.00    -0.052 NA 
HETATM   11  C   UNL     1      -7.029   8.501  67.201  1.00  0.00    -0.075 A  
HETATM   12  N   UNL     1      -7.912   6.010  67.341  1.00  0.00    -0.102 NA 
HETATM   13  N   UNL     1      -7.717   8.141  68.286  1.00  0.00    -0.111 NA 
HETATM   14  C   UNL     1      -8.168   6.893  68.294  1.00  0.00    -0.123 A  
BRANCH  11  15
HETATM   15  C   UNL     1      -6.545   9.907  67.139  1.00  0.00    -0.070 A  
HETATM   16  C   UNL     1      -6.445  12.030  68.154  1.00  0.00    -0.054 A  
HETATM   17  F   UNL     1      -7.503  14.041  68.939  1.00  0.00    -0.112 F  
HETATM   18  N   UNL     1      -6.869  10.733  68.175  1.00  0.00    -0.067 NA 
HETATM   19  C   UNL     1      -5.701  12.544  67.092  1.00  0.00    -0.012 A  
HETATM   20  C   UNL     1      -6.775  12.950  69.322  1.00  0.00    -0.061 C  
HETATM   21  C   UNL     1      -5.786  10.378  66.063  1.00  0.00    -0.090 A  
HETATM   22  C   UNL     1      -5.366  11.705  66.038  1.00  0.00     0.315 A  
HETATM   23  F   UNL     1      -7.487  12.362  70.324  1.00  0.00     0.954 F  
HETATM   24  F   UNL     1      -5.653  13.456  69.914  1.00  0.00    -0.086 F  
ENDBRANCH  11  15
BRANCH  14  25
HETATM   25  N   UNL     1      -9.032   6.479  69.309  1.00  0.00    -0.131 NA 
HETATM   26  H   UNL     1      -9.976   6.862  69.254  1.00  0.00     0.000 HD 
BRANCH  25  27
HETATM   27  C   UNL     1      -8.804   5.620  70.388  1.00  0.00    -0.136 A  
HETATM   28  C   UNL     1      -7.424   3.982  71.510  1.00  0.00    -0.059 A  
HETATM   29  C   UNL     1      -7.603   4.913  70.480  1.00  0.00    -0.062 A  
HETATM   30  N   UNL     1      -8.383   3.767  72.456  1.00  0.00    -0.088 NA 
HETATM   31  C   UNL     1      -6.153   3.149  71.571  1.00  0.00    -0.014 C  
HETATM   32  C   UNL     1      -9.532   4.460  72.353  1.00  0.00    -0.139 A  
HETATM   33  F   UNL     1      -6.390   1.807  71.491  1.00  0.00    -0.015 F  
HETATM   34  F   UNL     1      -5.278   3.418  70.554  1.00  0.00    -0.003 F  
HETATM   35  F   UNL     1      -5.440   3.337  72.719  1.00  0.00     0.000 F  
HETATM   36  C   UNL     1      -9.790   5.365  71.340  1.00  0.00    -0.221 A  
ENDBRANCH  25  27
ENDBRANCH  14  25
ENDBRANCH   7   9
ENDBRANCH   5   7
TORSDOF 5
ENDMDL
MODEL      307
REMARK 921   NORMALIZED FREE ENERGY PREDICTED BY IDOCK:   -0.53 KCAL/MOL
REMARK 922        TOTAL FREE ENERGY PREDICTED BY IDOCK:   -1.84 KCAL/MOL
REMARK 923 INTER-LIGAND FREE ENERGY PREDICTED BY IDOCK:   -1.20 KCAL/MOL
REMARK 924 INTRA-LIGAND FREE ENERGY PREDICTED BY IDOCK:   -0.64 KCAL/MOL
REMARK 927      BINDING AFFINITY PREDICTED BY RF-SCORE:    0.00 PKD
ROOT
HETATM    1  C   UNL     1     -10.758   4.159  65.589  1.00  0.00     0.195 C  
HETATM    2  C   UNL     1      -9.858   5.399  65.589  1.00  0.00     0.096 C  
HETATM    3  C   UNL     1      -9.555   5.821  64.147  1.00  0.00     1.420 C  
HETATM    4  O   UNL     1     -10.569   6.473  66.224  1.00  0.00    -0.470 OA 
HETATM    5  C   UNL     1      -8.570   5.110  66.405  1.00  0.00    -0.112 C  
HETATM    6  H   UNL     1     -10.010   7.242  66.224  1.00  0.00     0.000 HD 
ENDROOT
BRANCH   5   7
HETATM    7  N   UNL     1      -7.648   6.232  66.305  1.00  0.00    -0.089 NA 
HETATM    8  H   UNL     1      -6.870   6.214  65.644  1.00  0.00     0.000 HD 
BRANCH   7   9
HETATM    9  C   UNL     1      -7.852   7.321  67.129  1.00  0.00    -0.110 A  
HETATM   10  N   UNL     1      -7.195   8.452  66.931  1.00  0.00    -0.078 NA 
HETATM   11  C   UNL     1      -7.460   9.435  67.792  1.00  0.00    -0.087 A  
HETATM   12  N   UNL     1      -8.759   7.148  68.082  1.00  0.00    -0.128 NA 
HETATM   13  N   UNL     1      -8.345   9.339  68.785  1.00  0.00    -0.116 NA 
HETATM   14  C   UNL     1      -8.995   8.186  68.869  1.00  0.00    -0.141 A  
BRANCH  11  15
HETATM   15  C   UNL     1      -6.744  10.731  67.642  1.00  0.00    -0.069 A  
HETATM   16  C   UNL     1      -6.434  12.940  68.399  1.00  0.00    -0.082 A  
HETATM   17  F   UNL     1      -7.241  15.176  68.757  1.00  0.00    -0.108 F  
HETATM   18  N   UNL     1      -7.068  11.736  68.506  1.00  0.00    -0.084 NA 
HETATM   19  C   UNL     1      -5.471  13.180  67.419  1.00  0.00     0.069 A  
HETATM   20  C   UNL     1      -6.767  14.056  69.380  1.00  0.00    -0.107 C  
HETATM   21  C   UNL     1      -5.771  10.925  66.656  1.00  0.00    -0.090 A  
HETATM   22  C   UNL     1      -5.136  12.158  66.541  1.00  0.00     0.332 A  
HETATM   23  F   UNL     1      -7.703  13.729  70.315  1.00  0.00     0.749 F  
HETATM   24  F   UNL     1      -5.672  14.471  70.083  1.00  0.00    -0.099 F  
ENDBRANCH  11  15
BRANCH  14  25
HETATM   25  N   UNL     1     -10.051   8.053  69.772  1.00  0.00    -0.192 NA 
HETATM   26  H   UNL     1     -10.923   8.499  69.485  1.00  0.00     0.000 HD 
BRANCH  25  27
HETATM   27  C   UNL     1     -10.100   7.404  71.008  1.00  0.00    -0.190 A  
HETATM   28  C   UNL     1     -10.267   5.368  72.304  1.00  0.00    -0.196 A  
HETATM   29  C   UNL     1     -10.119   6.008  71.067  1.00  0.00    -0.241 A  
HETATM   30  N   UNL     1     -10.359   6.073  73.469  1.00  0.00    -0.226 NA 
HETATM   31  C   UNL     1     -10.371   3.852  72.369  1.00  0.00    -0.124 C  
HETATM   32  C   UNL     1     -10.335   7.416  73.392  1.00  0.00    -0.360 A  
HETATM   33  F   UNL     1     -11.545   3.421  72.915  1.00  0.00    -0.046 F  
HETATM   34  F   UNL     1     -10.304   3.250  71.142  1.00  0.00    -0.092 F  
HETATM   35  F   UNL     1      -9.379   3.275  73.107  1.00  0.00    -0.098 F  
HETATM   36  C   UNL     1     -10.231   8.112  72.203  1.00  0.00    -0.330 A  
ENDBRANCH  25  27
ENDBRANCH  14  25
ENDBRANCH   7   9
ENDBRANCH   5   7
TORSDOF 5
ENDMDL
MODEL      308
REMARK 921   NORMALIZED FREE ENERGY PREDICTED BY IDOCK:   -0.30 KCAL/MOL
REMARK 922        TOTAL FREE ENERGY PREDICTED BY IDOCK:   -1.55 KCAL/MOL
REMARK 923 INTER-LIGAND FREE ENERGY PREDICTED BY IDOCK:   -2.77 KCAL/MOL
REMARK 924 INTRA-LIGAND FREE ENERGY PREDICTED BY IDOCK:    1.22 KCAL/MOL
REMARK 927      BINDING AFFINITY PREDICTED BY RF-SCORE:    0.00 PKD
ROOT
HETATM    1  C   UNL     1      -6.323  13.443  71.943  1.00  0.00     1.784 C  
HETATM    2  C   UNL     1      -6.097  14.098  70.577  1.00  0.00    -0.174 C  
HETATM    3  C   UNL     1      -7.402  14.731  70.081  1.00  0.00     0.226 C  
HETATM    4  O   UNL     1      -5.127  15.146  70.732  1.00  0.00    -0.123 OA 
HETATM    5  C   UNL     1      -5.533  13.049  69.581  1.00  0.00    -0.088 C  
HETATM    6  H   UNL     1      -4.987  15.551  69.884  1.00  0.00     0.000 HD 
ENDROOT
BRANCH   5   7
HETATM    7  N   UNL     1      -5.436  13.621  68.246  1.00  0.00    -0.098 NA 
HETATM    8  H   UNL     1      -4.547  13.638  67.746  1.00  0.00     0.000 HD 
BRANCH   7   9
HETATM    9  C   UNL     1      -6.581  14.141  67.675  1.00  0.00    -0.155 A  
HETATM   10  N   UNL     1      -6.675  15.434  67.405  1.00  0.00    -0.233 NA 
HETATM   11  C   UNL     1      -7.829  15.830  66.867  1.00  0.00    -0.236 A  
HETATM   12  N   UNL     1      -7.530  13.256  67.402  1.00  0.00    -0.154 NA 
HETATM   13  N   UNL     1      -8.838  15.009  66.573  1.00  0.00    -0.273 NA 
HETATM   14  C   UNL     1      -8.627  13.724  66.828  1.00  0.00    -0.035 A  
BRANCH  11  15
HETATM   15  C   UNL     1      -8.014  17.273  66.553  1.00  0.00    -0.283 A  
HETATM   16  C   UNL     1      -9.174  19.277  66.983  1.00  0.00    -0.307 A  
HETATM   17  F   UNL     1     -11.190  20.588  66.973  1.00  0.00     0.134 F  
HETATM   18  N   UNL     1      -8.973  17.953  67.244  1.00  0.00    -0.247 NA 
HETATM   19  C   UNL     1      -8.434  19.957  66.016  1.00  0.00    -0.291 A  
HETATM   20  C   UNL     1     -10.222  20.050  67.774  1.00  0.00    -0.409 C  
HETATM   21  C   UNL     1      -7.238  17.922  65.587  1.00  0.00    -0.048 A  
HETATM   22  C   UNL     1      -7.454  19.270  65.314  1.00  0.00     0.358 A  
HETATM   23  F   UNL     1     -10.883  19.314  68.710  1.00  0.00    -0.108 F  
HETATM   24  F   UNL     1      -9.684  21.110  68.448  1.00  0.00     0.043 F  
ENDBRANCH  11  15
BRANCH  14  25
HETATM   25  N   UNL     1      -9.560  12.776  66.404  1.00  0.00    -0.256 NA 
HETATM   26  H   UNL     1     -10.415  12.734  66.959  1.00  0.00     0.000 HD 
BRANCH  25  27
HETATM   27  C   UNL     1      -9.504  11.875  65.337  1.00  0.00    -0.108 A  
HETATM   28  C   UNL     1      -8.453  10.003  64.225  1.00  0.00    -0.175 A  
HETATM   29  C   UNL     1      -8.567  10.839  65.342  1.00  0.00    -0.162 A  
HETATM   30  N   UNL     1      -9.260  10.148  63.135  1.00  0.00    -0.272 NA 
HETATM   31  C   UNL     1      -7.380   8.924  64.188  1.00  0.00    -0.104 C  
HETATM   32  C   UNL     1     -10.159  11.149  63.150  1.00  0.00    -0.330 A  
HETATM   33  F   UNL     1      -6.502   9.079  63.155  1.00  0.00    -0.090 F  
HETATM   34  F   UNL     1      -6.604   8.891  65.315  1.00  0.00    -0.064 F  
HETATM   35  F   UNL     1      -7.888   7.663  64.064  1.00  0.00    -0.111 F  
HETATM   36  C   UNL     1     -10.298  12.035  64.202  1.00  0.00    -0.381 A  
ENDBRANCH  25  27
ENDBRANCH  14  25
ENDBRANCH   7   9
ENDBRANCH   5   7
TORSDOF 5
ENDMDL
MODEL      309
REMARK 921   NORMALIZED FREE ENERGY PREDICTED BY IDOCK:   -0.23 KCAL/MOL
REMARK 922        TOTAL FREE ENERGY PREDICTED BY IDOCK:   -1.47 KCAL/MOL
REMARK 923 INTER-LIGAND FREE ENERGY PREDICTED BY IDOCK:   -2.34 KCAL/MOL
REMARK 924 INTRA-LIGAND FREE ENERGY PREDICTED BY IDOCK:    0.87 KCAL/MOL
REMARK 927      BINDING AFFINITY PREDICTED BY RF-SCORE:    0.00 PKD
ROOT
HETATM    1  C   UNL     1     -11.768   7.300  71.563  1.00  0.00    -0.320 C  
HETATM    2  C   UNL     1     -12.060   8.187  70.349  1.00  0.00     0.277 C  
HETATM    3  C   UNL     1     -11.111   7.827  69.201  1.00  0.00     0.139 C  
HETATM    4  O   UNL     1     -13.403   7.926  69.912  1.00  0.00     1.609 OA 
HETATM    5  C   UNL     1     -11.957   9.681  70.756  1.00  0.00    -0.277 C  
HETATM    6  H   UNL     1     -13.585   8.477  69.159  1.00  0.00     0.000 HD 
ENDROOT
BRANCH   5   7
HETATM    7  N   UNL     1     -12.102  10.534  69.586  1.00  0.00    -0.494 NA 
HETATM    8  H   UNL     1     -13.026  10.806  69.246  1.00  0.00     0.000 HD 
BRANCH   7   9
HETATM    9  C   UNL     1     -10.957  10.966  68.946  1.00  0.00    -0.229 A  
HETATM   10  N   UNL     1     -10.197  10.116  68.274  1.00  0.00    -0.159 NA 
HETATM   11  C   UNL     1      -9.109  10.637  67.706  1.00  0.00    -0.143 A  
HETATM   12  N   UNL     1     -10.714  12.267  69.036  1.00  0.00    -0.159 NA 
HETATM   13  N   UNL     1      -8.784  11.929  67.760  1.00  0.00    -0.151 NA 
HETATM   14  C   UNL     1      -9.637  12.711  68.407  1.00  0.00    -0.173 A  
BRANCH  11  15
HETATM   15  C   UNL     1      -8.196   9.738  66.949  1.00  0.00    -0.117 A  
HETATM   16  C   UNL     1      -7.077   7.669  66.830  1.00  0.00    -0.084 A  
HETATM   17  F   UNL     1      -5.447   6.105  67.656  1.00  0.00    -0.004 F  
HETATM   18  N   UNL     1      -7.911   8.521  67.494  1.00  0.00    -0.106 NA 
HETATM   19  C   UNL     1      -6.492   8.013  65.612  1.00  0.00    -0.042 A  
HETATM   20  C   UNL     1      -6.779   6.295  67.418  1.00  0.00    -0.061 C  
HETATM   21  C   UNL     1      -7.644  10.115  65.720  1.00  0.00    -0.134 A  
HETATM   22  C   UNL     1      -6.783   9.249  65.052  1.00  0.00    -0.078 A  
HETATM   23  F   UNL     1      -7.408   6.035  68.598  1.00  0.00    -0.076 F  
HETATM   24  F   UNL     1      -7.142   5.283  66.575  1.00  0.00    -0.062 F  
ENDBRANCH  11  15
BRANCH  14  25
HETATM   25  N   UNL     1      -9.464  14.097  68.376  1.00  0.00    -0.211 NA 
HETATM   26  H   UNL     1     -10.284  14.640  68.645  1.00  0.00     0.000 HD 
BRANCH  25  27
HETATM   27  C   UNL     1      -8.340  14.854  68.032  1.00  0.00    -0.147 A  
HETATM   28  C   UNL     1      -7.277  17.001  67.705  1.00  0.00    -0.153 A  
HETATM   29  C   UNL     1      -8.371  16.246  68.145  1.00  0.00    -0.172 A  
HETATM   30  N   UNL     1      -6.157  16.411  67.197  1.00  0.00    -0.231 NA 
HETATM   31  C   UNL     1      -7.335  18.521  67.747  1.00  0.00    -0.229 C  
HETATM   32  C   UNL     1      -6.144  15.069  67.100  1.00  0.00     0.578 A  
HETATM   33  F   UNL     1      -7.197  19.095  66.517  1.00  0.00    -0.204 F  
HETATM   34  F   UNL     1      -8.517  19.006  68.238  1.00  0.00    -0.308 F  
HETATM   35  F   UNL     1      -6.365  19.075  68.532  1.00  0.00    -0.222 F  
HETATM   36  C   UNL     1      -7.203  14.266  67.478  1.00  0.00    -0.197 A  
ENDBRANCH  25  27
ENDBRANCH  14  25
ENDBRANCH   7   9
ENDBRANCH   5   7
TORSDOF 5
ENDMDL
MODEL      310
REMARK 921   NORMALIZED FREE ENERGY PREDICTED BY IDOCK:    0.82 KCAL/MOL
REMARK 922        TOTAL FREE ENERGY PREDICTED BY IDOCK:   -0.10 KCAL/MOL
REMARK 923 INTER-LIGAND FREE ENERGY PREDICTED BY IDOCK:    0.77 KCAL/MOL
REMARK 924 INTRA-LIGAND FREE ENERGY PREDICTED BY IDOCK:   -0.87 KCAL/MOL
REMARK 927      BINDING AFFINITY PREDICTED BY RF-SCORE:    0.00 PKD
ROOT
HETATM    1  C   UNL     1     -13.851  12.575  64.480  1.00  0.00     2.260 C  
HETATM    2  C   UNL     1     -12.462  12.082  64.064  1.00  0.00    -0.388 C  
HETATM    3  C   UNL     1     -12.595  10.999  62.987  1.00  0.00     1.804 C  
HETATM    4  O   UNL     1     -11.741  13.186  63.494  1.00  0.00    -0.618 OA 
HETATM    5  C   UNL     1     -11.688  11.582  65.314  1.00  0.00     0.183 C  
HETATM    6  H   UNL     1     -10.879  12.879  63.236  1.00  0.00     0.000 HD 
ENDROOT
BRANCH   5   7
HETATM    7  N   UNL     1     -10.419  10.989  64.918  1.00  0.00    -0.314 NA 
HETATM    8  H   UNL     1     -10.141  10.951  63.937  1.00  0.00     0.000 HD 
BRANCH   7   9
HETATM    9  C   UNL     1      -9.600  10.480  65.906  1.00  0.00    -0.204 A  
HETATM   10  N   UNL     1      -8.840  11.282  66.634  1.00  0.00    -0.169 NA 
HETATM   11  C   UNL     1      -8.079  10.683  67.552  1.00  0.00    -0.111 A  
HETATM   12  N   UNL     1      -9.667   9.165  66.076  1.00  0.00    -0.282 NA 
HETATM   13  N   UNL     1      -8.076   9.369  67.777  1.00  0.00    -0.106 NA 
HETATM   14  C   UNL     1      -8.913   8.655  67.037  1.00  0.00    -0.133 A  
BRANCH  11  15
HETATM   15  C   UNL     1      -7.184  11.520  68.396  1.00  0.00    -0.089 A  
HETATM   16  C   UNL     1      -6.802  13.583  69.467  1.00  0.00     0.048 A  
HETATM   17  F   UNL     1      -6.416  15.954  69.393  1.00  0.00    -0.127 F  
HETATM   18  N   UNL     1      -7.597  12.784  68.697  1.00  0.00    -0.115 NA 
HETATM   19  C   UNL     1      -5.567  13.148  69.947  1.00  0.00    -0.112 A  
HETATM   20  C   UNL     1      -7.272  14.985  69.834  1.00  0.00    -0.088 C  
HETATM   21  C   UNL     1      -5.959  11.039  68.872  1.00  0.00    -0.040 A  
HETATM   22  C   UNL     1      -5.145  11.860  69.646  1.00  0.00    -0.066 A  
HETATM   23  F   UNL     1      -8.497  15.319  69.341  1.00  0.00    -0.202 F  
HETATM   24  F   UNL     1      -7.355  15.165  71.186  1.00  0.00     0.661 F  
ENDBRANCH  11  15
BRANCH  14  25
HETATM   25  N   UNL     1      -9.095   7.299  67.314  1.00  0.00    -0.122 NA 
HETATM   26  H   UNL     1      -9.740   7.097  68.079  1.00  0.00     0.000 HD 
BRANCH  25  27
HETATM   27  C   UNL     1      -8.531   6.174  66.706  1.00  0.00    -0.111 A  
HETATM   28  C   UNL     1      -8.097   4.856  64.725  1.00  0.00    -0.109 A  
HETATM   29  C   UNL     1      -8.576   6.031  65.317  1.00  0.00    -0.103 A  
HETATM   30  N   UNL     1      -7.551   3.850  65.468  1.00  0.00    -0.081 NA 
HETATM   31  C   UNL     1      -8.217   4.657  63.221  1.00  0.00    -0.102 C  
HETATM   32  C   UNL     1      -7.513   4.008  66.804  1.00  0.00    -0.073 A  
HETATM   33  F   UNL     1      -8.963   3.565  62.886  1.00  0.00    -0.091 F  
HETATM   34  F   UNL     1      -8.812   5.708  62.581  1.00  0.00    -0.101 F  
HETATM   35  F   UNL     1      -7.011   4.494  62.602  1.00  0.00    -0.029 F  
HETATM   36  C   UNL     1      -8.003   5.123  67.456  1.00  0.00    -0.100 A  
ENDBRANCH  25  27
ENDBRANCH  14  25
ENDBRANCH   7   9
ENDBRANCH   5   7
TORSDOF 5
ENDMDL
MODEL      311
REMARK 921   NORMALIZED FREE ENERGY PREDICTED BY IDOCK:    0.99 KCAL/MOL
REMARK 922        TOTAL FREE ENERGY PREDICTED BY IDOCK:    0.12 KCAL/MOL
REMARK 923 INTER-LIGAND FREE ENERGY PREDICTED BY IDOCK:    0.86 KCAL/MOL
REMARK 924 INTRA-LIGAND FREE ENERGY PREDICTED BY IDOCK:   -0.74 KCAL/MOL
REMARK 927      BINDING AFFINITY PREDICTED BY RF-SCORE:    0.00 PKD
ROOT
HETATM    1  C   UNL     1     -12.967  12.859  68.353  1.00  0.00     2.339 C  
HETATM    2  C   UNL     1     -11.900  11.818  67.998  1.00  0.00    -0.234 C  
HETATM    3  C   UNL     1     -12.148  10.528  68.789  1.00  0.00     0.176 C  
HETATM    4  O   UNL     1     -12.016  11.510  66.600  1.00  0.00    -0.428 OA 
HETATM    5  C   UNL     1     -10.488  12.409  68.256  1.00  0.00    -0.225 C  
HETATM    6  H   UNL     1     -11.354  10.865  66.380  1.00  0.00     0.000 HD 
ENDROOT
BRANCH   5   7
HETATM    7  N   UNL     1      -9.470  11.389  68.049  1.00  0.00    -0.174 NA 
HETATM    8  H   UNL     1      -9.620  10.623  67.392  1.00  0.00     0.000 HD 
BRANCH   7   9
HETATM    9  C   UNL     1      -8.293  11.486  68.767  1.00  0.00    -0.069 A  
HETATM   10  N   UNL     1      -7.925  12.636  69.308  1.00  0.00     0.470 NA 
HETATM   11  C   UNL     1      -6.766  12.620  69.968  1.00  0.00     0.366 A  
HETATM   12  N   UNL     1      -7.609  10.356  68.888  1.00  0.00    -0.094 NA 
HETATM   13  N   UNL     1      -6.011  11.532  70.125  1.00  0.00    -0.147 NA 
HETATM   14  C   UNL     1      -6.492  10.415  69.595  1.00  0.00    -0.076 A  
BRANCH  11  15
HETATM   15  C   UNL     1      -6.277  13.882  70.588  1.00  0.00    -0.065 A  
HETATM   16  C   UNL     1      -6.095  16.227  70.464  1.00  0.00     0.223 A  
HETATM   17  F   UNL     1      -5.269  18.223  69.408  1.00  0.00    -0.177 F  
HETATM   18  N   UNL     1      -6.529  15.049  69.929  1.00  0.00    -0.160 NA 
HETATM   19  C   UNL     1      -5.386  16.272  71.664  1.00  0.00     0.264 A  
HETATM   20  C   UNL     1      -6.401  17.537  69.750  1.00  0.00    -0.134 C  
HETATM   21  C   UNL     1      -5.584  13.885  71.802  1.00  0.00    -0.215 A  
HETATM   22  C   UNL     1      -5.131  15.087  72.340  1.00  0.00    -0.108 A  
HETATM   23  F   UNL     1      -7.115  17.402  68.598  1.00  0.00    -0.194 F  
HETATM   24  F   UNL     1      -7.120  18.397  70.532  1.00  0.00     0.719 F  
ENDBRANCH  11  15
BRANCH  14  25
HETATM   25  N   UNL     1      -5.852   9.201  69.849  1.00  0.00    -0.034 NA 
HETATM   26  H   UNL     1      -4.838   9.216  69.737  1.00  0.00     0.000 HD 
BRANCH  25  27
HETATM   27  C   UNL     1      -6.386   7.967  70.231  1.00  0.00    -0.037 A  
HETATM   28  C   UNL     1      -8.213   6.657  71.123  1.00  0.00    -0.120 A  
HETATM   29  C   UNL     1      -7.716   7.877  70.648  1.00  0.00    -0.090 A  
HETATM   30  N   UNL     1      -7.440   5.534  71.159  1.00  0.00    -0.084 NA 
HETATM   31  C   UNL     1      -9.636   6.570  71.656  1.00  0.00    -0.160 C  
HETATM   32  C   UNL     1      -6.162   5.639  70.750  1.00  0.00    -0.031 A  
HETATM   33  F   UNL     1      -9.693   6.180  72.962  1.00  0.00    -0.156 F  
HETATM   34  F   UNL     1     -10.307   7.761  71.608  1.00  0.00    -0.203 F  
HETATM   35  F   UNL     1     -10.416   5.689  70.965  1.00  0.00    -0.258 F  
HETATM   36  C   UNL     1      -5.596   6.820  70.307  1.00  0.00    -0.023 A  
ENDBRANCH  25  27
ENDBRANCH  14  25
ENDBRANCH   7   9
ENDBRANCH   5   7
TORSDOF 5
ENDMDL
MODEL      312
REMARK 921   NORMALIZED FREE ENERGY PREDICTED BY IDOCK:    1.24 KCAL/MOL
REMARK 922        TOTAL FREE ENERGY PREDICTED BY IDOCK:    0.44 KCAL/MOL
REMARK 923 INTER-LIGAND FREE ENERGY PREDICTED BY IDOCK:    1.41 KCAL/MOL
REMARK 924 INTRA-LIGAND FREE ENERGY PREDICTED BY IDOCK:   -0.97 KCAL/MOL
REMARK 927      BINDING AFFINITY PREDICTED BY RF-SCORE:    0.00 PKD
ROOT
HETATM    1  C   UNL     1     -13.862  12.566  64.485  1.00  0.00     2.260 C  
HETATM    2  C   UNL     1     -12.489  12.022  64.082  1.00  0.00    -0.333 C  
HETATM    3  C   UNL     1     -12.656  10.907  63.043  1.00  0.00     2.397 C  
HETATM    4  O   UNL     1     -11.741  13.086  63.472  1.00  0.00    -0.560 OA 
HETATM    5  C   UNL     1     -11.724  11.543  65.345  1.00  0.00     0.205 C  
HETATM    6  H   UNL     1     -10.889  12.747  63.222  1.00  0.00     0.000 HD 
ENDROOT
BRANCH   5   7
HETATM    7  N   UNL     1     -10.473  10.903  64.965  1.00  0.00    -0.286 NA 
HETATM    8  H   UNL     1     -10.202  10.821  63.984  1.00  0.00     0.000 HD 
BRANCH   7   9
HETATM    9  C   UNL     1      -9.661  10.410  65.967  1.00  0.00    -0.201 A  
HETATM   10  N   UNL     1      -8.880  11.220  66.665  1.00  0.00    -0.169 NA 
HETATM   11  C   UNL     1      -8.129  10.638  67.600  1.00  0.00    -0.107 A  
HETATM   12  N   UNL     1      -9.755   9.105  66.182  1.00  0.00    -0.270 NA 
HETATM   13  N   UNL     1      -8.153   9.332  67.870  1.00  0.00    -0.104 NA 
HETATM   14  C   UNL     1      -9.008   8.611  67.158  1.00  0.00    -0.132 A  
BRANCH  11  15
HETATM   15  C   UNL     1      -7.212  11.483  68.411  1.00  0.00    -0.089 A  
HETATM   16  C   UNL     1      -6.811  13.552  69.464  1.00  0.00     0.048 A  
HETATM   17  F   UNL     1      -6.445  15.926  69.371  1.00  0.00    -0.127 F  
HETATM   18  N   UNL     1      -7.625  12.745  68.722  1.00  0.00    -0.074 NA 
HETATM   19  C   UNL     1      -5.557  13.127  69.903  1.00  0.00    -0.112 A  
HETATM   20  C   UNL     1      -7.278  14.951  69.842  1.00  0.00    -0.069 C  
HETATM   21  C   UNL     1      -5.969  11.013  68.847  1.00  0.00    -0.040 A  
HETATM   22  C   UNL     1      -5.135  11.842  69.592  1.00  0.00    -0.066 A  
HETATM   23  F   UNL     1      -8.522  15.275  69.389  1.00  0.00    -0.202 F  
HETATM   24  F   UNL     1      -7.318  15.135  71.195  1.00  0.00     0.661 F  
ENDBRANCH  11  15
BRANCH  14  25
HETATM   25  N   UNL     1      -9.218   7.269  67.482  1.00  0.00    -0.129 NA 
HETATM   26  H   UNL     1      -8.929   6.602  66.767  1.00  0.00     0.000 HD 
BRANCH  25  27
HETATM   27  C   UNL     1      -9.762   6.699  68.636  1.00  0.00    -0.129 A  
HETATM   28  C   UNL     1      -9.476   5.544  70.741  1.00  0.00    -0.166 A  
HETATM   29  C   UNL     1      -8.923   6.201  69.636  1.00  0.00    -0.134 A  
HETATM   30  N   UNL     1     -10.825   5.403  70.891  1.00  0.00    -0.178 NA 
HETATM   31  C   UNL     1      -8.567   4.927  71.793  1.00  0.00    -0.127 C  
HETATM   32  C   UNL     1     -11.617   5.892  69.919  1.00  0.00     0.268 A  
HETATM   33  F   UNL     1      -8.738   3.579  71.923  1.00  0.00    -0.089 F  
HETATM   34  F   UNL     1      -7.235   5.094  71.526  1.00  0.00    -0.062 F  
HETATM   35  F   UNL     1      -8.752   5.451  73.040  1.00  0.00    -0.120 F  
HETATM   36  C   UNL     1     -11.137   6.517  68.784  1.00  0.00    -0.357 A  
ENDBRANCH  25  27
ENDBRANCH  14  25
ENDBRANCH   7   9
ENDBRANCH   5   7
TORSDOF 5
ENDMDL
MODEL      313
REMARK 921   NORMALIZED FREE ENERGY PREDICTED BY IDOCK:    1.46 KCAL/MOL
REMARK 922        TOTAL FREE ENERGY PREDICTED BY IDOCK:    0.72 KCAL/MOL
REMARK 923 INTER-LIGAND FREE ENERGY PREDICTED BY IDOCK:    0.74 KCAL/MOL
REMARK 924 INTRA-LIGAND FREE ENERGY PREDICTED BY IDOCK:   -0.02 KCAL/MOL
REMARK 927      BINDING AFFINITY PREDICTED BY RF-SCORE:    0.00 PKD
ROOT
HETATM    1  C   UNL     1      -9.716   2.907  73.873  1.00  0.00    -0.131 C  
HETATM    2  C   UNL     1      -8.813   3.725  72.946  1.00  0.00    -0.094 C  
HETATM    3  C   UNL     1      -9.512   5.035  72.563  1.00  0.00    -0.164 C  
HETATM    4  O   UNL     1      -7.612   4.057  73.661  1.00  0.00    -0.073 OA 
HETATM    5  C   UNL     1      -8.429   2.875  71.705  1.00  0.00    -0.064 C  
HETATM    6  H   UNL     1      -7.052   4.565  73.085  1.00  0.00     0.000 HD 
ENDROOT
BRANCH   5   7
HETATM    7  N   UNL     1      -7.680   3.682  70.753  1.00  0.00    -0.043 NA 
HETATM    8  H   UNL     1      -6.668   3.583  70.663  1.00  0.00     0.000 HD 
BRANCH   7   9
HETATM    9  C   UNL     1      -8.376   4.586  69.975  1.00  0.00    -0.066 A  
HETATM   10  N   UNL     1      -8.184   5.888  70.116  1.00  0.00    -0.115 NA 
HETATM   11  C   UNL     1      -8.917   6.670  69.322  1.00  0.00    -0.135 A  
HETATM   12  N   UNL     1      -9.199   4.050  69.083  1.00  0.00    -0.138 NA 
HETATM   13  N   UNL     1      -9.776   6.214  68.410  1.00  0.00    -0.120 NA 
HETATM   14  C   UNL     1      -9.857   4.894  68.304  1.00  0.00    -0.136 A  
BRANCH  11  15
HETATM   15  C   UNL     1      -8.768   8.146  69.438  1.00  0.00    -0.143 A  
HETATM   16  C   UNL     1      -9.368  10.282  68.643  1.00  0.00    -0.162 A  
HETATM   17  F   UNL     1      -9.396  11.955  66.917  1.00  0.00    -0.178 F  
HETATM   18  N   UNL     1      -9.478   8.923  68.570  1.00  0.00    -0.147 NA 
HETATM   19  C   UNL     1      -8.535  10.903  69.574  1.00  0.00     0.191 A  
HETATM   20  C   UNL     1     -10.182  11.156  67.699  1.00  0.00    -0.181 C  
HETATM   21  C   UNL     1      -7.935   8.730  70.397  1.00  0.00    -0.113 A  
HETATM   22  C   UNL     1      -7.814  10.116  70.461  1.00  0.00     0.375 A  
HETATM   23  F   UNL     1     -10.983  10.468  66.838  1.00  0.00    -0.311 F  
HETATM   24  F   UNL     1     -11.009  12.011  68.370  1.00  0.00    -0.208 F  
ENDBRANCH  11  15
BRANCH  14  25
HETATM   25  N   UNL     1     -10.606   4.330  67.270  1.00  0.00     0.248 NA 
HETATM   26  H   UNL     1     -11.376   3.732  67.571  1.00  0.00     0.000 HD 
BRANCH  25  27
HETATM   27  C   UNL     1     -10.464   4.457  65.885  1.00  0.00    -0.144 A  
HETATM   28  C   UNL     1      -9.124   5.039  63.958  1.00  0.00     0.091 A  
HETATM   29  C   UNL     1      -9.231   4.817  65.336  1.00  0.00    -0.156 A  
HETATM   30  N   UNL     1     -10.189   4.879  63.121  1.00  0.00     0.607 NA 
HETATM   31  C   UNL     1      -7.805   5.511  63.363  1.00  0.00    -0.096 C  
HETATM   32  C   UNL     1     -11.368   4.528  63.668  1.00  0.00     1.206 A  
HETATM   33  F   UNL     1      -7.905   6.717  62.733  1.00  0.00    -0.081 F  
HETATM   34  F   UNL     1      -6.817   5.674  64.295  1.00  0.00    -0.044 F  
HETATM   35  F   UNL     1      -7.291   4.646  62.441  1.00  0.00    -0.036 F  
HETATM   36  C   UNL     1     -11.553   4.332  65.023  1.00  0.00     1.306 A  
ENDBRANCH  25  27
ENDBRANCH  14  25
ENDBRANCH   7   9
ENDBRANCH   5   7
TORSDOF 5
ENDMDL
MODEL      314
REMARK 921   NORMALIZED FREE ENERGY PREDICTED BY IDOCK:    2.69 KCAL/MOL
REMARK 922        TOTAL FREE ENERGY PREDICTED BY IDOCK:    2.31 KCAL/MOL
REMARK 923 INTER-LIGAND FREE ENERGY PREDICTED BY IDOCK:   -1.09 KCAL/MOL
REMARK 924 INTRA-LIGAND FREE ENERGY PREDICTED BY IDOCK:    3.40 KCAL/MOL
REMARK 927      BINDING AFFINITY PREDICTED BY RF-SCORE:    0.00 PKD
ROOT
HETATM    1  C   UNL     1      -6.518  15.580  71.864  1.00  0.00     2.037 C  
HETATM    2  C   UNL     1      -6.592  14.997  70.449  1.00  0.00     0.005 C  
HETATM    3  C   UNL     1      -7.006  13.522  70.515  1.00  0.00     1.135 C  
HETATM    4  O   UNL     1      -7.604  15.708  69.719  1.00  0.00    -0.172 OA 
HETATM    5  C   UNL     1      -5.232  15.198  69.729  1.00  0.00    -0.096 C  
HETATM    6  H   UNL     1      -7.649  15.346  68.841  1.00  0.00     0.000 HD 
ENDROOT
BRANCH   5   7
HETATM    7  N   UNL     1      -5.244  14.533  68.433  1.00  0.00    -0.098 NA 
HETATM    8  H   UNL     1      -4.730  14.919  67.641  1.00  0.00     0.000 HD 
BRANCH   7   9
HETATM    9  C   UNL     1      -5.971  13.366  68.306  1.00  0.00    -0.093 A  
HETATM   10  N   UNL     1      -7.289  13.400  68.189  1.00  0.00    -0.103 NA 
HETATM   11  C   UNL     1      -7.891  12.215  68.084  1.00  0.00    -0.147 A  
HETATM   12  N   UNL     1      -5.252  12.251  68.278  1.00  0.00    -0.053 NA 
HETATM   13  N   UNL     1      -7.245  11.048  68.063  1.00  0.00    -0.084 NA 
HETATM   14  C   UNL     1      -5.923  11.120  68.128  1.00  0.00    -0.045 A  
BRANCH  11  15
HETATM   15  C   UNL     1      -9.374  12.173  67.969  1.00  0.00    -0.197 A  
HETATM   16  C   UNL     1     -11.287  12.590  66.659  1.00  0.00    -0.334 A  
HETATM   17  F   UNL     1     -12.769  14.099  65.517  1.00  0.00    -0.460 F  
HETATM   18  N   UNL     1      -9.930  12.611  66.803  1.00  0.00    -0.229 NA 
HETATM   19  C   UNL     1     -12.128  12.145  67.679  1.00  0.00     0.017 A  
HETATM   20  C   UNL     1     -11.913  13.047  65.348  1.00  0.00    -0.414 C  
HETATM   21  C   UNL     1     -10.181  11.703  69.010  1.00  0.00    -0.077 A  
HETATM   22  C   UNL     1     -11.566  11.695  68.865  1.00  0.00    -0.377 A  
HETATM   23  F   UNL     1     -11.019  13.446  64.401  1.00  0.00    -0.335 F  
HETATM   24  F   UNL     1     -12.661  12.065  64.762  1.00  0.00    -0.426 F  
ENDBRANCH  11  15
BRANCH  14  25
HETATM   25  N   UNL     1      -5.159   9.965  67.949  1.00  0.00    -0.033 NA 
HETATM   26  H   UNL     1      -4.234  10.117  67.548  1.00  0.00     0.000 HD 
BRANCH  25  27
HETATM   27  C   UNL     1      -5.467   8.632  68.235  1.00  0.00    -0.034 A  
HETATM   28  C   UNL     1      -6.475   6.528  67.599  1.00  0.00    -0.052 A  
HETATM   29  C   UNL     1      -6.082   7.831  67.270  1.00  0.00    -0.049 A  
HETATM   30  N   UNL     1      -6.243   5.999  68.835  1.00  0.00    -0.034 NA 
HETATM   31  C   UNL     1      -7.220   5.678  66.580  1.00  0.00    -0.077 C  
HETATM   32  C   UNL     1      -5.645   6.784  69.749  1.00  0.00    -0.015 A  
HETATM   33  F   UNL     1      -8.458   5.296  67.007  1.00  0.00    -0.108 F  
HETATM   34  F   UNL     1      -7.433   6.319  65.390  1.00  0.00    -0.072 F  
HETATM   35  F   UNL     1      -6.562   4.527  66.256  1.00  0.00    -0.040 F  
HETATM   36  C   UNL     1      -5.267   8.091  69.505  1.00  0.00    -0.026 A  
ENDBRANCH  25  27
ENDBRANCH  14  25
ENDBRANCH   7   9
ENDBRANCH   5   7
TORSDOF 5
ENDMDL
MODEL      315
REMARK 921   NORMALIZED FREE ENERGY PREDICTED BY IDOCK:    3.24 KCAL/MOL
REMARK 922        TOTAL FREE ENERGY PREDICTED BY IDOCK:    3.03 KCAL/MOL
REMARK 923 INTER-LIGAND FREE ENERGY PREDICTED BY IDOCK:    3.77 KCAL/MOL
REMARK 924 INTRA-LIGAND FREE ENERGY PREDICTED BY IDOCK:   -0.74 KCAL/MOL
REMARK 927      BINDING AFFINITY PREDICTED BY RF-SCORE:    0.00 PKD
ROOT
HETATM    1  C   UNL     1     -12.292  17.617  73.998  1.00  0.00     1.131 C  
HETATM    2  C   UNL     1     -12.745  16.343  73.278  1.00  0.00    -0.297 C  
HETATM    3  C   UNL     1     -12.823  15.181  74.276  1.00  0.00    -0.013 C  
HETATM    4  O   UNL     1     -14.063  16.564  72.752  1.00  0.00     0.316 OA 
HETATM    5  C   UNL     1     -11.787  16.042  72.094  1.00  0.00    -0.528 C  
HETATM    6  H   UNL     1     -14.344  15.773  72.306  1.00  0.00     0.000 HD 
ENDROOT
BRANCH   5   7
HETATM    7  N   UNL     1     -12.126  14.765  71.482  1.00  0.00    -0.337 NA 
HETATM    8  H   UNL     1     -12.882  14.189  71.855  1.00  0.00     0.000 HD 
BRANCH   7   9
HETATM    9  C   UNL     1     -11.397  14.354  70.383  1.00  0.00    -0.094 A  
HETATM   10  N   UNL     1     -11.631  14.868  69.186  1.00  0.00    -0.290 NA 
HETATM   11  C   UNL     1     -10.878  14.391  68.194  1.00  0.00    -0.244 A  
HETATM   12  N   UNL     1     -10.454  13.455  70.633  1.00  0.00     2.659 NA 
HETATM   13  N   UNL     1      -9.920  13.477  68.357  1.00  0.00    -0.236 NA 
HETATM   14  C   UNL     1      -9.722  13.065  69.602  1.00  0.00     1.616 A  
BRANCH  11  15
HETATM   15  C   UNL     1     -11.097  14.908  66.817  1.00  0.00    -0.335 A  
HETATM   16  C   UNL     1     -11.717  14.458  64.589  1.00  0.00    -0.430 A  
HETATM   17  F   UNL     1     -11.341  13.374  62.477  1.00  0.00     0.851 F  
HETATM   18  N   UNL     1     -11.507  14.021  65.865  1.00  0.00    -0.322 NA 
HETATM   19  C   UNL     1     -11.509  15.788  64.223  1.00  0.00    -0.203 A  
HETATM   20  C   UNL     1     -12.206  13.480  63.529  1.00  0.00    -0.346 C  
HETATM   21  C   UNL     1     -10.894  16.254  66.495  1.00  0.00    -0.105 A  
HETATM   22  C   UNL     1     -11.096  16.694  65.189  1.00  0.00    -0.086 A  
HETATM   23  F   UNL     1     -12.401  12.208  63.977  1.00  0.00    -0.471 F  
HETATM   24  F   UNL     1     -13.396  13.865  62.979  1.00  0.00     1.072 F  
ENDBRANCH  11  15
BRANCH  14  25
HETATM   25  N   UNL     1      -8.637  12.235  69.889  1.00  0.00     1.740 NA 
HETATM   26  H   UNL     1      -8.205  12.390  70.800  1.00  0.00     0.000 HD 
BRANCH  25  27
HETATM   27  C   UNL     1      -8.051  11.224  69.122  1.00  0.00     0.026 A  
HETATM   28  C   UNL     1      -8.181   9.614  67.323  1.00  0.00    -0.114 A  
HETATM   29  C   UNL     1      -8.732  10.693  68.024  1.00  0.00    -0.126 A  
HETATM   30  N   UNL     1      -6.970   9.083  67.660  1.00  0.00    -0.074 NA 
HETATM   31  C   UNL     1      -8.953   8.976  66.177  1.00  0.00    -0.177 C  
HETATM   32  C   UNL     1      -6.328   9.611  68.718  1.00  0.00    -0.046 A  
HETATM   33  F   UNL     1      -9.227   7.656  66.388  1.00  0.00    -0.172 F  
HETATM   34  F   UNL     1     -10.168   9.562  65.949  1.00  0.00    -0.358 F  
HETATM   35  F   UNL     1      -8.294   9.037  64.984  1.00  0.00    -0.129 F  
HETATM   36  C   UNL     1      -6.832  10.649  69.478  1.00  0.00    -0.109 A  
ENDBRANCH  25  27
ENDBRANCH  14  25
ENDBRANCH   7   9
ENDBRANCH   5   7
TORSDOF 5
ENDMDL
MODEL      316
REMARK 921   NORMALIZED FREE ENERGY PREDICTED BY IDOCK:    3.62 KCAL/MOL
REMARK 922        TOTAL FREE ENERGY PREDICTED BY IDOCK:    3.52 KCAL/MOL
REMARK 923 INTER-LIGAND FREE ENERGY PREDICTED BY IDOCK:    0.12 KCAL/MOL
REMARK 924 INTRA-LIGAND FREE ENERGY PREDICTED BY IDOCK:    3.40 KCAL/MOL
REMARK 927      BINDING AFFINITY PREDICTED BY RF-SCORE:    0.00 PKD
ROOT
HETATM    1  C   UNL     1      -6.525  15.581  71.870  1.00  0.00     2.037 C  
HETATM    2  C   UNL     1      -6.611  14.952  70.476  1.00  0.00     0.063 C  
HETATM    3  C   UNL     1      -7.034  13.483  70.592  1.00  0.00     1.374 C  
HETATM    4  O   UNL     1      -7.623  15.646  69.729  1.00  0.00    -0.172 OA 
HETATM    5  C   UNL     1      -5.254  15.121  69.741  1.00  0.00    -0.096 C  
HETATM    6  H   UNL     1      -7.676  15.256  68.864  1.00  0.00     0.000 HD 
ENDROOT
BRANCH   5   7
HETATM    7  N   UNL     1      -5.279  14.416  68.468  1.00  0.00    -0.093 NA 
HETATM    8  H   UNL     1      -4.774  14.777  67.658  1.00  0.00     0.000 HD 
BRANCH   7   9
HETATM    9  C   UNL     1      -6.004  13.243  68.386  1.00  0.00    -0.090 A  
HETATM   10  N   UNL     1      -7.324  13.269  68.304  1.00  0.00    -0.102 NA 
HETATM   11  C   UNL     1      -7.924  12.080  68.242  1.00  0.00    -0.149 A  
HETATM   12  N   UNL     1      -5.281  12.130  68.364  1.00  0.00    -0.050 NA 
HETATM   13  N   UNL     1      -7.274  10.915  68.229  1.00  0.00    -0.081 NA 
HETATM   14  C   UNL     1      -5.951  10.993  68.257  1.00  0.00    -0.046 A  
BRANCH  11  15
HETATM   15  C   UNL     1      -9.409  12.030  68.167  1.00  0.00    -0.199 A  
HETATM   16  C   UNL     1     -11.446  11.502  69.227  1.00  0.00    -0.305 A  
HETATM   17  F   UNL     1     -12.967   9.909  70.191  1.00  0.00    -0.124 F  
HETATM   18  N   UNL     1     -10.083  11.564  69.258  1.00  0.00     0.031 NA 
HETATM   19  C   UNL     1     -12.174  11.887  68.101  1.00  0.00     0.216 A  
HETATM   20  C   UNL     1     -12.206  11.013  70.453  1.00  0.00    -0.373 C  
HETATM   21  C   UNL     1     -10.103  12.443  67.025  1.00  0.00    -0.223 A  
HETATM   22  C   UNL     1     -11.493  12.365  66.991  1.00  0.00    -0.423 A  
HETATM   23  F   UNL     1     -11.418  10.677  71.512  1.00  0.00    -0.243 F  
HETATM   24  F   UNL     1     -13.081  11.950  70.926  1.00  0.00    -0.289 F  
ENDBRANCH  11  15
BRANCH  14  25
HETATM   25  N   UNL     1      -5.187   9.837  68.084  1.00  0.00    -0.036 NA 
HETATM   26  H   UNL     1      -4.273   9.984  67.655  1.00  0.00     0.000 HD 
BRANCH  25  27
HETATM   27  C   UNL     1      -5.481   8.510  68.408  1.00  0.00    -0.034 A  
HETATM   28  C   UNL     1      -6.497   6.389  67.846  1.00  0.00    -0.049 A  
HETATM   29  C   UNL     1      -6.119   7.686  67.477  1.00  0.00    -0.049 A  
HETATM   30  N   UNL     1      -6.229   5.889  69.086  1.00  0.00    -0.031 NA 
HETATM   31  C   UNL     1      -7.265   5.513  66.866  1.00  0.00    -0.078 C  
HETATM   32  C   UNL     1      -5.611   6.696  69.967  1.00  0.00    -0.018 A  
HETATM   33  F   UNL     1      -8.490   5.136  67.335  1.00  0.00    -0.106 F  
HETATM   34  F   UNL     1      -7.513   6.126  65.669  1.00  0.00    -0.073 F  
HETATM   35  F   UNL     1      -6.611   4.357  66.551  1.00  0.00    -0.043 F  
HETATM   36  C   UNL     1      -5.245   7.999  69.684  1.00  0.00    -0.023 A  
ENDBRANCH  25  27
ENDBRANCH  14  25
ENDBRANCH   7   9
ENDBRANCH   5   7
TORSDOF 5
ENDMDL
MODEL      317
REMARK 921   NORMALIZED FREE ENERGY PREDICTED BY IDOCK:    4.17 KCAL/MOL
REMARK 922        TOTAL FREE ENERGY PREDICTED BY IDOCK:    4.22 KCAL/MOL
REMARK 923 INTER-LIGAND FREE ENERGY PREDICTED BY IDOCK:   -1.75 KCAL/MOL
REMARK 924 INTRA-LIGAND FREE ENERGY PREDICTED BY IDOCK:    5.97 KCAL/MOL
REMARK 927      BINDING AFFINITY PREDICTED BY RF-SCORE:    0.00 PKD
ROOT
HETATM    1  C   UNL     1     -11.908  13.227  62.670  1.00  0.00     1.712 C  
HETATM    2  C   UNL     1     -11.546  12.829  64.105  1.00  0.00    -0.396 C  
HETATM    3  C   UNL     1     -10.026  12.890  64.294  1.00  0.00    -0.135 C  
HETATM    4  O   UNL     1     -12.142  13.779  65.002  1.00  0.00    -0.365 OA 
HETATM    5  C   UNL     1     -12.126  11.424  64.420  1.00  0.00     0.366 C  
HETATM    6  H   UNL     1     -11.918  13.532  65.892  1.00  0.00     0.000 HD 
ENDROOT
BRANCH   5   7
HETATM    7  N   UNL     1     -11.679  10.977  65.732  1.00  0.00     0.358 NA 
HETATM    8  H   UNL     1     -11.568   9.984  65.938  1.00  0.00     0.000 HD 
BRANCH   7   9
HETATM    9  C   UNL     1     -11.410  11.934  66.690  1.00  0.00    -0.337 A  
HETATM   10  N   UNL     1     -11.903  11.822  67.914  1.00  0.00    -0.574 NA 
HETATM   11  C   UNL     1     -11.591  12.808  68.756  1.00  0.00    -0.312 A  
HETATM   12  N   UNL     1     -10.616  12.921  66.298  1.00  0.00    -0.263 NA 
HETATM   13  N   UNL     1     -10.811  13.843  68.438  1.00  0.00    -0.247 NA 
HETATM   14  C   UNL     1     -10.319  13.837  67.207  1.00  0.00    -0.253 A  
BRANCH  11  15
HETATM   15  C   UNL     1     -12.124  12.760  70.144  1.00  0.00    -0.298 A  
HETATM   16  C   UNL     1     -12.757  13.940  72.082  1.00  0.00    -0.230 A  
HETATM   17  F   UNL     1     -12.224  15.332  73.968  1.00  0.00    -0.549 F  
HETATM   18  N   UNL     1     -12.272  13.943  70.806  1.00  0.00    -0.358 NA 
HETATM   19  C   UNL     1     -13.093  12.756  72.739  1.00  0.00     0.514 A  
HETATM   20  C   UNL     1     -12.956  15.260  72.816  1.00  0.00    -0.438 C  
HETATM   21  C   UNL     1     -12.466  11.552  70.760  1.00  0.00    -0.444 A  
HETATM   22  C   UNL     1     -12.947  11.550  72.066  1.00  0.00    -0.373 A  
HETATM   23  F   UNL     1     -12.622  16.366  72.095  1.00  0.00    -0.474 F  
HETATM   24  F   UNL     1     -14.253  15.447  73.201  1.00  0.00    -0.393 F  
ENDBRANCH  11  15
BRANCH  14  25
HETATM   25  N   UNL     1      -9.368  14.791  66.839  1.00  0.00    -0.228 NA 
HETATM   26  H   UNL     1      -9.464  15.153  65.891  1.00  0.00     0.000 HD 
BRANCH  25  27
HETATM   27  C   UNL     1      -8.304  15.326  67.571  1.00  0.00    -0.175 A  
HETATM   28  C   UNL     1      -6.891  15.313  69.533  1.00  0.00    -0.180 A  
HETATM   29  C   UNL     1      -7.891  14.715  68.757  1.00  0.00    -0.146 A  
HETATM   30  N   UNL     1      -6.277  16.469  69.145  1.00  0.00    -0.162 NA 
HETATM   31  C   UNL     1      -6.492  14.699  70.867  1.00  0.00     0.185 C  
HETATM   32  C   UNL     1      -6.686  17.040  67.998  1.00  0.00    -0.149 A  
HETATM   33  F   UNL     1      -6.690  15.540  71.923  1.00  0.00     1.414 F  
HETATM   34  F   UNL     1      -7.195  13.566  71.175  1.00  0.00     1.495 F  
HETATM   35  F   UNL     1      -5.178  14.332  70.919  1.00  0.00    -0.101 F  
HETATM   36  C   UNL     1      -7.694  16.525  67.204  1.00  0.00    -0.214 A  
ENDBRANCH  25  27
ENDBRANCH  14  25
ENDBRANCH   7   9
ENDBRANCH   5   7
TORSDOF 5
ENDMDL
MODEL      318
REMARK 921   NORMALIZED FREE ENERGY PREDICTED BY IDOCK:    6.06 KCAL/MOL
REMARK 922        TOTAL FREE ENERGY PREDICTED BY IDOCK:    6.67 KCAL/MOL
REMARK 923 INTER-LIGAND FREE ENERGY PREDICTED BY IDOCK:   -2.65 KCAL/MOL
REMARK 924 INTRA-LIGAND FREE ENERGY PREDICTED BY IDOCK:    9.32 KCAL/MOL
REMARK 927      BINDING AFFINITY PREDICTED BY RF-SCORE:    0.00 PKD
ROOT
HETATM    1  C   UNL     1      -9.838  17.149  67.018  1.00  0.00    -0.276 C  
HETATM    2  C   UNL     1      -9.364  15.728  66.699  1.00  0.00    -0.258 C  
HETATM    3  C   UNL     1      -7.836  15.653  66.809  1.00  0.00    -0.211 C  
HETATM    4  O   UNL     1      -9.922  14.835  67.675  1.00  0.00    -0.225 OA 
HETATM    5  C   UNL     1      -9.877  15.308  65.296  1.00  0.00    -0.215 C  
HETATM    6  H   UNL     1      -9.628  13.953  67.476  1.00  0.00     0.000 HD 
ENDROOT
BRANCH   5   7
HETATM    7  N   UNL     1      -9.326  14.013  64.923  1.00  0.00     0.190 NA 
HETATM    8  H   UNL     1      -9.027  13.826  63.966  1.00  0.00     0.000 HD 
BRANCH   7   9
HETATM    9  C   UNL     1      -9.217  13.045  65.902  1.00  0.00     0.172 A  
HETATM   10  N   UNL     1      -9.382  11.765  65.608  1.00  0.00    -0.196 NA 
HETATM   11  C   UNL     1      -9.268  10.916  66.630  1.00  0.00    -0.168 A  
HETATM   12  N   UNL     1      -8.911  13.494  67.112  1.00  0.00    -0.219 NA 
HETATM   13  N   UNL     1      -8.977  11.285  67.878  1.00  0.00    -0.142 NA 
HETATM   14  C   UNL     1      -8.773  12.583  68.063  1.00  0.00    -0.186 A  
BRANCH  11  15
HETATM   15  C   UNL     1      -9.459   9.462  66.378  1.00  0.00    -0.201 A  
HETATM   16  C   UNL     1     -10.220   7.381  67.176  1.00  0.00    -0.277 A  
HETATM   17  F   UNL     1     -10.087   5.538  68.714  1.00  0.00    -0.178 F  
HETATM   18  N   UNL     1     -10.030   8.719  67.368  1.00  0.00    -0.190 NA 
HETATM   19  C   UNL     1      -9.832   6.745  65.997  1.00  0.00     0.225 A  
HETATM   20  C   UNL     1     -10.887   6.550  68.264  1.00  0.00    -0.288 C  
HETATM   21  C   UNL     1      -9.071   8.866  65.174  1.00  0.00    -0.157 A  
HETATM   22  C   UNL     1      -9.254   7.499  64.985  1.00  0.00     0.799 A  
HETATM   23  F   UNL     1     -11.252   7.254  69.372  1.00  0.00    -0.217 F  
HETATM   24  F   UNL     1     -12.027   5.939  67.823  1.00  0.00     0.738 F  
ENDBRANCH  11  15
BRANCH  14  25
HETATM   25  N   UNL     1      -8.306  13.039  69.297  1.00  0.00     0.046 NA 
HETATM   26  H   UNL     1      -8.736  12.599  70.110  1.00  0.00     0.000 HD 
BRANCH  25  27
HETATM   27  C   UNL     1      -7.341  14.006  69.590  1.00  0.00     0.243 A  
HETATM   28  C   UNL     1      -6.582  16.302  69.523  1.00  0.00    -0.202 A  
HETATM   29  C   UNL     1      -7.592  15.353  69.318  1.00  0.00    -0.216 A  
HETATM   30  N   UNL     1      -5.360  15.952  70.018  1.00  0.00    -0.136 NA 
HETATM   31  C   UNL     1      -6.819  17.758  69.151  1.00  0.00    -0.227 C  
HETATM   32  C   UNL     1      -5.139  14.650  70.278  1.00  0.00    -0.097 A  
HETATM   33  F   UNL     1      -5.945  18.218  68.210  1.00  0.00    -0.167 F  
HETATM   34  F   UNL     1      -8.063  17.990  68.630  1.00  0.00    -0.283 F  
HETATM   35  F   UNL     1      -6.710  18.609  70.213  1.00  0.00     0.005 F  
HETATM   36  C   UNL     1      -6.076  13.658  70.062  1.00  0.00    -0.137 A  
ENDBRANCH  25  27
ENDBRANCH  14  25
ENDBRANCH   7   9
ENDBRANCH   5   7
TORSDOF 5
ENDMDL
MODEL      319
REMARK 921   NORMALIZED FREE ENERGY PREDICTED BY IDOCK:    7.97 KCAL/MOL
REMARK 922        TOTAL FREE ENERGY PREDICTED BY IDOCK:    9.14 KCAL/MOL
REMARK 923 INTER-LIGAND FREE ENERGY PREDICTED BY IDOCK:    8.70 KCAL/MOL
REMARK 924 INTRA-LIGAND FREE ENERGY PREDICTED BY IDOCK:    0.44 KCAL/MOL
REMARK 927      BINDING AFFINITY PREDICTED BY RF-SCORE:    0.00 PKD
ROOT
HETATM    1  C   UNL     1     -10.141  20.077  64.260  1.00  0.00     4.722 C  
HETATM    2  C   UNL     1      -9.141  19.301  65.122  1.00  0.00     2.026 C  
HETATM    3  C   UNL     1      -9.431  17.799  65.029  1.00  0.00     2.647 C  
HETATM    4  O   UNL     1      -7.822  19.530  64.601  1.00  0.00     0.937 OA 
HETATM    5  C   UNL     1      -9.191  19.825  66.582  1.00  0.00    -0.380 C  
HETATM    6  H   UNL     1      -7.202  19.048  65.136  1.00  0.00     0.000 HD 
ENDROOT
BRANCH   5   7
HETATM    7  N   UNL     1      -8.343  19.010  67.440  1.00  0.00    -0.274 NA 
HETATM    8  H   UNL     1      -7.350  19.220  67.548  1.00  0.00     0.000 HD 
BRANCH   7   9
HETATM    9  C   UNL     1      -8.918  17.945  68.104  1.00  0.00    -0.268 A  
HETATM   10  N   UNL     1      -8.691  16.702  67.713  1.00  0.00    -0.199 NA 
HETATM   11  C   UNL     1      -9.306  15.751  68.417  1.00  0.00    -0.196 A  
HETATM   12  N   UNL     1      -9.665  18.268  69.152  1.00  0.00    -0.179 NA 
HETATM   13  N   UNL     1     -10.084  15.990  69.474  1.00  0.00    -0.265 NA 
HETATM   14  C   UNL     1     -10.206  17.263  69.824  1.00  0.00     0.194 A  
BRANCH  11  15
HETATM   15  C   UNL     1      -9.112  14.329  68.023  1.00  0.00    -0.191 A  
HETATM   16  C   UNL     1      -9.930  12.120  68.050  1.00  0.00    -0.203 A  
HETATM   17  F   UNL     1     -10.545  10.116  69.227  1.00  0.00    -0.183 F  
HETATM   18  N   UNL     1     -10.074  13.434  68.391  1.00  0.00    -0.245 NA 
HETATM   19  C   UNL     1      -8.818  11.660  67.346  1.00  0.00    -0.160 A  
HETATM   20  C   UNL     1     -11.016  11.121  68.429  1.00  0.00    -0.227 C  
HETATM   21  C   UNL     1      -7.989  13.912  67.301  1.00  0.00    -0.147 A  
HETATM   22  C   UNL     1      -7.840  12.569  66.966  1.00  0.00    -0.065 A  
HETATM   23  F   UNL     1     -12.074  11.659  69.096  1.00  0.00    -0.339 F  
HETATM   24  F   UNL     1     -11.546  10.495  67.337  1.00  0.00    -0.343 F  
ENDBRANCH  11  15
BRANCH  14  25
HETATM   25  N   UNL     1     -10.866  17.593  71.009  1.00  0.00     0.920 NA 
HETATM   26  H   UNL     1     -10.915  18.591  71.212  1.00  0.00     0.000 HD 
BRANCH  25  27
HETATM   27  C   UNL     1     -11.469  16.766  71.961  1.00  0.00     0.309 A  
HETATM   28  C   UNL     1     -12.375  14.617  72.601  1.00  0.00    -0.238 A  
HETATM   29  C   UNL     1     -11.681  15.413  71.682  1.00  0.00    -0.483 A  
HETATM   30  N   UNL     1     -12.825  15.117  73.788  1.00  0.00    -0.500 NA 
HETATM   31  C   UNL     1     -12.681  13.164  72.270  1.00  0.00     0.013 C  
HETATM   32  C   UNL     1     -12.608  16.421  74.040  1.00  0.00    -0.431 A  
HETATM   33  F   UNL     1     -14.018  12.892  72.249  1.00  0.00    -0.530 F  
HETATM   34  F   UNL     1     -12.218  12.778  71.042  1.00  0.00    -0.435 F  
HETATM   35  F   UNL     1     -12.132  12.282  73.155  1.00  0.00     2.708 F  
HETATM   36  C   UNL     1     -11.966  17.273  73.161  1.00  0.00     0.699 A  
ENDBRANCH  25  27
ENDBRANCH  14  25
ENDBRANCH   7   9
ENDBRANCH   5   7
TORSDOF 5
ENDMDL
MODEL      320
REMARK 921   NORMALIZED FREE ENERGY PREDICTED BY IDOCK:   20.42 KCAL/MOL
REMARK 922        TOTAL FREE ENERGY PREDICTED BY IDOCK:   25.22 KCAL/MOL
REMARK 923 INTER-LIGAND FREE ENERGY PREDICTED BY IDOCK:   26.02 KCAL/MOL
REMARK 924 INTRA-LIGAND FREE ENERGY PREDICTED BY IDOCK:   -0.80 KCAL/MOL
REMARK 927      BINDING AFFINITY PREDICTED BY RF-SCORE:    0.00 PKD
ROOT
HETATM    1  C   UNL     1     -12.177  19.150  73.773  1.00  0.00     7.896 C  
HETATM    2  C   UNL     1     -12.316  17.759  73.147  1.00  0.00     3.049 C  
HETATM    3  C   UNL     1     -12.210  16.685  74.236  1.00  0.00    -0.382 C  
HETATM    4  O   UNL     1     -13.621  17.659  72.553  1.00  0.00     5.718 OA 
HETATM    5  C   UNL     1     -11.253  17.579  72.031  1.00  0.00     1.952 C  
HETATM    6  H   UNL     1     -13.707  16.796  72.164  1.00  0.00     0.000 HD 
ENDROOT
BRANCH   5   7
HETATM    7  N   UNL     1     -11.287  16.218  71.517  1.00  0.00    -0.290 NA 
HETATM    8  H   UNL     1     -11.971  15.544  71.861  1.00  0.00     0.000 HD 
BRANCH   7   9
HETATM    9  C   UNL     1     -10.367  15.862  70.549  1.00  0.00     0.156 A  
HETATM   10  N   UNL     1     -10.375  16.447  69.362  1.00  0.00    -0.283 NA 
HETATM   11  C   UNL     1      -9.452  16.020  68.500  1.00  0.00    -0.216 A  
HETATM   12  N   UNL     1      -9.488  14.939  70.916  1.00  0.00     1.568 NA 
HETATM   13  N   UNL     1      -8.541  15.087  68.782  1.00  0.00    -0.173 NA 
HETATM   14  C   UNL     1      -8.577  14.601  70.016  1.00  0.00     0.781 A  
BRANCH  11  15
HETATM   15  C   UNL     1      -9.411  16.619  67.138  1.00  0.00    -0.230 A  
HETATM   16  C   UNL     1      -8.447  18.196  65.678  1.00  0.00     0.637 A  
HETATM   17  F   UNL     1      -8.006  20.467  65.026  1.00  0.00    -0.063 F  
HETATM   18  N   UNL     1      -8.513  17.620  66.914  1.00  0.00    -0.232 NA 
HETATM   19  C   UNL     1      -9.285  17.799  64.636  1.00  0.00     5.388 A  
HETATM   20  C   UNL     1      -7.424  19.293  65.412  1.00  0.00     0.195 C  
HETATM   21  C   UNL     1     -10.258  16.180  66.115  1.00  0.00    -0.351 A  
HETATM   22  C   UNL     1     -10.198  16.778  64.860  1.00  0.00     0.702 A  
HETATM   23  F   UNL     1      -6.634  19.603  66.478  1.00  0.00    -0.183 F  
HETATM   24  F   UNL     1      -6.567  18.965  64.399  1.00  0.00    -0.126 F  
ENDBRANCH  11  15
BRANCH  14  25
HETATM   25  N   UNL     1      -7.564  13.744  70.450  1.00  0.00     0.958 NA 
HETATM   26  H   UNL     1      -7.221  13.924  71.393  1.00  0.00     0.000 HD 
BRANCH  25  27
HETATM   27  C   UNL     1      -6.949  12.675  69.791  1.00  0.00     0.392 A  
HETATM   28  C   UNL     1      -7.052  10.838  68.223  1.00  0.00    -0.078 A  
HETATM   29  C   UNL     1      -7.640  11.966  68.806  1.00  0.00    -0.090 A  
HETATM   30  N   UNL     1      -5.797  10.425  68.566  1.00  0.00    -0.041 NA 
HETATM   31  C   UNL     1      -7.829  10.012  67.209  1.00  0.00    -0.102 C  
HETATM   32  C   UNL     1      -5.146  11.123  69.514  1.00  0.00    -0.044 A  
HETATM   33  F   UNL     1      -8.011   8.718  67.602  1.00  0.00    -0.101 F  
HETATM   34  F   UNL     1      -9.087  10.492  66.967  1.00  0.00    -0.141 F  
HETATM   35  F   UNL     1      -7.226   9.952  65.986  1.00  0.00    -0.092 F  
HETATM   36  C   UNL     1      -5.682  12.222  70.158  1.00  0.00    -0.153 A  
ENDBRANCH  25  27
ENDBRANCH  14  25
ENDBRANCH   7   9
ENDBRANCH   5   7
TORSDOF 5
ENDMDL
MODEL      321
REMARK 921   NORMALIZED FREE ENERGY PREDICTED BY IDOCK:   22.84 KCAL/MOL
REMARK 922        TOTAL FREE ENERGY PREDICTED BY IDOCK:   28.36 KCAL/MOL
REMARK 923 INTER-LIGAND FREE ENERGY PREDICTED BY IDOCK:   27.22 KCAL/MOL
REMARK 924 INTRA-LIGAND FREE ENERGY PREDICTED BY IDOCK:    1.13 KCAL/MOL
REMARK 927      BINDING AFFINITY PREDICTED BY RF-SCORE:    0.00 PKD
ROOT
HETATM    1  C   UNL     1      -9.956  17.026  72.840  1.00  0.00     9.070 C  
HETATM    2  C   UNL     1      -9.150  16.158  71.869  1.00  0.00     7.807 C  
HETATM    3  C   UNL     1      -8.528  17.037  70.778  1.00  0.00     5.142 C  
HETATM    4  O   UNL     1      -8.080  15.537  72.599  1.00  0.00     7.182 OA 
HETATM    5  C   UNL     1     -10.059  15.044  71.285  1.00  0.00     1.495 C  
HETATM    6  H   UNL     1      -7.580  14.998  71.997  1.00  0.00     0.000 HD 
ENDROOT
BRANCH   5   7
HETATM    7  N   UNL     1      -9.344  14.293  70.264  1.00  0.00     0.996 NA 
HETATM    8  H   UNL     1      -8.793  13.469  70.507  1.00  0.00     0.000 HD 
BRANCH   7   9
HETATM    9  C   UNL     1      -9.431  14.725  68.955  1.00  0.00    -0.191 A  
HETATM   10  N   UNL     1      -9.185  15.987  68.642  1.00  0.00    -0.206 NA 
HETATM   11  C   UNL     1      -9.310  16.299  67.352  1.00  0.00    -0.221 A  
HETATM   12  N   UNL     1      -9.739  13.788  68.068  1.00  0.00    -0.225 NA 
HETATM   13  N   UNL     1      -9.630  15.423  66.399  1.00  0.00    -0.271 NA 
HETATM   14  C   UNL     1      -9.801  14.171  66.802  1.00  0.00    -0.272 A  
BRANCH  11  15
HETATM   15  C   UNL     1      -9.068  17.705  66.928  1.00  0.00    -0.253 A  
HETATM   16  C   UNL     1      -7.730  19.225  65.724  1.00  0.00    -0.110 A  
HETATM   17  F   UNL     1      -5.647  20.369  65.361  1.00  0.00    -0.189 F  
HETATM   18  N   UNL     1      -7.987  17.948  66.132  1.00  0.00    -0.474 NA 
HETATM   19  C   UNL     1      -8.535  20.297  66.110  1.00  0.00    -0.142 A  
HETATM   20  C   UNL     1      -6.544  19.499  64.808  1.00  0.00    -0.039 C  
HETATM   21  C   UNL     1      -9.910  18.749  67.324  1.00  0.00    -0.355 A  
HETATM   22  C   UNL     1      -9.638  20.053  66.917  1.00  0.00    -0.541 A  
HETATM   23  F   UNL     1      -5.825  18.394  64.465  1.00  0.00    -0.235 F  
HETATM   24  F   UNL     1      -6.924  20.075  63.629  1.00  0.00     0.395 F  
ENDBRANCH  11  15
BRANCH  14  25
HETATM   25  N   UNL     1      -9.977  13.159  65.856  1.00  0.00    -0.309 NA 
HETATM   26  H   UNL     1     -10.594  13.398  65.079  1.00  0.00     0.000 HD 
BRANCH  25  27
HETATM   27  C   UNL     1      -9.439  11.870  65.808  1.00  0.00    -0.196 A  
HETATM   28  C   UNL     1      -9.075   9.710  66.832  1.00  0.00    -0.138 A  
HETATM   29  C   UNL     1      -9.698  10.963  66.839  1.00  0.00    -0.210 A  
HETATM   30  N   UNL     1      -8.241   9.329  65.821  1.00  0.00    -0.114 NA 
HETATM   31  C   UNL     1      -9.287   8.748  67.992  1.00  0.00    -0.142 C  
HETATM   32  C   UNL     1      -8.007  10.215  64.835  1.00  0.00    -0.150 A  
HETATM   33  F   UNL     1      -8.127   8.423  68.634  1.00  0.00    -0.113 F  
HETATM   34  F   UNL     1     -10.109   9.245  68.966  1.00  0.00    -0.176 F  
HETATM   35  F   UNL     1      -9.851   7.564  67.613  1.00  0.00    -0.155 F  
HETATM   36  C   UNL     1      -8.557  11.482  64.800  1.00  0.00     0.558 A  
ENDBRANCH  25  27
ENDBRANCH  14  25
ENDBRANCH   7   9
ENDBRANCH   5   7
TORSDOF 5
ENDMDL
MODEL      322
REMARK 921   NORMALIZED FREE ENERGY PREDICTED BY IDOCK:   24.50 KCAL/MOL
REMARK 922        TOTAL FREE ENERGY PREDICTED BY IDOCK:   30.50 KCAL/MOL
REMARK 923 INTER-LIGAND FREE ENERGY PREDICTED BY IDOCK:   31.68 KCAL/MOL
REMARK 924 INTRA-LIGAND FREE ENERGY PREDICTED BY IDOCK:   -1.18 KCAL/MOL
REMARK 927      BINDING AFFINITY PREDICTED BY RF-SCORE:    0.00 PKD
ROOT
HETATM    1  C   UNL     1      -7.260  14.231  73.059  1.00  0.00     4.514 C  
HETATM    2  C   UNL     1      -8.008  14.328  71.726  1.00  0.00     5.690 C  
HETATM    3  C   UNL     1      -7.164  15.110  70.712  1.00  0.00     0.970 C  
HETATM    4  O   UNL     1      -8.195  12.999  71.214  1.00  0.00     7.258 OA 
HETATM    5  C   UNL     1      -9.403  14.969  71.954  1.00  0.00     4.717 C  
HETATM    6  H   UNL     1      -8.659  13.060  70.387  1.00  0.00     0.000 HD 
ENDROOT
BRANCH   5   7
HETATM    7  N   UNL     1     -10.072  15.188  70.680  1.00  0.00    -0.346 NA 
HETATM    8  H   UNL     1      -9.823  15.980  70.086  1.00  0.00     0.000 HD 
BRANCH   7   9
HETATM    9  C   UNL     1     -11.054  14.295  70.296  1.00  0.00     0.097 A  
HETATM   10  N   UNL     1     -11.392  13.284  71.079  1.00  0.00     1.241 NA 
HETATM   11  C   UNL     1     -12.341  12.477  70.606  1.00  0.00    -0.282 A  
HETATM   12  N   UNL     1     -11.629  14.554  69.128  1.00  0.00    -0.280 NA 
HETATM   13  N   UNL     1     -12.960  12.656  69.438  1.00  0.00     1.128 NA 
HETATM   14  C   UNL     1     -12.593  13.729  68.750  1.00  0.00     0.523 A  
BRANCH  11  15
HETATM   15  C   UNL     1     -12.760  11.307  71.424  1.00  0.00    -0.396 A  
HETATM   16  C   UNL     1     -12.200   9.216  72.353  1.00  0.00    -0.193 A  
HETATM   17  F   UNL     1     -11.601   6.899  72.117  1.00  0.00    -0.273 F  
HETATM   18  N   UNL     1     -11.852  10.306  71.609  1.00  0.00    -0.216 NA 
HETATM   19  C   UNL     1     -13.468   9.085  72.919  1.00  0.00    -0.081 A  
HETATM   20  C   UNL     1     -11.180   8.109  72.590  1.00  0.00    -0.378 C  
HETATM   21  C   UNL     1     -14.037  11.223  71.989  1.00  0.00     0.801 A  
HETATM   22  C   UNL     1     -14.393  10.103  72.736  1.00  0.00     1.162 A  
HETATM   23  F   UNL     1      -9.963   8.328  72.019  1.00  0.00    -0.231 F  
HETATM   24  F   UNL     1     -10.934   7.911  73.920  1.00  0.00    -0.082 F  
ENDBRANCH  11  15
BRANCH  14  25
HETATM   25  N   UNL     1     -13.297  14.085  67.598  1.00  0.00     2.295 NA 
HETATM   26  H   UNL     1     -14.230  14.464  67.763  1.00  0.00     0.000 HD 
BRANCH  25  27
HETATM   27  C   UNL     1     -12.922  14.001  66.254  1.00  0.00     0.245 A  
HETATM   28  C   UNL     1     -12.431  12.677  64.291  1.00  0.00    -0.411 A  
HETATM   29  C   UNL     1     -12.902  12.764  65.607  1.00  0.00     0.254 A  
HETATM   30  N   UNL     1     -12.019  13.781  63.603  1.00  0.00    -0.374 NA 
HETATM   31  C   UNL     1     -12.329  11.322  63.607  1.00  0.00     0.585 C  
HETATM   32  C   UNL     1     -12.049  14.965  64.243  1.00  0.00    -0.353 A  
HETATM   33  F   UNL     1     -11.055  11.011  63.228  1.00  0.00    -0.371 F  
HETATM   34  F   UNL     1     -12.731  10.282  64.399  1.00  0.00     3.852 F  
HETATM   35  F   UNL     1     -13.090  11.231  62.478  1.00  0.00     0.162 F  
HETATM   36  C   UNL     1     -12.465  15.116  65.552  1.00  0.00     0.458 A  
ENDBRANCH  25  27
ENDBRANCH  14  25
ENDBRANCH   7   9
ENDBRANCH   5   7
TORSDOF 5
ENDMDL
MODEL      323
REMARK 921   NORMALIZED FREE ENERGY PREDICTED BY IDOCK:   24.99 KCAL/MOL
REMARK 922        TOTAL FREE ENERGY PREDICTED BY IDOCK:   31.13 KCAL/MOL
REMARK 923 INTER-LIGAND FREE ENERGY PREDICTED BY IDOCK:   26.93 KCAL/MOL
REMARK 924 INTRA-LIGAND FREE ENERGY PREDICTED BY IDOCK:    4.20 KCAL/MOL
REMARK 927      BINDING AFFINITY PREDICTED BY RF-SCORE:    0.00 PKD
ROOT
HETATM    1  C   UNL     1     -12.052  19.312  65.686  1.00  0.00     4.635 C  
HETATM    2  C   UNL     1     -10.980  18.261  65.993  1.00  0.00     0.242 C  
HETATM    3  C   UNL     1     -11.450  17.360  67.142  1.00  0.00     0.921 C  
HETATM    4  O   UNL     1     -10.806  17.439  64.829  1.00  0.00    -0.846 OA 
HETATM    5  C   UNL     1      -9.633  18.965  66.306  1.00  0.00    -0.319 C  
HETATM    6  H   UNL     1     -10.141  16.788  65.020  1.00  0.00     0.000 HD 
ENDROOT
BRANCH   5   7
HETATM    7  N   UNL     1      -8.639  17.988  66.727  1.00  0.00    -0.248 NA 
HETATM    8  H   UNL     1      -7.642  18.203  66.689  1.00  0.00     0.000 HD 
BRANCH   7   9
HETATM    9  C   UNL     1      -9.082  16.761  67.181  1.00  0.00    -0.212 A  
HETATM   10  N   UNL     1      -9.741  16.661  68.325  1.00  0.00    -0.237 NA 
HETATM   11  C   UNL     1     -10.111  15.428  68.673  1.00  0.00    -0.212 A  
HETATM   12  N   UNL     1      -8.827  15.735  66.379  1.00  0.00    -0.311 NA 
HETATM   13  N   UNL     1      -9.882  14.342  67.934  1.00  0.00    -0.221 NA 
HETATM   14  C   UNL     1      -9.267  14.551  66.778  1.00  0.00    -0.267 A  
BRANCH  11  15
HETATM   15  C   UNL     1     -10.839  15.235  69.957  1.00  0.00    -0.286 A  
HETATM   16  C   UNL     1     -10.735  14.735  72.256  1.00  0.00     1.774 A  
HETATM   17  F   UNL     1     -10.263  13.220  74.062  1.00  0.00     7.399 F  
HETATM   18  N   UNL     1     -10.102  14.921  71.061  1.00  0.00     0.902 NA 
HETATM   19  C   UNL     1     -12.120  14.841  72.380  1.00  0.00    -0.340 A  
HETATM   20  C   UNL     1      -9.915  14.416  73.500  1.00  0.00     7.310 C  
HETATM   21  C   UNL     1     -12.229  15.368  70.042  1.00  0.00    -0.392 A  
HETATM   22  C   UNL     1     -12.872  15.164  71.259  1.00  0.00    -0.461 A  
HETATM   23  F   UNL     1      -8.570  14.351  73.292  1.00  0.00     4.504 F  
HETATM   24  F   UNL     1     -10.093  15.343  74.487  1.00  0.00     5.481 F  
ENDBRANCH  11  15
BRANCH  14  25
HETATM   25  N   UNL     1      -9.131  13.501  65.868  1.00  0.00    -0.372 NA 
HETATM   26  H   UNL     1      -8.977  13.785  64.900  1.00  0.00     0.000 HD 
BRANCH  25  27
HETATM   27  C   UNL     1      -9.172  12.120  66.078  1.00  0.00    -0.118 A  
HETATM   28  C   UNL     1      -8.890  10.210  67.534  1.00  0.00    -0.125 A  
HETATM   29  C   UNL     1      -8.944  11.597  67.354  1.00  0.00    -0.166 A  
HETATM   30  N   UNL     1      -9.089   9.343  66.499  1.00  0.00    -0.147 NA 
HETATM   31  C   UNL     1      -8.561   9.633  68.903  1.00  0.00    -0.127 C  
HETATM   32  C   UNL     1      -9.311   9.866  65.279  1.00  0.00    -0.251 A  
HETATM   33  F   UNL     1      -7.432   8.866  68.902  1.00  0.00    -0.076 F  
HETATM   34  F   UNL     1      -8.343  10.589  69.857  1.00  0.00    -0.153 F  
HETATM   35  F   UNL     1      -9.553   8.842  69.407  1.00  0.00    -0.157 F  
HETATM   36  C   UNL     1      -9.339  11.223  65.023  1.00  0.00    -0.200 A  
ENDBRANCH  25  27
ENDBRANCH  14  25
ENDBRANCH   7   9
ENDBRANCH   5   7
TORSDOF 5
ENDMDL
MODEL      324
REMARK 921   NORMALIZED FREE ENERGY PREDICTED BY IDOCK:   25.87 KCAL/MOL
REMARK 922        TOTAL FREE ENERGY PREDICTED BY IDOCK:   32.27 KCAL/MOL
REMARK 923 INTER-LIGAND FREE ENERGY PREDICTED BY IDOCK:   33.26 KCAL/MOL
REMARK 924 INTRA-LIGAND FREE ENERGY PREDICTED BY IDOCK:   -0.99 KCAL/MOL
REMARK 927      BINDING AFFINITY PREDICTED BY RF-SCORE:    0.00 PKD
ROOT
HETATM    1  C   UNL     1     -11.377  19.970  72.394  1.00  0.00     9.695 C  
HETATM    2  C   UNL     1     -10.307  18.875  72.438  1.00  0.00     3.931 C  
HETATM    3  C   UNL     1      -8.918  19.509  72.571  1.00  0.00     4.753 C  
HETATM    4  O   UNL     1     -10.536  18.065  73.602  1.00  0.00     2.543 OA 
HETATM    5  C   UNL     1     -10.428  17.974  71.180  1.00  0.00     2.873 C  
HETATM    6  H   UNL     1      -9.873  17.385  73.629  1.00  0.00     0.000 HD 
ENDROOT
BRANCH   5   7
HETATM    7  N   UNL     1      -9.338  17.011  71.142  1.00  0.00     5.210 NA 
HETATM    8  H   UNL     1      -8.694  16.915  71.929  1.00  0.00     0.000 HD 
BRANCH   7   9
HETATM    9  C   UNL     1      -9.197  16.228  70.013  1.00  0.00     0.828 A  
HETATM   10  N   UNL     1      -9.785  16.568  68.877  1.00  0.00    -0.248 NA 
HETATM   11  C   UNL     1      -9.593  15.736  67.854  1.00  0.00    -0.214 A  
HETATM   12  N   UNL     1      -8.420  15.162  70.155  1.00  0.00     0.361 NA 
HETATM   13  N   UNL     1      -8.840  14.637  67.916  1.00  0.00    -0.164 NA 
HETATM   14  C   UNL     1      -8.245  14.411  69.080  1.00  0.00    -0.031 A  
BRANCH  11  15
HETATM   15  C   UNL     1     -10.239  16.044  66.549  1.00  0.00    -0.293 A  
HETATM   16  C   UNL     1     -11.913  15.519  64.977  1.00  0.00     0.161 A  
HETATM   17  F   UNL     1     -12.907  14.024  63.378  1.00  0.00    -0.174 F  
HETATM   18  N   UNL     1     -11.295  15.269  66.168  1.00  0.00    -0.231 NA 
HETATM   19  C   UNL     1     -11.486  16.539  64.126  1.00  0.00     0.466 A  
HETATM   20  C   UNL     1     -13.113  14.679  64.559  1.00  0.00     0.811 C  
HETATM   21  C   UNL     1      -9.791  17.088  65.733  1.00  0.00    -0.129 A  
HETATM   22  C   UNL     1     -10.414  17.332  64.513  1.00  0.00     2.085 A  
HETATM   23  F   UNL     1     -13.474  13.720  65.457  1.00  0.00    -0.389 F  
HETATM   24  F   UNL     1     -14.231  15.438  64.359  1.00  0.00     2.298 F  
ENDBRANCH  11  15
BRANCH  14  25
HETATM   25  N   UNL     1      -7.312  13.378  69.189  1.00  0.00    -0.301 NA 
HETATM   26  H   UNL     1      -6.345  13.680  69.304  1.00  0.00     0.000 HD 
BRANCH  25  27
HETATM   27  C   UNL     1      -7.499  11.993  69.164  1.00  0.00     0.096 A  
HETATM   28  C   UNL     1      -8.868  10.052  69.618  1.00  0.00    -0.199 A  
HETATM   29  C   UNL     1      -8.724  11.443  69.551  1.00  0.00     0.732 A  
HETATM   30  N   UNL     1      -7.851   9.208  69.280  1.00  0.00    -0.092 NA 
HETATM   31  C   UNL     1     -10.172   9.445  70.117  1.00  0.00    -0.231 C  
HETATM   32  C   UNL     1      -6.680   9.757  68.906  1.00  0.00    -0.050 A  
HETATM   33  F   UNL     1     -10.009   8.673  71.230  1.00  0.00    -0.222 F  
HETATM   34  F   UNL     1     -11.108  10.380  70.463  1.00  0.00    -0.332 F  
HETATM   35  F   UNL     1     -10.783   8.649  69.192  1.00  0.00    -0.227 F  
HETATM   36  C   UNL     1      -6.456  11.119  68.856  1.00  0.00    -0.056 A  
ENDBRANCH  25  27
ENDBRANCH  14  25
ENDBRANCH   7   9
ENDBRANCH   5   7
TORSDOF 5
ENDMDL
MODEL      325
REMARK 921   NORMALIZED FREE ENERGY PREDICTED BY IDOCK:   33.27 KCAL/MOL
REMARK 922        TOTAL FREE ENERGY PREDICTED BY IDOCK:   41.83 KCAL/MOL
REMARK 923 INTER-LIGAND FREE ENERGY PREDICTED BY IDOCK:   30.41 KCAL/MOL
REMARK 924 INTRA-LIGAND FREE ENERGY PREDICTED BY IDOCK:   11.42 KCAL/MOL
REMARK 927      BINDING AFFINITY PREDICTED BY RF-SCORE:    0.00 PKD
ROOT
HETATM    1  C   UNL     1     -12.528  12.923  63.165  1.00  0.00    -0.166 C  
HETATM    2  C   UNL     1     -12.634  12.835  64.691  1.00  0.00    -0.419 C  
HETATM    3  C   UNL     1     -11.318  12.309  65.274  1.00  0.00    -0.384 C  
HETATM    4  O   UNL     1     -12.849  14.158  65.206  1.00  0.00    -0.670 OA 
HETATM    5  C   UNL     1     -13.849  11.951  65.081  1.00  0.00     5.391 C  
HETATM    6  H   UNL     1     -12.915  14.103  66.153  1.00  0.00     0.000 HD 
ENDROOT
BRANCH   5   7
HETATM    7  N   UNL     1     -13.886  11.751  66.522  1.00  0.00     9.091 NA 
HETATM    8  H   UNL     1     -14.612  11.180  66.955  1.00  0.00     0.000 HD 
BRANCH   7   9
HETATM    9  C   UNL     1     -12.909  12.356  67.290  1.00  0.00     2.664 A  
HETATM   10  N   UNL     1     -13.046  12.455  68.602  1.00  0.00     2.036 NA 
HETATM   11  C   UNL     1     -12.051  13.068  69.244  1.00  0.00    -0.200 A  
HETATM   12  N   UNL     1     -11.846  12.783  66.620  1.00  0.00    -0.409 NA 
HETATM   13  N   UNL     1     -10.955  13.538  68.646  1.00  0.00    -0.256 NA 
HETATM   14  C   UNL     1     -10.883  13.341  67.336  1.00  0.00    -0.267 A  
BRANCH  11  15
HETATM   15  C   UNL     1     -12.144  13.233  70.719  1.00  0.00    -0.226 A  
HETATM   16  C   UNL     1     -11.898  14.643  72.590  1.00  0.00     0.018 A  
HETATM   17  F   UNL     1     -10.538  15.970  74.064  1.00  0.00     2.715 F  
HETATM   18  N   UNL     1     -11.827  14.453  71.241  1.00  0.00    -0.292 NA 
HETATM   19  C   UNL     1     -12.273  13.619  73.459  1.00  0.00     2.082 A  
HETATM   20  C   UNL     1     -11.576  16.012  73.177  1.00  0.00    -0.026 C  
HETATM   21  C   UNL     1     -12.542  12.184  71.554  1.00  0.00    -0.267 A  
HETATM   22  C   UNL     1     -12.601  12.377  72.932  1.00  0.00     2.696 A  
HETATM   23  F   UNL     1     -11.239  16.958  72.256  1.00  0.00    -0.149 F  
HETATM   24  F   UNL     1     -12.627  16.535  73.876  1.00  0.00    -0.526 F  
ENDBRANCH  11  15
BRANCH  14  25
HETATM   25  N   UNL     1      -9.704  13.653  66.656  1.00  0.00    -0.277 NA 
HETATM   26  H   UNL     1      -9.704  14.559  66.187  1.00  0.00     0.000 HD 
BRANCH  25  27
HETATM   27  C   UNL     1      -8.525  12.915  66.517  1.00  0.00     0.197 A  
HETATM   28  C   UNL     1      -7.194  10.968  67.048  1.00  0.00    -0.123 A  
HETATM   29  C   UNL     1      -8.412  11.655  67.109  1.00  0.00    -0.162 A  
HETATM   30  N   UNL     1      -6.113  11.481  66.392  1.00  0.00    -0.091 NA 
HETATM   31  C   UNL     1      -7.037   9.632  67.760  1.00  0.00    -0.081 C  
HETATM   32  C   UNL     1      -6.243  12.694  65.824  1.00  0.00     4.385 A  
HETATM   33  F   UNL     1      -6.058   9.646  68.711  1.00  0.00    -0.042 F  
HETATM   34  F   UNL     1      -8.168   9.231  68.417  1.00  0.00    -0.109 F  
HETATM   35  F   UNL     1      -6.727   8.606  66.916  1.00  0.00    -0.061 F  
HETATM   36  C   UNL     1      -7.402  13.444  65.880  1.00  0.00     4.338 A  
ENDBRANCH  25  27
ENDBRANCH  14  25
ENDBRANCH   7   9
ENDBRANCH   5   7
TORSDOF 5
ENDMDL
MODEL      326
REMARK 921   NORMALIZED FREE ENERGY PREDICTED BY IDOCK:   33.77 KCAL/MOL
REMARK 922        TOTAL FREE ENERGY PREDICTED BY IDOCK:   42.47 KCAL/MOL
REMARK 923 INTER-LIGAND FREE ENERGY PREDICTED BY IDOCK:   41.86 KCAL/MOL
REMARK 924 INTRA-LIGAND FREE ENERGY PREDICTED BY IDOCK:    0.61 KCAL/MOL
REMARK 927      BINDING AFFINITY PREDICTED BY RF-SCORE:    0.00 PKD
ROOT
HETATM    1  C   UNL     1      -9.602  17.123  72.854  1.00  0.00    11.954 C  
HETATM    2  C   UNL     1      -8.699  16.327  71.906  1.00  0.00     9.326 C  
HETATM    3  C   UNL     1      -8.151  17.251  70.812  1.00  0.00     5.227 C  
HETATM    4  O   UNL     1      -7.585  15.823  72.660  1.00  0.00     7.520 OA 
HETATM    5  C   UNL     1      -9.485  15.121  71.324  1.00  0.00     2.663 C  
HETATM    6  H   UNL     1      -7.025  15.329  72.072  1.00  0.00     0.000 HD 
ENDROOT
BRANCH   5   7
HETATM    7  N   UNL     1      -8.683  14.433  70.323  1.00  0.00     0.821 NA 
HETATM    8  H   UNL     1      -8.024  13.701  70.591  1.00  0.00     0.000 HD 
BRANCH   7   9
HETATM    9  C   UNL     1      -8.839  14.796  68.999  1.00  0.00    -0.136 A  
HETATM   10  N   UNL     1      -8.816  16.070  68.641  1.00  0.00    -0.199 NA 
HETATM   11  C   UNL     1      -8.988  16.309  67.341  1.00  0.00    -0.187 A  
HETATM   12  N   UNL     1      -8.974  13.789  68.147  1.00  0.00    -0.185 NA 
HETATM   13  N   UNL     1      -9.145  15.357  66.421  1.00  0.00    -0.294 NA 
HETATM   14  C   UNL     1      -9.096  14.109  66.868  1.00  0.00    -0.245 A  
BRANCH  11  15
HETATM   15  C   UNL     1      -8.993  17.720  66.866  1.00  0.00    -0.255 A  
HETATM   16  C   UNL     1      -7.956  19.397  65.577  1.00  0.00     0.323 A  
HETATM   17  F   UNL     1      -6.102  20.856  65.119  1.00  0.00    -0.256 F  
HETATM   18  N   UNL     1      -7.987  18.110  66.032  1.00  0.00    -0.510 NA 
HETATM   19  C   UNL     1      -8.919  20.333  65.953  1.00  0.00    -0.031 A  
HETATM   20  C   UNL     1      -6.854  19.831  64.619  1.00  0.00     0.244 C  
HETATM   21  C   UNL     1      -9.988  18.623  67.254  1.00  0.00    -0.360 A  
HETATM   22  C   UNL     1      -9.946  19.938  66.798  1.00  0.00    -0.569 A  
HETATM   23  F   UNL     1      -5.969  18.849  64.290  1.00  0.00    -0.307 F  
HETATM   24  F   UNL     1      -7.352  20.293  63.434  1.00  0.00     0.962 F  
ENDBRANCH  11  15
BRANCH  14  25
HETATM   25  N   UNL     1      -9.088  13.050  65.959  1.00  0.00    -0.442 NA 
HETATM   26  H   UNL     1      -8.234  12.960  65.409  1.00  0.00     0.000 HD 
BRANCH  25  27
HETATM   27  C   UNL     1     -10.069  12.093  65.687  1.00  0.00    -0.248 A  
HETATM   28  C   UNL     1     -12.014  11.378  64.440  1.00  0.00     0.271 A  
HETATM   29  C   UNL     1     -10.974  12.294  64.642  1.00  0.00    -0.349 A  
HETATM   30  N   UNL     1     -12.152  10.266  65.218  1.00  0.00     3.840 NA 
HETATM   31  C   UNL     1     -13.052  11.632  63.356  1.00  0.00     0.291 C  
HETATM   32  C   UNL     1     -11.268  10.088  66.217  1.00  0.00     0.808 A  
HETATM   33  F   UNL     1     -14.321  11.736  63.847  1.00  0.00     0.839 F  
HETATM   34  F   UNL     1     -12.840  12.792  62.662  1.00  0.00    -0.021 F  
HETATM   35  F   UNL     1     -13.094  10.649  62.410  1.00  0.00     1.646 F  
HETATM   36  C   UNL     1     -10.243  10.971  66.498  1.00  0.00    -0.280 A  
ENDBRANCH  25  27
ENDBRANCH  14  25
ENDBRANCH   7   9
ENDBRANCH   5   7
TORSDOF 5
ENDMDL
MODEL      327
REMARK 921   NORMALIZED FREE ENERGY PREDICTED BY IDOCK:   43.25 KCAL/MOL
REMARK 922        TOTAL FREE ENERGY PREDICTED BY IDOCK:   54.73 KCAL/MOL
REMARK 923 INTER-LIGAND FREE ENERGY PREDICTED BY IDOCK:   55.26 KCAL/MOL
REMARK 924 INTRA-LIGAND FREE ENERGY PREDICTED BY IDOCK:   -0.53 KCAL/MOL
REMARK 927      BINDING AFFINITY PREDICTED BY RF-SCORE:    0.00 PKD
ROOT
HETATM    1  C   UNL     1     -11.277   9.580  74.096  1.00  0.00    11.570 C  
HETATM    2  C   UNL     1     -11.668  10.944  73.517  1.00  0.00    11.703 C  
HETATM    3  C   UNL     1     -13.154  10.942  73.140  1.00  0.00     3.867 C  
HETATM    4  O   UNL     1     -11.471  11.940  74.534  1.00  0.00    15.117 OA 
HETATM    5  C   UNL     1     -10.751  11.284  72.312  1.00  0.00     9.125 C  
HETATM    6  H   UNL     1     -11.714  12.785  74.175  1.00  0.00     0.000 HD 
ENDROOT
BRANCH   5   7
HETATM    7  N   UNL     1     -11.196  12.513  71.671  1.00  0.00     3.320 NA 
HETATM    8  H   UNL     1     -11.846  13.144  72.141  1.00  0.00     0.000 HD 
BRANCH   7   9
HETATM    9  C   UNL     1     -10.713  12.803  70.410  1.00  0.00     2.184 A  
HETATM   10  N   UNL     1     -10.428  11.834  69.556  1.00  0.00     0.154 NA 
HETATM   11  C   UNL     1      -9.957  12.226  68.371  1.00  0.00    -0.209 A  
HETATM   12  N   UNL     1     -10.595  14.095  70.132  1.00  0.00     0.410 NA 
HETATM   13  N   UNL     1      -9.795  13.501  68.017  1.00  0.00    -0.231 NA 
HETATM   14  C   UNL     1     -10.161  14.401  68.919  1.00  0.00    -0.200 A  
BRANCH  11  15
HETATM   15  C   UNL     1      -9.597  11.190  67.365  1.00  0.00    -0.168 A  
HETATM   16  C   UNL     1      -9.492   8.905  66.802  1.00  0.00    -0.187 A  
HETATM   17  F   UNL     1      -8.619   6.691  67.140  1.00  0.00    -0.111 F  
HETATM   18  N   UNL     1      -9.811   9.884  67.698  1.00  0.00    -0.158 NA 
HETATM   19  C   UNL     1      -8.938   9.200  65.556  1.00  0.00    -0.252 A  
HETATM   20  C   UNL     1      -9.757   7.447  67.153  1.00  0.00    -0.171 C  
HETATM   21  C   UNL     1      -9.060  11.529  66.119  1.00  0.00    -0.217 A  
HETATM   22  C   UNL     1      -8.724  10.527  65.213  1.00  0.00    -0.200 A  
HETATM   23  F   UNL     1     -10.317   7.252  68.380  1.00  0.00    -0.168 F  
HETATM   24  F   UNL     1     -10.600   6.845  66.262  1.00  0.00    -0.172 F  
ENDBRANCH  11  15
BRANCH  14  25
HETATM   25  N   UNL     1     -10.180  15.754  68.576  1.00  0.00    -0.212 NA 
HETATM   26  H   UNL     1     -10.664  16.361  69.238  1.00  0.00     0.000 HD 
BRANCH  25  27
HETATM   27  C   UNL     1      -9.637  16.407  67.466  1.00  0.00    -0.227 A  
HETATM   28  C   UNL     1      -8.674  18.383  66.457  1.00  0.00    -0.278 A  
HETATM   29  C   UNL     1      -9.125  17.700  67.593  1.00  0.00    -0.241 A  
HETATM   30  N   UNL     1      -8.689  17.804  65.221  1.00  0.00     0.968 NA 
HETATM   31  C   UNL     1      -8.191  19.821  66.573  1.00  0.00    -0.335 C  
HETATM   32  C   UNL     1      -9.183  16.557  65.119  1.00  0.00     1.531 A  
HETATM   33  F   UNL     1      -8.920  20.692  65.818  1.00  0.00    -0.065 F  
HETATM   34  F   UNL     1      -8.254  20.313  67.848  1.00  0.00    -0.334 F  
HETATM   35  F   UNL     1      -6.892  19.985  66.188  1.00  0.00    -0.202 F  
HETATM   36  C   UNL     1      -9.680  15.841  66.192  1.00  0.00    -0.351 A  
ENDBRANCH  25  27
ENDBRANCH  14  25
ENDBRANCH   7   9
ENDBRANCH   5   7
TORSDOF 5
ENDMDL
MODEL      328
REMARK 921   NORMALIZED FREE ENERGY PREDICTED BY IDOCK:   51.19 KCAL/MOL
REMARK 922        TOTAL FREE ENERGY PREDICTED BY IDOCK:   64.99 KCAL/MOL
REMARK 923 INTER-LIGAND FREE ENERGY PREDICTED BY IDOCK:   63.73 KCAL/MOL
REMARK 924 INTRA-LIGAND FREE ENERGY PREDICTED BY IDOCK:    1.25 KCAL/MOL
REMARK 927      BINDING AFFINITY PREDICTED BY RF-SCORE:    0.00 PKD
ROOT
HETATM    1  C   UNL     1     -10.263  17.884  72.768  1.00  0.00     6.301 C  
HETATM    2  C   UNL     1      -9.448  16.831  72.011  1.00  0.00     9.067 C  
HETATM    3  C   UNL     1      -9.072  17.363  70.623  1.00  0.00     4.427 C  
HETATM    4  O   UNL     1      -8.232  16.592  72.738  1.00  0.00    15.342 OA 
HETATM    5  C   UNL     1     -10.248  15.502  71.940  1.00  0.00     2.085 C  
HETATM    6  H   UNL     1      -7.727  15.939  72.268  1.00  0.00     0.000 HD 
ENDROOT
BRANCH   5   7
HETATM    7  N   UNL     1      -9.543  14.534  71.112  1.00  0.00     2.212 NA 
HETATM    8  H   UNL     1      -8.966  13.805  71.533  1.00  0.00     0.000 HD 
BRANCH   7   9
HETATM    9  C   UNL     1      -9.677  14.628  69.741  1.00  0.00     0.334 A  
HETATM   10  N   UNL     1      -9.206  13.678  68.948  1.00  0.00     0.073 NA 
HETATM   11  C   UNL     1      -9.378  13.876  67.641  1.00  0.00    -0.205 A  
HETATM   12  N   UNL     1     -10.327  15.701  69.307  1.00  0.00    -0.232 NA 
HETATM   13  N   UNL     1     -10.006  14.932  67.122  1.00  0.00    -0.230 NA 
HETATM   14  C   UNL     1     -10.494  15.801  67.998  1.00  0.00    -0.270 A  
BRANCH  11  15
HETATM   15  C   UNL     1      -8.857  12.859  66.688  1.00  0.00    -0.091 A  
HETATM   16  C   UNL     1      -9.312  11.038  65.265  1.00  0.00    -0.216 A  
HETATM   17  F   UNL     1     -10.033   8.773  64.909  1.00  0.00     0.316 F  
HETATM   18  N   UNL     1      -9.752  11.987  66.143  1.00  0.00    -0.234 NA 
HETATM   19  C   UNL     1      -7.966  10.924  64.919  1.00  0.00     0.222 A  
HETATM   20  C   UNL     1     -10.310  10.080  64.627  1.00  0.00     0.407 C  
HETATM   21  C   UNL     1      -7.500  12.790  66.354  1.00  0.00     1.179 A  
HETATM   22  C   UNL     1      -7.053  11.813  65.469  1.00  0.00     1.581 A  
HETATM   23  F   UNL     1     -11.604  10.275  65.006  1.00  0.00     0.893 F  
HETATM   24  F   UNL     1     -10.307  10.163  63.264  1.00  0.00    -0.055 F  
ENDBRANCH  11  15
BRANCH  14  25
HETATM   25  N   UNL     1     -11.304  16.848  67.554  1.00  0.00     0.120 NA 
HETATM   26  H   UNL     1     -12.294  16.620  67.467  1.00  0.00     0.000 HD 
BRANCH  25  27
HETATM   27  C   UNL     1     -10.967  18.160  67.210  1.00  0.00    -0.069 A  
HETATM   28  C   UNL     1     -10.171  19.765  65.585  1.00  0.00    -0.267 A  
HETATM   29  C   UNL     1     -10.601  18.470  65.897  1.00  0.00    -0.336 A  
HETATM   30  N   UNL     1     -10.130  20.753  66.526  1.00  0.00     0.017 NA 
HETATM   31  C   UNL     1      -9.693  20.090  64.178  1.00  0.00     5.999 C  
HETATM   32  C   UNL     1     -10.490  20.436  67.783  1.00  0.00    -0.094 A  
HETATM   33  F   UNL     1      -8.399  20.519  64.140  1.00  0.00     1.202 F  
HETATM   34  F   UNL     1      -9.741  19.019  63.328  1.00  0.00    11.835 F  
HETATM   35  F   UNL     1     -10.431  21.065  63.571  1.00  0.00     2.495 F  
HETATM   36  C   UNL     1     -10.887  19.170  68.168  1.00  0.00    -0.076 A  
ENDBRANCH  25  27
ENDBRANCH  14  25
ENDBRANCH   7   9
ENDBRANCH   5   7
TORSDOF 5
ENDMDL
MODEL      329
REMARK 921   NORMALIZED FREE ENERGY PREDICTED BY IDOCK:   68.61 KCAL/MOL
REMARK 922        TOTAL FREE ENERGY PREDICTED BY IDOCK:   87.50 KCAL/MOL
REMARK 923 INTER-LIGAND FREE ENERGY PREDICTED BY IDOCK:   85.39 KCAL/MOL
REMARK 924 INTRA-LIGAND FREE ENERGY PREDICTED BY IDOCK:    2.11 KCAL/MOL
REMARK 927      BINDING AFFINITY PREDICTED BY RF-SCORE:    0.00 PKD
ROOT
HETATM    1  C   UNL     1      -6.984  14.951  73.623  1.00  0.00     4.168 C  
HETATM    2  C   UNL     1      -7.801  15.223  72.356  1.00  0.00     6.923 C  
HETATM    3  C   UNL     1      -6.866  15.315  71.144  1.00  0.00     1.214 C  
HETATM    4  O   UNL     1      -8.690  14.115  72.145  1.00  0.00     5.618 OA 
HETATM    5  C   UNL     1      -8.651  16.507  72.546  1.00  0.00    15.006 C  
HETATM    6  H   UNL     1      -9.197  14.284  71.359  1.00  0.00     0.000 HD 
ENDROOT
BRANCH   5   7
HETATM    7  N   UNL     1      -9.331  16.851  71.306  1.00  0.00     5.549 NA 
HETATM    8  H   UNL     1      -9.196  17.763  70.869  1.00  0.00     0.000 HD 
BRANCH   7   9
HETATM    9  C   UNL     1     -10.165  15.909  70.736  1.00  0.00     0.662 A  
HETATM   10  N   UNL     1     -10.327  14.722  71.299  1.00  0.00     1.018 NA 
HETATM   11  C   UNL     1     -11.144  13.885  70.658  1.00  0.00     0.742 A  
HETATM   12  N   UNL     1     -10.791  16.299  69.634  1.00  0.00    -0.326 NA 
HETATM   13  N   UNL     1     -11.801  14.192  69.539  1.00  0.00    -0.302 NA 
HETATM   14  C   UNL     1     -11.618  15.424  69.084  1.00  0.00    -0.339 A  
BRANCH  11  15
HETATM   15  C   UNL     1     -11.361  12.525  71.222  1.00  0.00     2.795 A  
HETATM   16  C   UNL     1     -10.490  10.378  71.648  1.00  0.00     2.682 A  
HETATM   17  F   UNL     1      -9.640   8.261  70.888  1.00  0.00    -0.158 F  
HETATM   18  N   UNL     1     -10.329  11.636  71.144  1.00  0.00     4.661 NA 
HETATM   19  C   UNL     1     -11.689   9.966  72.230  1.00  0.00     0.789 A  
HETATM   20  C   UNL     1      -9.332   9.390  71.593  1.00  0.00     0.379 C  
HETATM   21  C   UNL     1     -12.574  12.157  71.813  1.00  0.00    -0.133 A  
HETATM   22  C   UNL     1     -12.740  10.869  72.314  1.00  0.00     0.258 A  
HETATM   23  F   UNL     1      -8.194   9.881  71.027  1.00  0.00    -0.037 F  
HETATM   24  F   UNL     1      -8.968   8.951  72.834  1.00  0.00    -0.230 F  
ENDBRANCH  11  15
BRANCH  14  25
HETATM   25  N   UNL     1     -12.388  15.886  68.014  1.00  0.00     0.126 NA 
HETATM   26  H   UNL     1     -13.396  15.786  68.133  1.00  0.00     0.000 HD 
BRANCH  25  27
HETATM   27  C   UNL     1     -11.990  16.463  66.805  1.00  0.00     1.590 A  
HETATM   28  C   UNL     1     -10.668  16.393  64.781  1.00  0.00    -0.076 A  
HETATM   29  C   UNL     1     -11.140  15.768  65.941  1.00  0.00    -0.103 A  
HETATM   30  N   UNL     1     -11.044  17.662  64.446  1.00  0.00    -0.054 NA 
HETATM   31  C   UNL     1      -9.678  15.674  63.877  1.00  0.00     6.145 C  
HETATM   32  C   UNL     1     -11.866  18.314  65.289  1.00  0.00     4.000 A  
HETATM   33  F   UNL     1      -8.494  16.339  63.747  1.00  0.00     8.532 F  
HETATM   34  F   UNL     1      -9.341  14.426  64.325  1.00  0.00     0.921 F  
HETATM   35  F   UNL     1     -10.145  15.487  62.608  1.00  0.00     8.065 F  
HETATM   36  C   UNL     1     -12.338  17.772  66.469  1.00  0.00     5.306 A  
ENDBRANCH  25  27
ENDBRANCH  14  25
ENDBRANCH   7   9
ENDBRANCH   5   7
TORSDOF 5
ENDMDL
MODEL      330
REMARK 921   NORMALIZED FREE ENERGY PREDICTED BY IDOCK:   81.82 KCAL/MOL
REMARK 922        TOTAL FREE ENERGY PREDICTED BY IDOCK:  104.57 KCAL/MOL
REMARK 923 INTER-LIGAND FREE ENERGY PREDICTED BY IDOCK:   97.80 KCAL/MOL
REMARK 924 INTRA-LIGAND FREE ENERGY PREDICTED BY IDOCK:    6.77 KCAL/MOL
REMARK 927      BINDING AFFINITY PREDICTED BY RF-SCORE:    0.00 PKD
ROOT
HETATM    1  C   UNL     1     -12.576  12.921  63.129  1.00  0.00    -0.043 C  
HETATM    2  C   UNL     1     -12.609  13.136  64.646  1.00  0.00    -0.322 C  
HETATM    3  C   UNL     1     -11.227  12.846  65.242  1.00  0.00    -0.319 C  
HETATM    4  O   UNL     1     -12.919  14.515  64.900  1.00  0.00    -0.569 OA 
HETATM    5  C   UNL     1     -13.722  12.257  65.275  1.00  0.00     3.916 C  
HETATM    6  H   UNL     1     -12.940  14.648  65.841  1.00  0.00     0.000 HD 
ENDROOT
BRANCH   5   7
HETATM    7  N   UNL     1     -13.679  12.350  66.727  1.00  0.00     6.049 NA 
HETATM    8  H   UNL     1     -14.535  12.464  67.271  1.00  0.00     0.000 HD 
BRANCH   7   9
HETATM    9  C   UNL     1     -12.448  12.282  67.349  1.00  0.00     1.132 A  
HETATM   10  N   UNL     1     -12.319  12.592  68.629  1.00  0.00     0.064 NA 
HETATM   11  C   UNL     1     -11.085  12.503  69.125  1.00  0.00    -0.196 A  
HETATM   12  N   UNL     1     -11.449  11.861  66.583  1.00  0.00    -0.451 NA 
HETATM   13  N   UNL     1     -10.024  12.103  68.422  1.00  0.00    -0.211 NA 
HETATM   14  C   UNL     1     -10.263  11.760  67.163  1.00  0.00    -0.212 A  
BRANCH  11  15
HETATM   15  C   UNL     1     -10.860  12.854  70.553  1.00  0.00     2.174 A  
HETATM   16  C   UNL     1      -9.924  12.261  72.632  1.00  0.00    20.146 A  
HETATM   17  F   UNL     1      -9.806  10.821  74.554  1.00  0.00    12.944 F  
HETATM   18  N   UNL     1     -10.150  11.975  71.317  1.00  0.00     7.293 NA 
HETATM   19  C   UNL     1     -10.413  13.424  73.226  1.00  0.00    11.066 A  
HETATM   20  C   UNL     1      -9.105  11.298  73.483  1.00  0.00    20.294 C  
HETATM   21  C   UNL     1     -11.352  14.041  71.106  1.00  0.00     0.715 A  
HETATM   22  C   UNL     1     -11.132  14.324  72.452  1.00  0.00     2.203 A  
HETATM   23  F   UNL     1      -8.651  10.199  72.818  1.00  0.00     3.628 F  
HETATM   24  F   UNL     1      -7.996  11.894  74.014  1.00  0.00    10.036 F  
ENDBRANCH  11  15
BRANCH  14  25
HETATM   25  N   UNL     1      -9.248  11.177  66.402  1.00  0.00    -0.178 NA 
HETATM   26  H   UNL     1      -8.716  11.827  65.823  1.00  0.00     0.000 HD 
BRANCH  25  27
HETATM   27  C   UNL     1      -8.848   9.841  66.311  1.00  0.00    -0.147 A  
HETATM   28  C   UNL     1      -9.017   7.545  67.053  1.00  0.00    -0.130 A  
HETATM   29  C   UNL     1      -9.489   8.863  67.077  1.00  0.00    -0.215 A  
HETATM   30  N   UNL     1      -7.961   7.176  66.271  1.00  0.00    -0.106 NA 
HETATM   31  C   UNL     1      -9.656   6.491  67.945  1.00  0.00    -0.118 C  
HETATM   32  C   UNL     1      -7.360   8.131  65.539  1.00  0.00    -0.072 A  
HETATM   33  F   UNL     1      -8.777   5.937  68.830  1.00  0.00    -0.109 F  
HETATM   34  F   UNL     1     -10.678   6.978  68.713  1.00  0.00    -0.201 F  
HETATM   35  F   UNL     1     -10.195   5.450  67.247  1.00  0.00    -0.160 F  
HETATM   36  C   UNL     1      -7.748   9.457  65.545  1.00  0.00    -0.099 A  
ENDBRANCH  25  27
ENDBRANCH  14  25
ENDBRANCH   7   9
ENDBRANCH   5   7
TORSDOF 5
ENDMDL
