MODEL        1
REMARK 921   NORMALIZED FREE ENERGY PREDICTED BY IDOCK:   -7.68 KCAL/MOL
REMARK 922        TOTAL FREE ENERGY PREDICTED BY IDOCK:  -14.12 KCAL/MOL
REMARK 923 INTER-LIGAND FREE ENERGY PREDICTED BY IDOCK:  -12.17 KCAL/MOL
REMARK 924 INTRA-LIGAND FREE ENERGY PREDICTED BY IDOCK:   -1.96 KCAL/MOL
REMARK 927      BINDING AFFINITY PREDICTED BY RF-SCORE:    0.00 PKD
ROOT
HETATM    1  C   UNL     1      -9.518   5.495  70.997  1.00  0.00    -0.163 C  
HETATM    2  O   UNL     1     -10.363   6.308  71.830  1.00  0.00    -0.199 OA 
ENDROOT
BRANCH   2   3
HETATM    3  C   UNL     1     -11.348   6.957  71.144  1.00  0.00    -0.290 C  
HETATM    4  N   UNL     1     -11.795   8.054  71.848  1.00  0.00    -0.290 N  
HETATM    5  O   UNL     1     -11.769   6.588  70.057  1.00  0.00    -0.416 OA 
HETATM    6  H   UNL     1     -11.367   8.266  72.750  1.00  0.00     0.000 HD 
BRANCH   4   7
HETATM    7  C   UNL     1     -12.868   8.936  71.350  1.00  0.00    -0.289 C  
HETATM    8  C   UNL     1     -14.120   8.732  72.263  1.00  0.00    -0.511 C  
BRANCH   7   9
HETATM    9  C   UNL     1     -12.564  10.493  71.325  1.00  0.00    -0.426 C  
BRANCH   9  10
HETATM   10  N   UNL     1     -13.328  11.505  72.128  1.00  0.00    -0.562 NA 
HETATM   11  H   UNL     1     -13.876  11.175  72.923  1.00  0.00     0.000 HD 
BRANCH  10  12
HETATM   12  C   UNL     1     -13.331  12.885  71.845  1.00  0.00    -0.435 A  
HETATM   13  N   UNL     1     -14.185  13.640  72.539  1.00  0.00    -0.726 NA 
HETATM   14  C   UNL     1     -14.266  14.922  72.170  1.00  0.00    -0.522 A  
HETATM   15  C   UNL     1     -13.479  15.531  71.212  1.00  0.00    -0.560 A  
HETATM   16  C   UNL     1     -12.575  14.744  70.521  1.00  0.00    -0.359 A  
HETATM   17  N   UNL     1     -12.551  13.382  70.807  1.00  0.00    -0.323 NA 
BRANCH  16  18
HETATM   18  C   UNL     1     -11.681  15.450  69.481  1.00  0.00    -0.364 A  
HETATM   19  C   UNL     1     -11.129  16.715  69.755  1.00  0.00    -0.132 A  
HETATM   20  N   UNL     1     -10.291  17.071  68.735  1.00  0.00    -0.316 NA 
HETATM   21  C   UNL     1     -11.038  15.145  68.190  1.00  0.00    -0.304 A  
HETATM   22  N   UNL     1     -10.252  16.162  67.772  1.00  0.00    -0.261 NA 
BRANCH  20  23
HETATM   23  C   UNL     1      -9.428  18.260  68.618  1.00  0.00    -0.327 C  
HETATM   24  C   UNL     1     -10.142  19.458  67.980  1.00  0.00    -0.516 C  
HETATM   25  C   UNL     1      -8.141  17.976  67.827  1.00  0.00    -0.237 C  
ENDBRANCH  20  23
BRANCH  21  26
HETATM   26  C   UNL     1     -11.111  14.018  67.261  1.00  0.00    -0.314 A  
HETATM   27  C   UNL     1     -11.453  14.158  65.893  1.00  0.00    -0.338 A  
HETATM   28  C   UNL     1     -11.682  13.031  65.095  1.00  0.00    -0.343 A  
HETATM   29 CL   UNL     1     -11.948  13.180  63.404  1.00  0.00    -0.594 Cl 
HETATM   30  C   UNL     1     -11.702  11.755  65.672  1.00  0.00    -0.099 A  
HETATM   31  C   UNL     1     -11.362  11.655  67.008  1.00  0.00    -0.305 A  
HETATM   32  C   UNL     1     -10.916  12.749  67.725  1.00  0.00    -0.237 A  
HETATM   33  F   UNL     1     -10.248  12.512  68.853  1.00  0.00    -0.208 F  
BRANCH  31  34
HETATM   34  N   UNL     1     -11.406  10.419  67.720  1.00  0.00    -0.426 N  
HETATM   35  H   UNL     1     -12.244  10.094  68.202  1.00  0.00     0.000 HD 
BRANCH  34  36
HETATM   36  S   UNL     1      -9.968   9.534  67.706  1.00  0.00    -0.186 S  
HETATM   37  O   UNL     1      -9.053  10.082  66.733  1.00  0.00    -0.138 OA 
HETATM   38  O   UNL     1      -9.612   9.385  69.101  1.00  0.00    -0.156 OA 
HETATM   39  C   UNL     1     -10.624   7.999  67.104  1.00  0.00    -0.297 C  
ENDBRANCH  34  36
ENDBRANCH  31  34
ENDBRANCH  21  26
ENDBRANCH  16  18
ENDBRANCH  10  12
ENDBRANCH   9  10
ENDBRANCH   7   9
ENDBRANCH   4   7
ENDBRANCH   2   3
TORSDOF 10
ENDMDL
MODEL        2
REMARK 921   NORMALIZED FREE ENERGY PREDICTED BY IDOCK:   -7.24 KCAL/MOL
REMARK 922        TOTAL FREE ENERGY PREDICTED BY IDOCK:  -13.43 KCAL/MOL
REMARK 923 INTER-LIGAND FREE ENERGY PREDICTED BY IDOCK:  -11.41 KCAL/MOL
REMARK 924 INTRA-LIGAND FREE ENERGY PREDICTED BY IDOCK:   -2.02 KCAL/MOL
REMARK 927      BINDING AFFINITY PREDICTED BY RF-SCORE:    0.00 PKD
ROOT
HETATM    1  C   UNL     1     -10.550  19.768  66.616  1.00  0.00    -0.462 C  
HETATM    2  O   UNL     1     -10.884  19.122  65.374  1.00  0.00    -0.518 OA 
ENDROOT
BRANCH   2   3
HETATM    3  C   UNL     1     -10.786  17.761  65.421  1.00  0.00     0.086 C  
HETATM    4  N   UNL     1     -10.225  17.350  66.610  1.00  0.00    -0.316 N  
HETATM    5  O   UNL     1     -11.144  17.027  64.510  1.00  0.00    -1.098 OA 
HETATM    6  H   UNL     1      -9.963  18.056  67.299  1.00  0.00     0.000 HD 
BRANCH   4   7
HETATM    7  C   UNL     1      -9.986  15.930  66.929  1.00  0.00    -0.249 C  
HETATM    8  C   UNL     1      -8.718  15.847  67.838  1.00  0.00    -0.168 C  
BRANCH   7   9
HETATM    9  C   UNL     1     -11.148  15.159  67.686  1.00  0.00    -0.318 C  
BRANCH   9  10
HETATM   10  N   UNL     1     -12.222  14.376  66.990  1.00  0.00    -0.563 NA 
HETATM   11  H   UNL     1     -13.158  14.376  67.397  1.00  0.00     0.000 HD 
BRANCH  10  12
HETATM   12  C   UNL     1     -12.011  13.640  65.807  1.00  0.00    -0.395 A  
HETATM   13  N   UNL     1     -12.701  14.021  64.731  1.00  0.00    -0.683 NA 
HETATM   14  C   UNL     1     -12.586  13.236  63.654  1.00  0.00    -0.118 A  
HETATM   15  C   UNL     1     -11.748  12.143  63.546  1.00  0.00    -0.579 A  
HETATM   16  C   UNL     1     -11.012  11.778  64.660  1.00  0.00    -0.310 A  
HETATM   17  N   UNL     1     -11.201  12.511  65.829  1.00  0.00    -0.307 NA 
BRANCH  16  18
HETATM   18  C   UNL     1     -10.057  10.578  64.508  1.00  0.00    -0.402 A  
HETATM   19  C   UNL     1      -9.340  10.382  63.312  1.00  0.00    -0.304 A  
HETATM   20  N   UNL     1      -8.485   9.327  63.468  1.00  0.00    -0.191 NA 
HETATM   21  C   UNL     1      -9.486   9.508  65.346  1.00  0.00    -0.269 A  
HETATM   22  N   UNL     1      -8.584   8.767  64.664  1.00  0.00    -0.150 NA 
BRANCH  20  23
HETATM   23  C   UNL     1      -7.478   8.805  62.527  1.00  0.00    -0.102 C  
HETATM   24  C   UNL     1      -7.401   7.273  62.520  1.00  0.00    -0.091 C  
HETATM   25  C   UNL     1      -6.073   9.367  62.798  1.00  0.00    -0.094 C  
ENDBRANCH  20  23
BRANCH  21  26
HETATM   26  C   UNL     1      -9.723   9.057  66.717  1.00  0.00    -0.279 A  
HETATM   27  C   UNL     1     -10.111   7.734  67.045  1.00  0.00    -0.343 A  
HETATM   28  C   UNL     1     -10.497   7.406  68.349  1.00  0.00    -0.185 A  
HETATM   29 CL   UNL     1     -10.824   5.779  68.796  1.00  0.00    -0.325 Cl 
HETATM   30  C   UNL     1     -10.629   8.411  69.317  1.00  0.00    -0.193 A  
HETATM   31  C   UNL     1     -10.240   9.689  68.963  1.00  0.00    -0.199 A  
HETATM   32  C   UNL     1      -9.646   9.954  67.744  1.00  0.00    -0.141 A  
HETATM   33  F   UNL     1      -8.956  11.087  67.632  1.00  0.00    -0.137 F  
BRANCH  31  34
HETATM   34  N   UNL     1     -10.384  10.804  69.841  1.00  0.00    -0.437 N  
HETATM   35  H   UNL     1      -9.624  11.138  70.433  1.00  0.00     0.000 HD 
BRANCH  34  36
HETATM   36  S   UNL     1     -11.908  11.533  69.828  1.00  0.00    -0.370 S  
HETATM   37  O   UNL     1     -11.794  12.933  70.162  1.00  0.00    -0.311 OA 
HETATM   38  O   UNL     1     -12.523  11.081  68.598  1.00  0.00    -0.462 OA 
HETATM   39  C   UNL     1     -12.618  10.652  71.194  1.00  0.00    -0.423 C  
ENDBRANCH  34  36
ENDBRANCH  31  34
ENDBRANCH  21  26
ENDBRANCH  16  18
ENDBRANCH  10  12
ENDBRANCH   9  10
ENDBRANCH   7   9
ENDBRANCH   4   7
ENDBRANCH   2   3
TORSDOF 10
ENDMDL
MODEL        3
REMARK 921   NORMALIZED FREE ENERGY PREDICTED BY IDOCK:   -7.24 KCAL/MOL
REMARK 922        TOTAL FREE ENERGY PREDICTED BY IDOCK:  -13.43 KCAL/MOL
REMARK 923 INTER-LIGAND FREE ENERGY PREDICTED BY IDOCK:  -11.45 KCAL/MOL
REMARK 924 INTRA-LIGAND FREE ENERGY PREDICTED BY IDOCK:   -1.98 KCAL/MOL
REMARK 927      BINDING AFFINITY PREDICTED BY RF-SCORE:    0.00 PKD
ROOT
HETATM    1  C   UNL     1     -14.390   7.375  71.732  1.00  0.00    -0.436 C  
HETATM    2  O   UNL     1     -13.944   8.723  71.501  1.00  0.00    -0.388 OA 
ENDROOT
BRANCH   2   3
HETATM    3  C   UNL     1     -12.645   8.939  71.857  1.00  0.00    -0.377 C  
HETATM    4  N   UNL     1     -12.099   7.813  72.434  1.00  0.00    -0.495 N  
HETATM    5  O   UNL     1     -12.066  10.004  71.687  1.00  0.00    -0.387 OA 
HETATM    6  H   UNL     1     -12.680   6.979  72.524  1.00  0.00     0.000 HD 
BRANCH   4   7
HETATM    7  C   UNL     1     -10.710   7.764  72.927  1.00  0.00    -0.385 C  
HETATM    8  C   UNL     1     -10.593   6.557  73.913  1.00  0.00    -0.250 C  
BRANCH   7   9
HETATM    9  C   UNL     1      -9.568   7.584  71.841  1.00  0.00    -0.148 C  
BRANCH   9  10
HETATM   10  N   UNL     1      -9.697   8.030  70.413  1.00  0.00    -0.178 NA 
HETATM   11  H   UNL     1     -10.298   7.487  69.792  1.00  0.00     0.000 HD 
BRANCH  10  12
HETATM   12  C   UNL     1      -9.034   9.154  69.883  1.00  0.00    -0.174 A  
HETATM   13  N   UNL     1      -7.836   9.442  70.393  1.00  0.00    -0.150 NA 
HETATM   14  C   UNL     1      -7.278  10.581  69.970  1.00  0.00    -0.096 A  
HETATM   15  C   UNL     1      -7.795  11.411  68.994  1.00  0.00    -0.043 A  
HETATM   16  C   UNL     1      -9.024  11.084  68.449  1.00  0.00    -0.158 A  
HETATM   17  N   UNL     1      -9.678   9.964  68.955  1.00  0.00    -0.168 NA 
BRANCH  16  18
HETATM   18  C   UNL     1      -9.566  12.004  67.337  1.00  0.00    -0.176 A  
HETATM   19  C   UNL     1      -9.578  11.573  65.997  1.00  0.00    -0.228 A  
HETATM   20  N   UNL     1     -10.206  12.512  65.228  1.00  0.00    -0.283 NA 
HETATM   21  C   UNL     1     -10.273  13.291  67.215  1.00  0.00    -0.240 A  
HETATM   22  N   UNL     1     -10.595  13.565  65.931  1.00  0.00    -0.280 NA 
BRANCH  20  23
HETATM   23  C   UNL     1     -10.533  12.465  63.791  1.00  0.00    -0.443 C  
HETATM   24  C   UNL     1     -12.035  12.614  63.513  1.00  0.00    -0.630 C  
HETATM   25  C   UNL     1     -10.033  11.178  63.117  1.00  0.00    -0.393 C  
ENDBRANCH  20  23
BRANCH  21  26
HETATM   26  C   UNL     1     -10.646  14.338  68.167  1.00  0.00    -0.246 A  
HETATM   27  C   UNL     1     -10.300  15.702  67.998  1.00  0.00    -0.246 A  
HETATM   28  C   UNL     1     -10.525  16.627  69.023  1.00  0.00    -0.328 A  
HETATM   29 CL   UNL     1     -10.252  18.306  68.779  1.00  0.00    -0.384 Cl 
HETATM   30  C   UNL     1     -10.977  16.192  70.276  1.00  0.00    -0.345 A  
HETATM   31  C   UNL     1     -11.307  14.856  70.403  1.00  0.00    -0.243 A  
HETATM   32  C   UNL     1     -11.296  14.000  69.319  1.00  0.00    -0.273 A  
HETATM   33  F   UNL     1     -11.985  12.866  69.426  1.00  0.00    -0.319 F  
BRANCH  31  34
HETATM   34  N   UNL     1     -11.720  14.284  71.644  1.00  0.00    -0.320 N  
HETATM   35  H   UNL     1     -11.114  13.674  72.195  1.00  0.00     0.000 HD 
BRANCH  34  36
HETATM   36  S   UNL     1     -13.284  14.689  72.135  1.00  0.00    -0.400 S  
HETATM   37  O   UNL     1     -13.924  15.509  71.133  1.00  0.00    -0.547 OA 
HETATM   38  O   UNL     1     -13.861  13.445  72.597  1.00  0.00    -0.726 OA 
HETATM   39  C   UNL     1     -12.856  15.690  73.535  1.00  0.00    -0.572 C  
ENDBRANCH  34  36
ENDBRANCH  31  34
ENDBRANCH  21  26
ENDBRANCH  16  18
ENDBRANCH  10  12
ENDBRANCH   9  10
ENDBRANCH   7   9
ENDBRANCH   4   7
ENDBRANCH   2   3
TORSDOF 10
ENDMDL
MODEL        4
REMARK 921   NORMALIZED FREE ENERGY PREDICTED BY IDOCK:   -7.08 KCAL/MOL
REMARK 922        TOTAL FREE ENERGY PREDICTED BY IDOCK:  -13.18 KCAL/MOL
REMARK 923 INTER-LIGAND FREE ENERGY PREDICTED BY IDOCK:  -11.32 KCAL/MOL
REMARK 924 INTRA-LIGAND FREE ENERGY PREDICTED BY IDOCK:   -1.85 KCAL/MOL
REMARK 927      BINDING AFFINITY PREDICTED BY RF-SCORE:    0.00 PKD
ROOT
HETATM    1  C   UNL     1     -10.652   5.739  68.972  1.00  0.00    -0.281 C  
HETATM    2  O   UNL     1     -10.529   7.135  68.648  1.00  0.00    -0.190 OA 
ENDROOT
BRANCH   2   3
HETATM    3  C   UNL     1     -10.643   7.960  69.730  1.00  0.00    -0.242 C  
HETATM    4  N   UNL     1     -11.849   7.769  70.368  1.00  0.00    -0.484 N  
HETATM    5  O   UNL     1      -9.781   8.763  70.060  1.00  0.00    -0.167 OA 
HETATM    6  H   UNL     1     -12.493   7.068  70.000  1.00  0.00     0.000 HD 
BRANCH   4   7
HETATM    7  C   UNL     1     -12.248   8.537  71.563  1.00  0.00    -0.311 C  
HETATM    8  C   UNL     1     -11.317   8.108  72.742  1.00  0.00    -0.406 C  
BRANCH   7   9
HETATM    9  C   UNL     1     -12.166  10.118  71.461  1.00  0.00    -0.380 C  
BRANCH   9  10
HETATM   10  N   UNL     1     -13.218  11.044  71.997  1.00  0.00    -0.553 NA 
HETATM   11  H   UNL     1     -13.983  10.641  72.540  1.00  0.00     0.000 HD 
BRANCH  10  12
HETATM   12  C   UNL     1     -13.209  12.438  71.793  1.00  0.00    -0.334 A  
HETATM   13  N   UNL     1     -14.050  13.160  72.536  1.00  0.00    -0.645 NA 
HETATM   14  C   UNL     1     -14.120  14.462  72.242  1.00  0.00    -0.516 A  
HETATM   15  C   UNL     1     -13.333  15.117  71.313  1.00  0.00    -0.551 A  
HETATM   16  C   UNL     1     -12.442  14.362  70.572  1.00  0.00    -0.350 A  
HETATM   17  N   UNL     1     -12.431  12.985  70.780  1.00  0.00    -0.339 NA 
BRANCH  16  18
HETATM   18  C   UNL     1     -11.548  15.116  69.568  1.00  0.00    -0.340 A  
HETATM   19  C   UNL     1     -11.086  16.414  69.858  1.00  0.00    -0.310 A  
HETATM   20  N   UNL     1     -10.228  16.816  68.872  1.00  0.00    -0.285 NA 
HETATM   21  C   UNL     1     -10.832  14.847  68.308  1.00  0.00    -0.257 A  
HETATM   22  N   UNL     1     -10.092  15.909  67.918  1.00  0.00    -0.232 NA 
BRANCH  20  23
HETATM   23  C   UNL     1      -9.434  18.055  68.785  1.00  0.00    -0.270 C  
HETATM   24  C   UNL     1     -10.121  19.150  67.957  1.00  0.00    -0.482 C  
HETATM   25  C   UNL     1      -8.028  17.814  68.213  1.00  0.00    -0.282 C  
ENDBRANCH  20  23
BRANCH  21  26
HETATM   26  C   UNL     1     -10.795  13.713  67.384  1.00  0.00    -0.282 A  
HETATM   27  C   UNL     1     -11.681  13.576  66.286  1.00  0.00    -0.401 A  
HETATM   28  C   UNL     1     -11.719  12.390  65.544  1.00  0.00    -0.407 A  
HETATM   29 CL   UNL     1     -12.676  12.263  64.122  1.00  0.00    -0.493 Cl 
HETATM   30  C   UNL     1     -10.974  11.278  65.959  1.00  0.00    -0.237 A  
HETATM   31  C   UNL     1     -10.119  11.449  67.031  1.00  0.00    -0.208 A  
HETATM   32  C   UNL     1      -9.923  12.688  67.610  1.00  0.00    -0.216 A  
HETATM   33  F   UNL     1      -8.827  12.853  68.349  1.00  0.00    -0.180 F  
BRANCH  31  34
HETATM   34  N   UNL     1      -9.357  10.376  67.582  1.00  0.00    -0.148 N  
HETATM   35  H   UNL     1      -9.400  10.123  68.569  1.00  0.00     0.000 HD 
BRANCH  34  36
HETATM   36  S   UNL     1      -8.375   9.556  66.479  1.00  0.00    -0.119 S  
HETATM   37  O   UNL     1      -9.132   8.525  65.808  1.00  0.00    -0.193 OA 
HETATM   38  O   UNL     1      -7.682  10.600  65.753  1.00  0.00    -0.153 OA 
HETATM   39  C   UNL     1      -7.259   8.813  67.640  1.00  0.00    -0.080 C  
ENDBRANCH  34  36
ENDBRANCH  31  34
ENDBRANCH  21  26
ENDBRANCH  16  18
ENDBRANCH  10  12
ENDBRANCH   9  10
ENDBRANCH   7   9
ENDBRANCH   4   7
ENDBRANCH   2   3
TORSDOF 10
ENDMDL
MODEL        5
REMARK 921   NORMALIZED FREE ENERGY PREDICTED BY IDOCK:   -7.05 KCAL/MOL
REMARK 922        TOTAL FREE ENERGY PREDICTED BY IDOCK:  -13.12 KCAL/MOL
REMARK 923 INTER-LIGAND FREE ENERGY PREDICTED BY IDOCK:  -11.94 KCAL/MOL
REMARK 924 INTRA-LIGAND FREE ENERGY PREDICTED BY IDOCK:   -1.19 KCAL/MOL
REMARK 927      BINDING AFFINITY PREDICTED BY RF-SCORE:    0.00 PKD
ROOT
HETATM    1  C   UNL     1     -10.237   3.044  73.895  1.00  0.00    -0.132 C  
HETATM    2  O   UNL     1     -11.395   3.858  73.633  1.00  0.00    -0.238 OA 
ENDROOT
BRANCH   2   3
HETATM    3  C   UNL     1     -11.135   4.944  72.849  1.00  0.00    -0.256 C  
HETATM    4  N   UNL     1     -12.284   5.670  72.619  1.00  0.00    -0.452 N  
HETATM    5  O   UNL     1     -10.024   5.210  72.410  1.00  0.00    -0.169 OA 
HETATM    6  H   UNL     1     -13.157   5.350  73.038  1.00  0.00     0.000 HD 
BRANCH   4   7
HETATM    7  C   UNL     1     -12.302   6.890  71.791  1.00  0.00    -0.361 C  
HETATM    8  C   UNL     1     -13.795   7.268  71.526  1.00  0.00    -0.463 C  
BRANCH   7   9
HETATM    9  C   UNL     1     -11.600   8.179  72.395  1.00  0.00    -0.399 C  
BRANCH   9  10
HETATM   10  N   UNL     1     -11.557   9.508  71.700  1.00  0.00    -0.393 NA 
HETATM   11  H   UNL     1     -12.205  10.233  72.007  1.00  0.00     0.000 HD 
BRANCH  10  12
HETATM   12  C   UNL     1     -10.672   9.810  70.647  1.00  0.00    -0.326 A  
HETATM   13  N   UNL     1      -9.482   9.208  70.669  1.00  0.00    -0.240 NA 
HETATM   14  C   UNL     1      -8.609   9.601  69.735  1.00  0.00    -0.199 A  
HETATM   15  C   UNL     1      -8.876  10.493  68.714  1.00  0.00    -0.158 A  
HETATM   16  C   UNL     1     -10.126  11.086  68.683  1.00  0.00    -0.197 A  
HETATM   17  N   UNL     1     -11.014  10.779  69.710  1.00  0.00    -0.261 NA 
BRANCH  16  18
HETATM   18  C   UNL     1     -10.416  12.050  67.515  1.00  0.00    -0.234 A  
HETATM   19  C   UNL     1     -10.448  11.577  66.190  1.00  0.00    -0.251 A  
HETATM   20  N   UNL     1     -10.835  12.592  65.360  1.00  0.00    -0.275 NA 
HETATM   21  C   UNL     1     -10.843  13.446  67.317  1.00  0.00    -0.269 A  
HETATM   22  N   UNL     1     -11.040  13.728  66.009  1.00  0.00    -0.290 NA 
BRANCH  20  23
HETATM   23  C   UNL     1     -11.093  12.553  63.909  1.00  0.00    -0.423 C  
HETATM   24  C   UNL     1     -12.541  12.175  63.567  1.00  0.00    -0.621 C  
HETATM   25  C   UNL     1     -10.146  11.595  63.169  1.00  0.00    -0.409 C  
ENDBRANCH  20  23
BRANCH  21  26
HETATM   26  C   UNL     1     -11.045  14.584  68.215  1.00  0.00    -0.275 A  
HETATM   27  C   UNL     1     -10.671  15.910  67.887  1.00  0.00    -0.312 A  
HETATM   28  C   UNL     1     -10.722  16.925  68.849  1.00  0.00    -0.321 A  
HETATM   29 CL   UNL     1     -10.417  18.564  68.428  1.00  0.00    -0.337 Cl 
HETATM   30  C   UNL     1     -11.021  16.615  70.182  1.00  0.00    -0.110 A  
HETATM   31  C   UNL     1     -11.384  15.312  70.465  1.00  0.00    -0.309 A  
HETATM   32  C   UNL     1     -11.550  14.372  69.466  1.00  0.00    -0.304 A  
HETATM   33  F   UNL     1     -12.263  13.286  69.758  1.00  0.00    -0.340 F  
BRANCH  31  34
HETATM   34  N   UNL     1     -11.651  14.862  71.793  1.00  0.00    -0.479 N  
HETATM   35  H   UNL     1     -10.916  14.528  72.416  1.00  0.00     0.000 HD 
BRANCH  34  36
HETATM   36  S   UNL     1     -13.274  14.923  72.257  1.00  0.00    -0.416 S  
HETATM   37  O   UNL     1     -14.068  15.528  71.214  1.00  0.00    -0.548 OA 
HETATM   38  O   UNL     1     -13.559  13.603  72.777  1.00  0.00    -0.672 OA 
HETATM   39  C   UNL     1     -13.105  16.059  73.609  1.00  0.00    -0.499 C  
ENDBRANCH  34  36
ENDBRANCH  31  34
ENDBRANCH  21  26
ENDBRANCH  16  18
ENDBRANCH  10  12
ENDBRANCH   9  10
ENDBRANCH   7   9
ENDBRANCH   4   7
ENDBRANCH   2   3
TORSDOF 10
ENDMDL
MODEL        6
REMARK 921   NORMALIZED FREE ENERGY PREDICTED BY IDOCK:   -7.03 KCAL/MOL
REMARK 922        TOTAL FREE ENERGY PREDICTED BY IDOCK:  -13.10 KCAL/MOL
REMARK 923 INTER-LIGAND FREE ENERGY PREDICTED BY IDOCK:  -11.60 KCAL/MOL
REMARK 924 INTRA-LIGAND FREE ENERGY PREDICTED BY IDOCK:   -1.51 KCAL/MOL
REMARK 927      BINDING AFFINITY PREDICTED BY RF-SCORE:    0.00 PKD
ROOT
HETATM    1  C   UNL     1     -11.584   5.752  72.338  1.00  0.00    -0.264 C  
HETATM    2  O   UNL     1     -10.987   6.942  72.884  1.00  0.00    -0.262 OA 
ENDROOT
BRANCH   2   3
HETATM    3  C   UNL     1     -11.623   8.092  72.517  1.00  0.00    -0.404 C  
HETATM    4  N   UNL     1     -10.887   8.782  71.578  1.00  0.00    -0.277 N  
HETATM    5  O   UNL     1     -12.697   8.448  72.983  1.00  0.00    -0.172 OA 
HETATM    6  H   UNL     1     -10.001   8.386  71.262  1.00  0.00     0.000 HD 
BRANCH   4   7
HETATM    7  C   UNL     1     -11.328  10.070  71.010  1.00  0.00    -0.357 C  
HETATM    8  C   UNL     1     -11.031  10.046  69.476  1.00  0.00    -0.289 C  
BRANCH   7   9
HETATM    9  C   UNL     1     -12.862  10.441  71.177  1.00  0.00    -0.414 C  
BRANCH   9  10
HETATM   10  N   UNL     1     -13.363  11.528  72.082  1.00  0.00    -0.562 NA 
HETATM   11  H   UNL     1     -13.831  11.257  72.947  1.00  0.00     0.000 HD 
BRANCH  10  12
HETATM   12  C   UNL     1     -13.225  12.902  71.804  1.00  0.00    -0.384 A  
HETATM   13  N   UNL     1     -14.053  13.731  72.442  1.00  0.00    -0.699 NA 
HETATM   14  C   UNL     1     -13.995  15.015  72.073  1.00  0.00    -0.503 A  
HETATM   15  C   UNL     1     -13.094  15.549  71.171  1.00  0.00    -0.573 A  
HETATM   16  C   UNL     1     -12.219  14.683  70.540  1.00  0.00    -0.324 A  
HETATM   17  N   UNL     1     -12.336  13.325  70.823  1.00  0.00    -0.368 NA 
BRANCH  16  18
HETATM   18  C   UNL     1     -11.198  15.304  69.566  1.00  0.00    -0.289 A  
HETATM   19  C   UNL     1     -10.990  16.696  69.540  1.00  0.00    -0.228 A  
HETATM   20  N   UNL     1      -9.964  16.981  68.682  1.00  0.00    -0.278 NA 
HETATM   21  C   UNL     1     -10.156  14.855  68.626  1.00  0.00    -0.237 A  
HETATM   22  N   UNL     1      -9.477  15.898  68.097  1.00  0.00    -0.202 NA 
BRANCH  20  23
HETATM   23  C   UNL     1      -9.334  18.282  68.393  1.00  0.00    -0.314 C  
HETATM   24  C   UNL     1      -7.829  18.299  68.692  1.00  0.00    -0.313 C  
HETATM   25  C   UNL     1     -10.000  19.440  69.154  1.00  0.00    -0.412 C  
ENDBRANCH  20  23
BRANCH  21  26
HETATM   26  C   UNL     1      -9.744  13.547  68.116  1.00  0.00    -0.233 A  
HETATM   27  C   UNL     1      -8.492  12.954  68.414  1.00  0.00    -0.115 A  
HETATM   28  C   UNL     1      -8.079  11.790  67.758  1.00  0.00    -0.143 A  
HETATM   29 CL   UNL     1      -6.635  10.977  68.216  1.00  0.00    -0.057 Cl 
HETATM   30  C   UNL     1      -8.842  11.268  66.705  1.00  0.00    -0.175 A  
HETATM   31  C   UNL     1     -10.059  11.870  66.443  1.00  0.00    -0.214 A  
HETATM   32  C   UNL     1     -10.557  12.876  67.248  1.00  0.00    -0.234 A  
HETATM   33  F   UNL     1     -11.863  13.125  67.179  1.00  0.00    -0.348 F  
BRANCH  31  34
HETATM   34  N   UNL     1     -10.894  11.467  65.359  1.00  0.00    -0.280 N  
HETATM   35  H   UNL     1     -11.563  10.701  65.438  1.00  0.00     0.000 HD 
BRANCH  34  36
HETATM   36  S   UNL     1     -10.696  12.353  63.935  1.00  0.00    -0.453 S  
HETATM   37  O   UNL     1     -10.177  13.667  64.233  1.00  0.00    -0.350 OA 
HETATM   38  O   UNL     1     -10.026  11.447  63.027  1.00  0.00    -0.345 OA 
HETATM   39  C   UNL     1     -12.406  12.480  63.479  1.00  0.00    -0.525 C  
ENDBRANCH  34  36
ENDBRANCH  31  34
ENDBRANCH  21  26
ENDBRANCH  16  18
ENDBRANCH  10  12
ENDBRANCH   9  10
ENDBRANCH   7   9
ENDBRANCH   4   7
ENDBRANCH   2   3
TORSDOF 10
ENDMDL
MODEL        7
REMARK 921   NORMALIZED FREE ENERGY PREDICTED BY IDOCK:   -7.01 KCAL/MOL
REMARK 922        TOTAL FREE ENERGY PREDICTED BY IDOCK:  -13.06 KCAL/MOL
REMARK 923 INTER-LIGAND FREE ENERGY PREDICTED BY IDOCK:  -11.27 KCAL/MOL
REMARK 924 INTRA-LIGAND FREE ENERGY PREDICTED BY IDOCK:   -1.80 KCAL/MOL
REMARK 927      BINDING AFFINITY PREDICTED BY RF-SCORE:    0.00 PKD
ROOT
HETATM    1  C   UNL     1     -12.885  13.623  65.051  1.00  0.00    -0.272 C  
HETATM    2  O   UNL     1     -12.289  13.196  63.813  1.00  0.00    -0.608 OA 
ENDROOT
BRANCH   2   3
HETATM    3  C   UNL     1     -11.085  12.572  63.970  1.00  0.00    -0.397 C  
HETATM    4  N   UNL     1     -11.066  11.367  63.301  1.00  0.00    -0.822 N  
HETATM    5  O   UNL     1     -10.167  13.034  64.633  1.00  0.00    -0.338 OA 
HETATM    6  H   UNL     1     -11.895  11.084  62.778  1.00  0.00     0.000 HD 
BRANCH   4   7
HETATM    7  C   UNL     1      -9.894  10.472  63.308  1.00  0.00    -0.253 C  
HETATM    8  C   UNL     1      -8.747  11.175  62.514  1.00  0.00    -0.304 C  
BRANCH   7   9
HETATM    9  C   UNL     1      -9.300  10.077  64.725  1.00  0.00    -0.271 C  
BRANCH   9  10
HETATM   10  N   UNL     1     -10.017   9.212  65.719  1.00  0.00    -0.434 NA 
HETATM   11  H   UNL     1     -10.299   8.276  65.428  1.00  0.00     0.000 HD 
BRANCH  10  12
HETATM   12  C   UNL     1     -10.324   9.620  67.032  1.00  0.00    -0.248 A  
HETATM   13  N   UNL     1     -10.363   8.667  67.965  1.00  0.00    -0.223 NA 
HETATM   14  C   UNL     1     -10.779   9.051  69.177  1.00  0.00    -0.157 A  
HETATM   15  C   UNL     1     -11.070  10.349  69.549  1.00  0.00    -0.314 A  
HETATM   16  C   UNL     1     -10.993  11.334  68.581  1.00  0.00    -0.218 A  
HETATM   17  N   UNL     1     -10.673  10.942  67.284  1.00  0.00    -0.251 NA 
BRANCH  16  18
HETATM   18  C   UNL     1     -11.286  12.780  69.026  1.00  0.00    -0.346 A  
HETATM   19  C   UNL     1     -12.346  13.055  69.911  1.00  0.00    -0.110 A  
HETATM   20  N   UNL     1     -12.326  14.382  70.239  1.00  0.00    -0.332 NA 
HETATM   21  C   UNL     1     -10.673  14.115  68.913  1.00  0.00    -0.256 A  
HETATM   22  N   UNL     1     -11.356  15.041  69.623  1.00  0.00    -0.269 NA 
BRANCH  20  23
HETATM   23  C   UNL     1     -13.180  15.113  71.193  1.00  0.00    -0.469 C  
HETATM   24  C   UNL     1     -12.375  15.927  72.215  1.00  0.00    -0.567 C  
HETATM   25  C   UNL     1     -14.143  14.185  71.950  1.00  0.00    -0.566 C  
ENDBRANCH  20  23
BRANCH  21  26
HETATM   26  C   UNL     1      -9.532  14.649  68.168  1.00  0.00    -0.212 A  
HETATM   27  C   UNL     1      -8.199  14.214  68.369  1.00  0.00    -0.149 A  
HETATM   28  C   UNL     1      -7.131  14.882  67.760  1.00  0.00    -0.174 A  
HETATM   29 CL   UNL     1      -5.526  14.277  67.872  1.00  0.00    -0.111 Cl 
HETATM   30  C   UNL     1      -7.358  16.068  67.048  1.00  0.00    -0.258 A  
HETATM   31  C   UNL     1      -8.671  16.460  66.869  1.00  0.00    -0.204 A  
HETATM   32  C   UNL     1      -9.726  15.669  67.281  1.00  0.00    -0.219 A  
HETATM   33  F   UNL     1     -10.919  15.908  66.740  1.00  0.00    -0.318 F  
BRANCH  31  34
HETATM   34  N   UNL     1      -9.023  17.679  66.216  1.00  0.00    -0.223 N  
HETATM   35  H   UNL     1      -9.195  17.732  65.212  1.00  0.00     0.000 HD 
BRANCH  34  36
HETATM   36  S   UNL     1      -9.135  19.027  67.227  1.00  0.00    -0.288 S  
HETATM   37  O   UNL     1      -9.184  18.611  68.609  1.00  0.00    -0.333 OA 
HETATM   38  O   UNL     1      -8.129  19.943  66.733  1.00  0.00    -0.290 OA 
HETATM   39  C   UNL     1     -10.738  19.590  66.718  1.00  0.00    -0.460 C  
ENDBRANCH  34  36
ENDBRANCH  31  34
ENDBRANCH  21  26
ENDBRANCH  16  18
ENDBRANCH  10  12
ENDBRANCH   9  10
ENDBRANCH   7   9
ENDBRANCH   4   7
ENDBRANCH   2   3
TORSDOF 10
ENDMDL
MODEL        8
REMARK 921   NORMALIZED FREE ENERGY PREDICTED BY IDOCK:   -7.00 KCAL/MOL
REMARK 922        TOTAL FREE ENERGY PREDICTED BY IDOCK:  -13.05 KCAL/MOL
REMARK 923 INTER-LIGAND FREE ENERGY PREDICTED BY IDOCK:  -11.86 KCAL/MOL
REMARK 924 INTRA-LIGAND FREE ENERGY PREDICTED BY IDOCK:   -1.19 KCAL/MOL
REMARK 927      BINDING AFFINITY PREDICTED BY RF-SCORE:    0.00 PKD
ROOT
HETATM    1  C   UNL     1     -10.051  19.470  68.812  1.00  0.00    -0.430 C  
HETATM    2  O   UNL     1     -10.768  19.532  67.566  1.00  0.00    -0.465 OA 
ENDROOT
BRANCH   2   3
HETATM    3  C   UNL     1      -9.966  19.736  66.481  1.00  0.00    -0.459 C  
HETATM    4  N   UNL     1      -8.650  19.882  66.864  1.00  0.00    -0.318 N  
HETATM    5  O   UNL     1     -10.384  19.791  65.333  1.00  0.00    -0.380 OA 
HETATM    6  H   UNL     1      -8.419  19.818  67.856  1.00  0.00     0.000 HD 
BRANCH   4   7
HETATM    7  C   UNL     1      -7.562  20.128  65.900  1.00  0.00    -0.250 C  
HETATM    8  C   UNL     1      -6.498  21.037  66.596  1.00  0.00    -0.361 C  
BRANCH   7   9
HETATM    9  C   UNL     1      -6.791  18.857  65.346  1.00  0.00    -0.170 C  
BRANCH   9  10
HETATM   10  N   UNL     1      -6.177  17.806  66.224  1.00  0.00    -0.207 NA 
HETATM   11  H   UNL     1      -5.160  17.766  66.287  1.00  0.00     0.000 HD 
BRANCH  10  12
HETATM   12  C   UNL     1      -6.927  16.872  66.966  1.00  0.00    -0.200 A  
HETATM   13  N   UNL     1      -6.589  16.711  68.247  1.00  0.00    -0.134 NA 
HETATM   14  C   UNL     1      -7.224  15.732  68.901  1.00  0.00    -0.147 A  
HETATM   15  C   UNL     1      -8.248  14.960  68.387  1.00  0.00    -0.151 A  
HETATM   16  C   UNL     1      -8.611  15.159  67.067  1.00  0.00    -0.237 A  
HETATM   17  N   UNL     1      -7.888  16.094  66.331  1.00  0.00    -0.235 NA 
BRANCH  16  18
HETATM   18  C   UNL     1      -9.780  14.312  66.525  1.00  0.00    -0.304 A  
HETATM   19  C   UNL     1      -9.933  14.109  65.140  1.00  0.00    -0.229 A  
HETATM   20  N   UNL     1     -10.964  13.239  64.925  1.00  0.00    -0.314 NA 
HETATM   21  C   UNL     1     -10.846  13.439  67.048  1.00  0.00    -0.273 A  
HETATM   22  N   UNL     1     -11.548  12.856  66.050  1.00  0.00    -0.354 NA 
BRANCH  20  23
HETATM   23  C   UNL     1     -11.440  12.664  63.654  1.00  0.00    -0.495 C  
HETATM   24  C   UNL     1     -12.852  12.072  63.754  1.00  0.00    -0.440 C  
HETATM   25  C   UNL     1     -10.492  11.584  63.106  1.00  0.00    -0.350 C  
ENDBRANCH  20  23
BRANCH  21  26
HETATM   26  C   UNL     1     -11.328  13.119  68.392  1.00  0.00    -0.324 A  
HETATM   27  C   UNL     1     -11.296  11.812  68.938  1.00  0.00    -0.326 A  
HETATM   28  C   UNL     1     -11.932  11.531  70.153  1.00  0.00    -0.369 A  
HETATM   29 CL   UNL     1     -11.775   9.992  70.902  1.00  0.00    -0.426 Cl 
HETATM   30  C   UNL     1     -12.717  12.509  70.778  1.00  0.00    -0.209 A  
HETATM   31  C   UNL     1     -12.722  13.773  70.218  1.00  0.00    -0.144 A  
HETATM   32  C   UNL     1     -11.909  14.095  69.149  1.00  0.00    -0.341 A  
HETATM   33  F   UNL     1     -11.676  15.386  68.924  1.00  0.00    -0.302 F  
BRANCH  31  34
HETATM   34  N   UNL     1     -13.530  14.833  70.728  1.00  0.00    -0.579 N  
HETATM   35  H   UNL     1     -14.112  15.416  70.128  1.00  0.00     0.000 HD 
BRANCH  34  36
HETATM   36  S   UNL     1     -13.451  15.051  72.401  1.00  0.00    -0.480 S  
HETATM   37  O   UNL     1     -14.290  16.156  72.800  1.00  0.00    -0.309 OA 
HETATM   38  O   UNL     1     -13.611  13.723  72.955  1.00  0.00    -0.681 OA 
HETATM   39  C   UNL     1     -11.746  15.528  72.512  1.00  0.00    -0.468 C  
ENDBRANCH  34  36
ENDBRANCH  31  34
ENDBRANCH  21  26
ENDBRANCH  16  18
ENDBRANCH  10  12
ENDBRANCH   9  10
ENDBRANCH   7   9
ENDBRANCH   4   7
ENDBRANCH   2   3
TORSDOF 10
ENDMDL
MODEL        9
REMARK 921   NORMALIZED FREE ENERGY PREDICTED BY IDOCK:   -6.97 KCAL/MOL
REMARK 922        TOTAL FREE ENERGY PREDICTED BY IDOCK:  -13.00 KCAL/MOL
REMARK 923 INTER-LIGAND FREE ENERGY PREDICTED BY IDOCK:  -11.57 KCAL/MOL
REMARK 924 INTRA-LIGAND FREE ENERGY PREDICTED BY IDOCK:   -1.42 KCAL/MOL
REMARK 927      BINDING AFFINITY PREDICTED BY RF-SCORE:    0.00 PKD
ROOT
HETATM    1  C   UNL     1      -9.831   3.782  71.451  1.00  0.00    -0.155 C  
HETATM    2  O   UNL     1     -10.474   4.800  72.238  1.00  0.00    -0.203 OA 
ENDROOT
BRANCH   2   3
HETATM    3  C   UNL     1     -10.974   5.831  71.498  1.00  0.00    -0.239 C  
HETATM    4  N   UNL     1     -11.940   6.519  72.201  1.00  0.00    -0.422 N  
HETATM    5  O   UNL     1     -10.607   6.085  70.358  1.00  0.00    -0.228 OA 
HETATM    6  H   UNL     1     -12.165   6.214  73.149  1.00  0.00     0.000 HD 
BRANCH   4   7
HETATM    7  C   UNL     1     -12.662   7.676  71.640  1.00  0.00    -0.343 C  
HETATM    8  C   UNL     1     -14.184   7.325  71.612  1.00  0.00    -0.558 C  
BRANCH   7   9
HETATM    9  C   UNL     1     -12.520   9.054  72.413  1.00  0.00    -0.305 C  
BRANCH   9  10
HETATM   10  N   UNL     1     -13.387  10.250  72.151  1.00  0.00    -0.563 NA 
HETATM   11  H   UNL     1     -14.351  10.229  72.485  1.00  0.00     0.000 HD 
BRANCH  10  12
HETATM   12  C   UNL     1     -12.945  11.401  71.468  1.00  0.00    -0.399 A  
HETATM   13  N   UNL     1     -13.181  12.576  72.054  1.00  0.00    -0.466 NA 
HETATM   14  C   UNL     1     -12.871  13.661  71.337  1.00  0.00    -0.360 A  
HETATM   15  C   UNL     1     -12.248  13.653  70.104  1.00  0.00    -0.413 A  
HETATM   16  C   UNL     1     -11.979  12.428  69.521  1.00  0.00    -0.261 A  
HETATM   17  N   UNL     1     -12.395  11.284  70.197  1.00  0.00    -0.291 NA 
BRANCH  16  18
HETATM   18  C   UNL     1     -11.251  12.441  68.162  1.00  0.00    -0.313 A  
HETATM   19  C   UNL     1     -11.499  11.435  67.209  1.00  0.00    -0.224 A  
HETATM   20  N   UNL     1     -10.826  11.732  66.057  1.00  0.00    -0.287 NA 
HETATM   21  C   UNL     1     -10.368  13.335  67.392  1.00  0.00    -0.243 A  
HETATM   22  N   UNL     1     -10.113  12.843  66.158  1.00  0.00    -0.271 NA 
BRANCH  20  23
HETATM   23  C   UNL     1     -10.847  11.024  64.764  1.00  0.00    -0.163 C  
HETATM   24  C   UNL     1      -9.490  10.408  64.395  1.00  0.00    -0.343 C  
HETATM   25  C   UNL     1     -11.309  11.924  63.608  1.00  0.00    -0.536 C  
ENDBRANCH  20  23
BRANCH  21  26
HETATM   26  C   UNL     1      -9.680  14.590  67.694  1.00  0.00    -0.215 A  
HETATM   27  C   UNL     1      -8.543  14.672  68.535  1.00  0.00    -0.170 A  
HETATM   28  C   UNL     1      -8.037  15.914  68.932  1.00  0.00    -0.214 A  
HETATM   29 CL   UNL     1      -6.573  16.032  69.826  1.00  0.00    -0.179 Cl 
HETATM   30  C   UNL     1      -8.726  17.090  68.607  1.00  0.00    -0.261 A  
HETATM   31  C   UNL     1      -9.829  16.973  67.782  1.00  0.00    -0.271 A  
HETATM   32  C   UNL     1     -10.183  15.765  67.213  1.00  0.00    -0.268 A  
HETATM   33  F   UNL     1     -10.985  15.800  66.151  1.00  0.00    -0.320 F  
BRANCH  31  34
HETATM   34  N   UNL     1     -10.645  18.090  67.432  1.00  0.00    -0.386 N  
HETATM   35  H   UNL     1     -11.543  18.274  67.880  1.00  0.00     0.000 HD 
BRANCH  34  36
HETATM   36  S   UNL     1     -10.016  19.085  66.222  1.00  0.00    -0.390 S  
HETATM   37  O   UNL     1      -8.691  18.645  65.853  1.00  0.00    -0.481 OA 
HETATM   38  O   UNL     1     -11.084  19.210  65.253  1.00  0.00    -0.406 OA 
HETATM   39  C   UNL     1      -9.903  20.584  67.163  1.00  0.00    -0.426 C  
ENDBRANCH  34  36
ENDBRANCH  31  34
ENDBRANCH  21  26
ENDBRANCH  16  18
ENDBRANCH  10  12
ENDBRANCH   9  10
ENDBRANCH   7   9
ENDBRANCH   4   7
ENDBRANCH   2   3
TORSDOF 10
ENDMDL
MODEL       10
REMARK 921   NORMALIZED FREE ENERGY PREDICTED BY IDOCK:   -6.95 KCAL/MOL
REMARK 922        TOTAL FREE ENERGY PREDICTED BY IDOCK:  -12.98 KCAL/MOL
REMARK 923 INTER-LIGAND FREE ENERGY PREDICTED BY IDOCK:   -9.88 KCAL/MOL
REMARK 924 INTRA-LIGAND FREE ENERGY PREDICTED BY IDOCK:   -3.09 KCAL/MOL
REMARK 927      BINDING AFFINITY PREDICTED BY RF-SCORE:    0.00 PKD
ROOT
HETATM    1  C   UNL     1      -6.003  10.000  69.968  1.00  0.00    -0.053 C  
HETATM    2  O   UNL     1      -7.099   9.927  70.897  1.00  0.00    -0.323 OA 
ENDROOT
BRANCH   2   3
HETATM    3  C   UNL     1      -7.098   8.794  71.658  1.00  0.00    -0.073 C  
HETATM    4  N   UNL     1      -8.373   8.286  71.783  1.00  0.00    -0.135 N  
HETATM    5  O   UNL     1      -6.089   8.320  72.162  1.00  0.00    -0.045 OA 
HETATM    6  H   UNL     1      -9.141   8.769  71.316  1.00  0.00     0.000 HD 
BRANCH   4   7
HETATM    7  C   UNL     1      -8.673   7.071  72.563  1.00  0.00    -0.123 C  
HETATM    8  C   UNL     1      -9.309   7.516  73.920  1.00  0.00    -0.301 C  
BRANCH   7   9
HETATM    9  C   UNL     1      -9.668   6.023  71.909  1.00  0.00    -0.153 C  
BRANCH   9  10
HETATM   10  N   UNL     1     -10.708   6.385  70.888  1.00  0.00    -0.239 NA 
HETATM   11  H   UNL     1     -10.643   5.960  69.963  1.00  0.00     0.000 HD 
BRANCH  10  12
HETATM   12  C   UNL     1     -11.767   7.280  71.136  1.00  0.00    -0.303 A  
HETATM   13  N   UNL     1     -12.916   6.749  71.559  1.00  0.00    -0.292 NA 
HETATM   14  C   UNL     1     -13.946   7.594  71.667  1.00  0.00    -0.408 A  
HETATM   15  C   UNL     1     -13.885   8.961  71.472  1.00  0.00    -0.388 A  
HETATM   16  C   UNL     1     -12.679   9.503  71.065  1.00  0.00    -0.238 A  
HETATM   17  N   UNL     1     -11.620   8.629  70.835  1.00  0.00    -0.278 NA 
BRANCH  16  18
HETATM   18  C   UNL     1     -12.622  11.034  70.888  1.00  0.00    -0.488 A  
HETATM   19  C   UNL     1     -13.071  11.889  71.912  1.00  0.00    -0.369 A  
HETATM   20  N   UNL     1     -12.811  13.185  71.563  1.00  0.00    -0.347 NA 
HETATM   21  C   UNL     1     -12.073  12.015  69.935  1.00  0.00    -0.263 A  
HETATM   22  N   UNL     1     -12.249  13.284  70.368  1.00  0.00    -0.353 NA 
BRANCH  20  23
HETATM   23  C   UNL     1     -13.022  14.415  72.347  1.00  0.00    -0.395 C  
HETATM   24  C   UNL     1     -14.291  15.176  71.939  1.00  0.00    -0.693 C  
HETATM   25  C   UNL     1     -11.825  15.375  72.266  1.00  0.00    -0.551 C  
ENDBRANCH  20  23
BRANCH  21  26
HETATM   26  C   UNL     1     -11.436  11.909  68.622  1.00  0.00    -0.350 A  
HETATM   27  C   UNL     1     -11.986  12.470  67.443  1.00  0.00    -0.283 A  
HETATM   28  C   UNL     1     -11.430  12.186  66.191  1.00  0.00    -0.371 A  
HETATM   29 CL   UNL     1     -11.990  12.975  64.771  1.00  0.00    -0.416 Cl 
HETATM   30  C   UNL     1     -10.402  11.240  66.077  1.00  0.00    -0.302 A  
HETATM   31  C   UNL     1      -9.889  10.715  67.248  1.00  0.00    -0.176 A  
HETATM   32  C   UNL     1     -10.292  11.175  68.486  1.00  0.00    -0.193 A  
HETATM   33  F   UNL     1      -9.497  10.921  69.524  1.00  0.00    -0.161 F  
BRANCH  31  34
HETATM   34  N   UNL     1      -8.885   9.702  67.257  1.00  0.00    -0.131 N  
HETATM   35  H   UNL     1      -7.899   9.905  67.088  1.00  0.00     0.000 HD 
BRANCH  34  36
HETATM   36  S   UNL     1      -9.447   8.140  67.566  1.00  0.00    -0.158 S  
HETATM   37  O   UNL     1      -8.959   7.678  68.844  1.00  0.00    -0.138 OA 
HETATM   38  O   UNL     1     -10.859   8.186  67.250  1.00  0.00    -0.248 OA 
HETATM   39  C   UNL     1      -8.585   7.300  66.263  1.00  0.00    -0.142 C  
ENDBRANCH  34  36
ENDBRANCH  31  34
ENDBRANCH  21  26
ENDBRANCH  16  18
ENDBRANCH  10  12
ENDBRANCH   9  10
ENDBRANCH   7   9
ENDBRANCH   4   7
ENDBRANCH   2   3
TORSDOF 10
ENDMDL
MODEL       11
REMARK 921   NORMALIZED FREE ENERGY PREDICTED BY IDOCK:   -6.94 KCAL/MOL
REMARK 922        TOTAL FREE ENERGY PREDICTED BY IDOCK:  -12.96 KCAL/MOL
REMARK 923 INTER-LIGAND FREE ENERGY PREDICTED BY IDOCK:  -11.42 KCAL/MOL
REMARK 924 INTRA-LIGAND FREE ENERGY PREDICTED BY IDOCK:   -1.54 KCAL/MOL
REMARK 927      BINDING AFFINITY PREDICTED BY RF-SCORE:    0.00 PKD
ROOT
HETATM    1  C   UNL     1     -10.758   7.174  67.132  1.00  0.00    -0.352 C  
HETATM    2  O   UNL     1     -11.130   6.167  68.090  1.00  0.00    -0.332 OA 
ENDROOT
BRANCH   2   3
HETATM    3  C   UNL     1     -10.994   6.568  69.388  1.00  0.00    -0.337 C  
HETATM    4  N   UNL     1     -12.163   7.131  69.853  1.00  0.00    -0.318 N  
HETATM    5  O   UNL     1      -9.959   6.445  70.027  1.00  0.00    -0.167 OA 
HETATM    6  H   UNL     1     -12.966   7.181  69.225  1.00  0.00     0.000 HD 
BRANCH   4   7
HETATM    7  C   UNL     1     -12.300   7.665  71.220  1.00  0.00    -0.309 C  
HETATM    8  C   UNL     1     -11.775   6.580  72.215  1.00  0.00    -0.320 C  
BRANCH   7   9
HETATM    9  C   UNL     1     -11.522   9.008  71.549  1.00  0.00    -0.337 C  
BRANCH   9  10
HETATM   10  N   UNL     1     -10.027   9.130  71.535  1.00  0.00    -0.313 NA 
HETATM   11  H   UNL     1      -9.510   8.809  72.354  1.00  0.00     0.000 HD 
BRANCH  10  12
HETATM   12  C   UNL     1      -9.297   9.665  70.455  1.00  0.00    -0.211 A  
HETATM   13  N   UNL     1      -7.993   9.386  70.413  1.00  0.00    -0.158 NA 
HETATM   14  C   UNL     1      -7.293  10.003  69.456  1.00  0.00    -0.112 A  
HETATM   15  C   UNL     1      -7.825  10.812  68.470  1.00  0.00    -0.122 A  
HETATM   16  C   UNL     1      -9.184  11.067  68.505  1.00  0.00    -0.177 A  
HETATM   17  N   UNL     1      -9.917  10.528  69.559  1.00  0.00    -0.197 NA 
BRANCH  16  18
HETATM   18  C   UNL     1      -9.763  11.943  67.376  1.00  0.00    -0.189 A  
HETATM   19  C   UNL     1      -9.779  11.477  66.048  1.00  0.00    -0.226 A  
HETATM   20  N   UNL     1     -10.441  12.379  65.262  1.00  0.00    -0.279 NA 
HETATM   21  C   UNL     1     -10.507  13.207  67.230  1.00  0.00    -0.243 A  
HETATM   22  N   UNL     1     -10.851  13.438  65.943  1.00  0.00    -0.273 NA 
BRANCH  20  23
HETATM   23  C   UNL     1     -10.783  12.286  63.831  1.00  0.00    -0.420 C  
HETATM   24  C   UNL     1     -12.286  12.097  63.585  1.00  0.00    -0.663 C  
HETATM   25  C   UNL     1     -10.021  11.157  63.118  1.00  0.00    -0.393 C  
ENDBRANCH  20  23
BRANCH  21  26
HETATM   26  C   UNL     1     -10.897  14.268  68.159  1.00  0.00    -0.253 A  
HETATM   27  C   UNL     1     -10.573  15.633  67.962  1.00  0.00    -0.271 A  
HETATM   28  C   UNL     1     -10.814  16.576  68.967  1.00  0.00    -0.329 A  
HETATM   29 CL   UNL     1     -10.566  18.254  68.688  1.00  0.00    -0.159 Cl 
HETATM   30  C   UNL     1     -11.261  16.160  70.228  1.00  0.00    -0.389 A  
HETATM   31  C   UNL     1     -11.570  14.822  70.383  1.00  0.00    -0.279 A  
HETATM   32  C   UNL     1     -11.544  13.944  69.317  1.00  0.00    -0.309 A  
HETATM   33  F   UNL     1     -12.215  12.801  69.447  1.00  0.00    -0.315 F  
BRANCH  31  34
HETATM   34  N   UNL     1     -11.976  14.270  71.635  1.00  0.00    -0.360 N  
HETATM   35  H   UNL     1     -11.367  13.670  72.192  1.00  0.00     0.000 HD 
BRANCH  34  36
HETATM   36  S   UNL     1     -13.538  14.682  72.127  1.00  0.00    -0.463 S  
HETATM   37  O   UNL     1     -14.213  15.416  71.082  1.00  0.00    -0.493 OA 
HETATM   38  O   UNL     1     -14.082  13.463  72.688  1.00  0.00    -0.767 OA 
HETATM   39  C   UNL     1     -13.103  15.788  73.444  1.00  0.00    -0.579 C  
ENDBRANCH  34  36
ENDBRANCH  31  34
ENDBRANCH  21  26
ENDBRANCH  16  18
ENDBRANCH  10  12
ENDBRANCH   9  10
ENDBRANCH   7   9
ENDBRANCH   4   7
ENDBRANCH   2   3
TORSDOF 10
ENDMDL
MODEL       12
REMARK 921   NORMALIZED FREE ENERGY PREDICTED BY IDOCK:   -6.92 KCAL/MOL
REMARK 922        TOTAL FREE ENERGY PREDICTED BY IDOCK:  -12.91 KCAL/MOL
REMARK 923 INTER-LIGAND FREE ENERGY PREDICTED BY IDOCK:  -11.38 KCAL/MOL
REMARK 924 INTRA-LIGAND FREE ENERGY PREDICTED BY IDOCK:   -1.54 KCAL/MOL
REMARK 927      BINDING AFFINITY PREDICTED BY RF-SCORE:    0.00 PKD
ROOT
HETATM    1  C   UNL     1      -9.947   4.585  73.437  1.00  0.00    -0.150 C  
HETATM    2  O   UNL     1     -11.319   4.988  73.275  1.00  0.00    -0.325 OA 
ENDROOT
BRANCH   2   3
HETATM    3  C   UNL     1     -11.479   6.072  72.461  1.00  0.00    -0.290 C  
HETATM    4  N   UNL     1     -11.326   7.245  73.168  1.00  0.00    -0.582 N  
HETATM    5  O   UNL     1     -11.737   5.987  71.268  1.00  0.00    -0.225 OA 
HETATM    6  H   UNL     1     -11.111   7.191  74.164  1.00  0.00     0.000 HD 
BRANCH   4   7
HETATM    7  C   UNL     1     -11.459   8.574  72.544  1.00  0.00    -0.298 C  
HETATM    8  C   UNL     1     -10.219   8.797  71.619  1.00  0.00    -0.394 C  
BRANCH   7   9
HETATM    9  C   UNL     1     -12.748   8.824  71.654  1.00  0.00    -0.348 C  
BRANCH   9  10
HETATM   10  N   UNL     1     -12.824   9.854  70.565  1.00  0.00    -0.558 NA 
HETATM   11  H   UNL     1     -12.925   9.530  69.603  1.00  0.00     0.000 HD 
BRANCH  10  12
HETATM   12  C   UNL     1     -12.763  11.242  70.797  1.00  0.00    -0.269 A  
HETATM   13  N   UNL     1     -13.277  11.683  71.946  1.00  0.00    -0.454 NA 
HETATM   14  C   UNL     1     -13.326  13.012  72.093  1.00  0.00    -0.524 A  
HETATM   15  C   UNL     1     -12.806  13.935  71.207  1.00  0.00    -0.435 A  
HETATM   16  C   UNL     1     -12.245  13.463  70.034  1.00  0.00    -0.298 A  
HETATM   17  N   UNL     1     -12.284  12.090  69.805  1.00  0.00    -0.208 NA 
BRANCH  16  18
HETATM   18  C   UNL     1     -11.638  14.507  69.076  1.00  0.00    -0.330 A  
HETATM   19  C   UNL     1     -11.423  15.830  69.505  1.00  0.00    -0.353 A  
HETATM   20  N   UNL     1     -10.776  16.523  68.519  1.00  0.00    -0.318 NA 
HETATM   21  C   UNL     1     -11.021  14.551  67.738  1.00  0.00    -0.275 A  
HETATM   22  N   UNL     1     -10.561  15.786  67.440  1.00  0.00    -0.308 NA 
BRANCH  20  23
HETATM   23  C   UNL     1     -10.267  17.906  68.542  1.00  0.00    -0.390 C  
HETATM   24  C   UNL     1     -10.790  18.756  67.376  1.00  0.00    -0.414 C  
HETATM   25  C   UNL     1      -8.731  17.967  68.545  1.00  0.00    -0.304 C  
ENDBRANCH  20  23
BRANCH  21  26
HETATM   26  C   UNL     1     -10.853  13.570  66.665  1.00  0.00    -0.283 A  
HETATM   27  C   UNL     1     -11.849  13.301  65.693  1.00  0.00    -0.419 A  
HETATM   28  C   UNL     1     -11.706  12.231  64.803  1.00  0.00    -0.358 A  
HETATM   29 CL   UNL     1     -12.829  11.984  63.525  1.00  0.00    -0.595 Cl 
HETATM   30  C   UNL     1     -10.639  11.335  64.946  1.00  0.00    -0.364 A  
HETATM   31  C   UNL     1      -9.685  11.630  65.902  1.00  0.00    -0.235 A  
HETATM   32  C   UNL     1      -9.719  12.811  66.619  1.00  0.00    -0.252 A  
HETATM   33  F   UNL     1      -8.593  13.200  67.213  1.00  0.00    -0.173 F  
BRANCH  31  34
HETATM   34  N   UNL     1      -8.587  10.763  66.182  1.00  0.00    -0.163 N  
HETATM   35  H   UNL     1      -7.695  10.832  65.691  1.00  0.00     0.000 HD 
BRANCH  34  36
HETATM   36  S   UNL     1      -8.871   9.613  67.385  1.00  0.00    -0.128 S  
HETATM   37  O   UNL     1     -10.138   9.869  68.030  1.00  0.00    -0.157 OA 
HETATM   38  O   UNL     1      -8.566   8.343  66.762  1.00  0.00    -0.114 OA 
HETATM   39  C   UNL     1      -7.548  10.061  68.478  1.00  0.00    -0.087 C  
ENDBRANCH  34  36
ENDBRANCH  31  34
ENDBRANCH  21  26
ENDBRANCH  16  18
ENDBRANCH  10  12
ENDBRANCH   9  10
ENDBRANCH   7   9
ENDBRANCH   4   7
ENDBRANCH   2   3
TORSDOF 10
ENDMDL
MODEL       13
REMARK 921   NORMALIZED FREE ENERGY PREDICTED BY IDOCK:   -6.86 KCAL/MOL
REMARK 922        TOTAL FREE ENERGY PREDICTED BY IDOCK:  -12.82 KCAL/MOL
REMARK 923 INTER-LIGAND FREE ENERGY PREDICTED BY IDOCK:  -10.72 KCAL/MOL
REMARK 924 INTRA-LIGAND FREE ENERGY PREDICTED BY IDOCK:   -2.11 KCAL/MOL
REMARK 927      BINDING AFFINITY PREDICTED BY RF-SCORE:    0.00 PKD
ROOT
HETATM    1  C   UNL     1     -13.322  12.439  72.040  1.00  0.00    -0.407 C  
HETATM    2  O   UNL     1     -13.114  11.358  71.114  1.00  0.00    -0.294 OA 
ENDROOT
BRANCH   2   3
HETATM    3  C   UNL     1     -12.920  10.149  71.717  1.00  0.00    -0.462 C  
HETATM    4  N   UNL     1     -11.650   9.675  71.469  1.00  0.00    -0.387 N  
HETATM    5  O   UNL     1     -13.779   9.578  72.375  1.00  0.00    -0.438 OA 
HETATM    6  H   UNL     1     -11.018  10.242  70.904  1.00  0.00     0.000 HD 
BRANCH   4   7
HETATM    7  C   UNL     1     -11.168   8.381  71.988  1.00  0.00    -0.334 C  
HETATM    8  C   UNL     1     -11.632   7.264  70.999  1.00  0.00    -0.329 C  
BRANCH   7   9
HETATM    9  C   UNL     1      -9.600   8.218  72.166  1.00  0.00    -0.268 C  
BRANCH   9  10
HETATM   10  N   UNL     1      -8.635   8.131  71.020  1.00  0.00    -0.130 NA 
HETATM   11  H   UNL     1      -8.285   7.211  70.755  1.00  0.00     0.000 HD 
BRANCH  10  12
HETATM   12  C   UNL     1      -8.184   9.250  70.292  1.00  0.00    -0.172 A  
HETATM   13  N   UNL     1      -6.974   9.720  70.599  1.00  0.00    -0.234 NA 
HETATM   14  C   UNL     1      -6.615  10.854  69.990  1.00  0.00    -0.151 A  
HETATM   15  C   UNL     1      -7.347  11.507  69.016  1.00  0.00    -0.094 A  
HETATM   16  C   UNL     1      -8.587  10.991  68.684  1.00  0.00    -0.157 A  
HETATM   17  N   UNL     1      -9.033   9.875  69.385  1.00  0.00    -0.181 NA 
BRANCH  16  18
HETATM   18  C   UNL     1      -9.371  11.713  67.570  1.00  0.00    -0.168 A  
HETATM   19  C   UNL     1      -9.629  11.069  66.345  1.00  0.00    -0.198 A  
HETATM   20  N   UNL     1     -10.431  11.866  65.578  1.00  0.00    -0.258 NA 
HETATM   21  C   UNL     1     -10.139  12.958  67.390  1.00  0.00    -0.223 A  
HETATM   22  N   UNL     1     -10.716  13.017  66.169  1.00  0.00    -0.271 NA 
BRANCH  20  23
HETATM   23  C   UNL     1     -11.031  11.583  64.261  1.00  0.00    -0.341 C  
HETATM   24  C   UNL     1      -9.985  11.300  63.175  1.00  0.00    -0.398 C  
HETATM   25  C   UNL     1     -11.949  12.717  63.777  1.00  0.00    -0.588 C  
ENDBRANCH  20  23
BRANCH  21  26
HETATM   26  C   UNL     1     -10.359  14.144  68.218  1.00  0.00    -0.245 A  
HETATM   27  C   UNL     1     -11.455  14.280  69.106  1.00  0.00    -0.330 A  
HETATM   28  C   UNL     1     -11.715  15.502  69.737  1.00  0.00    -0.349 A  
HETATM   29 CL   UNL     1     -12.946  15.642  70.928  1.00  0.00    -0.520 Cl 
HETATM   30  C   UNL     1     -10.970  16.640  69.398  1.00  0.00    -0.235 A  
HETATM   31  C   UNL     1      -9.907  16.469  68.532  1.00  0.00    -0.243 A  
HETATM   32  C   UNL     1      -9.523  15.216  68.095  1.00  0.00    -0.201 A  
HETATM   33  F   UNL     1      -8.292  15.090  67.602  1.00  0.00    -0.136 F  
BRANCH  31  34
HETATM   34  N   UNL     1      -9.116  17.561  68.067  1.00  0.00    -0.262 N  
HETATM   35  H   UNL     1      -8.230  17.821  68.502  1.00  0.00     0.000 HD 
BRANCH  34  36
HETATM   36  S   UNL     1      -9.751  18.393  66.742  1.00  0.00    -0.343 S  
HETATM   37  O   UNL     1      -9.989  17.482  65.647  1.00  0.00    -0.561 OA 
HETATM   38  O   UNL     1     -10.800  19.223  67.295  1.00  0.00    -0.479 OA 
HETATM   39  C   UNL     1      -8.338  19.402  66.378  1.00  0.00    -0.331 C  
ENDBRANCH  34  36
ENDBRANCH  31  34
ENDBRANCH  21  26
ENDBRANCH  16  18
ENDBRANCH  10  12
ENDBRANCH   9  10
ENDBRANCH   7   9
ENDBRANCH   4   7
ENDBRANCH   2   3
TORSDOF 10
ENDMDL
MODEL       14
REMARK 921   NORMALIZED FREE ENERGY PREDICTED BY IDOCK:   -6.85 KCAL/MOL
REMARK 922        TOTAL FREE ENERGY PREDICTED BY IDOCK:  -12.82 KCAL/MOL
REMARK 923 INTER-LIGAND FREE ENERGY PREDICTED BY IDOCK:  -10.70 KCAL/MOL
REMARK 924 INTRA-LIGAND FREE ENERGY PREDICTED BY IDOCK:   -2.12 KCAL/MOL
REMARK 927      BINDING AFFINITY PREDICTED BY RF-SCORE:    0.00 PKD
ROOT
HETATM    1  C   UNL     1     -10.892  16.682  68.193  1.00  0.00    -0.348 C  
HETATM    2  O   UNL     1     -11.034  17.014  69.586  1.00  0.00    -0.167 OA 
ENDROOT
BRANCH   2   3
HETATM    3  C   UNL     1     -11.210  15.928  70.393  1.00  0.00    -0.378 C  
HETATM    4  N   UNL     1     -11.844  16.283  71.563  1.00  0.00    -0.649 N  
HETATM    5  O   UNL     1     -10.834  14.801  70.099  1.00  0.00    -0.183 OA 
HETATM    6  H   UNL     1     -12.112  17.258  71.699  1.00  0.00     0.000 HD 
BRANCH   4   7
HETATM    7  C   UNL     1     -12.153  15.311  72.628  1.00  0.00    -0.419 C  
HETATM    8  C   UNL     1     -12.587  16.111  73.898  1.00  0.00    -0.703 C  
BRANCH   7   9
HETATM    9  C   UNL     1     -13.302  14.259  72.330  1.00  0.00    -0.474 C  
BRANCH   9  10
HETATM   10  N   UNL     1     -13.324  13.365  71.125  1.00  0.00    -0.108 NA 
HETATM   11  H   UNL     1     -13.683  13.746  70.250  1.00  0.00     0.000 HD 
BRANCH  10  12
HETATM   12  C   UNL     1     -12.875  12.030  71.135  1.00  0.00    -0.235 A  
HETATM   13  N   UNL     1     -13.333  11.249  72.115  1.00  0.00    -0.353 NA 
HETATM   14  C   UNL     1     -12.801  10.024  72.185  1.00  0.00    -0.322 A  
HETATM   15  C   UNL     1     -11.906   9.487  71.279  1.00  0.00    -0.450 A  
HETATM   16  C   UNL     1     -11.464  10.297  70.248  1.00  0.00    -0.317 A  
HETATM   17  N   UNL     1     -11.916  11.613  70.219  1.00  0.00    -0.357 NA 
BRANCH  16  18
HETATM   18  C   UNL     1     -10.494   9.668  69.228  1.00  0.00    -0.232 A  
HETATM   19  C   UNL     1     -10.331   8.271  69.165  1.00  0.00    -0.217 A  
HETATM   20  N   UNL     1      -9.514   7.961  68.114  1.00  0.00    -0.146 NA 
HETATM   21  C   UNL     1      -9.675  10.090  68.078  1.00  0.00    -0.139 A  
HETATM   22  N   UNL     1      -9.081   9.036  67.474  1.00  0.00    -0.132 NA 
BRANCH  20  23
HETATM   23  C   UNL     1      -9.126   6.633  67.603  1.00  0.00    -0.112 C  
HETATM   24  C   UNL     1      -9.284   6.507  66.081  1.00  0.00    -0.126 C  
HETATM   25  C   UNL     1      -9.909   5.494  68.275  1.00  0.00    -0.185 C  
ENDBRANCH  20  23
BRANCH  21  26
HETATM   26  C   UNL     1      -9.336  11.389  67.495  1.00  0.00    -0.166 A  
HETATM   27  C   UNL     1      -8.767  12.451  68.240  1.00  0.00    -0.175 A  
HETATM   28  C   UNL     1      -8.630  13.724  67.676  1.00  0.00    -0.187 A  
HETATM   29 CL   UNL     1      -7.807  14.981  68.511  1.00  0.00    -0.130 Cl 
HETATM   30  C   UNL     1      -9.173  13.996  66.413  1.00  0.00    -0.187 A  
HETATM   31  C   UNL     1      -9.718  12.935  65.714  1.00  0.00    -0.146 A  
HETATM   32  C   UNL     1      -9.641  11.640  66.188  1.00  0.00    -0.232 A  
HETATM   33  F   UNL     1      -9.822  10.655  65.310  1.00  0.00    -0.251 F  
BRANCH  31  34
HETATM   34  N   UNL     1     -10.354  13.099  64.448  1.00  0.00    -0.530 N  
HETATM   35  H   UNL     1      -9.840  13.062  63.567  1.00  0.00     0.000 HD 
BRANCH  34  36
HETATM   36  S   UNL     1     -12.021  13.359  64.512  1.00  0.00    -0.428 S  
HETATM   37  O   UNL     1     -12.494  13.229  65.870  1.00  0.00    -0.426 OA 
HETATM   38  O   UNL     1     -12.238  14.559  63.731  1.00  0.00    -0.599 OA 
HETATM   39  C   UNL     1     -12.533  11.947  63.568  1.00  0.00    -0.492 C  
ENDBRANCH  34  36
ENDBRANCH  31  34
ENDBRANCH  21  26
ENDBRANCH  16  18
ENDBRANCH  10  12
ENDBRANCH   9  10
ENDBRANCH   7   9
ENDBRANCH   4   7
ENDBRANCH   2   3
TORSDOF 10
ENDMDL
MODEL       15
REMARK 921   NORMALIZED FREE ENERGY PREDICTED BY IDOCK:   -6.84 KCAL/MOL
REMARK 922        TOTAL FREE ENERGY PREDICTED BY IDOCK:  -12.80 KCAL/MOL
REMARK 923 INTER-LIGAND FREE ENERGY PREDICTED BY IDOCK:  -11.26 KCAL/MOL
REMARK 924 INTRA-LIGAND FREE ENERGY PREDICTED BY IDOCK:   -1.53 KCAL/MOL
REMARK 927      BINDING AFFINITY PREDICTED BY RF-SCORE:    0.00 PKD
ROOT
HETATM    1  C   UNL     1     -10.551  19.620  67.246  1.00  0.00    -0.472 C  
HETATM    2  O   UNL     1      -9.676  19.932  66.148  1.00  0.00    -0.410 OA 
ENDROOT
BRANCH   2   3
HETATM    3  C   UNL     1      -8.421  19.413  66.283  1.00  0.00    -0.334 C  
HETATM    4  N   UNL     1      -7.685  20.137  67.196  1.00  0.00    -0.294 N  
HETATM    5  O   UNL     1      -8.021  18.441  65.657  1.00  0.00    -0.482 OA 
HETATM    6  H   UNL     1      -8.126  20.933  67.659  1.00  0.00     0.000 HD 
BRANCH   4   7
HETATM    7  C   UNL     1      -6.288  19.809  67.532  1.00  0.00    -0.202 C  
HETATM    8  C   UNL     1      -5.681  21.025  68.303  1.00  0.00    -0.384 C  
BRANCH   7   9
HETATM    9  C   UNL     1      -6.047  18.526  68.433  1.00  0.00    -0.201 C  
BRANCH   9  10
HETATM   10  N   UNL     1      -7.143  17.790  69.147  1.00  0.00    -0.223 NA 
HETATM   11  H   UNL     1      -7.758  18.322  69.763  1.00  0.00     0.000 HD 
BRANCH  10  12
HETATM   12  C   UNL     1      -7.371  16.406  69.014  1.00  0.00    -0.221 A  
HETATM   13  N   UNL     1      -6.514  15.594  69.635  1.00  0.00    -0.171 NA 
HETATM   14  C   UNL     1      -6.668  14.287  69.395  1.00  0.00    -0.130 A  
HETATM   15  C   UNL     1      -7.685  13.725  68.649  1.00  0.00    -0.120 A  
HETATM   16  C   UNL     1      -8.587  14.577  68.037  1.00  0.00    -0.162 A  
HETATM   17  N   UNL     1      -8.381  15.947  68.178  1.00  0.00    -0.159 NA 
BRANCH  16  18
HETATM   18  C   UNL     1      -9.735  13.928  67.239  1.00  0.00    -0.245 A  
HETATM   19  C   UNL     1      -9.716  13.928  65.831  1.00  0.00    -0.214 A  
HETATM   20  N   UNL     1     -10.775  13.199  65.367  1.00  0.00    -0.288 NA 
HETATM   21  C   UNL     1     -10.928  13.102  67.495  1.00  0.00    -0.263 A  
HETATM   22  N   UNL     1     -11.533  12.728  66.345  1.00  0.00    -0.337 NA 
BRANCH  20  23
HETATM   23  C   UNL     1     -11.119  12.847  63.977  1.00  0.00    -0.414 C  
HETATM   24  C   UNL     1     -12.514  12.222  63.845  1.00  0.00    -0.586 C  
HETATM   25  C   UNL     1     -10.091  11.898  63.340  1.00  0.00    -0.464 C  
ENDBRANCH  20  23
BRANCH  21  26
HETATM   26  C   UNL     1     -11.611  12.653  68.709  1.00  0.00    -0.355 A  
HETATM   27  C   UNL     1     -11.976  13.525  69.764  1.00  0.00    -0.405 A  
HETATM   28  C   UNL     1     -12.463  13.018  70.974  1.00  0.00    -0.296 A  
HETATM   29 CL   UNL     1     -13.050  14.065  72.204  1.00  0.00    -0.469 Cl 
HETATM   30  C   UNL     1     -12.474  11.635  71.202  1.00  0.00    -0.412 A  
HETATM   31  C   UNL     1     -12.114  10.815  70.149  1.00  0.00    -0.346 A  
HETATM   32  C   UNL     1     -11.855  11.322  68.891  1.00  0.00    -0.345 A  
HETATM   33  F   UNL     1     -11.906  10.474  67.866  1.00  0.00    -0.314 F  
BRANCH  31  34
HETATM   34  N   UNL     1     -12.028   9.396  70.279  1.00  0.00    -0.470 N  
HETATM   35  H   UNL     1     -12.794   8.774  70.018  1.00  0.00     0.000 HD 
BRANCH  34  36
HETATM   36  S   UNL     1     -10.566   8.821  70.897  1.00  0.00    -0.238 S  
HETATM   37  O   UNL     1      -9.467   9.614  70.398  1.00  0.00    -0.252 OA 
HETATM   38  O   UNL     1     -10.807   8.643  72.313  1.00  0.00    -0.354 OA 
HETATM   39  C   UNL     1     -10.563   7.236  70.102  1.00  0.00    -0.232 C  
ENDBRANCH  34  36
ENDBRANCH  31  34
ENDBRANCH  21  26
ENDBRANCH  16  18
ENDBRANCH  10  12
ENDBRANCH   9  10
ENDBRANCH   7   9
ENDBRANCH   4   7
ENDBRANCH   2   3
TORSDOF 10
ENDMDL
MODEL       16
REMARK 921   NORMALIZED FREE ENERGY PREDICTED BY IDOCK:   -6.58 KCAL/MOL
REMARK 922        TOTAL FREE ENERGY PREDICTED BY IDOCK:  -12.38 KCAL/MOL
REMARK 923 INTER-LIGAND FREE ENERGY PREDICTED BY IDOCK:  -10.09 KCAL/MOL
REMARK 924 INTRA-LIGAND FREE ENERGY PREDICTED BY IDOCK:   -2.29 KCAL/MOL
REMARK 927      BINDING AFFINITY PREDICTED BY RF-SCORE:    0.00 PKD
ROOT
HETATM    1  C   UNL     1     -12.615  11.873  63.700  1.00  0.00    -0.439 C  
HETATM    2  O   UNL     1     -13.247  12.597  64.771  1.00  0.00    -0.846 OA 
ENDROOT
BRANCH   2   3
HETATM    3  C   UNL     1     -12.516  13.658  65.220  1.00  0.00    -0.479 C  
HETATM    4  N   UNL     1     -12.057  13.432  66.500  1.00  0.00    -0.399 N  
HETATM    5  O   UNL     1     -12.319  14.670  64.562  1.00  0.00    -0.511 OA 
HETATM    6  H   UNL     1     -12.285  12.546  66.953  1.00  0.00     0.000 HD 
BRANCH   4   7
HETATM    7  C   UNL     1     -11.248  14.417  67.242  1.00  0.00    -0.323 C  
HETATM    8  C   UNL     1     -11.552  14.239  68.764  1.00  0.00    -0.357 C  
BRANCH   7   9
HETATM    9  C   UNL     1      -9.673  14.328  67.073  1.00  0.00    -0.253 C  
BRANCH   9  10
HETATM   10  N   UNL     1      -8.970  13.187  66.398  1.00  0.00    -0.452 NA 
HETATM   11  H   UNL     1      -8.650  13.318  65.439  1.00  0.00     0.000 HD 
BRANCH  10  12
HETATM   12  C   UNL     1      -8.728  11.944  67.016  1.00  0.00    -0.181 A  
HETATM   13  N   UNL     1      -7.598  11.317  66.684  1.00  0.00    -0.150 NA 
HETATM   14  C   UNL     1      -7.444  10.085  67.180  1.00  0.00    -0.091 A  
HETATM   15  C   UNL     1      -8.304   9.466  68.067  1.00  0.00    -0.119 A  
HETATM   16  C   UNL     1      -9.457  10.140  68.429  1.00  0.00    -0.143 A  
HETATM   17  N   UNL     1      -9.696  11.378  67.838  1.00  0.00    -0.175 NA 
BRANCH  16  18
HETATM   18  C   UNL     1     -10.384   9.448  69.447  1.00  0.00    -0.222 A  
HETATM   19  C   UNL     1     -11.136  10.210  70.362  1.00  0.00    -0.324 A  
HETATM   20  N   UNL     1     -11.957   9.379  71.072  1.00  0.00    -0.305 NA 
HETATM   21  C   UNL     1     -10.898   8.096  69.732  1.00  0.00    -0.190 A  
HETATM   22  N   UNL     1     -11.802   8.107  70.737  1.00  0.00    -0.218 NA 
BRANCH  20  23
HETATM   23  C   UNL     1     -12.980   9.724  72.075  1.00  0.00    -0.423 C  
HETATM   24  C   UNL     1     -14.176   8.762  72.067  1.00  0.00    -0.493 C  
HETATM   25  C   UNL     1     -13.503  11.160  71.910  1.00  0.00    -0.284 C  
ENDBRANCH  20  23
BRANCH  21  26
HETATM   26  C   UNL     1     -10.603   6.765  69.201  1.00  0.00    -0.261 A  
HETATM   27  C   UNL     1     -10.251   5.662  70.017  1.00  0.00    -0.321 A  
HETATM   28  C   UNL     1      -9.806   4.465  69.446  1.00  0.00    -0.168 A  
HETATM   29 CL   UNL     1      -9.520   3.073  70.413  1.00  0.00    -0.231 Cl 
HETATM   30  C   UNL     1      -9.580   4.386  68.066  1.00  0.00    -0.204 A  
HETATM   31  C   UNL     1      -9.938   5.480  67.300  1.00  0.00    -0.165 A  
HETATM   32  C   UNL     1     -10.587   6.568  67.850  1.00  0.00    -0.252 A  
HETATM   33  F   UNL     1     -11.237   7.379  67.017  1.00  0.00    -0.399 F  
BRANCH  31  34
HETATM   34  N   UNL     1      -9.700   5.541  65.894  1.00  0.00    -0.332 N  
HETATM   35  H   UNL     1     -10.295   5.064  65.217  1.00  0.00     0.000 HD 
BRANCH  34  36
HETATM   36  S   UNL     1      -8.361   6.462  65.434  1.00  0.00    -0.118 S  
HETATM   37  O   UNL     1      -8.763   7.818  65.146  1.00  0.00    -0.062 OA 
HETATM   38  O   UNL     1      -7.344   6.151  66.416  1.00  0.00    -0.081 OA 
HETATM   39  C   UNL     1      -7.987   5.619  63.918  1.00  0.00    -0.120 C  
ENDBRANCH  34  36
ENDBRANCH  31  34
ENDBRANCH  21  26
ENDBRANCH  16  18
ENDBRANCH  10  12
ENDBRANCH   9  10
ENDBRANCH   7   9
ENDBRANCH   4   7
ENDBRANCH   2   3
TORSDOF 10
ENDMDL
MODEL       17
REMARK 921   NORMALIZED FREE ENERGY PREDICTED BY IDOCK:   -6.57 KCAL/MOL
REMARK 922        TOTAL FREE ENERGY PREDICTED BY IDOCK:  -12.37 KCAL/MOL
REMARK 923 INTER-LIGAND FREE ENERGY PREDICTED BY IDOCK:  -10.71 KCAL/MOL
REMARK 924 INTRA-LIGAND FREE ENERGY PREDICTED BY IDOCK:   -1.65 KCAL/MOL
REMARK 927      BINDING AFFINITY PREDICTED BY RF-SCORE:    0.00 PKD
ROOT
HETATM    1  C   UNL     1     -11.011   3.427  73.249  1.00  0.00    -0.164 C  
HETATM    2  O   UNL     1     -11.139   4.780  73.722  1.00  0.00    -0.304 OA 
ENDROOT
BRANCH   2   3
HETATM    3  C   UNL     1     -11.114   5.712  72.726  1.00  0.00    -0.289 C  
HETATM    4  N   UNL     1     -12.350   6.302  72.574  1.00  0.00    -0.538 N  
HETATM    5  O   UNL     1     -10.117   5.965  72.063  1.00  0.00    -0.184 OA 
HETATM    6  H   UNL     1     -13.111   6.009  73.187  1.00  0.00     0.000 HD 
BRANCH   4   7
HETATM    7  C   UNL     1     -12.618   7.339  71.560  1.00  0.00    -0.379 C  
HETATM    8  C   UNL     1     -14.166   7.536  71.472  1.00  0.00    -0.580 C  
BRANCH   7   9
HETATM    9  C   UNL     1     -11.984   8.771  71.813  1.00  0.00    -0.349 C  
BRANCH   9  10
HETATM   10  N   UNL     1     -10.510   9.020  71.944  1.00  0.00    -0.345 NA 
HETATM   11  H   UNL     1     -10.085   8.919  72.866  1.00  0.00     0.000 HD 
BRANCH  10  12
HETATM   12  C   UNL     1      -9.681   9.387  70.866  1.00  0.00    -0.250 A  
HETATM   13  N   UNL     1      -8.396   9.040  70.950  1.00  0.00    -0.184 NA 
HETATM   14  C   UNL     1      -7.599   9.505  69.982  1.00  0.00    -0.133 A  
HETATM   15  C   UNL     1      -8.017  10.218  68.875  1.00  0.00    -0.113 A  
HETATM   16  C   UNL     1      -9.359  10.542  68.782  1.00  0.00    -0.180 A  
HETATM   17  N   UNL     1     -10.189  10.168  69.834  1.00  0.00    -0.249 NA 
BRANCH  16  18
HETATM   18  C   UNL     1      -9.810  11.306  67.521  1.00  0.00    -0.195 A  
HETATM   19  C   UNL     1      -9.917  10.643  66.284  1.00  0.00    -0.222 A  
HETATM   20  N   UNL     1     -10.441  11.501  65.358  1.00  0.00    -0.272 NA 
HETATM   21  C   UNL     1     -10.350  12.631  67.167  1.00  0.00    -0.231 A  
HETATM   22  N   UNL     1     -10.672  12.706  65.857  1.00  0.00    -0.262 NA 
BRANCH  20  23
HETATM   23  C   UNL     1     -10.813  11.235  63.956  1.00  0.00    -0.344 C  
HETATM   24  C   UNL     1      -9.646  11.431  62.979  1.00  0.00    -0.397 C  
HETATM   25  C   UNL     1     -11.996  12.097  63.488  1.00  0.00    -0.619 C  
ENDBRANCH  20  23
BRANCH  21  26
HETATM   26  C   UNL     1     -10.558  13.874  67.911  1.00  0.00    -0.248 A  
HETATM   27  C   UNL     1     -11.425  13.978  69.027  1.00  0.00    -0.337 A  
HETATM   28  C   UNL     1     -11.722  15.226  69.586  1.00  0.00    -0.334 A  
HETATM   29 CL   UNL     1     -12.648  15.354  71.028  1.00  0.00    -0.446 Cl 
HETATM   30  C   UNL     1     -11.268  16.399  68.968  1.00  0.00    -0.291 A  
HETATM   31  C   UNL     1     -10.422  16.259  67.884  1.00  0.00    -0.295 A  
HETATM   32  C   UNL     1      -9.955  15.023  67.484  1.00  0.00    -0.226 A  
HETATM   33  F   UNL     1      -8.869  14.998  66.714  1.00  0.00    -0.222 F  
BRANCH  31  34
HETATM   34  N   UNL     1      -9.945  17.377  67.137  1.00  0.00    -0.281 N  
HETATM   35  H   UNL     1     -10.216  17.545  66.168  1.00  0.00     0.000 HD 
BRANCH  34  36
HETATM   36  S   UNL     1      -8.897  18.403  67.974  1.00  0.00    -0.293 S  
HETATM   37  O   UNL     1      -9.650  19.386  68.718  1.00  0.00    -0.393 OA 
HETATM   38  O   UNL     1      -7.943  17.519  68.610  1.00  0.00    -0.266 OA 
HETATM   39  C   UNL     1      -8.132  19.178  66.574  1.00  0.00    -0.298 C  
ENDBRANCH  34  36
ENDBRANCH  31  34
ENDBRANCH  21  26
ENDBRANCH  16  18
ENDBRANCH  10  12
ENDBRANCH   9  10
ENDBRANCH   7   9
ENDBRANCH   4   7
ENDBRANCH   2   3
TORSDOF 10
ENDMDL
MODEL       18
REMARK 921   NORMALIZED FREE ENERGY PREDICTED BY IDOCK:   -6.55 KCAL/MOL
REMARK 922        TOTAL FREE ENERGY PREDICTED BY IDOCK:  -12.33 KCAL/MOL
REMARK 923 INTER-LIGAND FREE ENERGY PREDICTED BY IDOCK:  -10.35 KCAL/MOL
REMARK 924 INTRA-LIGAND FREE ENERGY PREDICTED BY IDOCK:   -1.99 KCAL/MOL
REMARK 927      BINDING AFFINITY PREDICTED BY RF-SCORE:    0.00 PKD
ROOT
HETATM    1  C   UNL     1     -10.245  20.197  67.062  1.00  0.00    -0.419 C  
HETATM    2  O   UNL     1     -10.860  18.910  67.253  1.00  0.00    -0.458 OA 
ENDROOT
BRANCH   2   3
HETATM    3  C   UNL     1     -10.592  18.021  66.253  1.00  0.00    -0.253 C  
HETATM    4  N   UNL     1      -9.957  16.902  66.748  1.00  0.00    -0.277 N  
HETATM    5  O   UNL     1     -10.874  18.219  65.079  1.00  0.00    -0.679 OA 
HETATM    6  H   UNL     1      -9.772  16.847  67.750  1.00  0.00     0.000 HD 
BRANCH   4   7
HETATM    7  C   UNL     1      -9.536  15.780  65.889  1.00  0.00    -0.347 C  
HETATM    8  C   UNL     1      -8.581  14.868  66.724  1.00  0.00    -0.256 C  
BRANCH   7   9
HETATM    9  C   UNL     1     -10.683  14.844  65.316  1.00  0.00    -0.393 C  
BRANCH   9  10
HETATM   10  N   UNL     1     -11.916  14.469  66.084  1.00  0.00    -0.350 NA 
HETATM   11  H   UNL     1     -12.807  14.458  65.589  1.00  0.00     0.000 HD 
BRANCH  10  12
HETATM   12  C   UNL     1     -11.911  14.131  67.452  1.00  0.00    -0.404 A  
HETATM   13  N   UNL     1     -12.151  15.118  68.316  1.00  0.00    -0.142 NA 
HETATM   14  C   UNL     1     -12.018  14.809  69.610  1.00  0.00    -0.316 A  
HETATM   15  C   UNL     1     -11.753  13.548  70.109  1.00  0.00    -0.280 A  
HETATM   16  C   UNL     1     -11.538  12.525  69.202  1.00  0.00    -0.320 A  
HETATM   17  N   UNL     1     -11.559  12.846  67.848  1.00  0.00    -0.323 NA 
BRANCH  16  18
HETATM   18  C   UNL     1     -11.280  11.119  69.779  1.00  0.00    -0.318 A  
HETATM   19  C   UNL     1     -12.017  10.653  70.884  1.00  0.00    -0.363 A  
HETATM   20  N   UNL     1     -11.685   9.349  71.129  1.00  0.00    -0.319 NA 
HETATM   21  C   UNL     1     -10.509   9.910  69.437  1.00  0.00    -0.231 A  
HETATM   22  N   UNL     1     -10.757   8.899  70.298  1.00  0.00    -0.215 NA 
BRANCH  20  23
HETATM   23  C   UNL     1     -12.254   8.421  72.122  1.00  0.00    -0.374 C  
HETATM   24  C   UNL     1     -11.190   7.788  73.029  1.00  0.00    -0.380 C  
HETATM   25  C   UNL     1     -13.078   7.297  71.472  1.00  0.00    -0.434 C  
ENDBRANCH  20  23
BRANCH  21  26
HETATM   26  C   UNL     1      -9.511   9.598  68.413  1.00  0.00    -0.143 A  
HETATM   27  C   UNL     1      -8.115   9.614  68.655  1.00  0.00    -0.100 A  
HETATM   28  C   UNL     1      -7.206   9.484  67.600  1.00  0.00    -0.082 A  
HETATM   29 CL   UNL     1      -5.518   9.350  67.894  1.00  0.00    -0.037 Cl 
HETATM   30  C   UNL     1      -7.664   9.466  66.276  1.00  0.00    -0.097 A  
HETATM   31  C   UNL     1      -9.032   9.449  66.077  1.00  0.00    -0.168 A  
HETATM   32  C   UNL     1      -9.916   9.348  67.133  1.00  0.00    -0.204 A  
HETATM   33  F   UNL     1     -11.156   8.947  66.858  1.00  0.00    -0.212 F  
BRANCH  31  34
HETATM   34  N   UNL     1      -9.617   9.493  64.776  1.00  0.00    -0.439 N  
HETATM   35  H   UNL     1      -9.840   8.649  64.248  1.00  0.00     0.000 HD 
BRANCH  34  36
HETATM   36  S   UNL     1      -9.911  11.043  64.175  1.00  0.00    -0.359 S  
HETATM   37  O   UNL     1     -11.272  11.144  63.701  1.00  0.00    -0.273 OA 
HETATM   38  O   UNL     1      -9.377  11.937  65.180  1.00  0.00    -0.111 OA 
HETATM   39  C   UNL     1      -8.803  10.991  62.791  1.00  0.00    -0.269 C  
ENDBRANCH  34  36
ENDBRANCH  31  34
ENDBRANCH  21  26
ENDBRANCH  16  18
ENDBRANCH  10  12
ENDBRANCH   9  10
ENDBRANCH   7   9
ENDBRANCH   4   7
ENDBRANCH   2   3
TORSDOF 10
ENDMDL
MODEL       19
REMARK 921   NORMALIZED FREE ENERGY PREDICTED BY IDOCK:   -6.55 KCAL/MOL
REMARK 922        TOTAL FREE ENERGY PREDICTED BY IDOCK:  -12.33 KCAL/MOL
REMARK 923 INTER-LIGAND FREE ENERGY PREDICTED BY IDOCK:  -10.79 KCAL/MOL
REMARK 924 INTRA-LIGAND FREE ENERGY PREDICTED BY IDOCK:   -1.54 KCAL/MOL
REMARK 927      BINDING AFFINITY PREDICTED BY RF-SCORE:    0.00 PKD
ROOT
HETATM    1  C   UNL     1     -12.747   8.074  71.992  1.00  0.00    -0.302 C  
HETATM    2  O   UNL     1     -12.864   6.856  71.235  1.00  0.00    -0.359 OA 
ENDROOT
BRANCH   2   3
HETATM    3  C   UNL     1     -11.702   6.472  70.631  1.00  0.00    -0.374 C  
HETATM    4  N   UNL     1     -11.671   6.886  69.317  1.00  0.00    -0.510 N  
HETATM    5  O   UNL     1     -10.825   5.835  71.198  1.00  0.00    -0.259 OA 
HETATM    6  H   UNL     1     -12.464   7.414  68.951  1.00  0.00     0.000 HD 
BRANCH   4   7
HETATM    7  C   UNL     1     -10.538   6.598  68.417  1.00  0.00    -0.242 C  
HETATM    8  C   UNL     1     -11.107   6.403  66.975  1.00  0.00    -0.405 C  
BRANCH   7   9
HETATM    9  C   UNL     1      -9.401   7.700  68.319  1.00  0.00    -0.145 C  
BRANCH   9  10
HETATM   10  N   UNL     1      -9.472   9.036  69.000  1.00  0.00    -0.154 NA 
HETATM   11  H   UNL     1      -9.030   9.135  69.914  1.00  0.00     0.000 HD 
BRANCH  10  12
HETATM   12  C   UNL     1     -10.116  10.161  68.448  1.00  0.00    -0.164 A  
HETATM   13  N   UNL     1     -10.431  10.098  67.153  1.00  0.00    -0.238 NA 
HETATM   14  C   UNL     1     -10.924  11.219  66.616  1.00  0.00    -0.268 A  
HETATM   15  C   UNL     1     -11.217  12.377  67.309  1.00  0.00    -0.357 A  
HETATM   16  C   UNL     1     -10.916  12.418  68.659  1.00  0.00    -0.247 A  
HETATM   17  N   UNL     1     -10.296  11.304  69.218  1.00  0.00    -0.132 NA 
BRANCH  16  18
HETATM   18  C   UNL     1     -11.284  13.706  69.422  1.00  0.00    -0.252 A  
HETATM   19  C   UNL     1     -12.433  13.753  70.233  1.00  0.00    -0.289 A  
HETATM   20  N   UNL     1     -12.475  14.954  70.885  1.00  0.00    -0.305 NA 
HETATM   21  C   UNL     1     -10.691  15.024  69.714  1.00  0.00    -0.244 A  
HETATM   22  N   UNL     1     -11.462  15.743  70.559  1.00  0.00    -0.348 NA 
BRANCH  20  23
HETATM   23  C   UNL     1     -13.437  15.424  71.899  1.00  0.00    -0.475 C  
HETATM   24  C   UNL     1     -12.757  16.033  73.132  1.00  0.00    -0.619 C  
HETATM   25  C   UNL     1     -14.392  14.313  72.362  1.00  0.00    -0.392 C  
ENDBRANCH  20  23
BRANCH  21  26
HETATM   26  C   UNL     1      -9.492  15.723  69.249  1.00  0.00    -0.270 A  
HETATM   27  C   UNL     1      -8.179  15.222  69.431  1.00  0.00    -0.233 A  
HETATM   28  C   UNL     1      -7.065  16.013  69.128  1.00  0.00    -0.197 A  
HETATM   29 CL   UNL     1      -5.474  15.369  69.200  1.00  0.00    -0.095 Cl 
HETATM   30  C   UNL     1      -7.235  17.356  68.765  1.00  0.00    -0.249 A  
HETATM   31  C   UNL     1      -8.530  17.809  68.594  1.00  0.00    -0.269 A  
HETATM   32  C   UNL     1      -9.613  16.956  68.674  1.00  0.00    -0.265 A  
HETATM   33  F   UNL     1     -10.755  17.362  68.124  1.00  0.00    -0.345 F  
BRANCH  31  34
HETATM   34  N   UNL     1      -8.830  19.170  68.285  1.00  0.00    -0.325 N  
HETATM   35  H   UNL     1      -9.032  19.863  69.005  1.00  0.00     0.000 HD 
BRANCH  34  36
HETATM   36  S   UNL     1      -8.826  19.547  66.639  1.00  0.00    -0.363 S  
HETATM   37  O   UNL     1      -8.521  18.372  65.858  1.00  0.00    -0.497 OA 
HETATM   38  O   UNL     1     -10.035  20.317  66.434  1.00  0.00    -0.443 OA 
HETATM   39  C   UNL     1      -7.430  20.641  66.636  1.00  0.00    -0.163 C  
ENDBRANCH  34  36
ENDBRANCH  31  34
ENDBRANCH  21  26
ENDBRANCH  16  18
ENDBRANCH  10  12
ENDBRANCH   9  10
ENDBRANCH   7   9
ENDBRANCH   4   7
ENDBRANCH   2   3
TORSDOF 10
ENDMDL
MODEL       20
REMARK 921   NORMALIZED FREE ENERGY PREDICTED BY IDOCK:   -6.52 KCAL/MOL
REMARK 922        TOTAL FREE ENERGY PREDICTED BY IDOCK:  -12.29 KCAL/MOL
REMARK 923 INTER-LIGAND FREE ENERGY PREDICTED BY IDOCK:  -11.17 KCAL/MOL
REMARK 924 INTRA-LIGAND FREE ENERGY PREDICTED BY IDOCK:   -1.11 KCAL/MOL
REMARK 927      BINDING AFFINITY PREDICTED BY RF-SCORE:    0.00 PKD
ROOT
HETATM    1  C   UNL     1     -10.023   4.468  65.644  1.00  0.00    -0.231 C  
HETATM    2  O   UNL     1     -10.674   5.402  66.524  1.00  0.00    -0.301 OA 
ENDROOT
BRANCH   2   3
HETATM    3  C   UNL     1      -9.986   6.568  66.693  1.00  0.00    -0.143 C  
HETATM    4  N   UNL     1     -10.798   7.545  67.228  1.00  0.00    -0.528 N  
HETATM    5  O   UNL     1      -8.809   6.707  66.390  1.00  0.00    -0.134 OA 
HETATM    6  H   UNL     1     -11.768   7.313  67.441  1.00  0.00     0.000 HD 
BRANCH   4   7
HETATM    7  C   UNL     1     -10.321   8.912  67.506  1.00  0.00    -0.263 C  
HETATM    8  C   UNL     1      -9.334   8.841  68.715  1.00  0.00    -0.141 C  
BRANCH   7   9
HETATM    9  C   UNL     1      -9.559   9.660  66.332  1.00  0.00    -0.210 C  
BRANCH   9  10
HETATM   10  N   UNL     1     -10.235  10.559  65.339  1.00  0.00    -0.286 NA 
HETATM   11  H   UNL     1     -10.131  10.344  64.347  1.00  0.00     0.000 HD 
BRANCH  10  12
HETATM   12  C   UNL     1     -11.003  11.683  65.698  1.00  0.00    -0.266 A  
HETATM   13  N   UNL     1     -11.806  12.188  64.760  1.00  0.00    -0.344 NA 
HETATM   14  C   UNL     1     -12.431  13.328  65.075  1.00  0.00    -0.443 A  
HETATM   15  C   UNL     1     -12.384  13.952  66.307  1.00  0.00    -0.489 A  
HETATM   16  C   UNL     1     -11.573  13.399  67.283  1.00  0.00    -0.360 A  
HETATM   17  N   UNL     1     -10.824  12.277  66.942  1.00  0.00    -0.243 NA 
BRANCH  16  18
HETATM   18  C   UNL     1     -11.563  14.090  68.661  1.00  0.00    -0.360 A  
HETATM   19  C   UNL     1     -12.530  13.765  69.630  1.00  0.00    -0.125 A  
HETATM   20  N   UNL     1     -12.240  14.421  70.794  1.00  0.00    -0.320 NA 
HETATM   21  C   UNL     1     -10.697  14.998  69.434  1.00  0.00    -0.261 A  
HETATM   22  N   UNL     1     -11.169  15.193  70.686  1.00  0.00    -0.292 NA 
BRANCH  20  23
HETATM   23  C   UNL     1     -12.913  14.329  72.102  1.00  0.00    -0.373 C  
HETATM   24  C   UNL     1     -13.618  12.983  72.319  1.00  0.00    -0.643 C  
HETATM   25  C   UNL     1     -13.932  15.459  72.320  1.00  0.00    -0.661 C  
ENDBRANCH  20  23
BRANCH  21  26
HETATM   26  C   UNL     1      -9.486  15.758  69.121  1.00  0.00    -0.255 A  
HETATM   27  C   UNL     1      -8.178  15.274  69.368  1.00  0.00    -0.233 A  
HETATM   28  C   UNL     1      -7.067  16.110  69.217  1.00  0.00    -0.220 A  
HETATM   29 CL   UNL     1      -5.468  15.498  69.364  1.00  0.00    -0.105 Cl 
HETATM   30  C   UNL     1      -7.246  17.473  68.945  1.00  0.00    -0.249 A  
HETATM   31  C   UNL     1      -8.535  17.910  68.707  1.00  0.00    -0.205 A  
HETATM   32  C   UNL     1      -9.597  17.030  68.635  1.00  0.00    -0.275 A  
HETATM   33  F   UNL     1     -10.704  17.452  68.029  1.00  0.00    -0.354 F  
BRANCH  31  34
HETATM   34  N   UNL     1      -8.849  19.284  68.481  1.00  0.00    -0.361 N  
HETATM   35  H   UNL     1      -9.223  19.888  69.212  1.00  0.00     0.000 HD 
BRANCH  34  36
HETATM   36  S   UNL     1      -8.556  19.835  66.912  1.00  0.00    -0.346 S  
HETATM   37  O   UNL     1      -8.174  18.734  66.059  1.00  0.00    -0.458 OA 
HETATM   38  O   UNL     1      -9.681  20.693  66.606  1.00  0.00    -0.336 OA 
HETATM   39  C   UNL     1      -7.135  20.838  67.259  1.00  0.00    -0.362 C  
ENDBRANCH  34  36
ENDBRANCH  31  34
ENDBRANCH  21  26
ENDBRANCH  16  18
ENDBRANCH  10  12
ENDBRANCH   9  10
ENDBRANCH   7   9
ENDBRANCH   4   7
ENDBRANCH   2   3
TORSDOF 10
ENDMDL
MODEL       21
REMARK 921   NORMALIZED FREE ENERGY PREDICTED BY IDOCK:   -6.51 KCAL/MOL
REMARK 922        TOTAL FREE ENERGY PREDICTED BY IDOCK:  -12.27 KCAL/MOL
REMARK 923 INTER-LIGAND FREE ENERGY PREDICTED BY IDOCK:  -10.68 KCAL/MOL
REMARK 924 INTRA-LIGAND FREE ENERGY PREDICTED BY IDOCK:   -1.59 KCAL/MOL
REMARK 927      BINDING AFFINITY PREDICTED BY RF-SCORE:    0.00 PKD
ROOT
HETATM    1  C   UNL     1      -7.186  20.721  67.473  1.00  0.00    -0.326 C  
HETATM    2  O   UNL     1      -7.135  20.223  66.124  1.00  0.00    -0.262 OA 
ENDROOT
BRANCH   2   3
HETATM    3  C   UNL     1      -7.679  18.980  65.978  1.00  0.00    -0.229 C  
HETATM    4  N   UNL     1      -8.992  18.966  66.397  1.00  0.00    -0.322 N  
HETATM    5  O   UNL     1      -7.060  18.019  65.542  1.00  0.00    -0.515 OA 
HETATM    6  H   UNL     1      -9.404  19.833  66.744  1.00  0.00     0.000 HD 
BRANCH   4   7
HETATM    7  C   UNL     1      -9.826  17.750  66.364  1.00  0.00    -0.324 C  
HETATM    8  C   UNL     1     -10.476  17.575  67.774  1.00  0.00    -0.381 C  
BRANCH   7   9
HETATM    9  C   UNL     1     -11.006  17.716  65.305  1.00  0.00     0.309 C  
BRANCH   9  10
HETATM   10  N   UNL     1     -11.231  16.587  64.342  1.00  0.00    -1.229 NA 
HETATM   11  H   UNL     1     -11.258  16.802  63.345  1.00  0.00     0.000 HD 
BRANCH  10  12
HETATM   12  C   UNL     1     -11.406  15.246  64.738  1.00  0.00    -0.391 A  
HETATM   13  N   UNL     1     -12.472  14.610  64.251  1.00  0.00    -0.738 NA 
HETATM   14  C   UNL     1     -12.694  13.383  64.734  1.00  0.00    -0.250 A  
HETATM   15  C   UNL     1     -11.864  12.705  65.607  1.00  0.00    -0.488 A  
HETATM   16  C   UNL     1     -10.743  13.364  66.079  1.00  0.00    -0.278 A  
HETATM   17  N   UNL     1     -10.552  14.684  65.679  1.00  0.00    -0.312 NA 
BRANCH  16  18
HETATM   18  C   UNL     1      -9.812  12.577  67.023  1.00  0.00    -0.217 A  
HETATM   19  C   UNL     1      -8.431  12.499  66.761  1.00  0.00    -0.070 A  
HETATM   20  N   UNL     1      -7.814  11.851  67.795  1.00  0.00    -0.129 NA 
HETATM   21  C   UNL     1      -9.880  11.903  68.331  1.00  0.00    -0.201 A  
HETATM   22  N   UNL     1      -8.668  11.453  68.725  1.00  0.00    -0.122 NA 
BRANCH  20  23
HETATM   23  C   UNL     1      -6.375  11.607  68.008  1.00  0.00    -0.047 C  
HETATM   24  C   UNL     1      -5.675  12.757  68.744  1.00  0.00    -0.067 C  
HETATM   25  C   UNL     1      -5.625  11.334  66.694  1.00  0.00    -0.129 C  
ENDBRANCH  20  23
BRANCH  21  26
HETATM   26  C   UNL     1     -10.971  11.578  69.251  1.00  0.00    -0.261 A  
HETATM   27  C   UNL     1     -11.603  12.539  70.078  1.00  0.00    -0.207 A  
HETATM   28  C   UNL     1     -12.514  12.144  71.064  1.00  0.00    -0.269 A  
HETATM   29 CL   UNL     1     -13.400  13.304  71.971  1.00  0.00    -0.558 Cl 
HETATM   30  C   UNL     1     -12.714  10.783  71.330  1.00  0.00    -0.546 A  
HETATM   31  C   UNL     1     -12.084   9.874  70.501  1.00  0.00    -0.207 A  
HETATM   32  C   UNL     1     -11.370  10.280  69.391  1.00  0.00    -0.221 A  
HETATM   33  F   UNL     1     -11.135   9.371  68.447  1.00  0.00    -0.215 F  
BRANCH  31  34
HETATM   34  N   UNL     1     -12.163   8.465  70.710  1.00  0.00    -0.496 N  
HETATM   35  H   UNL     1     -12.901   7.891  70.303  1.00  0.00     0.000 HD 
BRANCH  34  36
HETATM   36  S   UNL     1     -10.944   7.816  71.682  1.00  0.00    -0.241 S  
HETATM   37  O   UNL     1     -10.056   8.861  72.133  1.00  0.00    -0.325 OA 
HETATM   38  O   UNL     1     -11.634   6.939  72.605  1.00  0.00    -0.235 OA 
HETATM   39  C   UNL     1     -10.130   6.838  70.446  1.00  0.00    -0.183 C  
ENDBRANCH  34  36
ENDBRANCH  31  34
ENDBRANCH  21  26
ENDBRANCH  16  18
ENDBRANCH  10  12
ENDBRANCH   9  10
ENDBRANCH   7   9
ENDBRANCH   4   7
ENDBRANCH   2   3
TORSDOF 10
ENDMDL
MODEL       22
REMARK 921   NORMALIZED FREE ENERGY PREDICTED BY IDOCK:   -6.50 KCAL/MOL
REMARK 922        TOTAL FREE ENERGY PREDICTED BY IDOCK:  -12.26 KCAL/MOL
REMARK 923 INTER-LIGAND FREE ENERGY PREDICTED BY IDOCK:  -10.54 KCAL/MOL
REMARK 924 INTRA-LIGAND FREE ENERGY PREDICTED BY IDOCK:   -1.72 KCAL/MOL
REMARK 927      BINDING AFFINITY PREDICTED BY RF-SCORE:    0.00 PKD
ROOT
HETATM    1  C   UNL     1     -11.942  17.319  74.497  1.00  0.00     0.193 C  
HETATM    2  O   UNL     1     -12.755  16.141  74.358  1.00  0.00    -0.702 OA 
ENDROOT
BRANCH   2   3
HETATM    3  C   UNL     1     -13.133  15.885  73.072  1.00  0.00    -0.541 C  
HETATM    4  N   UNL     1     -12.046  15.913  72.225  1.00  0.00    -0.455 N  
HETATM    5  O   UNL     1     -14.291  15.674  72.738  1.00  0.00    -0.413 OA 
HETATM    6  H   UNL     1     -11.124  16.100  72.619  1.00  0.00     0.000 HD 
BRANCH   4   7
HETATM    7  C   UNL     1     -12.162  15.683  70.773  1.00  0.00    -0.418 C  
HETATM    8  C   UNL     1     -10.752  15.906  70.138  1.00  0.00    -0.338 C  
BRANCH   7   9
HETATM    9  C   UNL     1     -12.654  14.248  70.310  1.00  0.00    -0.319 C  
BRANCH   9  10
HETATM   10  N   UNL     1     -13.002  13.138  71.259  1.00  0.00    -0.298 NA 
HETATM   11  H   UNL     1     -13.577  13.362  72.071  1.00  0.00     0.000 HD 
BRANCH  10  12
HETATM   12  C   UNL     1     -12.578  11.805  71.091  1.00  0.00    -0.309 A  
HETATM   13  N   UNL     1     -13.140  10.891  71.884  1.00  0.00    -0.487 NA 
HETATM   14  C   UNL     1     -12.637   9.655  71.800  1.00  0.00    -0.409 A  
HETATM   15  C   UNL     1     -11.668   9.244  70.906  1.00  0.00    -0.360 A  
HETATM   16  C   UNL     1     -11.116  10.195  70.066  1.00  0.00    -0.308 A  
HETATM   17  N   UNL     1     -11.542  11.513  70.212  1.00  0.00    -0.274 NA 
BRANCH  16  18
HETATM   18  C   UNL     1     -10.062   9.709  69.051  1.00  0.00    -0.193 A  
HETATM   19  C   UNL     1      -9.724   8.345  68.971  1.00  0.00    -0.171 A  
HETATM   20  N   UNL     1      -8.861   8.157  67.927  1.00  0.00    -0.131 NA 
HETATM   21  C   UNL     1      -9.290  10.249  67.918  1.00  0.00    -0.138 A  
HETATM   22  N   UNL     1      -8.560   9.288  67.308  1.00  0.00    -0.124 NA 
BRANCH  20  23
HETATM   23  C   UNL     1      -8.303   6.897  67.403  1.00  0.00    -0.122 C  
HETATM   24  C   UNL     1      -6.844   7.032  66.947  1.00  0.00    -0.064 C  
HETATM   25  C   UNL     1      -9.132   6.325  66.241  1.00  0.00    -0.166 C  
ENDBRANCH  20  23
BRANCH  21  26
HETATM   26  C   UNL     1      -9.111  11.589  67.357  1.00  0.00    -0.166 A  
HETATM   27  C   UNL     1      -8.622  12.687  68.107  1.00  0.00    -0.188 A  
HETATM   28  C   UNL     1      -8.641  13.980  67.574  1.00  0.00    -0.192 A  
HETATM   29 CL   UNL     1      -7.915  15.296  68.409  1.00  0.00    -0.127 Cl 
HETATM   30  C   UNL     1      -9.262  14.223  66.341  1.00  0.00    -0.226 A  
HETATM   31  C   UNL     1      -9.724  13.128  65.636  1.00  0.00    -0.091 A  
HETATM   32  C   UNL     1      -9.495  11.837  66.071  1.00  0.00    -0.230 A  
HETATM   33  F   UNL     1      -9.612  10.859  65.175  1.00  0.00    -0.217 F  
BRANCH  31  34
HETATM   34  N   UNL     1     -10.427  13.254  64.401  1.00  0.00    -0.463 N  
HETATM   35  H   UNL     1      -9.954  13.244  63.498  1.00  0.00     0.000 HD 
BRANCH  34  36
HETATM   36  S   UNL     1     -12.102  13.422  64.544  1.00  0.00    -0.414 S  
HETATM   37  O   UNL     1     -12.497  13.321  65.929  1.00  0.00    -0.426 OA 
HETATM   38  O   UNL     1     -12.428  14.575  63.732  1.00  0.00    -0.809 OA 
HETATM   39  C   UNL     1     -12.577  11.947  63.682  1.00  0.00    -0.439 C  
ENDBRANCH  34  36
ENDBRANCH  31  34
ENDBRANCH  21  26
ENDBRANCH  16  18
ENDBRANCH  10  12
ENDBRANCH   9  10
ENDBRANCH   7   9
ENDBRANCH   4   7
ENDBRANCH   2   3
TORSDOF 10
ENDMDL
MODEL       23
REMARK 921   NORMALIZED FREE ENERGY PREDICTED BY IDOCK:   -6.50 KCAL/MOL
REMARK 922        TOTAL FREE ENERGY PREDICTED BY IDOCK:  -12.25 KCAL/MOL
REMARK 923 INTER-LIGAND FREE ENERGY PREDICTED BY IDOCK:  -10.71 KCAL/MOL
REMARK 924 INTRA-LIGAND FREE ENERGY PREDICTED BY IDOCK:   -1.54 KCAL/MOL
REMARK 927      BINDING AFFINITY PREDICTED BY RF-SCORE:    0.00 PKD
ROOT
HETATM    1  C   UNL     1     -10.587  19.062  66.835  1.00  0.00    -0.436 C  
HETATM    2  O   UNL     1     -10.594  18.227  65.664  1.00  0.00    -0.614 OA 
ENDROOT
BRANCH   2   3
HETATM    3  C   UNL     1     -10.517  16.893  65.941  1.00  0.00    -0.285 C  
HETATM    4  N   UNL     1     -10.631  16.666  67.296  1.00  0.00    -0.310 N  
HETATM    5  O   UNL     1     -10.356  16.034  65.086  1.00  0.00    -0.523 OA 
HETATM    6  H   UNL     1     -10.762  17.465  67.917  1.00  0.00     0.000 HD 
BRANCH   4   7
HETATM    7  C   UNL     1     -10.569  15.315  67.885  1.00  0.00    -0.260 C  
HETATM    8  C   UNL     1     -10.167  15.463  69.387  1.00  0.00    -0.262 C  
BRANCH   7   9
HETATM    9  C   UNL     1     -11.901  14.454  67.846  1.00  0.00    -0.349 C  
BRANCH   9  10
HETATM   10  N   UNL     1     -12.659  14.144  66.589  1.00  0.00    -0.510 NA 
HETATM   11  H   UNL     1     -13.594  14.536  66.481  1.00  0.00     0.000 HD 
BRANCH  10  12
HETATM   12  C   UNL     1     -12.151  13.341  65.548  1.00  0.00    -0.435 A  
HETATM   13  N   UNL     1     -12.502  13.674  64.305  1.00  0.00    -0.655 NA 
HETATM   14  C   UNL     1     -12.117  12.830  63.342  1.00  0.00    -0.534 A  
HETATM   15  C   UNL     1     -11.317  11.718  63.525  1.00  0.00    -0.496 A  
HETATM   16  C   UNL     1     -10.933  11.402  64.815  1.00  0.00    -0.234 A  
HETATM   17  N   UNL     1     -11.415  12.201  65.849  1.00  0.00    -0.360 NA 
BRANCH  16  18
HETATM   18  C   UNL     1     -10.012  10.179  64.993  1.00  0.00    -0.375 A  
HETATM   19  C   UNL     1      -9.013   9.892  64.043  1.00  0.00    -0.243 A  
HETATM   20  N   UNL     1      -8.265   8.835  64.482  1.00  0.00    -0.160 NA 
HETATM   21  C   UNL     1      -9.716   9.159  66.016  1.00  0.00    -0.287 A  
HETATM   22  N   UNL     1      -8.692   8.359  65.642  1.00  0.00    -0.173 NA 
BRANCH  20  23
HETATM   23  C   UNL     1      -7.064   8.235  63.873  1.00  0.00    -0.087 C  
HETATM   24  C   UNL     1      -6.312   9.203  62.950  1.00  0.00    -0.094 C  
HETATM   25  C   UNL     1      -7.383   6.953  63.087  1.00  0.00    -0.076 C  
ENDBRANCH  20  23
BRANCH  21  26
HETATM   26  C   UNL     1     -10.319   8.805  67.301  1.00  0.00    -0.360 A  
HETATM   27  C   UNL     1     -10.552   9.744  68.336  1.00  0.00    -0.264 A  
HETATM   28  C   UNL     1     -10.963   9.320  69.605  1.00  0.00    -0.175 A  
HETATM   29 CL   UNL     1     -11.394  10.454  70.823  1.00  0.00    -0.413 Cl 
HETATM   30  C   UNL     1     -11.025   7.952  69.903  1.00  0.00    -0.179 A  
HETATM   31  C   UNL     1     -10.795   7.066  68.868  1.00  0.00    -0.167 A  
HETATM   32  C   UNL     1     -10.614   7.499  67.569  1.00  0.00    -0.261 A  
HETATM   33  F   UNL     1     -10.791   6.608  66.595  1.00  0.00    -0.348 F  
BRANCH  31  34
HETATM   34  N   UNL     1     -10.771   5.652  69.062  1.00  0.00    -0.263 N  
HETATM   35  H   UNL     1     -11.606   5.073  68.977  1.00  0.00     0.000 HD 
BRANCH  34  36
HETATM   36  S   UNL     1      -9.257   5.008  69.444  1.00  0.00    -0.117 S  
HETATM   37  O   UNL     1      -8.872   4.023  68.461  1.00  0.00    -0.095 OA 
HETATM   38  O   UNL     1      -8.432   6.158  69.748  1.00  0.00    -0.124 OA 
HETATM   39  C   UNL     1      -9.704   4.194  70.955  1.00  0.00    -0.190 C  
ENDBRANCH  34  36
ENDBRANCH  31  34
ENDBRANCH  21  26
ENDBRANCH  16  18
ENDBRANCH  10  12
ENDBRANCH   9  10
ENDBRANCH   7   9
ENDBRANCH   4   7
ENDBRANCH   2   3
TORSDOF 10
ENDMDL
MODEL       24
REMARK 921   NORMALIZED FREE ENERGY PREDICTED BY IDOCK:   -6.45 KCAL/MOL
REMARK 922        TOTAL FREE ENERGY PREDICTED BY IDOCK:  -12.17 KCAL/MOL
REMARK 923 INTER-LIGAND FREE ENERGY PREDICTED BY IDOCK:   -9.89 KCAL/MOL
REMARK 924 INTRA-LIGAND FREE ENERGY PREDICTED BY IDOCK:   -2.28 KCAL/MOL
REMARK 927      BINDING AFFINITY PREDICTED BY RF-SCORE:    0.00 PKD
ROOT
HETATM    1  C   UNL     1     -10.661  16.478  67.590  1.00  0.00    -0.321 C  
HETATM    2  O   UNL     1     -11.885  16.003  68.179  1.00  0.00    -0.194 OA 
ENDROOT
BRANCH   2   3
HETATM    3  C   UNL     1     -11.740  15.563  69.463  1.00  0.00    -0.365 C  
HETATM    4  N   UNL     1     -12.960  15.218  70.004  1.00  0.00    -0.646 N  
HETATM    5  O   UNL     1     -10.663  15.505  70.039  1.00  0.00    -0.277 OA 
HETATM    6  H   UNL     1     -13.796  15.310  69.425  1.00  0.00     0.000 HD 
BRANCH   4   7
HETATM    7  C   UNL     1     -13.107  14.721  71.384  1.00  0.00    -0.354 C  
HETATM    8  C   UNL     1     -14.397  15.362  71.991  1.00  0.00    -0.653 C  
BRANCH   7   9
HETATM    9  C   UNL     1     -13.239  13.152  71.573  1.00  0.00    -0.282 C  
BRANCH   9  10
HETATM   10  N   UNL     1     -12.168  12.172  71.192  1.00  0.00    -0.301 NA 
HETATM   11  H   UNL     1     -11.293  12.538  70.815  1.00  0.00     0.000 HD 
BRANCH  10  12
HETATM   12  C   UNL     1     -12.303  10.776  71.325  1.00  0.00    -0.365 A  
HETATM   13  N   UNL     1     -13.364  10.336  72.003  1.00  0.00    -0.423 NA 
HETATM   14  C   UNL     1     -13.409   9.019  72.228  1.00  0.00    -0.467 A  
HETATM   15  C   UNL     1     -12.510   8.091  71.738  1.00  0.00    -0.355 A  
HETATM   16  C   UNL     1     -11.432   8.558  71.008  1.00  0.00    -0.273 A  
HETATM   17  N   UNL     1     -11.300   9.935  70.856  1.00  0.00    -0.344 NA 
BRANCH  16  18
HETATM   18  C   UNL     1     -10.461   7.504  70.439  1.00  0.00    -0.227 A  
HETATM   19  C   UNL     1     -10.483   6.180  70.917  1.00  0.00    -0.228 A  
HETATM   20  N   UNL     1      -9.616   5.421  70.181  1.00  0.00    -0.166 NA 
HETATM   21  C   UNL     1      -9.484   7.381  69.342  1.00  0.00    -0.155 A  
HETATM   22  N   UNL     1      -8.981   6.129  69.259  1.00  0.00    -0.124 NA 
BRANCH  20  23
HETATM   23  C   UNL     1      -9.363   3.971  70.254  1.00  0.00    -0.163 C  
HETATM   24  C   UNL     1      -8.006   3.630  70.883  1.00  0.00    -0.057 C  
HETATM   25  C   UNL     1      -9.454   3.288  68.880  1.00  0.00    -0.191 C  
ENDBRANCH  20  23
BRANCH  21  26
HETATM   26  C   UNL     1      -8.917   8.324  68.377  1.00  0.00    -0.136 A  
HETATM   27  C   UNL     1      -7.541   8.659  68.333  1.00  0.00    -0.096 A  
HETATM   28  C   UNL     1      -7.085   9.697  67.512  1.00  0.00    -0.088 A  
HETATM   29 CL   UNL     1      -5.406  10.015  67.334  1.00  0.00    -0.041 Cl 
HETATM   30  C   UNL     1      -8.002  10.500  66.821  1.00  0.00    -0.121 A  
HETATM   31  C   UNL     1      -9.335  10.141  66.884  1.00  0.00    -0.158 A  
HETATM   32  C   UNL     1      -9.745   8.982  67.513  1.00  0.00    -0.161 A  
HETATM   33  F   UNL     1     -10.950   8.508  67.202  1.00  0.00    -0.334 F  
BRANCH  31  34
HETATM   34  N   UNL     1     -10.366  10.916  66.273  1.00  0.00    -0.246 N  
HETATM   35  H   UNL     1     -10.585  10.850  65.279  1.00  0.00     0.000 HD 
BRANCH  34  36
HETATM   36  S   UNL     1     -11.199  11.950  67.317  1.00  0.00    -0.333 S  
HETATM   37  O   UNL     1     -12.250  11.231  67.998  1.00  0.00    -0.621 OA 
HETATM   38  O   UNL     1     -10.163  12.664  68.033  1.00  0.00    -0.217 OA 
HETATM   39  C   UNL     1     -11.908  13.022  66.094  1.00  0.00    -0.409 C  
ENDBRANCH  34  36
ENDBRANCH  31  34
ENDBRANCH  21  26
ENDBRANCH  16  18
ENDBRANCH  10  12
ENDBRANCH   9  10
ENDBRANCH   7   9
ENDBRANCH   4   7
ENDBRANCH   2   3
TORSDOF 10
ENDMDL
MODEL       25
REMARK 921   NORMALIZED FREE ENERGY PREDICTED BY IDOCK:   -6.44 KCAL/MOL
REMARK 922        TOTAL FREE ENERGY PREDICTED BY IDOCK:  -12.16 KCAL/MOL
REMARK 923 INTER-LIGAND FREE ENERGY PREDICTED BY IDOCK:  -10.69 KCAL/MOL
REMARK 924 INTRA-LIGAND FREE ENERGY PREDICTED BY IDOCK:   -1.47 KCAL/MOL
REMARK 927      BINDING AFFINITY PREDICTED BY RF-SCORE:    0.00 PKD
ROOT
HETATM    1  C   UNL     1      -7.838  20.790  67.302  1.00  0.00    -0.240 C  
HETATM    2  O   UNL     1      -7.256  20.169  66.142  1.00  0.00    -0.272 OA 
ENDROOT
BRANCH   2   3
HETATM    3  C   UNL     1      -7.635  18.869  65.969  1.00  0.00    -0.231 C  
HETATM    4  N   UNL     1      -8.886  18.646  66.504  1.00  0.00    -0.303 N  
HETATM    5  O   UNL     1      -6.934  18.029  65.421  1.00  0.00    -0.481 OA 
HETATM    6  H   UNL     1      -9.378  19.427  66.939  1.00  0.00     0.000 HD 
BRANCH   4   7
HETATM    7  C   UNL     1      -9.541  17.326  66.472  1.00  0.00    -0.273 C  
HETATM    8  C   UNL     1     -10.029  16.996  67.919  1.00  0.00    -0.281 C  
BRANCH   7   9
HETATM    9  C   UNL     1     -10.798  17.171  65.516  1.00  0.00    -0.055 C  
BRANCH   9  10
HETATM   10  N   UNL     1     -10.953  16.064  64.515  1.00  0.00    -0.907 NA 
HETATM   11  H   UNL     1     -10.811  16.283  63.528  1.00  0.00     0.000 HD 
BRANCH  10  12
HETATM   12  C   UNL     1     -11.284  14.739  64.860  1.00  0.00    -0.406 A  
HETATM   13  N   UNL     1     -12.408  14.244  64.340  1.00  0.00    -0.638 NA 
HETATM   14  C   UNL     1     -12.772  13.034  64.777  1.00  0.00    -0.342 A  
HETATM   15  C   UNL     1     -12.037  12.237  65.633  1.00  0.00    -0.306 A  
HETATM   16  C   UNL     1     -10.855  12.748  66.140  1.00  0.00    -0.279 A  
HETATM   17  N   UNL     1     -10.511  14.051  65.789  1.00  0.00    -0.298 NA 
BRANCH  16  18
HETATM   18  C   UNL     1     -10.032  11.829  67.063  1.00  0.00    -0.224 A  
HETATM   19  C   UNL     1      -8.808  11.288  66.626  1.00  0.00    -0.175 A  
HETATM   20  N   UNL     1      -8.222  10.609  67.658  1.00  0.00    -0.108 NA 
HETATM   21  C   UNL     1     -10.044  11.376  68.466  1.00  0.00    -0.206 A  
HETATM   22  N   UNL     1      -8.963  10.618  68.755  1.00  0.00    -0.165 NA 
BRANCH  20  23
HETATM   23  C   UNL     1      -6.903   9.952  67.703  1.00  0.00    -0.084 C  
HETATM   24  C   UNL     1      -5.798  10.780  67.032  1.00  0.00    -0.058 C  
HETATM   25  C   UNL     1      -6.922   8.552  67.070  1.00  0.00    -0.074 C  
ENDBRANCH  20  23
BRANCH  21  26
HETATM   26  C   UNL     1     -10.988  11.527  69.573  1.00  0.00    -0.186 A  
HETATM   27  C   UNL     1     -11.508  10.433  70.308  1.00  0.00    -0.406 A  
HETATM   28  C   UNL     1     -12.540  10.620  71.234  1.00  0.00    -0.427 A  
HETATM   29 CL   UNL     1     -13.075   9.333  72.239  1.00  0.00    -0.501 Cl 
HETATM   30  C   UNL     1     -13.159  11.872  71.352  1.00  0.00    -0.303 A  
HETATM   31  C   UNL     1     -12.624  12.917  70.622  1.00  0.00    -0.177 A  
HETATM   32  C   UNL     1     -11.464  12.768  69.887  1.00  0.00    -0.069 A  
HETATM   33  F   UNL     1     -10.808  13.875  69.546  1.00  0.00    -0.237 F  
BRANCH  31  34
HETATM   34  N   UNL     1     -13.205  14.220  70.613  1.00  0.00    -0.390 N  
HETATM   35  H   UNL     1     -13.655  14.614  69.786  1.00  0.00     0.000 HD 
BRANCH  34  36
HETATM   36  S   UNL     1     -13.092  15.065  72.071  1.00  0.00    -0.386 S  
HETATM   37  O   UNL     1     -14.289  15.841  72.292  1.00  0.00    -0.494 OA 
HETATM   38  O   UNL     1     -12.618  14.088  73.028  1.00  0.00    -0.219 OA 
HETATM   39  C   UNL     1     -11.756  16.146  71.632  1.00  0.00    -0.484 C  
ENDBRANCH  34  36
ENDBRANCH  31  34
ENDBRANCH  21  26
ENDBRANCH  16  18
ENDBRANCH  10  12
ENDBRANCH   9  10
ENDBRANCH   7   9
ENDBRANCH   4   7
ENDBRANCH   2   3
TORSDOF 10
ENDMDL
MODEL       26
REMARK 921   NORMALIZED FREE ENERGY PREDICTED BY IDOCK:   -6.43 KCAL/MOL
REMARK 922        TOTAL FREE ENERGY PREDICTED BY IDOCK:  -12.14 KCAL/MOL
REMARK 923 INTER-LIGAND FREE ENERGY PREDICTED BY IDOCK:  -10.99 KCAL/MOL
REMARK 924 INTRA-LIGAND FREE ENERGY PREDICTED BY IDOCK:   -1.15 KCAL/MOL
REMARK 927      BINDING AFFINITY PREDICTED BY RF-SCORE:    0.00 PKD
ROOT
HETATM    1  C   UNL     1      -7.793   5.451  65.898  1.00  0.00    -0.103 C  
HETATM    2  O   UNL     1      -8.810   6.469  65.878  1.00  0.00    -0.154 OA 
ENDROOT
BRANCH   2   3
HETATM    3  C   UNL     1      -8.404   7.638  65.302  1.00  0.00    -0.115 C  
HETATM    4  N   UNL     1      -8.958   8.722  65.948  1.00  0.00    -0.184 N  
HETATM    5  O   UNL     1      -7.658   7.690  64.334  1.00  0.00    -0.092 OA 
HETATM    6  H   UNL     1      -9.569   8.556  66.748  1.00  0.00     0.000 HD 
BRANCH   4   7
HETATM    7  C   UNL     1      -8.703  10.113  65.530  1.00  0.00    -0.158 C  
HETATM    8  C   UNL     1      -7.244  10.482  65.954  1.00  0.00    -0.135 C  
BRANCH   7   9
HETATM    9  C   UNL     1      -8.828  10.433  63.981  1.00  0.00    -0.212 C  
BRANCH   9  10
HETATM   10  N   UNL     1      -9.420  11.699  63.436  1.00  0.00    -0.531 NA 
HETATM   11  H   UNL     1      -9.079  12.042  62.537  1.00  0.00     0.000 HD 
BRANCH  10  12
HETATM   12  C   UNL     1     -10.419  12.442  64.095  1.00  0.00    -0.389 A  
HETATM   13  N   UNL     1     -11.685  12.144  63.796  1.00  0.00    -0.444 NA 
HETATM   14  C   UNL     1     -12.616  12.941  64.332  1.00  0.00    -0.317 A  
HETATM   15  C   UNL     1     -12.374  13.964  65.229  1.00  0.00    -0.485 A  
HETATM   16  C   UNL     1     -11.058  14.241  65.556  1.00  0.00    -0.323 A  
HETATM   17  N   UNL     1     -10.064  13.500  64.924  1.00  0.00    -0.300 NA 
BRANCH  16  18
HETATM   18  C   UNL     1     -10.812  15.361  66.586  1.00  0.00    -0.302 A  
HETATM   19  C   UNL     1     -10.164  16.552  66.205  1.00  0.00    -0.332 A  
HETATM   20  N   UNL     1     -10.170  17.424  67.258  1.00  0.00    -0.315 NA 
HETATM   21  C   UNL     1     -11.186  15.687  67.974  1.00  0.00    -0.339 A  
HETATM   22  N   UNL     1     -10.742  16.911  68.337  1.00  0.00    -0.361 NA 
BRANCH  20  23
HETATM   23  C   UNL     1      -9.689  18.816  67.310  1.00  0.00    -0.302 C  
HETATM   24  C   UNL     1     -10.023  19.517  68.634  1.00  0.00    -0.538 C  
HETATM   25  C   UNL     1     -10.230  19.668  66.151  1.00  0.00    -0.604 C  
ENDBRANCH  20  23
BRANCH  21  26
HETATM   26  C   UNL     1     -11.877  14.956  69.037  1.00  0.00    -0.333 A  
HETATM   27  C   UNL     1     -12.725  15.579  69.985  1.00  0.00    -0.149 A  
HETATM   28  C   UNL     1     -13.215  14.864  71.084  1.00  0.00    -0.414 A  
HETATM   29 CL   UNL     1     -14.363  15.561  72.157  1.00  0.00    -0.635 Cl 
HETATM   30  C   UNL     1     -12.767  13.559  71.329  1.00  0.00    -0.432 A  
HETATM   31  C   UNL     1     -11.943  12.982  70.381  1.00  0.00    -0.258 A  
HETATM   32  C   UNL     1     -11.651  13.618  69.190  1.00  0.00    -0.309 A  
HETATM   33  F   UNL     1     -11.196  12.867  68.190  1.00  0.00    -0.242 F  
BRANCH  31  34
HETATM   34  N   UNL     1     -11.375  11.684  70.550  1.00  0.00    -0.292 N  
HETATM   35  H   UNL     1     -10.369  11.518  70.526  1.00  0.00     0.000 HD 
BRANCH  34  36
HETATM   36  S   UNL     1     -12.492  10.440  70.791  1.00  0.00    -0.385 S  
HETATM   37  O   UNL     1     -12.959  10.448  72.157  1.00  0.00    -0.429 OA 
HETATM   38  O   UNL     1     -13.397  10.533  69.666  1.00  0.00     0.167 OA 
HETATM   39  C   UNL     1     -11.395   9.067  70.547  1.00  0.00    -0.243 C  
ENDBRANCH  34  36
ENDBRANCH  31  34
ENDBRANCH  21  26
ENDBRANCH  16  18
ENDBRANCH  10  12
ENDBRANCH   9  10
ENDBRANCH   7   9
ENDBRANCH   4   7
ENDBRANCH   2   3
TORSDOF 10
ENDMDL
MODEL       27
REMARK 921   NORMALIZED FREE ENERGY PREDICTED BY IDOCK:   -6.42 KCAL/MOL
REMARK 922        TOTAL FREE ENERGY PREDICTED BY IDOCK:  -12.14 KCAL/MOL
REMARK 923 INTER-LIGAND FREE ENERGY PREDICTED BY IDOCK:  -10.27 KCAL/MOL
REMARK 924 INTRA-LIGAND FREE ENERGY PREDICTED BY IDOCK:   -1.86 KCAL/MOL
REMARK 927      BINDING AFFINITY PREDICTED BY RF-SCORE:    0.00 PKD
ROOT
HETATM    1  C   UNL     1      -6.130  18.145  69.396  1.00  0.00    -0.250 C  
HETATM    2  O   UNL     1      -6.700  18.334  68.088  1.00  0.00    -0.203 OA 
ENDROOT
BRANCH   2   3
HETATM    3  C   UNL     1      -8.064  18.349  68.082  1.00  0.00    -0.290 C  
HETATM    4  N   UNL     1      -8.557  17.768  66.933  1.00  0.00    -0.236 N  
HETATM    5  O   UNL     1      -8.738  18.831  68.981  1.00  0.00    -0.232 OA 
HETATM    6  H   UNL     1      -7.896  17.398  66.249  1.00  0.00     0.000 HD 
BRANCH   4   7
HETATM    7  C   UNL     1     -10.000  17.658  66.652  1.00  0.00    -0.328 C  
HETATM    8  C   UNL     1     -10.481  19.026  66.069  1.00  0.00    -0.530 C  
BRANCH   7   9
HETATM    9  C   UNL     1     -10.449  16.536  65.625  1.00  0.00    -0.324 C  
BRANCH   9  10
HETATM   10  N   UNL     1     -10.942  15.179  66.034  1.00  0.00    -0.335 NA 
HETATM   11  H   UNL     1     -11.119  15.010  67.024  1.00  0.00     0.000 HD 
BRANCH  10  12
HETATM   12  C   UNL     1     -11.172  14.125  65.128  1.00  0.00    -0.337 A  
HETATM   13  N   UNL     1     -12.187  14.277  64.275  1.00  0.00    -0.600 NA 
HETATM   14  C   UNL     1     -12.471  13.218  63.509  1.00  0.00    -0.248 A  
HETATM   15  C   UNL     1     -11.747  12.042  63.469  1.00  0.00    -0.566 A  
HETATM   16  C   UNL     1     -10.677  11.910  64.335  1.00  0.00    -0.323 A  
HETATM   17  N   UNL     1     -10.430  12.954  65.222  1.00  0.00    -0.290 NA 
BRANCH  16  18
HETATM   18  C   UNL     1      -9.860  10.605  64.249  1.00  0.00    -0.391 A  
HETATM   19  C   UNL     1      -9.177  10.267  63.065  1.00  0.00    -0.291 A  
HETATM   20  N   UNL     1      -8.442   9.134  63.278  1.00  0.00    -0.199 NA 
HETATM   21  C   UNL     1      -9.404   9.527  65.144  1.00  0.00    -0.252 A  
HETATM   22  N   UNL     1      -8.594   8.655  64.504  1.00  0.00    -0.124 NA 
BRANCH  20  23
HETATM   23  C   UNL     1      -7.505   8.454  62.366  1.00  0.00    -0.103 C  
HETATM   24  C   UNL     1      -7.520   6.927  62.522  1.00  0.00    -0.080 C  
HETATM   25  C   UNL     1      -6.060   8.951  62.530  1.00  0.00    -0.095 C  
ENDBRANCH  20  23
BRANCH  21  26
HETATM   26  C   UNL     1      -9.680   9.180  66.539  1.00  0.00    -0.306 A  
HETATM   27  C   UNL     1     -10.109   7.894  66.951  1.00  0.00    -0.362 A  
HETATM   28  C   UNL     1     -10.530   7.670  68.266  1.00  0.00    -0.174 A  
HETATM   29 CL   UNL     1     -10.908   6.087  68.819  1.00  0.00    -0.379 Cl 
HETATM   30  C   UNL     1     -10.653   8.744  69.158  1.00  0.00    -0.200 A  
HETATM   31  C   UNL     1     -10.222   9.983  68.723  1.00  0.00    -0.186 A  
HETATM   32  C   UNL     1      -9.598  10.146  67.501  1.00  0.00    -0.156 A  
HETATM   33  F   UNL     1      -8.876  11.250  67.324  1.00  0.00    -0.142 F  
BRANCH  31  34
HETATM   34  N   UNL     1     -10.354  11.161  69.517  1.00  0.00    -0.441 N  
HETATM   35  H   UNL     1      -9.780  11.333  70.342  1.00  0.00     0.000 HD 
BRANCH  34  36
HETATM   36  S   UNL     1     -11.530  12.252  68.990  1.00  0.00    -0.317 S  
HETATM   37  O   UNL     1     -10.912  13.484  68.560  1.00  0.00    -0.248 OA 
HETATM   38  O   UNL     1     -12.390  11.477  68.120  1.00  0.00    -0.473 OA 
HETATM   39  C   UNL     1     -12.348  12.509  70.543  1.00  0.00    -0.262 C  
ENDBRANCH  34  36
ENDBRANCH  31  34
ENDBRANCH  21  26
ENDBRANCH  16  18
ENDBRANCH  10  12
ENDBRANCH   9  10
ENDBRANCH   7   9
ENDBRANCH   4   7
ENDBRANCH   2   3
TORSDOF 10
ENDMDL
MODEL       28
REMARK 921   NORMALIZED FREE ENERGY PREDICTED BY IDOCK:   -6.42 KCAL/MOL
REMARK 922        TOTAL FREE ENERGY PREDICTED BY IDOCK:  -12.14 KCAL/MOL
REMARK 923 INTER-LIGAND FREE ENERGY PREDICTED BY IDOCK:  -10.37 KCAL/MOL
REMARK 924 INTRA-LIGAND FREE ENERGY PREDICTED BY IDOCK:   -1.77 KCAL/MOL
REMARK 927      BINDING AFFINITY PREDICTED BY RF-SCORE:    0.00 PKD
ROOT
HETATM    1  C   UNL     1      -8.887  18.674  66.696  1.00  0.00    -0.302 C  
HETATM    2  O   UNL     1      -9.547  17.707  65.860  1.00  0.00    -0.514 OA 
ENDROOT
BRANCH   2   3
HETATM    3  C   UNL     1      -9.610  16.459  66.410  1.00  0.00    -0.288 C  
HETATM    4  N   UNL     1     -10.259  16.491  67.626  1.00  0.00    -0.271 N  
HETATM    5  O   UNL     1      -9.136  15.463  65.882  1.00  0.00    -0.311 OA 
HETATM    6  H   UNL     1     -10.614  17.385  67.968  1.00  0.00     0.000 HD 
BRANCH   4   7
HETATM    7  C   UNL     1     -10.461  15.287  68.452  1.00  0.00    -0.236 C  
HETATM    8  C   UNL     1     -10.435  15.723  69.952  1.00  0.00    -0.324 C  
BRANCH   7   9
HETATM    9  C   UNL     1     -11.810  14.482  68.230  1.00  0.00    -0.312 C  
BRANCH   9  10
HETATM   10  N   UNL     1     -12.533  14.410  66.917  1.00  0.00    -0.510 NA 
HETATM   11  H   UNL     1     -13.379  14.967  66.802  1.00  0.00     0.000 HD 
BRANCH  10  12
HETATM   12  C   UNL     1     -12.108  13.615  65.834  1.00  0.00    -0.439 A  
HETATM   13  N   UNL     1     -12.612  13.911  64.635  1.00  0.00    -0.658 NA 
HETATM   14  C   UNL     1     -12.299  13.070  63.644  1.00  0.00    -0.417 A  
HETATM   15  C   UNL     1     -11.432  11.999  63.747  1.00  0.00    -0.547 A  
HETATM   16  C   UNL     1     -10.889  11.722  64.989  1.00  0.00    -0.295 A  
HETATM   17  N   UNL     1     -11.290  12.514  66.061  1.00  0.00    -0.325 NA 
BRANCH  16  18
HETATM   18  C   UNL     1      -9.897  10.545  65.074  1.00  0.00    -0.369 A  
HETATM   19  C   UNL     1      -9.357   9.980  63.904  1.00  0.00    -0.263 A  
HETATM   20  N   UNL     1      -8.426   9.039  64.247  1.00  0.00    -0.181 NA 
HETATM   21  C   UNL     1      -9.144   9.809  66.105  1.00  0.00    -0.161 A  
HETATM   22  N   UNL     1      -8.311   8.895  65.558  1.00  0.00    -0.128 NA 
BRANCH  20  23
HETATM   23  C   UNL     1      -7.542   8.249  63.371  1.00  0.00    -0.131 C  
HETATM   24  C   UNL     1      -7.377   6.797  63.838  1.00  0.00    -0.079 C  
HETATM   25  C   UNL     1      -6.148   8.880  63.221  1.00  0.00    -0.089 C  
ENDBRANCH  20  23
BRANCH  21  26
HETATM   26  C   UNL     1      -9.145   9.824  67.568  1.00  0.00    -0.142 A  
HETATM   27  C   UNL     1      -7.967   9.932  68.347  1.00  0.00    -0.096 A  
HETATM   28  C   UNL     1      -8.010   9.761  69.735  1.00  0.00    -0.164 A  
HETATM   29 CL   UNL     1      -6.620  10.038  70.707  1.00  0.00    -0.082 Cl 
HETATM   30  C   UNL     1      -9.198   9.352  70.356  1.00  0.00    -0.305 A  
HETATM   31  C   UNL     1     -10.328   9.260  69.566  1.00  0.00    -0.216 A  
HETATM   32  C   UNL     1     -10.321   9.652  68.242  1.00  0.00    -0.204 A  
HETATM   33  F   UNL     1     -11.497   9.905  67.671  1.00  0.00    -0.296 F  
BRANCH  31  34
HETATM   34  N   UNL     1     -11.579   8.796  70.071  1.00  0.00    -0.448 N  
HETATM   35  H   UNL     1     -12.189   8.174  69.540  1.00  0.00     0.000 HD 
BRANCH  34  36
HETATM   36  S   UNL     1     -11.979   9.353  71.615  1.00  0.00    -0.401 S  
HETATM   37  O   UNL     1     -11.304   8.565  72.619  1.00  0.00    -0.343 OA 
HETATM   38  O   UNL     1     -11.834  10.791  71.538  1.00  0.00    -0.126 OA 
HETATM   39  C   UNL     1     -13.703   8.937  71.594  1.00  0.00    -0.395 C  
ENDBRANCH  34  36
ENDBRANCH  31  34
ENDBRANCH  21  26
ENDBRANCH  16  18
ENDBRANCH  10  12
ENDBRANCH   9  10
ENDBRANCH   7   9
ENDBRANCH   4   7
ENDBRANCH   2   3
TORSDOF 10
ENDMDL
MODEL       29
REMARK 921   NORMALIZED FREE ENERGY PREDICTED BY IDOCK:   -6.39 KCAL/MOL
REMARK 922        TOTAL FREE ENERGY PREDICTED BY IDOCK:  -12.09 KCAL/MOL
REMARK 923 INTER-LIGAND FREE ENERGY PREDICTED BY IDOCK:  -10.10 KCAL/MOL
REMARK 924 INTRA-LIGAND FREE ENERGY PREDICTED BY IDOCK:   -1.98 KCAL/MOL
REMARK 927      BINDING AFFINITY PREDICTED BY RF-SCORE:    0.00 PKD
ROOT
HETATM    1  C   UNL     1     -12.349  16.411  73.439  1.00  0.00    -0.464 C  
HETATM    2  O   UNL     1     -13.093  15.219  73.748  1.00  0.00    -0.456 OA 
ENDROOT
BRANCH   2   3
HETATM    3  C   UNL     1     -13.380  14.454  72.655  1.00  0.00    -0.507 C  
HETATM    4  N   UNL     1     -12.457  14.663  71.653  1.00  0.00    -0.330 N  
HETATM    5  O   UNL     1     -14.341  13.699  72.592  1.00  0.00    -0.703 OA 
HETATM    6  H   UNL     1     -11.694  15.320  71.819  1.00  0.00     0.000 HD 
BRANCH   4   7
HETATM    7  C   UNL     1     -12.528  13.976  70.350  1.00  0.00    -0.350 C  
HETATM    8  C   UNL     1     -11.533  14.688  69.377  1.00  0.00    -0.330 C  
BRANCH   7   9
HETATM    9  C   UNL     1     -12.165  12.432  70.331  1.00  0.00    -0.287 C  
BRANCH   9  10
HETATM   10  N   UNL     1     -12.755  11.425  71.274  1.00  0.00    -0.415 NA 
HETATM   11  H   UNL     1     -13.355  11.763  72.027  1.00  0.00     0.000 HD 
BRANCH  10  12
HETATM   12  C   UNL     1     -12.527  10.038  71.178  1.00  0.00    -0.379 A  
HETATM   13  N   UNL     1     -13.109   9.268  72.099  1.00  0.00    -0.418 NA 
HETATM   14  C   UNL     1     -12.781   7.972  72.070  1.00  0.00    -0.302 A  
HETATM   15  C   UNL     1     -11.980   7.369  71.119  1.00  0.00    -0.351 A  
HETATM   16  C   UNL     1     -11.409   8.174  70.149  1.00  0.00    -0.071 A  
HETATM   17  N   UNL     1     -11.644   9.544  70.225  1.00  0.00    -0.215 NA 
BRANCH  16  18
HETATM   18  C   UNL     1     -10.548   7.478  69.077  1.00  0.00    -0.190 A  
HETATM   19  C   UNL     1     -10.685   6.097  68.837  1.00  0.00    -0.312 A  
HETATM   20  N   UNL     1      -9.903   5.747  67.771  1.00  0.00    -0.120 NA 
HETATM   21  C   UNL     1      -9.605   7.848  68.007  1.00  0.00    -0.151 A  
HETATM   22  N   UNL     1      -9.221   6.772  67.285  1.00  0.00    -0.131 NA 
BRANCH  20  23
HETATM   23  C   UNL     1      -9.784   4.439  67.101  1.00  0.00    -0.197 C  
HETATM   24  C   UNL     1      -8.432   3.758  67.353  1.00  0.00    -0.104 C  
HETATM   25  C   UNL     1     -10.014   4.532  65.584  1.00  0.00    -0.245 C  
ENDBRANCH  20  23
BRANCH  21  26
HETATM   26  C   UNL     1      -8.969   9.103  67.603  1.00  0.00    -0.130 A  
HETATM   27  C   UNL     1      -7.964   9.747  68.367  1.00  0.00    -0.089 A  
HETATM   28  C   UNL     1      -7.521  11.030  68.026  1.00  0.00    -0.090 A  
HETATM   29 CL   UNL     1      -6.201  11.761  68.849  1.00  0.00    -0.054 Cl 
HETATM   30  C   UNL     1      -8.158  11.744  67.003  1.00  0.00    -0.169 A  
HETATM   31  C   UNL     1      -9.131  11.083  66.277  1.00  0.00    -0.182 A  
HETATM   32  C   UNL     1      -9.399   9.743  66.476  1.00  0.00    -0.162 A  
HETATM   33  F   UNL     1     -10.041   9.095  65.506  1.00  0.00    -0.338 F  
BRANCH  31  34
HETATM   34  N   UNL     1      -9.891  11.725  65.253  1.00  0.00    -0.242 N  
HETATM   35  H   UNL     1      -9.672  11.621  64.262  1.00  0.00     0.000 HD 
BRANCH  34  36
HETATM   36  S   UNL     1     -11.178  12.669  65.802  1.00  0.00    -0.326 S  
HETATM   37  O   UNL     1     -11.900  11.974  66.842  1.00  0.00    -0.580 OA 
HETATM   38  O   UNL     1     -10.611  13.985  66.005  1.00  0.00    -0.286 OA 
HETATM   39  C   UNL     1     -12.141  12.671  64.312  1.00  0.00    -0.426 C  
ENDBRANCH  34  36
ENDBRANCH  31  34
ENDBRANCH  21  26
ENDBRANCH  16  18
ENDBRANCH  10  12
ENDBRANCH   9  10
ENDBRANCH   7   9
ENDBRANCH   4   7
ENDBRANCH   2   3
TORSDOF 10
ENDMDL
MODEL       30
REMARK 921   NORMALIZED FREE ENERGY PREDICTED BY IDOCK:   -6.39 KCAL/MOL
REMARK 922        TOTAL FREE ENERGY PREDICTED BY IDOCK:  -12.08 KCAL/MOL
REMARK 923 INTER-LIGAND FREE ENERGY PREDICTED BY IDOCK:   -9.71 KCAL/MOL
REMARK 924 INTRA-LIGAND FREE ENERGY PREDICTED BY IDOCK:   -2.38 KCAL/MOL
REMARK 927      BINDING AFFINITY PREDICTED BY RF-SCORE:    0.00 PKD
ROOT
HETATM    1  C   UNL     1     -11.303  15.163  65.191  1.00  0.00    -0.357 C  
HETATM    2  O   UNL     1     -12.083  14.431  66.153  1.00  0.00    -0.399 OA 
ENDROOT
BRANCH   2   3
HETATM    3  C   UNL     1     -11.470  14.292  67.364  1.00  0.00    -0.347 C  
HETATM    4  N   UNL     1     -12.372  14.459  68.394  1.00  0.00    -0.599 N  
HETATM    5  O   UNL     1     -10.275  14.062  67.494  1.00  0.00    -0.241 OA 
HETATM    6  H   UNL     1     -13.348  14.648  68.164  1.00  0.00     0.000 HD 
BRANCH   4   7
HETATM    7  C   UNL     1     -11.983  14.375  69.814  1.00  0.00    -0.332 C  
HETATM    8  C   UNL     1     -12.745  15.499  70.587  1.00  0.00    -0.487 C  
BRANCH   7   9
HETATM    9  C   UNL     1     -12.289  13.010  70.563  1.00  0.00    -0.287 C  
BRANCH   9  10
HETATM   10  N   UNL     1     -11.614  11.710  70.238  1.00  0.00    -0.510 NA 
HETATM   11  H   UNL     1     -10.836  11.724  69.577  1.00  0.00     0.000 HD 
BRANCH  10  12
HETATM   12  C   UNL     1     -11.993  10.473  70.793  1.00  0.00    -0.370 A  
HETATM   13  N   UNL     1     -13.115  10.456  71.515  1.00  0.00    -0.418 NA 
HETATM   14  C   UNL     1     -13.392   9.306  72.139  1.00  0.00    -0.468 A  
HETATM   15  C   UNL     1     -12.672   8.133  72.013  1.00  0.00    -0.355 A  
HETATM   16  C   UNL     1     -11.529   8.155  71.235  1.00  0.00    -0.266 A  
HETATM   17  N   UNL     1     -11.156   9.370  70.667  1.00  0.00    -0.267 NA 
BRANCH  16  18
HETATM   18  C   UNL     1     -10.760   6.828  71.079  1.00  0.00    -0.265 A  
HETATM   19  C   UNL     1     -10.969   5.771  71.985  1.00  0.00    -0.260 A  
HETATM   20  N   UNL     1     -10.264   4.676  71.568  1.00  0.00    -0.183 NA 
HETATM   21  C   UNL     1      -9.863   6.180  70.106  1.00  0.00    -0.171 A  
HETATM   22  N   UNL     1      -9.566   4.911  70.468  1.00  0.00    -0.169 NA 
BRANCH  20  23
HETATM   23  C   UNL     1     -10.239   3.318  72.142  1.00  0.00    -0.073 C  
HETATM   24  C   UNL     1     -11.022   3.209  73.458  1.00  0.00    -0.323 C  
HETATM   25  C   UNL     1      -8.809   2.805  72.376  1.00  0.00    -0.101 C  
ENDBRANCH  20  23
BRANCH  21  26
HETATM   26  C   UNL     1      -9.198   6.629  68.883  1.00  0.00    -0.130 A  
HETATM   27  C   UNL     1      -7.803   6.504  68.665  1.00  0.00    -0.110 A  
HETATM   28  C   UNL     1      -7.197   7.109  67.559  1.00  0.00    -0.090 A  
HETATM   29 CL   UNL     1      -5.537   6.842  67.199  1.00  0.00    -0.016 Cl 
HETATM   30  C   UNL     1      -7.941   7.955  66.725  1.00  0.00    -0.107 A  
HETATM   31  C   UNL     1      -9.298   8.050  66.965  1.00  0.00    -0.156 A  
HETATM   32  C   UNL     1      -9.922   7.269  67.919  1.00  0.00    -0.158 A  
HETATM   33  F   UNL     1     -11.243   7.126  67.826  1.00  0.00    -0.234 F  
BRANCH  31  34
HETATM   34  N   UNL     1     -10.148   8.924  66.223  1.00  0.00    -0.359 N  
HETATM   35  H   UNL     1     -10.635   8.628  65.378  1.00  0.00     0.000 HD 
BRANCH  34  36
HETATM   36  S   UNL     1     -10.287  10.488  66.847  1.00  0.00    -0.243 S  
HETATM   37  O   UNL     1     -11.615  10.697  67.375  1.00  0.00    -0.445 OA 
HETATM   38  O   UNL     1      -9.099  10.671  67.653  1.00  0.00    -0.141 OA 
HETATM   39  C   UNL     1     -10.105  11.382  65.326  1.00  0.00    -0.268 C  
ENDBRANCH  34  36
ENDBRANCH  31  34
ENDBRANCH  21  26
ENDBRANCH  16  18
ENDBRANCH  10  12
ENDBRANCH   9  10
ENDBRANCH   7   9
ENDBRANCH   4   7
ENDBRANCH   2   3
TORSDOF 10
ENDMDL
MODEL       31
REMARK 921   NORMALIZED FREE ENERGY PREDICTED BY IDOCK:   -6.38 KCAL/MOL
REMARK 922        TOTAL FREE ENERGY PREDICTED BY IDOCK:  -12.06 KCAL/MOL
REMARK 923 INTER-LIGAND FREE ENERGY PREDICTED BY IDOCK:  -11.74 KCAL/MOL
REMARK 924 INTRA-LIGAND FREE ENERGY PREDICTED BY IDOCK:   -0.33 KCAL/MOL
REMARK 927      BINDING AFFINITY PREDICTED BY RF-SCORE:    0.00 PKD
ROOT
HETATM    1  C   UNL     1      -5.352  20.849  68.891  1.00  0.00    -0.355 C  
HETATM    2  O   UNL     1      -6.636  20.264  69.174  1.00  0.00    -0.295 OA 
ENDROOT
BRANCH   2   3
HETATM    3  C   UNL     1      -7.300  19.837  68.061  1.00  0.00    -0.289 C  
HETATM    4  N   UNL     1      -8.540  19.334  68.392  1.00  0.00    -0.343 N  
HETATM    5  O   UNL     1      -6.832  19.893  66.932  1.00  0.00    -0.205 OA 
HETATM    6  H   UNL     1      -8.824  19.338  69.372  1.00  0.00     0.000 HD 
BRANCH   4   7
HETATM    7  C   UNL     1      -9.472  18.788  67.388  1.00  0.00    -0.297 C  
HETATM    8  C   UNL     1      -9.906  19.960  66.449  1.00  0.00    -0.572 C  
BRANCH   7   9
HETATM    9  C   UNL     1      -8.925  17.628  66.455  1.00  0.00    -0.262 C  
BRANCH   9  10
HETATM   10  N   UNL     1      -9.772  16.882  65.466  1.00  0.00    -0.518 NA 
HETATM   11  H   UNL     1      -9.749  17.181  64.491  1.00  0.00     0.000 HD 
BRANCH  10  12
HETATM   12  C   UNL     1     -10.598  15.794  65.809  1.00  0.00    -0.355 A  
HETATM   13  N   UNL     1     -11.224  15.175  64.807  1.00  0.00    -0.399 NA 
HETATM   14  C   UNL     1     -12.101  14.229  65.160  1.00  0.00    -0.410 A  
HETATM   15  C   UNL     1     -12.326  13.788  66.450  1.00  0.00    -0.460 A  
HETATM   16  C   UNL     1     -11.645  14.415  67.478  1.00  0.00    -0.373 A  
HETATM   17  N   UNL     1     -10.812  15.481  67.146  1.00  0.00    -0.320 NA 
BRANCH  16  18
HETATM   18  C   UNL     1     -11.884  13.884  68.905  1.00  0.00    -0.393 A  
HETATM   19  C   UNL     1     -12.468  14.708  69.885  1.00  0.00    -0.245 A  
HETATM   20  N   UNL     1     -12.677  13.977  71.022  1.00  0.00    -0.346 NA 
HETATM   21  C   UNL     1     -11.805  12.606  69.635  1.00  0.00    -0.311 A  
HETATM   22  N   UNL     1     -12.252  12.728  70.905  1.00  0.00    -0.292 NA 
BRANCH  20  23
HETATM   23  C   UNL     1     -13.337  14.383  72.275  1.00  0.00    -0.421 C  
HETATM   24  C   UNL     1     -14.404  15.466  72.067  1.00  0.00    -0.653 C  
HETATM   25  C   UNL     1     -12.337  14.873  73.334  1.00  0.00    -0.513 C  
ENDBRANCH  20  23
BRANCH  21  26
HETATM   26  C   UNL     1     -11.306  11.273  69.297  1.00  0.00    -0.354 A  
HETATM   27  C   UNL     1     -10.867  10.913  67.999  1.00  0.00    -0.293 A  
HETATM   28  C   UNL     1     -10.570   9.580  67.690  1.00  0.00    -0.269 A  
HETATM   29 CL   UNL     1      -9.894   9.151  66.169  1.00  0.00    -0.357 Cl 
HETATM   30  C   UNL     1     -10.828   8.569  68.625  1.00  0.00     0.014 A  
HETATM   31  C   UNL     1     -11.253   8.957  69.881  1.00  0.00    -0.065 A  
HETATM   32  C   UNL     1     -11.323  10.288  70.243  1.00  0.00    -0.323 A  
HETATM   33  F   UNL     1     -11.353  10.569  71.544  1.00  0.00    -0.247 F  
BRANCH  31  34
HETATM   34  N   UNL     1     -11.605   8.017  70.895  1.00  0.00    -0.289 N  
HETATM   35  H   UNL     1     -12.573   7.756  71.088  1.00  0.00     0.000 HD 
BRANCH  34  36
HETATM   36  S   UNL     1     -10.304   7.366  71.751  1.00  0.00    -0.192 S  
HETATM   37  O   UNL     1      -9.056   7.789  71.160  1.00  0.00    -0.140 OA 
HETATM   38  O   UNL     1     -10.618   7.610  73.143  1.00  0.00    -0.343 OA 
HETATM   39  C   UNL     1     -10.588   5.655  71.379  1.00  0.00    -0.253 C  
ENDBRANCH  34  36
ENDBRANCH  31  34
ENDBRANCH  21  26
ENDBRANCH  16  18
ENDBRANCH  10  12
ENDBRANCH   9  10
ENDBRANCH   7   9
ENDBRANCH   4   7
ENDBRANCH   2   3
TORSDOF 10
ENDMDL
MODEL       32
REMARK 921   NORMALIZED FREE ENERGY PREDICTED BY IDOCK:   -6.36 KCAL/MOL
REMARK 922        TOTAL FREE ENERGY PREDICTED BY IDOCK:  -12.03 KCAL/MOL
REMARK 923 INTER-LIGAND FREE ENERGY PREDICTED BY IDOCK:  -10.89 KCAL/MOL
REMARK 924 INTRA-LIGAND FREE ENERGY PREDICTED BY IDOCK:   -1.15 KCAL/MOL
REMARK 927      BINDING AFFINITY PREDICTED BY RF-SCORE:    0.00 PKD
ROOT
HETATM    1  C   UNL     1      -7.582  14.099  67.488  1.00  0.00    -0.184 C  
HETATM    2  O   UNL     1      -6.756  15.209  67.093  1.00  0.00    -0.279 OA 
ENDROOT
BRANCH   2   3
HETATM    3  C   UNL     1      -7.235  16.421  67.499  1.00  0.00    -0.145 C  
HETATM    4  N   UNL     1      -7.144  17.350  66.485  1.00  0.00    -0.236 N  
HETATM    5  O   UNL     1      -7.670  16.632  68.622  1.00  0.00    -0.200 OA 
HETATM    6  H   UNL     1      -6.762  17.057  65.585  1.00  0.00     0.000 HD 
BRANCH   4   7
HETATM    7  C   UNL     1      -7.577  18.750  66.647  1.00  0.00    -0.244 C  
HETATM    8  C   UNL     1      -6.961  19.582  65.476  1.00  0.00    -0.299 C  
BRANCH   7   9
HETATM    9  C   UNL     1      -9.140  19.024  66.635  1.00  0.00    -0.329 C  
BRANCH   9  10
HETATM   10  N   UNL     1     -10.099  18.350  65.698  1.00  0.00    -0.478 NA 
HETATM   11  H   UNL     1     -10.460  18.888  64.910  1.00  0.00     0.000 HD 
BRANCH  10  12
HETATM   12  C   UNL     1     -10.528  17.017  65.846  1.00  0.00    -0.274 A  
HETATM   13  N   UNL     1     -10.690  16.309  64.726  1.00  0.00    -0.683 NA 
HETATM   14  C   UNL     1     -11.219  15.090  64.876  1.00  0.00    -0.416 A  
HETATM   15  C   UNL     1     -11.510  14.487  66.084  1.00  0.00    -0.357 A  
HETATM   16  C   UNL     1     -11.307  15.219  67.240  1.00  0.00    -0.269 A  
HETATM   17  N   UNL     1     -10.865  16.532  67.105  1.00  0.00    -0.210 NA 
BRANCH  16  18
HETATM   18  C   UNL     1     -11.604  14.515  68.579  1.00  0.00    -0.344 A  
HETATM   19  C   UNL     1     -12.251  15.206  69.621  1.00  0.00    -0.257 A  
HETATM   20  N   UNL     1     -12.500  14.339  70.649  1.00  0.00    -0.337 NA 
HETATM   21  C   UNL     1     -11.537  13.159  69.152  1.00  0.00    -0.316 A  
HETATM   22  N   UNL     1     -12.047  13.119  70.403  1.00  0.00    -0.350 NA 
BRANCH  20  23
HETATM   23  C   UNL     1     -13.228  14.581  71.908  1.00  0.00    -0.359 C  
HETATM   24  C   UNL     1     -12.404  15.371  72.934  1.00  0.00    -0.516 C  
HETATM   25  C   UNL     1     -13.715  13.279  72.564  1.00  0.00    -0.613 C  
ENDBRANCH  20  23
BRANCH  21  26
HETATM   26  C   UNL     1     -10.998  11.883  68.680  1.00  0.00    -0.271 A  
HETATM   27  C   UNL     1     -10.406  11.713  67.404  1.00  0.00    -0.231 A  
HETATM   28  C   UNL     1     -10.071  10.437  66.937  1.00  0.00    -0.219 A  
HETATM   29 CL   UNL     1      -9.216  10.227  65.461  1.00  0.00    -0.212 Cl 
HETATM   30  C   UNL     1     -10.436   9.301  67.673  1.00  0.00    -0.325 A  
HETATM   31  C   UNL     1     -11.009   9.506  68.914  1.00  0.00    -0.086 A  
HETATM   32  C   UNL     1     -11.125  10.769  69.460  1.00  0.00    -0.278 A  
HETATM   33  F   UNL     1     -11.311  10.854  70.775  1.00  0.00    -0.380 F  
BRANCH  31  34
HETATM   34  N   UNL     1     -11.477   8.431  69.727  1.00  0.00    -0.431 N  
HETATM   35  H   UNL     1     -12.470   8.237  69.862  1.00  0.00     0.000 HD 
BRANCH  34  36
HETATM   36  S   UNL     1     -10.267   7.501  70.451  1.00  0.00    -0.205 S  
HETATM   37  O   UNL     1      -9.981   6.339  69.643  1.00  0.00    -0.159 OA 
HETATM   38  O   UNL     1      -9.243   8.453  70.824  1.00  0.00    -0.147 OA 
HETATM   39  C   UNL     1     -11.163   7.009  71.902  1.00  0.00    -0.249 C  
ENDBRANCH  34  36
ENDBRANCH  31  34
ENDBRANCH  21  26
ENDBRANCH  16  18
ENDBRANCH  10  12
ENDBRANCH   9  10
ENDBRANCH   7   9
ENDBRANCH   4   7
ENDBRANCH   2   3
TORSDOF 10
ENDMDL
MODEL       33
REMARK 921   NORMALIZED FREE ENERGY PREDICTED BY IDOCK:   -6.33 KCAL/MOL
REMARK 922        TOTAL FREE ENERGY PREDICTED BY IDOCK:  -11.98 KCAL/MOL
REMARK 923 INTER-LIGAND FREE ENERGY PREDICTED BY IDOCK:  -10.01 KCAL/MOL
REMARK 924 INTRA-LIGAND FREE ENERGY PREDICTED BY IDOCK:   -1.97 KCAL/MOL
REMARK 927      BINDING AFFINITY PREDICTED BY RF-SCORE:    0.00 PKD
ROOT
HETATM    1  C   UNL     1     -11.287   6.306  70.841  1.00  0.00    -0.325 C  
HETATM    2  O   UNL     1      -9.924   6.766  70.833  1.00  0.00    -0.186 OA 
ENDROOT
BRANCH   2   3
HETATM    3  C   UNL     1      -9.201   6.322  69.764  1.00  0.00    -0.146 C  
HETATM    4  N   UNL     1      -9.873   5.319  69.099  1.00  0.00    -0.170 N  
HETATM    5  O   UNL     1      -8.100   6.763  69.463  1.00  0.00    -0.122 OA 
HETATM    6  H   UNL     1     -10.790   5.032  69.444  1.00  0.00     0.000 HD 
BRANCH   4   7
HETATM    7  C   UNL     1      -9.321   4.643  67.910  1.00  0.00    -0.134 C  
HETATM    8  C   UNL     1      -9.493   3.103  68.110  1.00  0.00    -0.217 C  
BRANCH   7   9
HETATM    9  C   UNL     1      -9.976   5.003  66.511  1.00  0.00    -0.224 C  
BRANCH   9  10
HETATM   10  N   UNL     1      -9.577   6.189  65.683  1.00  0.00    -0.361 NA 
HETATM   11  H   UNL     1      -9.505   6.069  64.673  1.00  0.00     0.000 HD 
BRANCH  10  12
HETATM   12  C   UNL     1      -9.297   7.460  66.223  1.00  0.00    -0.111 A  
HETATM   13  N   UNL     1      -8.084   7.961  65.983  1.00  0.00    -0.106 NA 
HETATM   14  C   UNL     1      -7.790   9.107  66.607  1.00  0.00    -0.100 A  
HETATM   15  C   UNL     1      -8.664   9.842  67.384  1.00  0.00    -0.133 A  
HETATM   16  C   UNL     1      -9.930   9.327  67.599  1.00  0.00    -0.196 A  
HETATM   17  N   UNL     1     -10.223   8.080  67.054  1.00  0.00    -0.276 NA 
BRANCH  16  18
HETATM   18  C   UNL     1     -10.901  10.180  68.440  1.00  0.00    -0.284 A  
HETATM   19  C   UNL     1     -11.272   9.772  69.735  1.00  0.00    -0.202 A  
HETATM   20  N   UNL     1     -12.042  10.745  70.310  1.00  0.00    -0.319 NA 
HETATM   21  C   UNL     1     -11.551  11.501  68.374  1.00  0.00    -0.308 A  
HETATM   22  N   UNL     1     -12.251  11.770  69.498  1.00  0.00    -0.221 NA 
BRANCH  20  23
HETATM   23  C   UNL     1     -12.588  10.806  71.678  1.00  0.00    -0.351 C  
HETATM   24  C   UNL     1     -13.471   9.600  72.024  1.00  0.00    -0.514 C  
HETATM   25  C   UNL     1     -13.388  12.092  71.934  1.00  0.00    -0.421 C  
ENDBRANCH  20  23
BRANCH  21  26
HETATM   26  C   UNL     1     -11.638  12.540  67.347  1.00  0.00    -0.434 A  
HETATM   27  C   UNL     1     -11.873  12.262  65.977  1.00  0.00    -0.409 A  
HETATM   28  C   UNL     1     -11.768  13.273  65.016  1.00  0.00    -0.333 A  
HETATM   29 CL   UNL     1     -12.197  12.987  63.376  1.00  0.00    -0.607 Cl 
HETATM   30  C   UNL     1     -11.302  14.543  65.380  1.00  0.00    -0.341 A  
HETATM   31  C   UNL     1     -11.085  14.779  66.725  1.00  0.00    -0.338 A  
HETATM   32  C   UNL     1     -11.411  13.843  67.686  1.00  0.00    -0.324 A  
HETATM   33  F   UNL     1     -11.546  14.272  68.939  1.00  0.00    -0.262 F  
BRANCH  31  34
HETATM   34  N   UNL     1     -10.554  16.012  67.210  1.00  0.00    -0.313 N  
HETATM   35  H   UNL     1     -11.126  16.699  67.702  1.00  0.00     0.000 HD 
BRANCH  34  36
HETATM   36  S   UNL     1      -8.910  16.250  66.910  1.00  0.00    -0.236 S  
HETATM   37  O   UNL     1      -8.240  14.979  66.763  1.00  0.00    -0.204 OA 
HETATM   38  O   UNL     1      -8.866  17.268  65.881  1.00  0.00    -0.528 OA 
HETATM   39  C   UNL     1      -8.473  16.975  68.468  1.00  0.00    -0.257 C  
ENDBRANCH  34  36
ENDBRANCH  31  34
ENDBRANCH  21  26
ENDBRANCH  16  18
ENDBRANCH  10  12
ENDBRANCH   9  10
ENDBRANCH   7   9
ENDBRANCH   4   7
ENDBRANCH   2   3
TORSDOF 10
ENDMDL
MODEL       34
REMARK 921   NORMALIZED FREE ENERGY PREDICTED BY IDOCK:   -6.28 KCAL/MOL
REMARK 922        TOTAL FREE ENERGY PREDICTED BY IDOCK:  -11.91 KCAL/MOL
REMARK 923 INTER-LIGAND FREE ENERGY PREDICTED BY IDOCK:   -9.89 KCAL/MOL
REMARK 924 INTRA-LIGAND FREE ENERGY PREDICTED BY IDOCK:   -2.02 KCAL/MOL
REMARK 927      BINDING AFFINITY PREDICTED BY RF-SCORE:    0.00 PKD
ROOT
HETATM    1  C   UNL     1      -7.578  14.862  69.518  1.00  0.00    -0.137 C  
HETATM    2  O   UNL     1      -6.199  15.203  69.285  1.00  0.00    -0.103 OA 
ENDROOT
BRANCH   2   3
HETATM    3  C   UNL     1      -5.892  16.493  69.607  1.00  0.00    -0.191 C  
HETATM    4  N   UNL     1      -6.179  17.343  68.560  1.00  0.00    -0.165 N  
HETATM    5  O   UNL     1      -5.415  16.824  70.684  1.00  0.00    -0.204 OA 
HETATM    6  H   UNL     1      -6.576  16.951  67.706  1.00  0.00     0.000 HD 
BRANCH   4   7
HETATM    7  C   UNL     1      -5.935  18.796  68.625  1.00  0.00    -0.210 C  
HETATM    8  C   UNL     1      -5.686  19.306  67.169  1.00  0.00    -0.171 C  
BRANCH   7   9
HETATM    9  C   UNL     1      -7.092  19.692  69.236  1.00  0.00    -0.331 C  
BRANCH   9  10
HETATM   10  N   UNL     1      -8.407  19.935  68.556  1.00  0.00    -0.209 NA 
HETATM   11  H   UNL     1      -8.767  20.890  68.531  1.00  0.00     0.000 HD 
BRANCH  10  12
HETATM   12  C   UNL     1      -9.173  18.920  67.950  1.00  0.00    -0.303 A  
HETATM   13  N   UNL     1      -9.354  19.009  66.631  1.00  0.00    -0.320 NA 
HETATM   14  C   UNL     1     -10.186  18.111  66.093  1.00  0.00    -0.367 A  
HETATM   15  C   UNL     1     -10.780  17.063  66.770  1.00  0.00    -0.102 A  
HETATM   16  C   UNL     1     -10.558  16.963  68.132  1.00  0.00    -0.360 A  
HETATM   17  N   UNL     1      -9.787  17.952  68.736  1.00  0.00    -0.357 NA 
BRANCH  16  18
HETATM   18  C   UNL     1     -11.201  15.767  68.862  1.00  0.00    -0.332 A  
HETATM   19  C   UNL     1     -11.803  15.939  70.123  1.00  0.00    -0.314 A  
HETATM   20  N   UNL     1     -12.394  14.766  70.502  1.00  0.00    -0.316 NA 
HETATM   21  C   UNL     1     -11.541  14.359  68.587  1.00  0.00    -0.314 A  
HETATM   22  N   UNL     1     -12.217  13.799  69.615  1.00  0.00    -0.329 NA 
BRANCH  20  23
HETATM   23  C   UNL     1     -13.213  14.486  71.696  1.00  0.00    -0.348 C  
HETATM   24  C   UNL     1     -12.673  15.161  72.964  1.00  0.00    -0.556 C  
HETATM   25  C   UNL     1     -13.363  12.981  71.966  1.00  0.00    -0.588 C  
ENDBRANCH  20  23
BRANCH  21  26
HETATM   26  C   UNL     1     -11.262  13.445  67.479  1.00  0.00    -0.309 A  
HETATM   27  C   UNL     1     -11.867  13.560  66.203  1.00  0.00    -0.426 A  
HETATM   28  C   UNL     1     -11.702  12.558  65.241  1.00  0.00    -0.386 A  
HETATM   29 CL   UNL     1     -12.302  12.753  63.643  1.00  0.00    -0.553 Cl 
HETATM   30  C   UNL     1     -11.042  11.367  65.574  1.00  0.00    -0.203 A  
HETATM   31  C   UNL     1     -10.462  11.291  66.826  1.00  0.00    -0.248 A  
HETATM   32  C   UNL     1     -10.438  12.375  67.681  1.00  0.00    -0.216 A  
HETATM   33  F   UNL     1      -9.546  12.357  68.670  1.00  0.00    -0.198 F  
BRANCH  31  34
HETATM   34  N   UNL     1      -9.817  10.109  67.300  1.00  0.00    -0.176 N  
HETATM   35  H   UNL     1     -10.159   9.584  68.105  1.00  0.00     0.000 HD 
BRANCH  34  36
HETATM   36  S   UNL     1      -8.446   9.644  66.432  1.00  0.00    -0.124 S  
HETATM   37  O   UNL     1      -8.784   8.612  65.481  1.00  0.00    -0.172 OA 
HETATM   38  O   UNL     1      -7.823  10.888  66.031  1.00  0.00    -0.159 OA 
HETATM   39  C   UNL     1      -7.526   8.937  67.774  1.00  0.00    -0.093 C  
ENDBRANCH  34  36
ENDBRANCH  31  34
ENDBRANCH  21  26
ENDBRANCH  16  18
ENDBRANCH  10  12
ENDBRANCH   9  10
ENDBRANCH   7   9
ENDBRANCH   4   7
ENDBRANCH   2   3
TORSDOF 10
ENDMDL
MODEL       35
REMARK 921   NORMALIZED FREE ENERGY PREDICTED BY IDOCK:   -6.28 KCAL/MOL
REMARK 922        TOTAL FREE ENERGY PREDICTED BY IDOCK:  -11.91 KCAL/MOL
REMARK 923 INTER-LIGAND FREE ENERGY PREDICTED BY IDOCK:  -10.33 KCAL/MOL
REMARK 924 INTRA-LIGAND FREE ENERGY PREDICTED BY IDOCK:   -1.58 KCAL/MOL
REMARK 927      BINDING AFFINITY PREDICTED BY RF-SCORE:    0.00 PKD
ROOT
HETATM    1  C   UNL     1     -10.963   5.758  71.048  1.00  0.00    -0.230 C  
HETATM    2  O   UNL     1     -11.897   6.850  71.111  1.00  0.00    -0.311 OA 
ENDROOT
BRANCH   2   3
HETATM    3  C   UNL     1     -11.303   8.078  71.155  1.00  0.00    -0.266 C  
HETATM    4  N   UNL     1     -12.054   9.012  70.476  1.00  0.00    -0.476 N  
HETATM    5  O   UNL     1     -10.239   8.292  71.719  1.00  0.00    -0.195 OA 
HETATM    6  H   UNL     1     -12.930   8.716  70.043  1.00  0.00     0.000 HD 
BRANCH   4   7
HETATM    7  C   UNL     1     -11.645  10.423  70.349  1.00  0.00    -0.337 C  
HETATM    8  C   UNL     1     -12.012  10.903  68.908  1.00  0.00    -0.277 C  
BRANCH   7   9
HETATM    9  C   UNL     1     -12.302  11.455  71.359  1.00  0.00    -0.165 C  
BRANCH   9  10
HETATM   10  N   UNL     1     -13.032  12.694  70.930  1.00  0.00    -0.076 NA 
HETATM   11  H   UNL     1     -14.022  12.613  70.698  1.00  0.00     0.000 HD 
BRANCH  10  12
HETATM   12  C   UNL     1     -12.427  13.962  70.828  1.00  0.00    -0.375 A  
HETATM   13  N   UNL     1     -12.341  14.679  71.950  1.00  0.00    -0.343 NA 
HETATM   14  C   UNL     1     -11.881  15.927  71.813  1.00  0.00    -0.497 A  
HETATM   15  C   UNL     1     -11.408  16.481  70.639  1.00  0.00    -0.066 A  
HETATM   16  C   UNL     1     -11.471  15.715  69.489  1.00  0.00    -0.344 A  
HETATM   17  N   UNL     1     -12.052  14.453  69.583  1.00  0.00    -0.328 NA 
BRANCH  16  18
HETATM   18  C   UNL     1     -10.905  16.339  68.198  1.00  0.00    -0.342 A  
HETATM   19  C   UNL     1     -10.582  17.708  68.148  1.00  0.00    -0.356 A  
HETATM   20  N   UNL     1      -9.996  17.988  66.945  1.00  0.00    -0.323 NA 
HETATM   21  C   UNL     1     -10.416  15.895  66.880  1.00  0.00    -0.309 A  
HETATM   22  N   UNL     1      -9.922  16.926  66.158  1.00  0.00    -0.359 NA 
BRANCH  20  23
HETATM   23  C   UNL     1      -9.416  19.258  66.471  1.00  0.00    -0.357 C  
HETATM   24  C   UNL     1      -7.883  19.276  66.532  1.00  0.00    -0.290 C  
HETATM   25  C   UNL     1      -9.954  20.474  67.243  1.00  0.00    -0.528 C  
ENDBRANCH  20  23
BRANCH  21  26
HETATM   26  C   UNL     1     -10.401  14.609  66.183  1.00  0.00    -0.309 A  
HETATM   27  C   UNL     1     -11.220  14.321  65.064  1.00  0.00    -0.364 A  
HETATM   28  C   UNL     1     -11.295  13.022  64.550  1.00  0.00    -0.339 A  
HETATM   29 CL   UNL     1     -12.163  12.687  63.104  1.00  0.00    -0.482 Cl 
HETATM   30  C   UNL     1     -10.662  11.964  65.217  1.00  0.00    -0.331 A  
HETATM   31  C   UNL     1      -9.869  12.283  66.303  1.00  0.00    -0.241 A  
HETATM   32  C   UNL     1      -9.622  13.594  66.660  1.00  0.00    -0.283 A  
HETATM   33  F   UNL     1      -8.568  13.829  67.440  1.00  0.00    -0.160 F  
BRANCH  31  34
HETATM   34  N   UNL     1      -9.224  11.288  67.098  1.00  0.00    -0.162 N  
HETATM   35  H   UNL     1      -9.497  11.095  68.061  1.00  0.00     0.000 HD 
BRANCH  34  36
HETATM   36  S   UNL     1      -7.975  10.455  66.326  1.00  0.00    -0.143 S  
HETATM   37  O   UNL     1      -8.357  10.124  64.973  1.00  0.00    -0.143 OA 
HETATM   38  O   UNL     1      -6.781  11.217  66.625  1.00  0.00    -0.122 OA 
HETATM   39  C   UNL     1      -7.997   8.988  67.324  1.00  0.00    -0.099 C  
ENDBRANCH  34  36
ENDBRANCH  31  34
ENDBRANCH  21  26
ENDBRANCH  16  18
ENDBRANCH  10  12
ENDBRANCH   9  10
ENDBRANCH   7   9
ENDBRANCH   4   7
ENDBRANCH   2   3
TORSDOF 10
ENDMDL
MODEL       36
REMARK 921   NORMALIZED FREE ENERGY PREDICTED BY IDOCK:   -6.25 KCAL/MOL
REMARK 922        TOTAL FREE ENERGY PREDICTED BY IDOCK:  -11.86 KCAL/MOL
REMARK 923 INTER-LIGAND FREE ENERGY PREDICTED BY IDOCK:   -9.76 KCAL/MOL
REMARK 924 INTRA-LIGAND FREE ENERGY PREDICTED BY IDOCK:   -2.10 KCAL/MOL
REMARK 927      BINDING AFFINITY PREDICTED BY RF-SCORE:    0.00 PKD
ROOT
HETATM    1  C   UNL     1     -10.790   6.740  67.490  1.00  0.00    -0.318 C  
HETATM    2  O   UNL     1     -10.359   7.863  66.701  1.00  0.00    -0.291 OA 
ENDROOT
BRANCH   2   3
HETATM    3  C   UNL     1      -9.094   7.732  66.206  1.00  0.00    -0.178 C  
HETATM    4  N   UNL     1      -8.905   8.554  65.116  1.00  0.00    -0.382 N  
HETATM    5  O   UNL     1      -8.260   6.970  66.676  1.00  0.00    -0.107 OA 
HETATM    6  H   UNL     1      -9.677   9.149  64.812  1.00  0.00     0.000 HD 
BRANCH   4   7
HETATM    7  C   UNL     1      -7.634   8.610  64.371  1.00  0.00    -0.115 C  
HETATM    8  C   UNL     1      -7.879   7.995  62.956  1.00  0.00    -0.148 C  
BRANCH   7   9
HETATM    9  C   UNL     1      -6.994  10.044  64.147  1.00  0.00    -0.124 C  
BRANCH   9  10
HETATM   10  N   UNL     1      -6.231  10.792  65.200  1.00  0.00    -0.360 NA 
HETATM   11  H   UNL     1      -5.411  11.326  64.912  1.00  0.00     0.000 HD 
BRANCH  10  12
HETATM   12  C   UNL     1      -6.582  10.796  66.565  1.00  0.00    -0.119 A  
HETATM   13  N   UNL     1      -5.579  10.792  67.444  1.00  0.00    -0.044 NA 
HETATM   14  C   UNL     1      -5.927  10.668  68.729  1.00  0.00    -0.040 A  
HETATM   15  C   UNL     1      -7.223  10.643  69.208  1.00  0.00    -0.113 A  
HETATM   16  C   UNL     1      -8.255  10.681  68.288  1.00  0.00    -0.120 A  
HETATM   17  N   UNL     1      -7.917  10.695  66.937  1.00  0.00    -0.120 NA 
BRANCH  16  18
HETATM   18  C   UNL     1      -9.692  10.689  68.845  1.00  0.00    -0.210 A  
HETATM   19  C   UNL     1     -10.006   9.984  70.022  1.00  0.00    -0.222 A  
HETATM   20  N   UNL     1     -11.304  10.240  70.367  1.00  0.00    -0.311 NA 
HETATM   21  C   UNL     1     -10.972  11.373  68.587  1.00  0.00    -0.220 A  
HETATM   22  N   UNL     1     -11.910  11.038  69.501  1.00  0.00    -0.307 NA 
BRANCH  20  23
HETATM   23  C   UNL     1     -12.049   9.798  71.560  1.00  0.00    -0.409 C  
HETATM   24  C   UNL     1     -12.429   8.312  71.513  1.00  0.00    -0.340 C  
HETATM   25  C   UNL     1     -13.324  10.624  71.796  1.00  0.00    -0.437 C  
ENDBRANCH  20  23
BRANCH  21  26
HETATM   26  C   UNL     1     -11.446  12.280  67.542  1.00  0.00    -0.414 A  
HETATM   27  C   UNL     1     -11.778  11.853  66.232  1.00  0.00    -0.223 A  
HETATM   28  C   UNL     1     -12.053  12.785  65.225  1.00  0.00    -0.457 A  
HETATM   29 CL   UNL     1     -12.602  12.282  63.676  1.00  0.00    -0.620 Cl 
HETATM   30  C   UNL     1     -11.876  14.153  65.468  1.00  0.00    -0.364 A  
HETATM   31  C   UNL     1     -11.555  14.534  66.757  1.00  0.00    -0.376 A  
HETATM   32  C   UNL     1     -11.511  13.621  67.793  1.00  0.00    -0.318 A  
HETATM   33  F   UNL     1     -11.588  14.097  69.034  1.00  0.00    -0.258 F  
BRANCH  31  34
HETATM   34  N   UNL     1     -11.291  15.891  67.112  1.00  0.00    -0.062 N  
HETATM   35  H   UNL     1     -11.833  16.388  67.819  1.00  0.00     0.000 HD 
BRANCH  34  36
HETATM   36  S   UNL     1     -10.017  16.615  66.273  1.00  0.00    -0.332 S  
HETATM   37  O   UNL     1      -8.890  15.713  66.203  1.00  0.00    -0.321 OA 
HETATM   38  O   UNL     1     -10.627  17.181  65.089  1.00  0.00    -0.695 OA 
HETATM   39  C   UNL     1      -9.664  17.916  67.427  1.00  0.00    -0.288 C  
ENDBRANCH  34  36
ENDBRANCH  31  34
ENDBRANCH  21  26
ENDBRANCH  16  18
ENDBRANCH  10  12
ENDBRANCH   9  10
ENDBRANCH   7   9
ENDBRANCH   4   7
ENDBRANCH   2   3
TORSDOF 10
ENDMDL
MODEL       37
REMARK 921   NORMALIZED FREE ENERGY PREDICTED BY IDOCK:   -6.24 KCAL/MOL
REMARK 922        TOTAL FREE ENERGY PREDICTED BY IDOCK:  -11.85 KCAL/MOL
REMARK 923 INTER-LIGAND FREE ENERGY PREDICTED BY IDOCK:  -10.76 KCAL/MOL
REMARK 924 INTRA-LIGAND FREE ENERGY PREDICTED BY IDOCK:   -1.09 KCAL/MOL
REMARK 927      BINDING AFFINITY PREDICTED BY RF-SCORE:    0.00 PKD
ROOT
HETATM    1  C   UNL     1     -10.990  19.464  67.127  1.00  0.00    -0.344 C  
HETATM    2  O   UNL     1     -10.009  20.494  67.345  1.00  0.00    -0.442 OA 
ENDROOT
BRANCH   2   3
HETATM    3  C   UNL     1      -8.722  20.041  67.311  1.00  0.00    -0.343 C  
HETATM    4  N   UNL     1      -8.267  19.951  66.013  1.00  0.00    -0.441 N  
HETATM    5  O   UNL     1      -8.083  19.748  68.312  1.00  0.00    -0.321 OA 
HETATM    6  H   UNL     1      -8.893  20.224  65.255  1.00  0.00     0.000 HD 
BRANCH   4   7
HETATM    7  C   UNL     1      -6.912  19.477  65.675  1.00  0.00    -0.295 C  
HETATM    8  C   UNL     1      -5.888  20.317  66.505  1.00  0.00    -0.196 C  
BRANCH   7   9
HETATM    9  C   UNL     1      -6.593  17.949  65.960  1.00  0.00    -0.281 C  
BRANCH   9  10
HETATM   10  N   UNL     1      -7.252  17.148  67.044  1.00  0.00    -0.167 NA 
HETATM   11  H   UNL     1      -6.779  17.075  67.945  1.00  0.00     0.000 HD 
BRANCH  10  12
HETATM   12  C   UNL     1      -8.487  16.489  66.887  1.00  0.00    -0.212 A  
HETATM   13  N   UNL     1      -9.104  16.637  65.714  1.00  0.00    -0.494 NA 
HETATM   14  C   UNL     1     -10.330  16.112  65.626  1.00  0.00    -0.382 A  
HETATM   15  C   UNL     1     -10.951  15.360  66.606  1.00  0.00    -0.275 A  
HETATM   16  C   UNL     1     -10.287  15.186  67.807  1.00  0.00    -0.243 A  
HETATM   17  N   UNL     1      -9.057  15.819  67.964  1.00  0.00    -0.186 NA 
BRANCH  16  18
HETATM   18  C   UNL     1     -10.981  14.315  68.872  1.00  0.00    -0.275 A  
HETATM   19  C   UNL     1     -11.715  14.911  69.916  1.00  0.00    -0.305 A  
HETATM   20  N   UNL     1     -12.322  13.934  70.654  1.00  0.00    -0.360 NA 
HETATM   21  C   UNL     1     -11.267  12.890  69.119  1.00  0.00    -0.237 A  
HETATM   22  N   UNL     1     -12.036  12.717  70.217  1.00  0.00    -0.328 NA 
BRANCH  20  23
HETATM   23  C   UNL     1     -13.256  14.074  71.786  1.00  0.00    -0.375 C  
HETATM   24  C   UNL     1     -12.707  14.967  72.908  1.00  0.00    -0.531 C  
HETATM   25  C   UNL     1     -13.658  12.719  72.388  1.00  0.00    -0.507 C  
ENDBRANCH  20  23
BRANCH  21  26
HETATM   26  C   UNL     1     -10.857  11.645  68.468  1.00  0.00    -0.257 A  
HETATM   27  C   UNL     1     -10.620  11.537  67.075  1.00  0.00    -0.277 A  
HETATM   28  C   UNL     1     -10.407  10.288  66.482  1.00  0.00    -0.211 A  
HETATM   29 CL   UNL     1      -9.969  10.154  64.825  1.00  0.00    -0.391 Cl 
HETATM   30  C   UNL     1     -10.553   9.117  67.239  1.00  0.00    -0.303 A  
HETATM   31  C   UNL     1     -10.781   9.261  68.594  1.00  0.00    -0.143 A  
HETATM   32  C   UNL     1     -10.762  10.500  69.205  1.00  0.00    -0.231 A  
HETATM   33  F   UNL     1     -10.596  10.530  70.525  1.00  0.00    -0.313 F  
BRANCH  31  34
HETATM   34  N   UNL     1     -11.007   8.146  69.455  1.00  0.00    -0.431 N  
HETATM   35  H   UNL     1     -11.943   7.840  69.722  1.00  0.00     0.000 HD 
BRANCH  34  36
HETATM   36  S   UNL     1      -9.611   7.367  70.000  1.00  0.00    -0.167 S  
HETATM   37  O   UNL     1      -8.458   7.844  69.273  1.00  0.00    -0.134 OA 
HETATM   38  O   UNL     1      -9.693   7.430  71.444  1.00  0.00    -0.167 OA 
HETATM   39  C   UNL     1     -10.013   5.725  69.463  1.00  0.00    -0.191 C  
ENDBRANCH  34  36
ENDBRANCH  31  34
ENDBRANCH  21  26
ENDBRANCH  16  18
ENDBRANCH  10  12
ENDBRANCH   9  10
ENDBRANCH   7   9
ENDBRANCH   4   7
ENDBRANCH   2   3
TORSDOF 10
ENDMDL
MODEL       38
REMARK 921   NORMALIZED FREE ENERGY PREDICTED BY IDOCK:   -6.24 KCAL/MOL
REMARK 922        TOTAL FREE ENERGY PREDICTED BY IDOCK:  -11.85 KCAL/MOL
REMARK 923 INTER-LIGAND FREE ENERGY PREDICTED BY IDOCK:  -10.09 KCAL/MOL
REMARK 924 INTRA-LIGAND FREE ENERGY PREDICTED BY IDOCK:   -1.75 KCAL/MOL
REMARK 927      BINDING AFFINITY PREDICTED BY RF-SCORE:    0.00 PKD
ROOT
HETATM    1  C   UNL     1     -11.025   6.464  68.242  1.00  0.00    -0.312 C  
HETATM    2  O   UNL     1      -9.694   6.180  68.709  1.00  0.00    -0.126 OA 
ENDROOT
BRANCH   2   3
HETATM    3  C   UNL     1      -9.586   6.141  70.069  1.00  0.00    -0.160 C  
HETATM    4  N   UNL     1     -10.726   5.612  70.636  1.00  0.00    -0.275 N  
HETATM    5  O   UNL     1      -8.605   6.540  70.680  1.00  0.00    -0.136 OA 
HETATM    6  H   UNL     1     -11.484   5.312  70.023  1.00  0.00     0.000 HD 
BRANCH   4   7
HETATM    7  C   UNL     1     -10.893   5.462  72.094  1.00  0.00    -0.214 C  
HETATM    8  C   UNL     1      -9.731   4.560  72.621  1.00  0.00    -0.189 C  
BRANCH   7   9
HETATM    9  C   UNL     1     -10.874   6.792  72.960  1.00  0.00    -0.283 C  
BRANCH   9  10
HETATM   10  N   UNL     1     -11.963   7.824  72.928  1.00  0.00    -0.609 NA 
HETATM   11  H   UNL     1     -12.767   7.693  73.542  1.00  0.00     0.000 HD 
BRANCH  10  12
HETATM   12  C   UNL     1     -11.937   8.962  72.099  1.00  0.00    -0.349 A  
HETATM   13  N   UNL     1     -12.932   9.838  72.248  1.00  0.00    -0.381 NA 
HETATM   14  C   UNL     1     -12.962  10.845  71.369  1.00  0.00    -0.424 A  
HETATM   15  C   UNL     1     -12.005  11.093  70.403  1.00  0.00    -0.469 A  
HETATM   16  C   UNL     1     -10.961  10.195  70.280  1.00  0.00    -0.317 A  
HETATM   17  N   UNL     1     -10.968   9.076  71.108  1.00  0.00    -0.273 NA 
BRANCH  16  18
HETATM   18  C   UNL     1      -9.886  10.509  69.221  1.00  0.00    -0.225 A  
HETATM   19  C   UNL     1      -8.603   9.936  69.312  1.00  0.00    -0.167 A  
HETATM   20  N   UNL     1      -7.879  10.275  68.204  1.00  0.00    -0.102 NA 
HETATM   21  C   UNL     1      -9.784  11.198  67.921  1.00  0.00    -0.174 A  
HETATM   22  N   UNL     1      -8.554  11.060  67.378  1.00  0.00    -0.131 NA 
BRANCH  20  23
HETATM   23  C   UNL     1      -6.524   9.843  67.815  1.00  0.00    -0.063 C  
HETATM   24  C   UNL     1      -6.125  10.313  66.410  1.00  0.00    -0.074 C  
HETATM   25  C   UNL     1      -6.349   8.318  67.893  1.00  0.00    -0.053 C  
ENDBRANCH  20  23
BRANCH  21  26
HETATM   26  C   UNL     1     -10.701  12.025  67.136  1.00  0.00    -0.277 A  
HETATM   27  C   UNL     1     -11.264  11.609  65.905  1.00  0.00    -0.296 A  
HETATM   28  C   UNL     1     -11.988  12.506  65.112  1.00  0.00    -0.434 A  
HETATM   29 CL   UNL     1     -12.803  11.979  63.694  1.00  0.00    -0.571 Cl 
HETATM   30  C   UNL     1     -12.055  13.860  65.465  1.00  0.00    -0.425 A  
HETATM   31  C   UNL     1     -11.496  14.230  66.675  1.00  0.00    -0.364 A  
HETATM   32  C   UNL     1     -10.986  13.294  67.553  1.00  0.00    -0.263 A  
HETATM   33  F   UNL     1     -10.835  13.664  68.823  1.00  0.00    -0.237 F  
BRANCH  31  34
HETATM   34  N   UNL     1     -11.448  15.587  67.113  1.00  0.00    -0.153 N  
HETATM   35  H   UNL     1     -12.143  15.983  67.746  1.00  0.00     0.000 HD 
BRANCH  34  36
HETATM   36  S   UNL     1     -10.157  16.490  66.506  1.00  0.00    -0.311 S  
HETATM   37  O   UNL     1      -8.905  15.843  66.820  1.00  0.00    -0.216 OA 
HETATM   38  O   UNL     1     -10.538  16.814  65.148  1.00  0.00    -0.663 OA 
HETATM   39  C   UNL     1     -10.354  17.927  67.527  1.00  0.00    -0.377 C  
ENDBRANCH  34  36
ENDBRANCH  31  34
ENDBRANCH  21  26
ENDBRANCH  16  18
ENDBRANCH  10  12
ENDBRANCH   9  10
ENDBRANCH   7   9
ENDBRANCH   4   7
ENDBRANCH   2   3
TORSDOF 10
ENDMDL
MODEL       39
REMARK 921   NORMALIZED FREE ENERGY PREDICTED BY IDOCK:   -6.24 KCAL/MOL
REMARK 922        TOTAL FREE ENERGY PREDICTED BY IDOCK:  -11.84 KCAL/MOL
REMARK 923 INTER-LIGAND FREE ENERGY PREDICTED BY IDOCK:  -10.74 KCAL/MOL
REMARK 924 INTRA-LIGAND FREE ENERGY PREDICTED BY IDOCK:   -1.10 KCAL/MOL
REMARK 927      BINDING AFFINITY PREDICTED BY RF-SCORE:    0.00 PKD
ROOT
HETATM    1  C   UNL     1     -10.696   4.493  72.889  1.00  0.00    -0.208 C  
HETATM    2  O   UNL     1     -11.145   5.785  73.334  1.00  0.00    -0.254 OA 
ENDROOT
BRANCH   2   3
HETATM    3  C   UNL     1     -11.297   6.690  72.323  1.00  0.00    -0.275 C  
HETATM    4  N   UNL     1     -10.742   7.905  72.664  1.00  0.00    -0.319 N  
HETATM    5  O   UNL     1     -11.864   6.436  71.270  1.00  0.00    -0.327 OA 
HETATM    6  H   UNL     1     -10.293   7.999  73.576  1.00  0.00     0.000 HD 
BRANCH   4   7
HETATM    7  C   UNL     1     -10.771   9.074  71.766  1.00  0.00    -0.367 C  
HETATM    8  C   UNL     1      -9.878   8.748  70.525  1.00  0.00    -0.224 C  
BRANCH   7   9
HETATM    9  C   UNL     1     -12.189   9.517  71.209  1.00  0.00    -0.348 C  
BRANCH   9  10
HETATM   10  N   UNL     1     -12.803  10.862  71.468  1.00  0.00    -0.441 NA 
HETATM   11  H   UNL     1     -13.488  10.941  72.219  1.00  0.00     0.000 HD 
BRANCH  10  12
HETATM   12  C   UNL     1     -12.487  12.020  70.730  1.00  0.00    -0.279 A  
HETATM   13  N   UNL     1     -12.774  13.192  71.299  1.00  0.00    -0.352 NA 
HETATM   14  C   UNL     1     -12.586  14.274  70.536  1.00  0.00    -0.353 A  
HETATM   15  C   UNL     1     -12.037  14.274  69.268  1.00  0.00    -0.351 A  
HETATM   16  C   UNL     1     -11.714  13.054  68.702  1.00  0.00    -0.323 A  
HETATM   17  N   UNL     1     -12.005  11.904  69.431  1.00  0.00    -0.306 NA 
BRANCH  16  18
HETATM   18  C   UNL     1     -11.069  13.078  67.301  1.00  0.00    -0.303 A  
HETATM   19  C   UNL     1     -11.696  12.437  66.216  1.00  0.00    -0.395 A  
HETATM   20  N   UNL     1     -10.993  12.698  65.073  1.00  0.00    -0.281 NA 
HETATM   21  C   UNL     1      -9.941  13.734  66.616  1.00  0.00    -0.279 A  
HETATM   22  N   UNL     1      -9.919  13.441  65.297  1.00  0.00    -0.223 NA 
BRANCH  20  23
HETATM   23  C   UNL     1     -11.308  12.316  63.684  1.00  0.00    -0.470 C  
HETATM   24  C   UNL     1     -12.762  11.859  63.504  1.00  0.00    -0.530 C  
HETATM   25  C   UNL     1     -10.376  11.216  63.152  1.00  0.00    -0.309 C  
ENDBRANCH  20  23
BRANCH  21  26
HETATM   26  C   UNL     1      -8.833  14.577  67.065  1.00  0.00    -0.256 A  
HETATM   27  C   UNL     1      -7.842  14.139  67.978  1.00  0.00    -0.146 A  
HETATM   28  C   UNL     1      -6.912  15.040  68.509  1.00  0.00    -0.106 A  
HETATM   29 CL   UNL     1      -5.615  14.497  69.498  1.00  0.00    -0.091 Cl 
HETATM   30  C   UNL     1      -7.030  16.410  68.242  1.00  0.00    -0.138 A  
HETATM   31  C   UNL     1      -8.006  16.801  67.345  1.00  0.00    -0.170 A  
HETATM   32  C   UNL     1      -8.768  15.878  66.655  1.00  0.00    -0.289 A  
HETATM   33  F   UNL     1      -9.387  16.295  65.553  1.00  0.00    -0.295 F  
BRANCH  31  34
HETATM   34  N   UNL     1      -8.262  18.172  67.041  1.00  0.00    -0.229 N  
HETATM   35  H   UNL     1      -7.944  18.610  66.176  1.00  0.00     0.000 HD 
BRANCH  34  36
HETATM   36  S   UNL     1      -9.129  19.016  68.218  1.00  0.00    -0.340 S  
HETATM   37  O   UNL     1     -10.170  18.179  68.767  1.00  0.00    -0.378 OA 
HETATM   38  O   UNL     1      -8.119  19.635  69.050  1.00  0.00    -0.317 OA 
HETATM   39  C   UNL     1      -9.851  20.247  67.164  1.00  0.00    -0.466 C  
ENDBRANCH  34  36
ENDBRANCH  31  34
ENDBRANCH  21  26
ENDBRANCH  16  18
ENDBRANCH  10  12
ENDBRANCH   9  10
ENDBRANCH   7   9
ENDBRANCH   4   7
ENDBRANCH   2   3
TORSDOF 10
ENDMDL
MODEL       40
REMARK 921   NORMALIZED FREE ENERGY PREDICTED BY IDOCK:   -6.23 KCAL/MOL
REMARK 922        TOTAL FREE ENERGY PREDICTED BY IDOCK:  -11.83 KCAL/MOL
REMARK 923 INTER-LIGAND FREE ENERGY PREDICTED BY IDOCK:  -10.46 KCAL/MOL
REMARK 924 INTRA-LIGAND FREE ENERGY PREDICTED BY IDOCK:   -1.38 KCAL/MOL
REMARK 927      BINDING AFFINITY PREDICTED BY RF-SCORE:    0.00 PKD
ROOT
HETATM    1  C   UNL     1     -12.417  11.989  63.370  1.00  0.00    -0.509 C  
HETATM    2  O   UNL     1     -13.053  12.309  64.620  1.00  0.00    -0.770 OA 
ENDROOT
BRANCH   2   3
HETATM    3  C   UNL     1     -12.687  13.523  65.126  1.00  0.00    -0.399 C  
HETATM    4  N   UNL     1     -12.116  13.382  66.373  1.00  0.00    -0.414 N  
HETATM    5  O   UNL     1     -12.864  14.581  64.539  1.00  0.00    -0.613 OA 
HETATM    6  H   UNL     1     -12.020  12.445  66.765  1.00  0.00     0.000 HD 
BRANCH   4   7
HETATM    7  C   UNL     1     -11.637  14.531  67.163  1.00  0.00    -0.388 C  
HETATM    8  C   UNL     1     -11.796  14.174  68.676  1.00  0.00    -0.383 C  
BRANCH   7   9
HETATM    9  C   UNL     1     -10.128  14.971  66.949  1.00  0.00    -0.249 C  
BRANCH   9  10
HETATM   10  N   UNL     1      -9.028  14.023  66.571  1.00  0.00    -0.459 NA 
HETATM   11  H   UNL     1      -8.532  14.186  65.694  1.00  0.00     0.000 HD 
BRANCH  10  12
HETATM   12  C   UNL     1      -8.641  12.921  67.358  1.00  0.00    -0.195 A  
HETATM   13  N   UNL     1      -7.690  13.135  68.268  1.00  0.00    -0.133 NA 
HETATM   14  C   UNL     1      -7.246  12.053  68.917  1.00  0.00    -0.089 A  
HETATM   15  C   UNL     1      -7.757  10.776  68.787  1.00  0.00    -0.121 A  
HETATM   16  C   UNL     1      -8.767  10.573  67.863  1.00  0.00    -0.126 A  
HETATM   17  N   UNL     1      -9.168  11.662  67.094  1.00  0.00    -0.173 NA 
BRANCH  16  18
HETATM   18  C   UNL     1      -9.348   9.149  67.760  1.00  0.00    -0.152 A  
HETATM   19  C   UNL     1      -8.883   8.258  66.775  1.00  0.00    -0.140 A  
HETATM   20  N   UNL     1      -9.466   7.035  66.963  1.00  0.00    -0.143 NA 
HETATM   21  C   UNL     1     -10.250   8.267  68.522  1.00  0.00    -0.208 A  
HETATM   22  N   UNL     1     -10.315   7.030  67.979  1.00  0.00    -0.182 NA 
BRANCH  20  23
HETATM   23  C   UNL     1      -9.226   5.774  66.238  1.00  0.00    -0.158 C  
HETATM   24  C   UNL     1      -9.748   4.542  66.991  1.00  0.00    -0.227 C  
HETATM   25  C   UNL     1      -7.740   5.558  65.910  1.00  0.00    -0.091 C  
ENDBRANCH  20  23
BRANCH  21  26
HETATM   26  C   UNL     1     -11.113   8.460  69.688  1.00  0.00    -0.011 A  
HETATM   27  C   UNL     1     -11.563   9.731  70.121  1.00  0.00    -0.239 A  
HETATM   28  C   UNL     1     -12.235   9.874  71.340  1.00  0.00    -0.408 A  
HETATM   29 CL   UNL     1     -12.918  11.380  71.807  1.00  0.00    -0.561 Cl 
HETATM   30  C   UNL     1     -12.356   8.779  72.207  1.00  0.00    -0.448 A  
HETATM   31  C   UNL     1     -11.909   7.554  71.750  1.00  0.00    -0.294 A  
HETATM   32  C   UNL     1     -11.456   7.384  70.456  1.00  0.00    -0.255 A  
HETATM   33  F   UNL     1     -11.419   6.142  69.977  1.00  0.00    -0.415 F  
BRANCH  31  34
HETATM   34  N   UNL     1     -11.923   6.382  72.564  1.00  0.00    -0.516 N  
HETATM   35  H   UNL     1     -12.767   5.827  72.710  1.00  0.00     0.000 HD 
BRANCH  34  36
HETATM   36  S   UNL     1     -10.442   5.980  73.268  1.00  0.00    -0.256 S  
HETATM   37  O   UNL     1      -9.437   5.800  72.246  1.00  0.00    -0.145 OA 
HETATM   38  O   UNL     1     -10.279   6.926  74.351  1.00  0.00    -0.317 OA 
HETATM   39  C   UNL     1     -10.901   4.402  73.935  1.00  0.00    -0.268 C  
ENDBRANCH  34  36
ENDBRANCH  31  34
ENDBRANCH  21  26
ENDBRANCH  16  18
ENDBRANCH  10  12
ENDBRANCH   9  10
ENDBRANCH   7   9
ENDBRANCH   4   7
ENDBRANCH   2   3
TORSDOF 10
ENDMDL
MODEL       41
REMARK 921   NORMALIZED FREE ENERGY PREDICTED BY IDOCK:   -6.23 KCAL/MOL
REMARK 922        TOTAL FREE ENERGY PREDICTED BY IDOCK:  -11.82 KCAL/MOL
REMARK 923 INTER-LIGAND FREE ENERGY PREDICTED BY IDOCK:  -10.69 KCAL/MOL
REMARK 924 INTRA-LIGAND FREE ENERGY PREDICTED BY IDOCK:   -1.13 KCAL/MOL
REMARK 927      BINDING AFFINITY PREDICTED BY RF-SCORE:    0.00 PKD
ROOT
HETATM    1  C   UNL     1     -14.098  15.250  72.244  1.00  0.00    -0.554 C  
HETATM    2  O   UNL     1     -13.762  15.327  70.847  1.00  0.00    -0.405 OA 
ENDROOT
BRANCH   2   3
HETATM    3  C   UNL     1     -12.479  15.728  70.613  1.00  0.00    -0.354 C  
HETATM    4  N   UNL     1     -12.163  15.610  69.276  1.00  0.00    -0.565 N  
HETATM    5  O   UNL     1     -11.724  16.123  71.491  1.00  0.00    -0.455 OA 
HETATM    6  H   UNL     1     -12.877  15.266  68.633  1.00  0.00     0.000 HD 
BRANCH   4   7
HETATM    7  C   UNL     1     -10.836  15.960  68.738  1.00  0.00    -0.284 C  
HETATM    8  C   UNL     1      -9.887  14.741  68.968  1.00  0.00    -0.206 C  
BRANCH   7   9
HETATM    9  C   UNL     1     -10.759  16.320  67.195  1.00  0.00    -0.247 C  
BRANCH   9  10
HETATM   10  N   UNL     1      -9.941  15.552  66.198  1.00  0.00    -0.286 NA 
HETATM   11  H   UNL     1      -9.002  15.888  65.985  1.00  0.00     0.000 HD 
BRANCH  10  12
HETATM   12  C   UNL     1     -10.398  14.393  65.540  1.00  0.00    -0.362 A  
HETATM   13  N   UNL     1     -11.319  14.565  64.590  1.00  0.00    -0.383 NA 
HETATM   14  C   UNL     1     -11.833  13.448  64.065  1.00  0.00    -0.445 A  
HETATM   15  C   UNL     1     -11.421  12.162  64.358  1.00  0.00    -0.417 A  
HETATM   16  C   UNL     1     -10.442  11.999  65.322  1.00  0.00    -0.284 A  
HETATM   17  N   UNL     1      -9.971  13.140  65.965  1.00  0.00    -0.282 NA 
BRANCH  16  18
HETATM   18  C   UNL     1      -9.971  10.559  65.608  1.00  0.00    -0.332 A  
HETATM   19  C   UNL     1      -9.233   9.845  64.645  1.00  0.00    -0.258 A  
HETATM   20  N   UNL     1      -8.840   8.648  65.178  1.00  0.00    -0.149 NA 
HETATM   21  C   UNL     1      -9.928   9.616  66.740  1.00  0.00    -0.227 A  
HETATM   22  N   UNL     1      -9.277   8.477  66.416  1.00  0.00    -0.185 NA 
BRANCH  20  23
HETATM   23  C   UNL     1      -7.982   7.608  64.582  1.00  0.00    -0.136 C  
HETATM   24  C   UNL     1      -7.980   7.638  63.048  1.00  0.00    -0.112 C  
HETATM   25  C   UNL     1      -8.364   6.194  65.047  1.00  0.00    -0.112 C  
ENDBRANCH  20  23
BRANCH  21  26
HETATM   26  C   UNL     1     -10.475   9.633  68.097  1.00  0.00    -0.266 A  
HETATM   27  C   UNL     1     -11.075  10.776  68.680  1.00  0.00    -0.312 A  
HETATM   28  C   UNL     1     -11.417  10.789  70.037  1.00  0.00    -0.331 A  
HETATM   29 CL   UNL     1     -12.280  12.108  70.722  1.00  0.00    -0.443 Cl 
HETATM   30  C   UNL     1     -11.054   9.717  70.863  1.00  0.00    -0.428 A  
HETATM   31  C   UNL     1     -10.474   8.618  70.259  1.00  0.00    -0.210 A  
HETATM   32  C   UNL     1     -10.349   8.526  68.887  1.00  0.00    -0.210 A  
HETATM   33  F   UNL     1     -10.157   7.315  68.368  1.00  0.00    -0.152 F  
BRANCH  31  34
HETATM   34  N   UNL     1     -10.006   7.493  71.003  1.00  0.00    -0.186 N  
HETATM   35  H   UNL     1      -9.035   7.182  70.974  1.00  0.00     0.000 HD 
BRANCH  34  36
HETATM   36  S   UNL     1     -11.179   6.715  71.937  1.00  0.00    -0.279 S  
HETATM   37  O   UNL     1     -11.344   7.397  73.200  1.00  0.00    -0.298 OA 
HETATM   38  O   UNL     1     -12.285   6.492  71.031  1.00  0.00    -0.328 OA 
HETATM   39  C   UNL     1     -10.318   5.186  72.197  1.00  0.00    -0.214 C  
ENDBRANCH  34  36
ENDBRANCH  31  34
ENDBRANCH  21  26
ENDBRANCH  16  18
ENDBRANCH  10  12
ENDBRANCH   9  10
ENDBRANCH   7   9
ENDBRANCH   4   7
ENDBRANCH   2   3
TORSDOF 10
ENDMDL
MODEL       42
REMARK 921   NORMALIZED FREE ENERGY PREDICTED BY IDOCK:   -6.21 KCAL/MOL
REMARK 922        TOTAL FREE ENERGY PREDICTED BY IDOCK:  -11.79 KCAL/MOL
REMARK 923 INTER-LIGAND FREE ENERGY PREDICTED BY IDOCK:   -9.61 KCAL/MOL
REMARK 924 INTRA-LIGAND FREE ENERGY PREDICTED BY IDOCK:   -2.19 KCAL/MOL
REMARK 927      BINDING AFFINITY PREDICTED BY RF-SCORE:    0.00 PKD
ROOT
HETATM    1  C   UNL     1     -11.760  14.117  69.173  1.00  0.00    -0.327 C  
HETATM    2  O   UNL     1     -11.453  14.183  67.769  1.00  0.00    -0.290 OA 
ENDROOT
BRANCH   2   3
HETATM    3  C   UNL     1     -11.697  13.019  67.100  1.00  0.00    -0.382 C  
HETATM    4  N   UNL     1     -11.369  13.141  65.767  1.00  0.00    -0.300 N  
HETATM    5  O   UNL     1     -12.158  12.018  67.631  1.00  0.00    -0.547 OA 
HETATM    6  H   UNL     1     -10.991  14.029  65.435  1.00  0.00     0.000 HD 
BRANCH   4   7
HETATM    7  C   UNL     1     -11.542  12.041  64.800  1.00  0.00    -0.281 C  
HETATM    8  C   UNL     1     -12.096  12.651  63.472  1.00  0.00    -0.648 C  
BRANCH   7   9
HETATM    9  C   UNL     1     -10.247  11.209  64.420  1.00  0.00    -0.330 C  
BRANCH   9  10
HETATM   10  N   UNL     1      -8.915  11.386  65.088  1.00  0.00    -0.393 NA 
HETATM   11  H   UNL     1      -8.259  12.054  64.684  1.00  0.00     0.000 HD 
BRANCH  10  12
HETATM   12  C   UNL     1      -8.520  10.680  66.241  1.00  0.00    -0.155 A  
HETATM   13  N   UNL     1      -7.209  10.508  66.422  1.00  0.00    -0.122 NA 
HETATM   14  C   UNL     1      -6.857   9.729  67.450  1.00  0.00    -0.083 A  
HETATM   15  C   UNL     1      -7.726   9.182  68.375  1.00  0.00    -0.094 A  
HETATM   16  C   UNL     1      -9.081   9.395  68.195  1.00  0.00    -0.127 A  
HETATM   17  N   UNL     1      -9.480  10.108  67.067  1.00  0.00    -0.164 NA 
BRANCH  16  18
HETATM   18  C   UNL     1     -10.031   8.807  69.257  1.00  0.00    -0.194 A  
HETATM   19  C   UNL     1     -10.744   9.655  70.126  1.00  0.00    -0.275 A  
HETATM   20  N   UNL     1     -11.595   8.905  70.888  1.00  0.00    -0.283 NA 
HETATM   21  C   UNL     1     -10.600   7.499  69.626  1.00  0.00    -0.239 A  
HETATM   22  N   UNL     1     -11.497   7.610  70.631  1.00  0.00    -0.279 NA 
BRANCH  20  23
HETATM   23  C   UNL     1     -12.597   9.355  71.871  1.00  0.00    -0.401 C  
HETATM   24  C   UNL     1     -13.899   8.545  71.813  1.00  0.00    -0.462 C  
HETATM   25  C   UNL     1     -12.938  10.846  71.723  1.00  0.00    -0.557 C  
ENDBRANCH  20  23
BRANCH  21  26
HETATM   26  C   UNL     1     -10.365   6.126  69.176  1.00  0.00    -0.271 A  
HETATM   27  C   UNL     1      -9.934   5.088  70.039  1.00  0.00    -0.324 A  
HETATM   28  C   UNL     1      -9.553   3.844  69.524  1.00  0.00    -0.178 A  
HETATM   29 CL   UNL     1      -9.173   2.531  70.565  1.00  0.00    -0.186 Cl 
HETATM   30  C   UNL     1      -9.472   3.653  68.138  1.00  0.00    -0.215 A  
HETATM   31  C   UNL     1      -9.904   4.685  67.327  1.00  0.00    -0.180 A  
HETATM   32  C   UNL     1     -10.490   5.821  67.851  1.00  0.00    -0.228 A  
HETATM   33  F   UNL     1     -11.221   6.570  67.027  1.00  0.00    -0.423 F  
BRANCH  31  34
HETATM   34  N   UNL     1      -9.813   4.631  65.904  1.00  0.00    -0.200 N  
HETATM   35  H   UNL     1     -10.511   4.160  65.328  1.00  0.00     0.000 HD 
BRANCH  34  36
HETATM   36  S   UNL     1      -8.465   5.404  65.243  1.00  0.00    -0.151 S  
HETATM   37  O   UNL     1      -8.645   6.836  65.277  1.00  0.00    -0.113 OA 
HETATM   38  O   UNL     1      -7.328   4.754  65.859  1.00  0.00    -0.075 OA 
HETATM   39  C   UNL     1      -8.637   4.824  63.575  1.00  0.00    -0.132 C  
ENDBRANCH  34  36
ENDBRANCH  31  34
ENDBRANCH  21  26
ENDBRANCH  16  18
ENDBRANCH  10  12
ENDBRANCH   9  10
ENDBRANCH   7   9
ENDBRANCH   4   7
ENDBRANCH   2   3
TORSDOF 10
ENDMDL
MODEL       43
REMARK 921   NORMALIZED FREE ENERGY PREDICTED BY IDOCK:   -6.21 KCAL/MOL
REMARK 922        TOTAL FREE ENERGY PREDICTED BY IDOCK:  -11.79 KCAL/MOL
REMARK 923 INTER-LIGAND FREE ENERGY PREDICTED BY IDOCK:   -9.41 KCAL/MOL
REMARK 924 INTRA-LIGAND FREE ENERGY PREDICTED BY IDOCK:   -2.38 KCAL/MOL
REMARK 927      BINDING AFFINITY PREDICTED BY RF-SCORE:    0.00 PKD
ROOT
HETATM    1  C   UNL     1     -13.033   9.714  71.581  1.00  0.00    -0.407 C  
HETATM    2  O   UNL     1     -11.901  10.495  71.160  1.00  0.00    -0.346 OA 
ENDROOT
BRANCH   2   3
HETATM    3  C   UNL     1     -10.729   9.796  71.141  1.00  0.00    -0.214 C  
HETATM    4  N   UNL     1     -10.024  10.050  69.984  1.00  0.00    -0.341 N  
HETATM    5  O   UNL     1     -10.378   9.041  72.037  1.00  0.00    -0.339 OA 
HETATM    6  H   UNL     1     -10.417  10.701  69.304  1.00  0.00     0.000 HD 
BRANCH   4   7
HETATM    7  C   UNL     1      -8.724   9.419  69.689  1.00  0.00    -0.167 C  
HETATM    8  C   UNL     1      -8.955   8.334  68.589  1.00  0.00    -0.137 C  
BRANCH   7   9
HETATM    9  C   UNL     1      -7.567  10.370  69.163  1.00  0.00    -0.117 C  
BRANCH   9  10
HETATM   10  N   UNL     1      -7.156  11.641  69.847  1.00  0.00    -0.358 NA 
HETATM   11  H   UNL     1      -7.170  11.665  70.867  1.00  0.00     0.000 HD 
BRANCH  10  12
HETATM   12  C   UNL     1      -6.754  12.803  69.160  1.00  0.00    -0.080 A  
HETATM   13  N   UNL     1      -5.570  12.760  68.547  1.00  0.00    -0.056 NA 
HETATM   14  C   UNL     1      -5.147  13.909  68.009  1.00  0.00    -0.097 A  
HETATM   15  C   UNL     1      -5.874  15.083  67.956  1.00  0.00    -0.155 A  
HETATM   16  C   UNL     1      -7.115  15.105  68.566  1.00  0.00    -0.110 A  
HETATM   17  N   UNL     1      -7.529  13.955  69.233  1.00  0.00     0.027 NA 
BRANCH  16  18
HETATM   18  C   UNL     1      -7.924  16.413  68.464  1.00  0.00    -0.203 A  
HETATM   19  C   UNL     1      -7.323  17.589  67.976  1.00  0.00    -0.208 A  
HETATM   20  N   UNL     1      -8.270  18.570  67.877  1.00  0.00    -0.256 NA 
HETATM   21  C   UNL     1      -9.320  16.862  68.612  1.00  0.00    -0.268 A  
HETATM   22  N   UNL     1      -9.463  18.166  68.288  1.00  0.00    -0.295 NA 
BRANCH  20  23
HETATM   23  C   UNL     1      -8.135  19.935  67.339  1.00  0.00    -0.313 C  
HETATM   24  C   UNL     1      -9.460  20.709  67.328  1.00  0.00    -0.520 C  
HETATM   25  C   UNL     1      -7.544  19.952  65.920  1.00  0.00    -0.334 C  
ENDBRANCH  20  23
BRANCH  21  26
HETATM   26  C   UNL     1     -10.550  16.218  69.076  1.00  0.00    -0.286 A  
HETATM   27  C   UNL     1     -11.055  16.362  70.392  1.00  0.00    -0.246 A  
HETATM   28  C   UNL     1     -12.131  15.585  70.833  1.00  0.00    -0.385 A  
HETATM   29 CL   UNL     1     -12.850  15.854  72.371  1.00  0.00    -0.513 Cl 
HETATM   30  C   UNL     1     -12.640  14.564  70.019  1.00  0.00    -0.281 A  
HETATM   31  C   UNL     1     -12.126  14.454  68.741  1.00  0.00    -0.241 A  
HETATM   32  C   UNL     1     -11.224  15.373  68.241  1.00  0.00    -0.323 A  
HETATM   33  F   UNL     1     -11.081  15.436  66.919  1.00  0.00    -0.314 F  
BRANCH  31  34
HETATM   34  N   UNL     1     -12.520  13.417  67.844  1.00  0.00    -0.062 N  
HETATM   35  H   UNL     1     -13.406  13.437  67.339  1.00  0.00     0.000 HD 
BRANCH  34  36
HETATM   36  S   UNL     1     -11.411  12.154  67.678  1.00  0.00    -0.337 S  
HETATM   37  O   UNL     1     -10.167  12.494  68.327  1.00  0.00    -0.224 OA 
HETATM   38  O   UNL     1     -12.157  10.961  68.018  1.00  0.00    -0.563 OA 
HETATM   39  C   UNL     1     -11.203  12.231  65.918  1.00  0.00    -0.340 C  
ENDBRANCH  34  36
ENDBRANCH  31  34
ENDBRANCH  21  26
ENDBRANCH  16  18
ENDBRANCH  10  12
ENDBRANCH   9  10
ENDBRANCH   7   9
ENDBRANCH   4   7
ENDBRANCH   2   3
TORSDOF 10
ENDMDL
MODEL       44
REMARK 921   NORMALIZED FREE ENERGY PREDICTED BY IDOCK:   -6.17 KCAL/MOL
REMARK 922        TOTAL FREE ENERGY PREDICTED BY IDOCK:  -11.73 KCAL/MOL
REMARK 923 INTER-LIGAND FREE ENERGY PREDICTED BY IDOCK:  -10.44 KCAL/MOL
REMARK 924 INTRA-LIGAND FREE ENERGY PREDICTED BY IDOCK:   -1.29 KCAL/MOL
REMARK 927      BINDING AFFINITY PREDICTED BY RF-SCORE:    0.00 PKD
ROOT
HETATM    1  C   UNL     1      -7.916   5.649  74.173  1.00  0.00    -0.105 C  
HETATM    2  O   UNL     1      -8.274   7.042  74.224  1.00  0.00    -0.125 OA 
ENDROOT
BRANCH   2   3
HETATM    3  C   UNL     1      -8.556   7.580  73.002  1.00  0.00    -0.142 C  
HETATM    4  N   UNL     1      -8.828   6.591  72.081  1.00  0.00    -0.135 N  
HETATM    5  O   UNL     1      -8.549   8.782  72.776  1.00  0.00    -0.412 OA 
HETATM    6  H   UNL     1      -8.803   5.617  72.386  1.00  0.00     0.000 HD 
BRANCH   4   7
HETATM    7  C   UNL     1      -9.153   6.883  70.672  1.00  0.00    -0.155 C  
HETATM    8  C   UNL     1      -8.437   5.816  69.783  1.00  0.00    -0.123 C  
BRANCH   7   9
HETATM    9  C   UNL     1     -10.688   6.863  70.271  1.00  0.00    -0.242 C  
BRANCH   9  10
HETATM   10  N   UNL     1     -11.277   7.712  69.183  1.00  0.00    -0.413 NA 
HETATM   11  H   UNL     1     -12.012   7.308  68.601  1.00  0.00     0.000 HD 
BRANCH  10  12
HETATM   12  C   UNL     1     -10.873   9.035  68.919  1.00  0.00    -0.045 A  
HETATM   13  N   UNL     1      -9.785   9.192  68.163  1.00  0.00    -0.151 NA 
HETATM   14  C   UNL     1      -9.342  10.447  68.028  1.00  0.00    -0.140 A  
HETATM   15  C   UNL     1      -9.969  11.575  68.521  1.00  0.00    -0.207 A  
HETATM   16  C   UNL     1     -11.115  11.401  69.277  1.00  0.00    -0.254 A  
HETATM   17  N   UNL     1     -11.533  10.097  69.527  1.00  0.00    -0.205 NA 
BRANCH  16  18
HETATM   18  C   UNL     1     -11.819  12.673  69.787  1.00  0.00    -0.379 A  
HETATM   19  C   UNL     1     -12.409  12.700  71.066  1.00  0.00    -0.211 A  
HETATM   20  N   UNL     1     -12.862  13.963  71.326  1.00  0.00    -0.347 NA 
HETATM   21  C   UNL     1     -11.992  14.079  69.379  1.00  0.00    -0.343 A  
HETATM   22  N   UNL     1     -12.656  14.793  70.315  1.00  0.00    -0.336 NA 
BRANCH  20  23
HETATM   23  C   UNL     1     -13.469  14.493  72.560  1.00  0.00    -0.483 C  
HETATM   24  C   UNL     1     -14.397  15.688  72.307  1.00  0.00    -0.480 C  
HETATM   25  C   UNL     1     -12.417  14.899  73.605  1.00  0.00    -0.596 C  
ENDBRANCH  20  23
BRANCH  21  26
HETATM   26  C   UNL     1     -11.649  14.835  68.174  1.00  0.00    -0.356 A  
HETATM   27  C   UNL     1     -12.014  14.426  66.868  1.00  0.00    -0.425 A  
HETATM   28  C   UNL     1     -11.508  15.089  65.744  1.00  0.00    -0.236 A  
HETATM   29 CL   UNL     1     -12.057  14.701  64.162  1.00  0.00    -0.429 Cl 
HETATM   30  C   UNL     1     -10.533  16.084  65.896  1.00  0.00    -0.373 A  
HETATM   31  C   UNL     1     -10.204  16.460  67.185  1.00  0.00    -0.282 A  
HETATM   32  C   UNL     1     -10.878  15.957  68.281  1.00  0.00    -0.315 A  
HETATM   33  F   UNL     1     -10.786  16.636  69.422  1.00  0.00    -0.278 F  
BRANCH  31  34
HETATM   34  N   UNL     1      -9.184  17.418  67.466  1.00  0.00    -0.232 N  
HETATM   35  H   UNL     1      -8.207  17.155  67.597  1.00  0.00     0.000 HD 
BRANCH  34  36
HETATM   36  S   UNL     1      -9.713  19.018  67.567  1.00  0.00    -0.326 S  
HETATM   37  O   UNL     1     -11.024  19.149  66.976  1.00  0.00    -0.426 OA 
HETATM   38  O   UNL     1      -9.439  19.413  68.932  1.00  0.00    -0.391 OA 
HETATM   39  C   UNL     1      -8.504  19.750  66.494  1.00  0.00    -0.345 C  
ENDBRANCH  34  36
ENDBRANCH  31  34
ENDBRANCH  21  26
ENDBRANCH  16  18
ENDBRANCH  10  12
ENDBRANCH   9  10
ENDBRANCH   7   9
ENDBRANCH   4   7
ENDBRANCH   2   3
TORSDOF 10
ENDMDL
MODEL       45
REMARK 921   NORMALIZED FREE ENERGY PREDICTED BY IDOCK:   -6.15 KCAL/MOL
REMARK 922        TOTAL FREE ENERGY PREDICTED BY IDOCK:  -11.70 KCAL/MOL
REMARK 923 INTER-LIGAND FREE ENERGY PREDICTED BY IDOCK:  -10.10 KCAL/MOL
REMARK 924 INTRA-LIGAND FREE ENERGY PREDICTED BY IDOCK:   -1.60 KCAL/MOL
REMARK 927      BINDING AFFINITY PREDICTED BY RF-SCORE:    0.00 PKD
ROOT
HETATM    1  C   UNL     1     -10.471  19.421  67.799  1.00  0.00    -0.441 C  
HETATM    2  O   UNL     1      -9.514  20.476  67.597  1.00  0.00    -0.371 OA 
ENDROOT
BRANCH   2   3
HETATM    3  C   UNL     1      -8.259  20.028  67.300  1.00  0.00    -0.326 C  
HETATM    4  N   UNL     1      -8.165  19.681  65.969  1.00  0.00    -0.339 N  
HETATM    5  O   UNL     1      -7.360  19.943  68.124  1.00  0.00    -0.295 OA 
HETATM    6  H   UNL     1      -8.986  19.795  65.374  1.00  0.00     0.000 HD 
BRANCH   4   7
HETATM    7  C   UNL     1      -6.925  19.152  65.371  1.00  0.00    -0.140 C  
HETATM    8  C   UNL     1      -5.837  20.270  65.451  1.00  0.00    -0.226 C  
BRANCH   7   9
HETATM    9  C   UNL     1      -6.303  17.854  66.037  1.00  0.00    -0.253 C  
BRANCH   9  10
HETATM   10  N   UNL     1      -6.972  17.075  67.131  1.00  0.00    -0.162 NA 
HETATM   11  H   UNL     1      -6.461  16.932  68.003  1.00  0.00     0.000 HD 
BRANCH  10  12
HETATM   12  C   UNL     1      -8.266  16.529  67.023  1.00  0.00    -0.196 A  
HETATM   13  N   UNL     1      -8.838  16.571  65.818  1.00  0.00    -0.450 NA 
HETATM   14  C   UNL     1     -10.111  16.166  65.760  1.00  0.00    -0.363 A  
HETATM   15  C   UNL     1     -10.828  15.628  66.810  1.00  0.00    -0.277 A  
HETATM   16  C   UNL     1     -10.213  15.559  68.047  1.00  0.00    -0.229 A  
HETATM   17  N   UNL     1      -8.927  16.079  68.160  1.00  0.00    -0.181 NA 
BRANCH  16  18
HETATM   18  C   UNL     1     -11.018  14.922  69.197  1.00  0.00    -0.266 A  
HETATM   19  C   UNL     1     -11.608  15.729  70.189  1.00  0.00    -0.357 A  
HETATM   20  N   UNL     1     -12.355  14.943  71.022  1.00  0.00    -0.299 NA 
HETATM   21  C   UNL     1     -11.539  13.597  69.579  1.00  0.00    -0.301 A  
HETATM   22  N   UNL     1     -12.296  13.661  70.697  1.00  0.00    -0.361 NA 
BRANCH  20  23
HETATM   23  C   UNL     1     -13.219  15.346  72.146  1.00  0.00    -0.424 C  
HETATM   24  C   UNL     1     -12.427  15.870  73.352  1.00  0.00    -0.655 C  
HETATM   25  C   UNL     1     -14.139  14.209  72.618  1.00  0.00    -0.287 C  
ENDBRANCH  20  23
BRANCH  21  26
HETATM   26  C   UNL     1     -11.370  12.246  69.042  1.00  0.00    -0.333 A  
HETATM   27  C   UNL     1     -10.828  11.173  69.791  1.00  0.00    -0.152 A  
HETATM   28  C   UNL     1     -10.523   9.955  69.175  1.00  0.00    -0.217 A  
HETATM   29 CL   UNL     1     -10.008   8.598  70.097  1.00  0.00    -0.184 Cl 
HETATM   30  C   UNL     1     -10.630   9.825  67.784  1.00  0.00    -0.320 A  
HETATM   31  C   UNL     1     -11.165  10.890  67.085  1.00  0.00    -0.184 A  
HETATM   32  C   UNL     1     -11.673  11.999  67.733  1.00  0.00    -0.309 A  
HETATM   33  F   UNL     1     -12.506  12.781  67.049  1.00  0.00    -0.292 F  
BRANCH  31  34
HETATM   34  N   UNL     1     -11.268  10.899  65.662  1.00  0.00     0.138 N  
HETATM   35  H   UNL     1     -12.042  10.458  65.166  1.00  0.00     0.000 HD 
BRANCH  34  36
HETATM   36  S   UNL     1     -10.012  11.693  64.859  1.00  0.00    -0.250 S  
HETATM   37  O   UNL     1     -10.421  13.028  64.491  1.00  0.00    -0.359 OA 
HETATM   38  O   UNL     1      -8.838  11.441  65.668  1.00  0.00    -0.174 OA 
HETATM   39  C   UNL     1      -9.954  10.670  63.411  1.00  0.00    -0.268 C  
ENDBRANCH  34  36
ENDBRANCH  31  34
ENDBRANCH  21  26
ENDBRANCH  16  18
ENDBRANCH  10  12
ENDBRANCH   9  10
ENDBRANCH   7   9
ENDBRANCH   4   7
ENDBRANCH   2   3
TORSDOF 10
ENDMDL
MODEL       46
REMARK 921   NORMALIZED FREE ENERGY PREDICTED BY IDOCK:   -6.13 KCAL/MOL
REMARK 922        TOTAL FREE ENERGY PREDICTED BY IDOCK:  -11.68 KCAL/MOL
REMARK 923 INTER-LIGAND FREE ENERGY PREDICTED BY IDOCK:   -9.57 KCAL/MOL
REMARK 924 INTRA-LIGAND FREE ENERGY PREDICTED BY IDOCK:   -2.10 KCAL/MOL
REMARK 927      BINDING AFFINITY PREDICTED BY RF-SCORE:    0.00 PKD
ROOT
HETATM    1  C   UNL     1      -8.025  16.655  66.451  1.00  0.00    -0.325 C  
HETATM    2  O   UNL     1      -9.278  16.763  65.752  1.00  0.00    -0.520 OA 
ENDROOT
BRANCH   2   3
HETATM    3  C   UNL     1     -10.162  15.768  66.056  1.00  0.00    -0.333 C  
HETATM    4  N   UNL     1     -10.218  14.835  65.044  1.00  0.00    -0.380 N  
HETATM    5  O   UNL     1     -10.815  15.739  67.090  1.00  0.00    -0.321 OA 
HETATM    6  H   UNL     1      -9.625  14.965  64.224  1.00  0.00     0.000 HD 
BRANCH   4   7
HETATM    7  C   UNL     1     -11.101  13.655  65.098  1.00  0.00    -0.318 C  
HETATM    8  C   UNL     1     -12.247  13.864  64.056  1.00  0.00    -0.413 C  
BRANCH   7   9
HETATM    9  C   UNL     1     -10.441  12.248  64.780  1.00  0.00    -0.296 C  
BRANCH   9  10
HETATM   10  N   UNL     1     -10.823  10.971  65.470  1.00  0.00    -0.148 NA 
HETATM   11  H   UNL     1     -11.803  10.835  65.722  1.00  0.00     0.000 HD 
BRANCH  10  12
HETATM   12  C   UNL     1      -9.906   9.952  65.791  1.00  0.00    -0.287 A  
HETATM   13  N   UNL     1      -8.989   9.655  64.869  1.00  0.00    -0.204 NA 
HETATM   14  C   UNL     1      -8.209   8.603  65.135  1.00  0.00    -0.151 A  
HETATM   15  C   UNL     1      -8.218   7.877  66.311  1.00  0.00    -0.117 A  
HETATM   16  C   UNL     1      -9.152   8.216  67.274  1.00  0.00    -0.138 A  
HETATM   17  N   UNL     1     -10.052   9.235  66.973  1.00  0.00    -0.227 NA 
BRANCH  16  18
HETATM   18  C   UNL     1      -9.122   7.418  68.593  1.00  0.00    -0.134 A  
HETATM   19  C   UNL     1      -8.219   6.351  68.762  1.00  0.00    -0.121 A  
HETATM   20  N   UNL     1      -8.308   5.885  70.044  1.00  0.00    -0.120 NA 
HETATM   21  C   UNL     1      -9.712   7.492  69.941  1.00  0.00    -0.171 A  
HETATM   22  N   UNL     1      -9.222   6.529  70.754  1.00  0.00    -0.154 NA 
BRANCH  20  23
HETATM   23  C   UNL     1      -7.505   4.842  70.708  1.00  0.00    -0.065 C  
HETATM   24  C   UNL     1      -8.268   3.523  70.888  1.00  0.00    -0.080 C  
HETATM   25  C   UNL     1      -6.972   5.294  72.077  1.00  0.00    -0.078 C  
ENDBRANCH  20  23
BRANCH  21  26
HETATM   26  C   UNL     1     -10.735   8.338  70.557  1.00  0.00    -0.238 A  
HETATM   27  C   UNL     1     -11.948   7.832  71.086  1.00  0.00    -0.312 A  
HETATM   28  C   UNL     1     -12.964   8.702  71.499  1.00  0.00    -0.312 A  
HETATM   29 CL   UNL     1     -14.375   8.110  72.280  1.00  0.00    -0.425 Cl 
HETATM   30  C   UNL     1     -12.843  10.079  71.274  1.00  0.00    -0.500 A  
HETATM   31  C   UNL     1     -11.645  10.537  70.759  1.00  0.00    -0.338 A  
HETATM   32  C   UNL     1     -10.568   9.693  70.570  1.00  0.00    -0.306 A  
HETATM   33  F   UNL     1      -9.365  10.251  70.454  1.00  0.00    -0.137 F  
BRANCH  31  34
HETATM   34  N   UNL     1     -11.427  11.908  70.431  1.00  0.00    -0.440 N  
HETATM   35  H   UNL     1     -11.317  12.632  71.142  1.00  0.00     0.000 HD 
BRANCH  34  36
HETATM   36  S   UNL     1     -11.366  12.248  68.777  1.00  0.00    -0.313 S  
HETATM   37  O   UNL     1      -9.995  12.402  68.350  1.00  0.00    -0.220 OA 
HETATM   38  O   UNL     1     -12.260  11.285  68.169  1.00  0.00    -0.622 OA 
HETATM   39  C   UNL     1     -12.158  13.835  68.817  1.00  0.00    -0.309 C  
ENDBRANCH  34  36
ENDBRANCH  31  34
ENDBRANCH  21  26
ENDBRANCH  16  18
ENDBRANCH  10  12
ENDBRANCH   9  10
ENDBRANCH   7   9
ENDBRANCH   4   7
ENDBRANCH   2   3
TORSDOF 10
ENDMDL
MODEL       47
REMARK 921   NORMALIZED FREE ENERGY PREDICTED BY IDOCK:   -6.13 KCAL/MOL
REMARK 922        TOTAL FREE ENERGY PREDICTED BY IDOCK:  -11.67 KCAL/MOL
REMARK 923 INTER-LIGAND FREE ENERGY PREDICTED BY IDOCK:  -10.05 KCAL/MOL
REMARK 924 INTRA-LIGAND FREE ENERGY PREDICTED BY IDOCK:   -1.62 KCAL/MOL
REMARK 927      BINDING AFFINITY PREDICTED BY RF-SCORE:    0.00 PKD
ROOT
HETATM    1  C   UNL     1      -8.999   2.198  67.473  1.00  0.00    -0.153 C  
HETATM    2  O   UNL     1      -9.157   2.665  68.825  1.00  0.00    -0.119 OA 
ENDROOT
BRANCH   2   3
HETATM    3  C   UNL     1      -9.050   4.019  68.953  1.00  0.00    -0.133 C  
HETATM    4  N   UNL     1     -10.230   4.640  68.605  1.00  0.00    -0.015 N  
HETATM    5  O   UNL     1      -8.028   4.584  69.318  1.00  0.00    -0.068 OA 
HETATM    6  H   UNL     1     -11.020   4.063  68.314  1.00  0.00     0.000 HD 
BRANCH   4   7
HETATM    7  C   UNL     1     -10.399   6.105  68.636  1.00  0.00    -0.206 C  
HETATM    8  C   UNL     1     -10.975   6.551  67.254  1.00  0.00    -0.475 C  
BRANCH   7   9
HETATM    9  C   UNL     1     -11.362   6.694  69.750  1.00  0.00    -0.354 C  
BRANCH   9  10
HETATM   10  N   UNL     1     -11.268   8.094  70.280  1.00  0.00    -0.382 NA 
HETATM   11  H   UNL     1     -11.892   8.365  71.040  1.00  0.00     0.000 HD 
BRANCH  10  12
HETATM   12  C   UNL     1     -10.365   9.057  69.787  1.00  0.00    -0.211 A  
HETATM   13  N   UNL     1      -9.134   9.046  70.300  1.00  0.00    -0.184 NA 
HETATM   14  C   UNL     1      -8.330  10.043  69.915  1.00  0.00    -0.151 A  
HETATM   15  C   UNL     1      -8.642  11.004  68.973  1.00  0.00    -0.076 A  
HETATM   16  C   UNL     1      -9.912  10.985  68.423  1.00  0.00    -0.186 A  
HETATM   17  N   UNL     1     -10.805  10.025  68.892  1.00  0.00    -0.219 NA 
BRANCH  16  18
HETATM   18  C   UNL     1     -10.227  12.043  67.347  1.00  0.00    -0.216 A  
HETATM   19  C   UNL     1     -10.270  11.687  65.986  1.00  0.00    -0.232 A  
HETATM   20  N   UNL     1     -10.679  12.765  65.252  1.00  0.00    -0.287 NA 
HETATM   21  C   UNL     1     -10.673  13.446  67.276  1.00  0.00    -0.260 A  
HETATM   22  N   UNL     1     -10.888  13.837  66.000  1.00  0.00    -0.281 NA 
BRANCH  20  23
HETATM   23  C   UNL     1     -10.955  12.850  63.806  1.00  0.00    -0.352 C  
HETATM   24  C   UNL     1     -12.345  13.420  63.494  1.00  0.00    -0.398 C  
HETATM   25  C   UNL     1     -10.809  11.493  63.100  1.00  0.00    -0.243 C  
ENDBRANCH  20  23
BRANCH  21  26
HETATM   26  C   UNL     1     -10.876  14.498  68.272  1.00  0.00    -0.247 A  
HETATM   27  C   UNL     1     -10.412  15.827  68.106  1.00  0.00    -0.263 A  
HETATM   28  C   UNL     1     -10.476  16.742  69.163  1.00  0.00    -0.343 A  
HETATM   29 CL   UNL     1     -10.058  18.394  68.933  1.00  0.00    -0.405 Cl 
HETATM   30  C   UNL     1     -10.880  16.319  70.436  1.00  0.00    -0.211 A  
HETATM   31  C   UNL     1     -11.329  15.017  70.560  1.00  0.00    -0.276 A  
HETATM   32  C   UNL     1     -11.475  14.194  69.461  1.00  0.00    -0.281 A  
HETATM   33  F   UNL     1     -12.262  13.127  69.594  1.00  0.00    -0.338 F  
BRANCH  31  34
HETATM   34  N   UNL     1     -11.709  14.455  71.815  1.00  0.00    -0.329 N  
HETATM   35  H   UNL     1     -11.058  13.929  72.399  1.00  0.00     0.000 HD 
BRANCH  34  36
HETATM   36  S   UNL     1     -13.314  14.724  72.264  1.00  0.00    -0.436 S  
HETATM   37  O   UNL     1     -13.954  15.610  71.320  1.00  0.00    -0.570 OA 
HETATM   38  O   UNL     1     -13.839  13.409  72.565  1.00  0.00    -0.668 OA 
HETATM   39  C   UNL     1     -13.009  15.592  73.780  1.00  0.00    -0.480 C  
ENDBRANCH  34  36
ENDBRANCH  31  34
ENDBRANCH  21  26
ENDBRANCH  16  18
ENDBRANCH  10  12
ENDBRANCH   9  10
ENDBRANCH   7   9
ENDBRANCH   4   7
ENDBRANCH   2   3
TORSDOF 10
ENDMDL
MODEL       48
REMARK 921   NORMALIZED FREE ENERGY PREDICTED BY IDOCK:   -6.13 KCAL/MOL
REMARK 922        TOTAL FREE ENERGY PREDICTED BY IDOCK:  -11.66 KCAL/MOL
REMARK 923 INTER-LIGAND FREE ENERGY PREDICTED BY IDOCK:   -9.14 KCAL/MOL
REMARK 924 INTRA-LIGAND FREE ENERGY PREDICTED BY IDOCK:   -2.52 KCAL/MOL
REMARK 927      BINDING AFFINITY PREDICTED BY RF-SCORE:    0.00 PKD
ROOT
HETATM    1  C   UNL     1     -12.557  10.834  70.768  1.00  0.00    -0.383 C  
HETATM    2  O   UNL     1     -11.730  11.027  69.606  1.00  0.00    -0.269 OA 
ENDROOT
BRANCH   2   3
HETATM    3  C   UNL     1     -10.762  10.076  69.458  1.00  0.00    -0.244 C  
HETATM    4  N   UNL     1     -10.958   9.353  68.301  1.00  0.00    -0.471 N  
HETATM    5  O   UNL     1      -9.860   9.901  70.264  1.00  0.00    -0.253 OA 
HETATM    6  H   UNL     1     -11.750   9.590  67.703  1.00  0.00     0.000 HD 
BRANCH   4   7
HETATM    7  C   UNL     1     -10.069   8.249  67.893  1.00  0.00    -0.202 C  
HETATM    8  C   UNL     1     -10.956   7.125  67.267  1.00  0.00    -0.333 C  
BRANCH   7   9
HETATM    9  C   UNL     1      -8.941   8.591  66.831  1.00  0.00    -0.143 C  
BRANCH   9  10
HETATM   10  N   UNL     1      -8.774   9.940  66.195  1.00  0.00    -0.134 NA 
HETATM   11  H   UNL     1      -9.443  10.220  65.477  1.00  0.00     0.000 HD 
BRANCH  10  12
HETATM   12  C   UNL     1      -7.746  10.842  66.534  1.00  0.00    -0.145 A  
HETATM   13  N   UNL     1      -6.495  10.390  66.440  1.00  0.00    -0.089 NA 
HETATM   14  C   UNL     1      -5.540  11.214  66.885  1.00  0.00    -0.088 A  
HETATM   15  C   UNL     1      -5.742  12.506  67.332  1.00  0.00    -0.124 A  
HETATM   16  C   UNL     1      -7.042  12.974  67.393  1.00  0.00    -0.117 A  
HETATM   17  N   UNL     1      -8.064  12.096  67.043  1.00  0.00    -0.172 NA 
BRANCH  16  18
HETATM   18  C   UNL     1      -7.242  14.430  67.860  1.00  0.00    -0.169 A  
HETATM   19  C   UNL     1      -6.143  15.302  67.973  1.00  0.00    -0.145 A  
HETATM   20  N   UNL     1      -6.592  16.553  68.290  1.00  0.00    -0.133 NA 
HETATM   21  C   UNL     1      -8.354  15.355  68.143  1.00  0.00    -0.145 A  
HETATM   22  N   UNL     1      -7.908  16.598  68.434  1.00  0.00    -0.192 NA 
BRANCH  20  23
HETATM   23  C   UNL     1      -5.825  17.805  68.427  1.00  0.00    -0.164 C  
HETATM   24  C   UNL     1      -6.595  18.900  69.177  1.00  0.00    -0.318 C  
HETATM   25  C   UNL     1      -5.368  18.365  67.071  1.00  0.00    -0.142 C  
ENDBRANCH  20  23
BRANCH  21  26
HETATM   26  C   UNL     1      -9.807  15.202  68.225  1.00  0.00    -0.223 A  
HETATM   27  C   UNL     1     -10.507  15.069  69.450  1.00  0.00    -0.254 A  
HETATM   28  C   UNL     1     -11.869  14.746  69.462  1.00  0.00    -0.326 A  
HETATM   29 CL   UNL     1     -12.764  14.730  70.929  1.00  0.00    -0.381 Cl 
HETATM   30  C   UNL     1     -12.525  14.424  68.266  1.00  0.00     0.200 A  
HETATM   31  C   UNL     1     -11.812  14.568  67.091  1.00  0.00    -0.387 A  
HETATM   32  C   UNL     1     -10.539  15.106  67.077  1.00  0.00    -0.300 A  
HETATM   33  F   UNL     1     -10.083  15.571  65.916  1.00  0.00    -0.275 F  
BRANCH  31  34
HETATM   34  N   UNL     1     -12.352  14.213  65.819  1.00  0.00    -0.458 N  
HETATM   35  H   UNL     1     -12.836  14.885  65.223  1.00  0.00     0.000 HD 
BRANCH  34  36
HETATM   36  S   UNL     1     -12.133  12.599  65.373  1.00  0.00    -0.442 S  
HETATM   37  O   UNL     1     -11.798  11.803  66.530  1.00  0.00    -0.550 OA 
HETATM   38  O   UNL     1     -13.267  12.292  64.528  1.00  0.00    -0.799 OA 
HETATM   39  C   UNL     1     -10.691  12.812  64.361  1.00  0.00    -0.376 C  
ENDBRANCH  34  36
ENDBRANCH  31  34
ENDBRANCH  21  26
ENDBRANCH  16  18
ENDBRANCH  10  12
ENDBRANCH   9  10
ENDBRANCH   7   9
ENDBRANCH   4   7
ENDBRANCH   2   3
TORSDOF 10
ENDMDL
MODEL       49
REMARK 921   NORMALIZED FREE ENERGY PREDICTED BY IDOCK:   -6.12 KCAL/MOL
REMARK 922        TOTAL FREE ENERGY PREDICTED BY IDOCK:  -11.66 KCAL/MOL
REMARK 923 INTER-LIGAND FREE ENERGY PREDICTED BY IDOCK:   -9.49 KCAL/MOL
REMARK 924 INTRA-LIGAND FREE ENERGY PREDICTED BY IDOCK:   -2.17 KCAL/MOL
REMARK 927      BINDING AFFINITY PREDICTED BY RF-SCORE:    0.00 PKD
ROOT
HETATM    1  C   UNL     1      -6.580  13.945  67.837  1.00  0.00    -0.161 C  
HETATM    2  O   UNL     1      -7.206  15.105  67.260  1.00  0.00    -0.202 OA 
ENDROOT
BRANCH   2   3
HETATM    3  C   UNL     1      -7.784  15.929  68.181  1.00  0.00    -0.132 C  
HETATM    4  N   UNL     1      -9.064  16.271  67.799  1.00  0.00    -0.194 N  
HETATM    5  O   UNL     1      -7.218  16.311  69.196  1.00  0.00    -0.193 OA 
HETATM    6  H   UNL     1      -9.433  15.891  66.927  1.00  0.00     0.000 HD 
BRANCH   4   7
HETATM    7  C   UNL     1      -9.922  17.165  68.600  1.00  0.00    -0.313 C  
HETATM    8  C   UNL     1     -10.660  18.129  67.617  1.00  0.00    -0.424 C  
BRANCH   7   9
HETATM    9  C   UNL     1     -11.036  16.477  69.496  1.00  0.00    -0.289 C  
BRANCH   9  10
HETATM   10  N   UNL     1     -12.114  15.587  68.951  1.00  0.00    -0.595 NA 
HETATM   11  H   UNL     1     -13.078  15.920  68.989  1.00  0.00     0.000 HD 
BRANCH  10  12
HETATM   12  C   UNL     1     -11.870  14.318  68.390  1.00  0.00    -0.338 A  
HETATM   13  N   UNL     1     -11.836  14.246  67.058  1.00  0.00    -0.413 NA 
HETATM   14  C   UNL     1     -11.730  13.017  66.541  1.00  0.00    -0.382 A  
HETATM   15  C   UNL     1     -11.560  11.855  67.268  1.00  0.00    -0.364 A  
HETATM   16  C   UNL     1     -11.565  11.948  68.649  1.00  0.00    -0.310 A  
HETATM   17  N   UNL     1     -11.787  13.201  69.212  1.00  0.00    -0.320 NA 
BRANCH  16  18
HETATM   18  C   UNL     1     -11.337  10.645  69.441  1.00  0.00    -0.348 A  
HETATM   19  C   UNL     1     -12.151  10.328  70.545  1.00  0.00    -0.310 A  
HETATM   20  N   UNL     1     -11.826   9.081  71.000  1.00  0.00    -0.287 NA 
HETATM   21  C   UNL     1     -10.531   9.415  69.336  1.00  0.00    -0.220 A  
HETATM   22  N   UNL     1     -10.834   8.534  70.314  1.00  0.00    -0.238 NA 
BRANCH  20  23
HETATM   23  C   UNL     1     -12.459   8.293  72.073  1.00  0.00    -0.351 C  
HETATM   24  C   UNL     1     -12.819   6.866  71.638  1.00  0.00    -0.383 C  
HETATM   25  C   UNL     1     -13.721   8.970  72.633  1.00  0.00    -0.422 C  
ENDBRANCH  20  23
BRANCH  21  26
HETATM   26  C   UNL     1      -9.456   8.979  68.444  1.00  0.00    -0.154 A  
HETATM   27  C   UNL     1      -8.116   8.804  68.868  1.00  0.00    -0.114 A  
HETATM   28  C   UNL     1      -7.098   8.560  67.938  1.00  0.00    -0.086 A  
HETATM   29 CL   UNL     1      -5.498   8.196  68.448  1.00  0.00    -0.032 Cl 
HETATM   30  C   UNL     1      -7.374   8.616  66.565  1.00  0.00    -0.081 A  
HETATM   31  C   UNL     1      -8.692   8.786  66.188  1.00  0.00    -0.160 A  
HETATM   32  C   UNL     1      -9.716   8.797  67.115  1.00  0.00    -0.191 A  
HETATM   33  F   UNL     1     -10.950   8.570  66.669  1.00  0.00    -0.252 F  
BRANCH  31  34
HETATM   34  N   UNL     1      -9.087   8.920  64.823  1.00  0.00    -0.436 N  
HETATM   35  H   UNL     1      -9.220   8.115  64.210  1.00  0.00     0.000 HD 
BRANCH  34  36
HETATM   36  S   UNL     1      -9.317  10.508  64.296  1.00  0.00    -0.291 S  
HETATM   37  O   UNL     1     -10.710  10.735  63.990  1.00  0.00    -0.281 OA 
HETATM   38  O   UNL     1      -8.594  11.322  65.250  1.00  0.00    -0.050 OA 
HETATM   39  C   UNL     1      -8.387  10.409  62.789  1.00  0.00    -0.171 C  
ENDBRANCH  34  36
ENDBRANCH  31  34
ENDBRANCH  21  26
ENDBRANCH  16  18
ENDBRANCH  10  12
ENDBRANCH   9  10
ENDBRANCH   7   9
ENDBRANCH   4   7
ENDBRANCH   2   3
TORSDOF 10
ENDMDL
MODEL       50
REMARK 921   NORMALIZED FREE ENERGY PREDICTED BY IDOCK:   -6.10 KCAL/MOL
REMARK 922        TOTAL FREE ENERGY PREDICTED BY IDOCK:  -11.63 KCAL/MOL
REMARK 923 INTER-LIGAND FREE ENERGY PREDICTED BY IDOCK:   -9.89 KCAL/MOL
REMARK 924 INTRA-LIGAND FREE ENERGY PREDICTED BY IDOCK:   -1.74 KCAL/MOL
REMARK 927      BINDING AFFINITY PREDICTED BY RF-SCORE:    0.00 PKD
ROOT
HETATM    1  C   UNL     1     -12.464  11.862  63.490  1.00  0.00    -0.492 C  
HETATM    2  O   UNL     1     -13.125  12.630  64.511  1.00  0.00    -0.763 OA 
ENDROOT
BRANCH   2   3
HETATM    3  C   UNL     1     -12.537  13.837  64.756  1.00  0.00    -0.290 C  
HETATM    4  N   UNL     1     -11.862  13.821  65.957  1.00  0.00    -0.370 N  
HETATM    5  O   UNL     1     -12.623  14.795  64.000  1.00  0.00    -0.822 OA 
HETATM    6  H   UNL     1     -11.860  12.960  66.506  1.00  0.00     0.000 HD 
BRANCH   4   7
HETATM    7  C   UNL     1     -11.143  14.996  66.483  1.00  0.00    -0.329 C  
HETATM    8  C   UNL     1     -11.449  15.103  68.011  1.00  0.00    -0.355 C  
BRANCH   7   9
HETATM    9  C   UNL     1      -9.564  14.999  66.328  1.00  0.00    -0.307 C  
BRANCH   9  10
HETATM   10  N   UNL     1      -8.705  13.782  66.506  1.00  0.00    -0.446 NA 
HETATM   11  H   UNL     1      -7.701  13.915  66.631  1.00  0.00     0.000 HD 
BRANCH  10  12
HETATM   12  C   UNL     1      -9.207  12.466  66.510  1.00  0.00    -0.215 A  
HETATM   13  N   UNL     1      -9.262  11.839  65.334  1.00  0.00    -0.088 NA 
HETATM   14  C   UNL     1      -9.857  10.642  65.335  1.00  0.00    -0.267 A  
HETATM   15  C   UNL     1     -10.319   9.979  66.456  1.00  0.00    -0.268 A  
HETATM   16  C   UNL     1     -10.226  10.626  67.676  1.00  0.00    -0.194 A  
HETATM   17  N   UNL     1      -9.714  11.921  67.684  1.00  0.00    -0.181 NA 
BRANCH  16  18
HETATM   18  C   UNL     1     -10.714   9.855  68.918  1.00  0.00    -0.244 A  
HETATM   19  C   UNL     1     -11.485  10.502  69.903  1.00  0.00    -0.310 A  
HETATM   20  N   UNL     1     -11.886   9.585  70.834  1.00  0.00    -0.296 NA 
HETATM   21  C   UNL     1     -10.748   8.468  69.414  1.00  0.00    -0.156 A  
HETATM   22  N   UNL     1     -11.424   8.370  70.580  1.00  0.00    -0.253 NA 
BRANCH  20  23
HETATM   23  C   UNL     1     -12.774   9.773  71.996  1.00  0.00    -0.376 C  
HETATM   24  C   UNL     1     -13.892   8.724  72.071  1.00  0.00    -0.504 C  
HETATM   25  C   UNL     1     -13.409  11.172  72.030  1.00  0.00    -0.384 C  
ENDBRANCH  20  23
BRANCH  21  26
HETATM   26  C   UNL     1     -10.170   7.208  68.945  1.00  0.00    -0.188 A  
HETATM   27  C   UNL     1     -10.608   6.538  67.776  1.00  0.00    -0.321 A  
HETATM   28  C   UNL     1     -10.146   5.253  67.473  1.00  0.00    -0.179 A  
HETATM   29 CL   UNL     1     -10.549   4.491  65.987  1.00  0.00    -0.253 Cl 
HETATM   30  C   UNL     1      -9.344   4.561  68.391  1.00  0.00    -0.194 A  
HETATM   31  C   UNL     1      -8.934   5.246  69.519  1.00  0.00    -0.103 A  
HETATM   32  C   UNL     1      -9.210   6.588  69.693  1.00  0.00    -0.143 A  
HETATM   33  F   UNL     1      -8.470   7.258  70.574  1.00  0.00    -0.129 F  
BRANCH  31  34
HETATM   34  N   UNL     1      -8.167   4.629  70.553  1.00  0.00    -0.084 N  
HETATM   35  H   UNL     1      -7.147   4.617  70.545  1.00  0.00     0.000 HD 
BRANCH  34  36
HETATM   36  S   UNL     1      -9.072   3.920  71.789  1.00  0.00    -0.125 S  
HETATM   37  O   UNL     1      -8.403   4.089  73.058  1.00  0.00    -0.091 OA 
HETATM   38  O   UNL     1     -10.427   4.377  71.565  1.00  0.00    -0.085 OA 
HETATM   39  C   UNL     1      -8.932   2.231  71.265  1.00  0.00    -0.080 C  
ENDBRANCH  34  36
ENDBRANCH  31  34
ENDBRANCH  21  26
ENDBRANCH  16  18
ENDBRANCH  10  12
ENDBRANCH   9  10
ENDBRANCH   7   9
ENDBRANCH   4   7
ENDBRANCH   2   3
TORSDOF 10
ENDMDL
MODEL       51
REMARK 921   NORMALIZED FREE ENERGY PREDICTED BY IDOCK:   -6.10 KCAL/MOL
REMARK 922        TOTAL FREE ENERGY PREDICTED BY IDOCK:  -11.62 KCAL/MOL
REMARK 923 INTER-LIGAND FREE ENERGY PREDICTED BY IDOCK:   -9.85 KCAL/MOL
REMARK 924 INTRA-LIGAND FREE ENERGY PREDICTED BY IDOCK:   -1.77 KCAL/MOL
REMARK 927      BINDING AFFINITY PREDICTED BY RF-SCORE:    0.00 PKD
ROOT
HETATM    1  C   UNL     1      -6.450  17.650  65.961  1.00  0.00    -0.230 C  
HETATM    2  O   UNL     1      -6.027  17.213  67.266  1.00  0.00    -0.127 OA 
ENDROOT
BRANCH   2   3
HETATM    3  C   UNL     1      -7.009  17.282  68.211  1.00  0.00    -0.186 C  
HETATM    4  N   UNL     1      -8.156  17.840  67.689  1.00  0.00    -0.219 N  
HETATM    5  O   UNL     1      -6.862  16.903  69.365  1.00  0.00    -0.237 OA 
HETATM    6  H   UNL     1      -8.161  18.120  66.708  1.00  0.00     0.000 HD 
BRANCH   4   7
HETATM    7  C   UNL     1      -9.376  18.049  68.491  1.00  0.00    -0.304 C  
HETATM    8  C   UNL     1      -9.596  19.589  68.637  1.00  0.00    -0.483 C  
BRANCH   7   9
HETATM    9  C   UNL     1     -10.725  17.443  67.918  1.00  0.00    -0.351 C  
BRANCH   9  10
HETATM   10  N   UNL     1     -10.989  15.971  67.787  1.00  0.00    -0.326 NA 
HETATM   11  H   UNL     1     -10.772  15.520  66.898  1.00  0.00     0.000 HD 
BRANCH  10  12
HETATM   12  C   UNL     1     -11.520  15.178  68.823  1.00  0.00    -0.319 A  
HETATM   13  N   UNL     1     -12.271  15.801  69.733  1.00  0.00    -0.298 NA 
HETATM   14  C   UNL     1     -12.660  15.060  70.776  1.00  0.00    -0.370 A  
HETATM   15  C   UNL     1     -12.431  13.706  70.927  1.00  0.00    -0.448 A  
HETATM   16  C   UNL     1     -11.678  13.065  69.959  1.00  0.00    -0.215 A  
HETATM   17  N   UNL     1     -11.165  13.838  68.922  1.00  0.00    -0.259 NA 
BRANCH  16  18
HETATM   18  C   UNL     1     -11.464  11.547  70.128  1.00  0.00    -0.258 A  
HETATM   19  C   UNL     1     -12.222  10.819  71.064  1.00  0.00    -0.380 A  
HETATM   20  N   UNL     1     -11.929   9.489  70.942  1.00  0.00    -0.295 NA 
HETATM   21  C   UNL     1     -10.726  10.457  69.466  1.00  0.00    -0.251 A  
HETATM   22  N   UNL     1     -11.010   9.255  70.018  1.00  0.00    -0.234 NA 
BRANCH  20  23
HETATM   23  C   UNL     1     -12.531   8.340  71.643  1.00  0.00    -0.320 C  
HETATM   24  C   UNL     1     -11.996   6.989  71.149  1.00  0.00    -0.398 C  
HETATM   25  C   UNL     1     -14.065   8.329  71.545  1.00  0.00    -0.446 C  
ENDBRANCH  20  23
BRANCH  21  26
HETATM   26  C   UNL     1      -9.732  10.408  68.394  1.00  0.00    -0.167 A  
HETATM   27  C   UNL     1      -8.413   9.925  68.577  1.00  0.00    -0.112 A  
HETATM   28  C   UNL     1      -7.454  10.068  67.568  1.00  0.00    -0.090 A  
HETATM   29 CL   UNL     1      -5.896   9.355  67.716  1.00  0.00    -0.045 Cl 
HETATM   30  C   UNL     1      -7.752  10.805  66.415  1.00  0.00    -0.145 A  
HETATM   31  C   UNL     1      -9.049  11.258  66.268  1.00  0.00    -0.199 A  
HETATM   32  C   UNL     1     -10.043  10.915  67.164  1.00  0.00    -0.198 A  
HETATM   33  F   UNL     1     -11.305  11.047  66.762  1.00  0.00    -0.331 F  
BRANCH  31  34
HETATM   34  N   UNL     1      -9.457  12.070  65.168  1.00  0.00    -0.436 N  
HETATM   35  H   UNL     1      -9.521  13.086  65.231  1.00  0.00     0.000 HD 
BRANCH  34  36
HETATM   36  S   UNL     1      -9.825  11.225  63.753  1.00  0.00    -0.355 S  
HETATM   37  O   UNL     1      -8.931  11.619  62.689  1.00  0.00    -0.307 OA 
HETATM   38  O   UNL     1      -9.966   9.847  64.171  1.00  0.00    -0.081 OA 
HETATM   39  C   UNL     1     -11.434  11.914  63.461  1.00  0.00    -0.430 C  
ENDBRANCH  34  36
ENDBRANCH  31  34
ENDBRANCH  21  26
ENDBRANCH  16  18
ENDBRANCH  10  12
ENDBRANCH   9  10
ENDBRANCH   7   9
ENDBRANCH   4   7
ENDBRANCH   2   3
TORSDOF 10
ENDMDL
MODEL       52
REMARK 921   NORMALIZED FREE ENERGY PREDICTED BY IDOCK:   -6.10 KCAL/MOL
REMARK 922        TOTAL FREE ENERGY PREDICTED BY IDOCK:  -11.62 KCAL/MOL
REMARK 923 INTER-LIGAND FREE ENERGY PREDICTED BY IDOCK:  -10.86 KCAL/MOL
REMARK 924 INTRA-LIGAND FREE ENERGY PREDICTED BY IDOCK:   -0.77 KCAL/MOL
REMARK 927      BINDING AFFINITY PREDICTED BY RF-SCORE:    0.00 PKD
ROOT
HETATM    1  C   UNL     1      -7.756   5.719  63.934  1.00  0.00    -0.094 C  
HETATM    2  O   UNL     1      -7.116   6.507  62.913  1.00  0.00    -0.044 OA 
ENDROOT
BRANCH   2   3
HETATM    3  C   UNL     1      -7.357   7.846  63.022  1.00  0.00    -0.104 C  
HETATM    4  N   UNL     1      -8.371   8.090  63.924  1.00  0.00    -0.379 N  
HETATM    5  O   UNL     1      -6.750   8.695  62.385  1.00  0.00    -0.095 OA 
HETATM    6  H   UNL     1      -8.806   7.298  64.398  1.00  0.00     0.000 HD 
BRANCH   4   7
HETATM    7  C   UNL     1      -8.851   9.450  64.232  1.00  0.00    -0.184 C  
HETATM    8  C   UNL     1      -7.711  10.202  64.992  1.00  0.00    -0.141 C  
BRANCH   7   9
HETATM    9  C   UNL     1      -9.264  10.362  63.002  1.00  0.00    -0.295 C  
BRANCH   9  10
HETATM   10  N   UNL     1     -10.632  10.953  62.823  1.00  0.00    -0.757 NA 
HETATM   11  H   UNL     1     -11.135  10.749  61.959  1.00  0.00     0.000 HD 
BRANCH  10  12
HETATM   12  C   UNL     1     -11.259  11.775  63.780  1.00  0.00    -0.436 A  
HETATM   13  N   UNL     1     -12.553  12.039  63.591  1.00  0.00    -0.647 NA 
HETATM   14  C   UNL     1     -13.100  12.920  64.435  1.00  0.00     0.150 A  
HETATM   15  C   UNL     1     -12.464  13.488  65.522  1.00  0.00    -0.538 A  
HETATM   16  C   UNL     1     -11.131  13.180  65.727  1.00  0.00    -0.273 A  
HETATM   17  N   UNL     1     -10.507  12.354  64.796  1.00  0.00    -0.293 NA 
BRANCH  16  18
HETATM   18  C   UNL     1     -10.450  13.796  66.965  1.00  0.00    -0.274 A  
HETATM   19  C   UNL     1      -9.399  14.721  66.817  1.00  0.00    -0.249 A  
HETATM   20  N   UNL     1      -9.046  15.202  68.047  1.00  0.00    -0.178 NA 
HETATM   21  C   UNL     1     -10.642  13.834  68.426  1.00  0.00    -0.253 A  
HETATM   22  N   UNL     1      -9.752  14.656  69.026  1.00  0.00    -0.196 NA 
BRANCH  20  23
HETATM   23  C   UNL     1      -8.062  16.245  68.386  1.00  0.00    -0.183 C  
HETATM   24  C   UNL     1      -8.665  17.656  68.399  1.00  0.00    -0.284 C  
HETATM   25  C   UNL     1      -6.849  16.237  67.442  1.00  0.00    -0.210 C  
ENDBRANCH  20  23
BRANCH  21  26
HETATM   26  C   UNL     1     -11.542  13.142  69.350  1.00  0.00    -0.360 A  
HETATM   27  C   UNL     1     -12.145  13.772  70.466  1.00  0.00    -0.416 A  
HETATM   28  C   UNL     1     -12.850  13.022  71.415  1.00  0.00    -0.292 A  
HETATM   29 CL   UNL     1     -13.712  13.788  72.689  1.00  0.00    -0.632 Cl 
HETATM   30  C   UNL     1     -12.857  11.623  71.339  1.00  0.00    -0.461 A  
HETATM   31  C   UNL     1     -12.262  11.043  70.235  1.00  0.00    -0.363 A  
HETATM   32  C   UNL     1     -11.770  11.805  69.193  1.00  0.00    -0.325 A  
HETATM   33  F   UNL     1     -11.580  11.196  68.024  1.00  0.00    -0.323 F  
BRANCH  31  34
HETATM   34  N   UNL     1     -12.153   9.629  70.078  1.00  0.00    -0.454 N  
HETATM   35  H   UNL     1     -12.305   9.164  69.183  1.00  0.00     0.000 HD 
BRANCH  34  36
HETATM   36  S   UNL     1     -11.757   8.781  71.483  1.00  0.00    -0.333 S  
HETATM   37  O   UNL     1     -10.491   9.242  72.003  1.00  0.00    -0.250 OA 
HETATM   38  O   UNL     1     -12.967   8.794  72.277  1.00  0.00    -0.371 OA 
HETATM   39  C   UNL     1     -11.551   7.175  70.758  1.00  0.00    -0.318 C  
ENDBRANCH  34  36
ENDBRANCH  31  34
ENDBRANCH  21  26
ENDBRANCH  16  18
ENDBRANCH  10  12
ENDBRANCH   9  10
ENDBRANCH   7   9
ENDBRANCH   4   7
ENDBRANCH   2   3
TORSDOF 10
ENDMDL
MODEL       53
REMARK 921   NORMALIZED FREE ENERGY PREDICTED BY IDOCK:   -6.08 KCAL/MOL
REMARK 922        TOTAL FREE ENERGY PREDICTED BY IDOCK:  -11.60 KCAL/MOL
REMARK 923 INTER-LIGAND FREE ENERGY PREDICTED BY IDOCK:   -9.71 KCAL/MOL
REMARK 924 INTRA-LIGAND FREE ENERGY PREDICTED BY IDOCK:   -1.88 KCAL/MOL
REMARK 927      BINDING AFFINITY PREDICTED BY RF-SCORE:    0.00 PKD
ROOT
HETATM    1  C   UNL     1     -10.586  13.732  64.565  1.00  0.00    -0.386 C  
HETATM    2  O   UNL     1     -11.639  14.707  64.470  1.00  0.00    -0.397 OA 
ENDROOT
BRANCH   2   3
HETATM    3  C   UNL     1     -11.260  15.962  64.852  1.00  0.00    -0.337 C  
HETATM    4  N   UNL     1     -10.826  15.967  66.160  1.00  0.00    -0.260 N  
HETATM    5  O   UNL     1     -11.319  16.938  64.117  1.00  0.00    -1.208 OA 
HETATM    6  H   UNL     1     -10.821  15.087  66.678  1.00  0.00     0.000 HD 
BRANCH   4   7
HETATM    7  C   UNL     1     -10.367  17.191  66.842  1.00  0.00    -0.308 C  
HETATM    8  C   UNL     1     -10.612  17.008  68.374  1.00  0.00    -0.375 C  
BRANCH   7   9
HETATM    9  C   UNL     1      -8.841  17.584  66.663  1.00  0.00    -0.262 C  
BRANCH   9  10
HETATM   10  N   UNL     1      -7.752  16.593  66.371  1.00  0.00    -0.303 NA 
HETATM   11  H   UNL     1      -7.116  16.791  65.598  1.00  0.00     0.000 HD 
BRANCH  10  12
HETATM   12  C   UNL     1      -7.560  15.406  67.104  1.00  0.00    -0.203 A  
HETATM   13  N   UNL     1      -6.665  15.447  68.092  1.00  0.00    -0.119 NA 
HETATM   14  C   UNL     1      -6.403  14.282  68.693  1.00  0.00    -0.088 A  
HETATM   15  C   UNL     1      -7.046  13.086  68.438  1.00  0.00    -0.103 A  
HETATM   16  C   UNL     1      -7.996  13.064  67.432  1.00  0.00    -0.172 A  
HETATM   17  N   UNL     1      -8.206  14.238  66.714  1.00  0.00     0.021 NA 
BRANCH  16  18
HETATM   18  C   UNL     1      -8.728  11.729  67.187  1.00  0.00    -0.169 A  
HETATM   19  C   UNL     1      -8.364  10.903  66.107  1.00  0.00    -0.168 A  
HETATM   20  N   UNL     1      -9.075   9.737  66.173  1.00  0.00    -0.154 NA 
HETATM   21  C   UNL     1      -9.718  10.873  67.863  1.00  0.00    -0.165 A  
HETATM   22  N   UNL     1      -9.917   9.716  67.194  1.00  0.00    -0.182 NA 
BRANCH  20  23
HETATM   23  C   UNL     1      -8.975   8.542  65.316  1.00  0.00    -0.050 C  
HETATM   24  C   UNL     1      -8.910   7.234  66.117  1.00  0.00    -0.181 C  
HETATM   25  C   UNL     1      -7.767   8.599  64.367  1.00  0.00    -0.126 C  
ENDBRANCH  20  23
BRANCH  21  26
HETATM   26  C   UNL     1     -10.552  11.032  69.055  1.00  0.00    -0.258 A  
HETATM   27  C   UNL     1     -10.815   9.980  69.967  1.00  0.00    -0.352 A  
HETATM   28  C   UNL     1     -11.760  10.139  70.987  1.00  0.00    -0.382 A  
HETATM   29 CL   UNL     1     -11.980   8.931  72.189  1.00  0.00    -0.431 Cl 
HETATM   30  C   UNL     1     -12.551  11.295  71.038  1.00  0.00    -0.495 A  
HETATM   31  C   UNL     1     -12.265  12.301  70.134  1.00  0.00    -0.226 A  
HETATM   32  C   UNL     1     -11.180  12.223  69.283  1.00  0.00    -0.213 A  
HETATM   33  F   UNL     1     -10.744  13.358  68.740  1.00  0.00    -0.237 F  
BRANCH  31  34
HETATM   34  N   UNL     1     -13.039  13.496  70.049  1.00  0.00     0.235 N  
HETATM   35  H   UNL     1     -13.706  13.665  69.297  1.00  0.00     0.000 HD 
BRANCH  34  36
HETATM   36  S   UNL     1     -12.770  14.613  71.287  1.00  0.00    -0.359 S  
HETATM   37  O   UNL     1     -11.356  14.726  71.558  1.00  0.00    -0.252 OA 
HETATM   38  O   UNL     1     -13.581  15.759  70.935  1.00  0.00    -0.538 OA 
HETATM   39  C   UNL     1     -13.557  13.723  72.604  1.00  0.00    -0.507 C  
ENDBRANCH  34  36
ENDBRANCH  31  34
ENDBRANCH  21  26
ENDBRANCH  16  18
ENDBRANCH  10  12
ENDBRANCH   9  10
ENDBRANCH   7   9
ENDBRANCH   4   7
ENDBRANCH   2   3
TORSDOF 10
ENDMDL
MODEL       54
REMARK 921   NORMALIZED FREE ENERGY PREDICTED BY IDOCK:   -6.07 KCAL/MOL
REMARK 922        TOTAL FREE ENERGY PREDICTED BY IDOCK:  -11.58 KCAL/MOL
REMARK 923 INTER-LIGAND FREE ENERGY PREDICTED BY IDOCK:  -10.46 KCAL/MOL
REMARK 924 INTRA-LIGAND FREE ENERGY PREDICTED BY IDOCK:   -1.12 KCAL/MOL
REMARK 927      BINDING AFFINITY PREDICTED BY RF-SCORE:    0.00 PKD
ROOT
HETATM    1  C   UNL     1     -10.690   4.968  72.275  1.00  0.00    -0.180 C  
HETATM    2  O   UNL     1     -11.650   6.005  72.548  1.00  0.00    -0.295 OA 
ENDROOT
BRANCH   2   3
HETATM    3  C   UNL     1     -11.763   6.925  71.546  1.00  0.00    -0.311 C  
HETATM    4  N   UNL     1     -10.973   8.025  71.799  1.00  0.00    -0.240 N  
HETATM    5  O   UNL     1     -12.485   6.775  70.571  1.00  0.00    -0.273 OA 
HETATM    6  H   UNL     1     -10.410   8.039  72.650  1.00  0.00     0.000 HD 
BRANCH   4   7
HETATM    7  C   UNL     1     -10.907   9.184  70.890  1.00  0.00    -0.278 C  
HETATM    8  C   UNL     1     -10.529   8.658  69.468  1.00  0.00    -0.222 C  
BRANCH   7   9
HETATM    9  C   UNL     1     -12.230  10.045  70.727  1.00  0.00    -0.315 C  
BRANCH   9  10
HETATM   10  N   UNL     1     -12.405  11.422  71.298  1.00  0.00    -0.289 NA 
HETATM   11  H   UNL     1     -12.648  11.505  72.286  1.00  0.00     0.000 HD 
BRANCH  10  12
HETATM   12  C   UNL     1     -12.254  12.604  70.548  1.00  0.00    -0.299 A  
HETATM   13  N   UNL     1     -12.600  13.745  71.147  1.00  0.00    -0.360 NA 
HETATM   14  C   UNL     1     -12.571  14.841  70.381  1.00  0.00    -0.346 A  
HETATM   15  C   UNL     1     -12.126  14.892  69.074  1.00  0.00    -0.248 A  
HETATM   16  C   UNL     1     -11.739  13.707  68.474  1.00  0.00    -0.357 A  
HETATM   17  N   UNL     1     -11.867  12.535  69.215  1.00  0.00    -0.313 NA 
BRANCH  16  18
HETATM   18  C   UNL     1     -11.212  13.791  67.028  1.00  0.00    -0.326 A  
HETATM   19  C   UNL     1     -11.504  12.773  66.101  1.00  0.00    -0.351 A  
HETATM   20  N   UNL     1     -11.026  13.133  64.872  1.00  0.00    -0.304 NA 
HETATM   21  C   UNL     1     -10.525  14.762  66.159  1.00  0.00    -0.304 A  
HETATM   22  N   UNL     1     -10.404  14.302  64.893  1.00  0.00    -0.429 NA 
BRANCH  20  23
HETATM   23  C   UNL     1     -11.167  12.434  63.582  1.00  0.00    -0.474 C  
HETATM   24  C   UNL     1     -12.559  11.819  63.383  1.00  0.00    -0.458 C  
HETATM   25  C   UNL     1     -10.111  11.333  63.392  1.00  0.00    -0.445 C  
ENDBRANCH  20  23
BRANCH  21  26
HETATM   26  C   UNL     1      -9.911  16.072  66.385  1.00  0.00    -0.312 A  
HETATM   27  C   UNL     1     -10.526  17.293  66.014  1.00  0.00    -0.285 A  
HETATM   28  C   UNL     1      -9.820  18.499  66.090  1.00  0.00    -0.283 A  
HETATM   29 CL   UNL     1     -10.596  20.003  65.789  1.00  0.00    -0.526 Cl 
HETATM   30  C   UNL     1      -8.456  18.495  66.411  1.00  0.00    -0.275 A  
HETATM   31  C   UNL     1      -7.890  17.286  66.770  1.00  0.00    -0.243 A  
HETATM   32  C   UNL     1      -8.653  16.143  66.911  1.00  0.00    -0.221 A  
HETATM   33  F   UNL     1      -8.134  15.144  67.621  1.00  0.00    -0.128 F  
BRANCH  31  34
HETATM   34  N   UNL     1      -6.500  17.147  67.057  1.00  0.00    -0.171 N  
HETATM   35  H   UNL     1      -5.819  16.868  66.350  1.00  0.00     0.000 HD 
BRANCH  34  36
HETATM   36  S   UNL     1      -6.063  17.475  68.655  1.00  0.00    -0.180 S  
HETATM   37  O   UNL     1      -7.236  17.776  69.442  1.00  0.00    -0.133 OA 
HETATM   38  O   UNL     1      -5.145  16.414  69.013  1.00  0.00    -0.108 OA 
HETATM   39  C   UNL     1      -5.146  18.966  68.363  1.00  0.00    -0.181 C  
ENDBRANCH  34  36
ENDBRANCH  31  34
ENDBRANCH  21  26
ENDBRANCH  16  18
ENDBRANCH  10  12
ENDBRANCH   9  10
ENDBRANCH   7   9
ENDBRANCH   4   7
ENDBRANCH   2   3
TORSDOF 10
ENDMDL
MODEL       55
REMARK 921   NORMALIZED FREE ENERGY PREDICTED BY IDOCK:   -6.06 KCAL/MOL
REMARK 922        TOTAL FREE ENERGY PREDICTED BY IDOCK:  -11.56 KCAL/MOL
REMARK 923 INTER-LIGAND FREE ENERGY PREDICTED BY IDOCK:  -10.11 KCAL/MOL
REMARK 924 INTRA-LIGAND FREE ENERGY PREDICTED BY IDOCK:   -1.45 KCAL/MOL
REMARK 927      BINDING AFFINITY PREDICTED BY RF-SCORE:    0.00 PKD
ROOT
HETATM    1  C   UNL     1      -8.214   8.383  63.608  1.00  0.00    -0.104 C  
HETATM    2  O   UNL     1      -8.317   8.770  64.990  1.00  0.00    -0.152 OA 
ENDROOT
BRANCH   2   3
HETATM    3  C   UNL     1      -8.434   7.714  65.847  1.00  0.00    -0.143 C  
HETATM    4  N   UNL     1      -9.759   7.402  66.064  1.00  0.00    -0.419 N  
HETATM    5  O   UNL     1      -7.476   7.145  66.352  1.00  0.00    -0.083 OA 
HETATM    6  H   UNL     1     -10.475   7.949  65.585  1.00  0.00     0.000 HD 
BRANCH   4   7
HETATM    7  C   UNL     1     -10.183   6.309  66.958  1.00  0.00    -0.201 C  
HETATM    8  C   UNL     1      -9.680   4.963  66.345  1.00  0.00    -0.200 C  
BRANCH   7   9
HETATM    9  C   UNL     1      -9.657   6.360  68.454  1.00  0.00    -0.125 C  
BRANCH   9  10
HETATM   10  N   UNL     1     -10.449   6.921  69.599  1.00  0.00    -0.209 NA 
HETATM   11  H   UNL     1     -10.771   6.278  70.322  1.00  0.00     0.000 HD 
BRANCH  10  12
HETATM   12  C   UNL     1     -10.775   8.285  69.729  1.00  0.00    -0.221 A  
HETATM   13  N   UNL     1     -11.232   8.684  70.918  1.00  0.00    -0.261 NA 
HETATM   14  C   UNL     1     -11.655   9.950  70.987  1.00  0.00    -0.389 A  
HETATM   15  C   UNL     1     -11.563  10.882  69.971  1.00  0.00    -0.424 A  
HETATM   16  C   UNL     1     -11.056  10.465  68.754  1.00  0.00    -0.250 A  
HETATM   17  N   UNL     1     -10.715   9.122  68.621  1.00  0.00    -0.165 NA 
BRANCH  16  18
HETATM   18  C   UNL     1     -10.929  11.528  67.645  1.00  0.00    -0.296 A  
HETATM   19  C   UNL     1     -10.980  11.155  66.288  1.00  0.00    -0.163 A  
HETATM   20  N   UNL     1     -10.960  12.280  65.512  1.00  0.00    -0.289 NA 
HETATM   21  C   UNL     1     -10.890  12.996  67.522  1.00  0.00    -0.247 A  
HETATM   22  N   UNL     1     -10.868  13.389  66.229  1.00  0.00    -0.287 NA 
BRANCH  20  23
HETATM   23  C   UNL     1     -11.081  12.396  64.047  1.00  0.00    -0.396 C  
HETATM   24  C   UNL     1     -12.534  12.326  63.558  1.00  0.00    -0.642 C  
HETATM   25  C   UNL     1     -10.259  11.331  63.303  1.00  0.00    -0.417 C  
ENDBRANCH  20  23
BRANCH  21  26
HETATM   26  C   UNL     1     -10.818  14.094  68.487  1.00  0.00    -0.264 A  
HETATM   27  C   UNL     1     -11.826  14.351  69.450  1.00  0.00    -0.369 A  
HETATM   28  C   UNL     1     -11.792  15.515  70.225  1.00  0.00    -0.357 A  
HETATM   29 CL   UNL     1     -12.919  15.768  71.498  1.00  0.00    -0.531 Cl 
HETATM   30  C   UNL     1     -10.832  16.503  69.968  1.00  0.00    -0.258 A  
HETATM   31  C   UNL     1      -9.863  16.217  69.024  1.00  0.00    -0.245 A  
HETATM   32  C   UNL     1      -9.775  14.973  68.431  1.00  0.00    -0.216 A  
HETATM   33  F   UNL     1      -8.619  14.650  67.853  1.00  0.00    -0.146 F  
BRANCH  31  34
HETATM   34  N   UNL     1      -8.871  17.165  68.634  1.00  0.00    -0.270 N  
HETATM   35  H   UNL     1      -8.042  17.355  69.198  1.00  0.00     0.000 HD 
BRANCH  34  36
HETATM   36  S   UNL     1      -9.170  17.951  67.169  1.00  0.00    -0.264 S  
HETATM   37  O   UNL     1      -8.555  17.228  66.081  1.00  0.00    -0.424 OA 
HETATM   38  O   UNL     1     -10.585  18.252  67.193  1.00  0.00    -0.395 OA 
HETATM   39  C   UNL     1      -8.252  19.435  67.489  1.00  0.00    -0.286 C  
ENDBRANCH  34  36
ENDBRANCH  31  34
ENDBRANCH  21  26
ENDBRANCH  16  18
ENDBRANCH  10  12
ENDBRANCH   9  10
ENDBRANCH   7   9
ENDBRANCH   4   7
ENDBRANCH   2   3
TORSDOF 10
ENDMDL
MODEL       56
REMARK 921   NORMALIZED FREE ENERGY PREDICTED BY IDOCK:   -6.05 KCAL/MOL
REMARK 922        TOTAL FREE ENERGY PREDICTED BY IDOCK:  -11.54 KCAL/MOL
REMARK 923 INTER-LIGAND FREE ENERGY PREDICTED BY IDOCK:   -9.76 KCAL/MOL
REMARK 924 INTRA-LIGAND FREE ENERGY PREDICTED BY IDOCK:   -1.77 KCAL/MOL
REMARK 927      BINDING AFFINITY PREDICTED BY RF-SCORE:    0.00 PKD
ROOT
HETATM    1  C   UNL     1     -11.624  15.169  70.936  1.00  0.00    -0.338 C  
HETATM    2  O   UNL     1     -11.209  14.530  69.715  1.00  0.00    -0.255 OA 
ENDROOT
BRANCH   2   3
HETATM    3  C   UNL     1     -11.342  15.320  68.610  1.00  0.00    -0.317 C  
HETATM    4  N   UNL     1     -11.492  14.554  67.474  1.00  0.00    -0.340 N  
HETATM    5  O   UNL     1     -11.314  16.543  68.647  1.00  0.00    -0.344 OA 
HETATM    6  H   UNL     1     -11.499  13.538  67.566  1.00  0.00     0.000 HD 
BRANCH   4   7
HETATM    7  C   UNL     1     -11.644  15.144  66.131  1.00  0.00    -0.080 C  
HETATM    8  C   UNL     1     -10.242  15.135  65.441  1.00  0.00    -0.402 C  
BRANCH   7   9
HETATM    9  C   UNL     1     -12.650  14.422  65.139  1.00  0.00    -0.315 C  
BRANCH   9  10
HETATM   10  N   UNL     1     -12.306  13.195  64.348  1.00  0.00    -0.542 NA 
HETATM   11  H   UNL     1     -12.689  13.106  63.406  1.00  0.00     0.000 HD 
BRANCH  10  12
HETATM   12  C   UNL     1     -11.483  12.158  64.832  1.00  0.00    -0.325 A  
HETATM   13  N   UNL     1     -10.622  11.621  63.967  1.00  0.00    -0.336 NA 
HETATM   14  C   UNL     1      -9.940  10.556  64.405  1.00  0.00    -0.343 A  
HETATM   15  C   UNL     1      -9.991  10.046  65.687  1.00  0.00    -0.355 A  
HETATM   16  C   UNL     1     -10.865  10.633  66.585  1.00  0.00    -0.131 A  
HETATM   17  N   UNL     1     -11.669  11.671  66.120  1.00  0.00    -0.376 NA 
BRANCH  16  18
HETATM   18  C   UNL     1     -10.880  10.072  68.020  1.00  0.00    -0.311 A  
HETATM   19  C   UNL     1     -11.611  10.721  69.033  1.00  0.00    -0.299 A  
HETATM   20  N   UNL     1     -11.558   9.972  70.176  1.00  0.00    -0.262 NA 
HETATM   21  C   UNL     1     -10.426   8.869  68.740  1.00  0.00    -0.200 A  
HETATM   22  N   UNL     1     -10.823   8.880  70.032  1.00  0.00    -0.231 NA 
BRANCH  20  23
HETATM   23  C   UNL     1     -12.238  10.200  71.464  1.00  0.00    -0.380 C  
HETATM   24  C   UNL     1     -13.336   9.167  71.753  1.00  0.00    -0.469 C  
HETATM   25  C   UNL     1     -12.846  11.607  71.567  1.00  0.00    -0.469 C  
ENDBRANCH  20  23
BRANCH  21  26
HETATM   26  C   UNL     1      -9.607   7.713  68.371  1.00  0.00    -0.155 A  
HETATM   27  C   UNL     1      -8.422   7.348  69.056  1.00  0.00    -0.129 A  
HETATM   28  C   UNL     1      -7.586   6.346  68.552  1.00  0.00    -0.097 A  
HETATM   29 CL   UNL     1      -6.229   5.788  69.447  1.00  0.00    -0.031 Cl 
HETATM   30  C   UNL     1      -7.845   5.781  67.296  1.00  0.00    -0.102 A  
HETATM   31  C   UNL     1      -9.012   6.159  66.658  1.00  0.00    -0.130 A  
HETATM   32  C   UNL     1      -9.940   6.977  67.270  1.00  0.00    -0.181 A  
HETATM   33  F   UNL     1     -11.178   6.976  66.778  1.00  0.00    -0.458 F  
BRANCH  31  34
HETATM   34  N   UNL     1      -9.352   5.699  65.351  1.00  0.00    -0.362 N  
HETATM   35  H   UNL     1      -9.230   6.275  64.518  1.00  0.00     0.000 HD 
BRANCH  34  36
HETATM   36  S   UNL     1      -9.973   4.130  65.283  1.00  0.00    -0.192 S  
HETATM   37  O   UNL     1      -9.765   3.456  66.543  1.00  0.00    -0.114 OA 
HETATM   38  O   UNL     1     -11.287   4.277  64.694  1.00  0.00    -0.298 OA 
HETATM   39  C   UNL     1      -8.859   3.472  64.068  1.00  0.00    -0.097 C  
ENDBRANCH  34  36
ENDBRANCH  31  34
ENDBRANCH  21  26
ENDBRANCH  16  18
ENDBRANCH  10  12
ENDBRANCH   9  10
ENDBRANCH   7   9
ENDBRANCH   4   7
ENDBRANCH   2   3
TORSDOF 10
ENDMDL
MODEL       57
REMARK 921   NORMALIZED FREE ENERGY PREDICTED BY IDOCK:   -6.03 KCAL/MOL
REMARK 922        TOTAL FREE ENERGY PREDICTED BY IDOCK:  -11.51 KCAL/MOL
REMARK 923 INTER-LIGAND FREE ENERGY PREDICTED BY IDOCK:   -9.66 KCAL/MOL
REMARK 924 INTRA-LIGAND FREE ENERGY PREDICTED BY IDOCK:   -1.85 KCAL/MOL
REMARK 927      BINDING AFFINITY PREDICTED BY RF-SCORE:    0.00 PKD
ROOT
HETATM    1  C   UNL     1      -5.303   7.137  68.486  1.00  0.00    -0.021 C  
HETATM    2  O   UNL     1      -5.796   5.786  68.541  1.00  0.00    -0.017 OA 
ENDROOT
BRANCH   2   3
HETATM    3  C   UNL     1      -7.068   5.686  69.025  1.00  0.00    -0.068 C  
HETATM    4  N   UNL     1      -7.910   5.132  68.085  1.00  0.00    -0.087 N  
HETATM    5  O   UNL     1      -7.395   6.057  70.144  1.00  0.00    -0.073 OA 
HETATM    6  H   UNL     1      -7.522   4.860  67.181  1.00  0.00     0.000 HD 
BRANCH   4   7
HETATM    7  C   UNL     1      -9.347   4.917  68.332  1.00  0.00    -0.131 C  
HETATM    8  C   UNL     1      -9.513   3.522  69.018  1.00  0.00    -0.213 C  
BRANCH   7   9
HETATM    9  C   UNL     1     -10.084   5.975  69.256  1.00  0.00    -0.185 C  
BRANCH   9  10
HETATM   10  N   UNL     1     -10.069   7.455  69.005  1.00  0.00    -0.187 NA 
HETATM   11  H   UNL     1      -9.608   7.796  68.161  1.00  0.00     0.000 HD 
BRANCH  10  12
HETATM   12  C   UNL     1     -10.655   8.400  69.871  1.00  0.00    -0.228 A  
HETATM   13  N   UNL     1     -10.942   7.987  71.106  1.00  0.00    -0.239 NA 
HETATM   14  C   UNL     1     -11.612   8.854  71.873  1.00  0.00    -0.371 A  
HETATM   15  C   UNL     1     -11.934  10.151  71.520  1.00  0.00    -0.404 A  
HETATM   16  C   UNL     1     -11.601  10.578  70.247  1.00  0.00    -0.332 A  
HETATM   17  N   UNL     1     -11.005   9.656  69.390  1.00  0.00    -0.219 NA 
BRANCH  16  18
HETATM   18  C   UNL     1     -11.937  12.038  69.886  1.00  0.00    -0.391 A  
HETATM   19  C   UNL     1     -12.496  12.901  70.847  1.00  0.00    -0.296 A  
HETATM   20  N   UNL     1     -12.593  14.159  70.321  1.00  0.00    -0.339 NA 
HETATM   21  C   UNL     1     -11.727  12.976  68.768  1.00  0.00    -0.324 A  
HETATM   22  N   UNL     1     -12.173  14.216  69.066  1.00  0.00    -0.303 NA 
BRANCH  20  23
HETATM   23  C   UNL     1     -13.033  15.405  70.974  1.00  0.00    -0.492 C  
HETATM   24  C   UNL     1     -11.996  15.965  71.958  1.00  0.00    -0.602 C  
HETATM   25  C   UNL     1     -14.372  15.241  71.711  1.00  0.00    -0.678 C  
ENDBRANCH  20  23
BRANCH  21  26
HETATM   26  C   UNL     1     -11.195  12.836  67.412  1.00  0.00    -0.337 A  
HETATM   27  C   UNL     1     -11.963  13.078  66.246  1.00  0.00    -0.477 A  
HETATM   28  C   UNL     1     -11.460  12.757  64.981  1.00  0.00    -0.321 A  
HETATM   29 CL   UNL     1     -12.314  13.183  63.551  1.00  0.00    -0.531 Cl 
HETATM   30  C   UNL     1     -10.243  12.073  64.862  1.00  0.00    -0.302 A  
HETATM   31  C   UNL     1      -9.520  11.856  66.019  1.00  0.00    -0.229 A  
HETATM   32  C   UNL     1      -9.921  12.379  67.233  1.00  0.00    -0.206 A  
HETATM   33  F   UNL     1      -9.004  12.469  68.195  1.00  0.00    -0.174 F  
BRANCH  31  34
HETATM   34  N   UNL     1      -8.299  11.118  66.032  1.00  0.00    -0.272 N  
HETATM   35  H   UNL     1      -7.390  11.560  65.897  1.00  0.00     0.000 HD 
BRANCH  34  36
HETATM   36  S   UNL     1      -8.468   9.457  66.288  1.00  0.00    -0.128 S  
HETATM   37  O   UNL     1      -7.915   9.091  67.571  1.00  0.00    -0.100 OA 
HETATM   38  O   UNL     1      -9.840   9.166  65.928  1.00  0.00    -0.286 OA 
HETATM   39  C   UNL     1      -7.393   8.893  64.995  1.00  0.00    -0.095 C  
ENDBRANCH  34  36
ENDBRANCH  31  34
ENDBRANCH  21  26
ENDBRANCH  16  18
ENDBRANCH  10  12
ENDBRANCH   9  10
ENDBRANCH   7   9
ENDBRANCH   4   7
ENDBRANCH   2   3
TORSDOF 10
ENDMDL
MODEL       58
REMARK 921   NORMALIZED FREE ENERGY PREDICTED BY IDOCK:   -6.01 KCAL/MOL
REMARK 922        TOTAL FREE ENERGY PREDICTED BY IDOCK:  -11.48 KCAL/MOL
REMARK 923 INTER-LIGAND FREE ENERGY PREDICTED BY IDOCK:   -9.99 KCAL/MOL
REMARK 924 INTRA-LIGAND FREE ENERGY PREDICTED BY IDOCK:   -1.49 KCAL/MOL
REMARK 927      BINDING AFFINITY PREDICTED BY RF-SCORE:    0.00 PKD
ROOT
HETATM    1  C   UNL     1      -9.482  17.150  66.555  1.00  0.00    -0.273 C  
HETATM    2  O   UNL     1      -9.131  15.798  66.211  1.00  0.00    -0.282 OA 
ENDROOT
BRANCH   2   3
HETATM    3  C   UNL     1      -9.891  15.273  65.207  1.00  0.00    -0.215 C  
HETATM    4  N   UNL     1      -9.689  13.914  65.096  1.00  0.00    -0.573 N  
HETATM    5  O   UNL     1     -10.636  15.942  64.503  1.00  0.00    -0.449 OA 
HETATM    6  H   UNL     1      -9.040  13.462  65.741  1.00  0.00     0.000 HD 
BRANCH   4   7
HETATM    7  C   UNL     1     -10.372  13.087  64.084  1.00  0.00    -0.321 C  
HETATM    8  C   UNL     1     -10.067  11.588  64.403  1.00  0.00    -0.328 C  
BRANCH   7   9
HETATM    9  C   UNL     1     -11.949  13.227  63.988  1.00  0.00    -0.465 C  
BRANCH   9  10
HETATM   10  N   UNL     1     -12.873  13.078  65.160  1.00  0.00    -0.748 NA 
HETATM   11  H   UNL     1     -13.859  12.891  64.975  1.00  0.00     0.000 HD 
BRANCH  10  12
HETATM   12  C   UNL     1     -12.457  13.183  66.502  1.00  0.00    -0.014 A  
HETATM   13  N   UNL     1     -12.312  14.415  66.992  1.00  0.00    -0.251 NA 
HETATM   14  C   UNL     1     -11.796  14.499  68.223  1.00  0.00    -0.312 A  
HETATM   15  C   UNL     1     -11.499  13.426  69.041  1.00  0.00    -0.348 A  
HETATM   16  C   UNL     1     -11.684  12.152  68.532  1.00  0.00    -0.330 A  
HETATM   17  N   UNL     1     -12.114  12.039  67.213  1.00  0.00    -0.521 NA 
BRANCH  16  18
HETATM   18  C   UNL     1     -11.382  10.969  69.473  1.00  0.00    -0.356 A  
HETATM   19  C   UNL     1     -12.151  10.767  70.635  1.00  0.00    -0.370 A  
HETATM   20  N   UNL     1     -11.764   9.599  71.232  1.00  0.00    -0.353 NA 
HETATM   21  C   UNL     1     -10.531   9.766  69.496  1.00  0.00    -0.232 A  
HETATM   22  N   UNL     1     -10.771   9.006  70.588  1.00  0.00    -0.223 NA 
BRANCH  20  23
HETATM   23  C   UNL     1     -12.334   8.932  72.417  1.00  0.00    -0.315 C  
HETATM   24  C   UNL     1     -11.741   7.538  72.663  1.00  0.00    -0.279 C  
HETATM   25  C   UNL     1     -13.864   8.811  72.344  1.00  0.00    -0.477 C  
ENDBRANCH  20  23
BRANCH  21  26
HETATM   26  C   UNL     1      -9.467   9.259  68.630  1.00  0.00    -0.148 A  
HETATM   27  C   UNL     1      -8.186   9.859  68.538  1.00  0.00    -0.106 A  
HETATM   28  C   UNL     1      -7.271   9.442  67.565  1.00  0.00    -0.079 A  
HETATM   29 CL   UNL     1      -5.665  10.053  67.538  1.00  0.00    -0.045 Cl 
HETATM   30  C   UNL     1      -7.658   8.516  66.588  1.00  0.00    -0.082 A  
HETATM   31  C   UNL     1      -8.913   7.949  66.710  1.00  0.00    -0.145 A  
HETATM   32  C   UNL     1      -9.717   8.201  67.804  1.00  0.00    -0.157 A  
HETATM   33  F   UNL     1     -10.707   7.343  68.048  1.00  0.00    -0.243 F  
BRANCH  31  34
HETATM   34  N   UNL     1      -9.440   7.041  65.744  1.00  0.00    -0.374 N  
HETATM   35  H   UNL     1     -10.208   7.291  65.120  1.00  0.00     0.000 HD 
BRANCH  34  36
HETATM   36  S   UNL     1      -8.702   5.523  65.711  1.00  0.00    -0.153 S  
HETATM   37  O   UNL     1      -7.855   5.406  64.547  1.00  0.00    -0.089 OA 
HETATM   38  O   UNL     1      -8.199   5.326  67.054  1.00  0.00    -0.108 OA 
HETATM   39  C   UNL     1     -10.161   4.540  65.483  1.00  0.00    -0.222 C  
ENDBRANCH  34  36
ENDBRANCH  31  34
ENDBRANCH  21  26
ENDBRANCH  16  18
ENDBRANCH  10  12
ENDBRANCH   9  10
ENDBRANCH   7   9
ENDBRANCH   4   7
ENDBRANCH   2   3
TORSDOF 10
ENDMDL
MODEL       59
REMARK 921   NORMALIZED FREE ENERGY PREDICTED BY IDOCK:   -5.99 KCAL/MOL
REMARK 922        TOTAL FREE ENERGY PREDICTED BY IDOCK:  -11.45 KCAL/MOL
REMARK 923 INTER-LIGAND FREE ENERGY PREDICTED BY IDOCK:   -9.83 KCAL/MOL
REMARK 924 INTRA-LIGAND FREE ENERGY PREDICTED BY IDOCK:   -1.62 KCAL/MOL
REMARK 927      BINDING AFFINITY PREDICTED BY RF-SCORE:    0.00 PKD
ROOT
HETATM    1  C   UNL     1     -12.154  13.088  63.628  1.00  0.00    -0.531 C  
HETATM    2  O   UNL     1     -12.865  13.365  64.848  1.00  0.00    -0.688 OA 
ENDROOT
BRANCH   2   3
HETATM    3  C   UNL     1     -12.123  13.157  65.975  1.00  0.00    -0.436 C  
HETATM    4  N   UNL     1     -12.257  14.211  66.853  1.00  0.00    -0.536 N  
HETATM    5  O   UNL     1     -11.429  12.165  66.152  1.00  0.00    -0.346 OA 
HETATM    6  H   UNL     1     -12.867  14.988  66.596  1.00  0.00     0.000 HD 
BRANCH   4   7
HETATM    7  C   UNL     1     -11.556  14.261  68.149  1.00  0.00    -0.332 C  
HETATM    8  C   UNL     1     -11.618  15.732  68.672  1.00  0.00    -0.392 C  
BRANCH   7   9
HETATM    9  C   UNL     1     -12.120  13.335  69.307  1.00  0.00    -0.242 C  
BRANCH   9  10
HETATM   10  N   UNL     1     -11.313  12.274  69.995  1.00  0.00    -0.513 NA 
HETATM   11  H   UNL     1     -10.296  12.363  69.989  1.00  0.00     0.000 HD 
BRANCH  10  12
HETATM   12  C   UNL     1     -11.879  11.161  70.648  1.00  0.00    -0.302 A  
HETATM   13  N   UNL     1     -13.018  11.368  71.310  1.00  0.00    -0.368 NA 
HETATM   14  C   UNL     1     -13.474  10.335  72.027  1.00  0.00    -0.281 A  
HETATM   15  C   UNL     1     -12.918   9.071  72.053  1.00  0.00    -0.470 A  
HETATM   16  C   UNL     1     -11.754   8.860  71.334  1.00  0.00    -0.315 A  
HETATM   17  N   UNL     1     -11.197   9.950  70.671  1.00  0.00    -0.319 NA 
BRANCH  16  18
HETATM   18  C   UNL     1     -11.170   7.433  71.347  1.00  0.00    -0.272 A  
HETATM   19  C   UNL     1     -11.267   6.632  72.500  1.00  0.00    -0.266 A  
HETATM   20  N   UNL     1     -10.782   5.384  72.223  1.00  0.00    -0.225 NA 
HETATM   21  C   UNL     1     -10.583   6.473  70.396  1.00  0.00    -0.233 A  
HETATM   22  N   UNL     1     -10.333   5.280  70.981  1.00  0.00    -0.233 NA 
BRANCH  20  23
HETATM   23  C   UNL     1     -10.755   4.189  73.084  1.00  0.00    -0.194 C  
HETATM   24  C   UNL     1     -10.429   4.512  74.549  1.00  0.00    -0.298 C  
HETATM   25  C   UNL     1      -9.766   3.125  72.583  1.00  0.00    -0.197 C  
ENDBRANCH  20  23
BRANCH  21  26
HETATM   26  C   UNL     1     -10.174   6.554  68.993  1.00  0.00    -0.204 A  
HETATM   27  C   UNL     1     -10.660   5.681  67.989  1.00  0.00    -0.260 A  
HETATM   28  C   UNL     1     -10.101   5.687  66.706  1.00  0.00    -0.197 A  
HETATM   29 CL   UNL     1     -10.778   4.744  65.439  1.00  0.00    -0.170 Cl 
HETATM   30  C   UNL     1      -8.969   6.467  66.437  1.00  0.00    -0.158 A  
HETATM   31  C   UNL     1      -8.524   7.309  67.439  1.00  0.00    -0.119 A  
HETATM   32  C   UNL     1      -9.222   7.460  68.621  1.00  0.00    -0.143 A  
HETATM   33  F   UNL     1      -8.966   8.544  69.350  1.00  0.00    -0.142 F  
BRANCH  31  34
HETATM   34  N   UNL     1      -7.347   8.105  67.304  1.00  0.00    -0.087 N  
HETATM   35  H   UNL     1      -6.553   8.019  67.938  1.00  0.00     0.000 HD 
BRANCH  34  36
HETATM   36  S   UNL     1      -7.366   9.199  66.018  1.00  0.00    -0.095 S  
HETATM   37  O   UNL     1      -7.179   8.502  64.767  1.00  0.00    -0.082 OA 
HETATM   38  O   UNL     1      -8.517  10.041  66.266  1.00  0.00    -0.127 OA 
HETATM   39  C   UNL     1      -5.890  10.093  66.427  1.00  0.00    -0.062 C  
ENDBRANCH  34  36
ENDBRANCH  31  34
ENDBRANCH  21  26
ENDBRANCH  16  18
ENDBRANCH  10  12
ENDBRANCH   9  10
ENDBRANCH   7   9
ENDBRANCH   4   7
ENDBRANCH   2   3
TORSDOF 10
ENDMDL
MODEL       60
REMARK 921   NORMALIZED FREE ENERGY PREDICTED BY IDOCK:   -5.98 KCAL/MOL
REMARK 922        TOTAL FREE ENERGY PREDICTED BY IDOCK:  -11.43 KCAL/MOL
REMARK 923 INTER-LIGAND FREE ENERGY PREDICTED BY IDOCK:   -9.25 KCAL/MOL
REMARK 924 INTRA-LIGAND FREE ENERGY PREDICTED BY IDOCK:   -2.18 KCAL/MOL
REMARK 927      BINDING AFFINITY PREDICTED BY RF-SCORE:    0.00 PKD
ROOT
HETATM    1  C   UNL     1      -9.608   3.613  65.362  1.00  0.00    -0.156 C  
HETATM    2  O   UNL     1     -10.607   4.642  65.485  1.00  0.00    -0.261 OA 
ENDROOT
BRANCH   2   3
HETATM    3  C   UNL     1     -10.480   5.397  66.614  1.00  0.00    -0.298 C  
HETATM    4  N   UNL     1      -9.479   4.905  67.424  1.00  0.00    -0.132 N  
HETATM    5  O   UNL     1     -11.182   6.368  66.860  1.00  0.00    -0.368 OA 
HETATM    6  H   UNL     1      -8.957   4.084  67.114  1.00  0.00     0.000 HD 
BRANCH   4   7
HETATM    7  C   UNL     1      -9.130   5.517  68.719  1.00  0.00    -0.118 C  
HETATM    8  C   UNL     1      -8.749   4.368  69.707  1.00  0.00    -0.111 C  
BRANCH   7   9
HETATM    9  C   UNL     1      -7.924   6.549  68.725  1.00  0.00    -0.111 C  
BRANCH   9  10
HETATM   10  N   UNL     1      -7.938   7.845  69.480  1.00  0.00    -0.114 NA 
HETATM   11  H   UNL     1      -8.195   7.824  70.468  1.00  0.00     0.000 HD 
BRANCH  10  12
HETATM   12  C   UNL     1      -7.618   9.089  68.903  1.00  0.00    -0.083 A  
HETATM   13  N   UNL     1      -6.327   9.329  68.668  1.00  0.00    -0.048 NA 
HETATM   14  C   UNL     1      -6.029  10.560  68.239  1.00  0.00    -0.043 A  
HETATM   15  C   UNL     1      -6.948  11.547  67.935  1.00  0.00    -0.075 A  
HETATM   16  C   UNL     1      -8.287  11.274  68.152  1.00  0.00    -0.143 A  
HETATM   17  N   UNL     1      -8.614  10.039  68.706  1.00  0.00    -0.125 NA 
BRANCH  16  18
HETATM   18  C   UNL     1      -9.298  12.374  67.773  1.00  0.00    -0.196 A  
HETATM   19  C   UNL     1      -9.067  13.203  66.659  1.00  0.00    -0.173 A  
HETATM   20  N   UNL     1     -10.153  14.011  66.467  1.00  0.00    -0.278 NA 
HETATM   21  C   UNL     1     -10.648  12.816  68.167  1.00  0.00    -0.229 A  
HETATM   22  N   UNL     1     -11.093  13.822  67.381  1.00  0.00    -0.290 NA 
BRANCH  20  23
HETATM   23  C   UNL     1     -10.407  14.978  65.384  1.00  0.00    -0.383 C  
HETATM   24  C   UNL     1     -10.403  16.435  65.867  1.00  0.00    -0.378 C  
HETATM   25  C   UNL     1     -11.732  14.706  64.653  1.00  0.00    -0.431 C  
ENDBRANCH  20  23
BRANCH  21  26
HETATM   26  C   UNL     1     -11.567  12.438  69.240  1.00  0.00    -0.379 A  
HETATM   27  C   UNL     1     -12.026  13.345  70.227  1.00  0.00    -0.378 A  
HETATM   28  C   UNL     1     -12.758  12.890  71.330  1.00  0.00    -0.278 A  
HETATM   29 CL   UNL     1     -13.449  13.992  72.453  1.00  0.00    -0.586 Cl 
HETATM   30  C   UNL     1     -12.934  11.515  71.537  1.00  0.00    -0.485 A  
HETATM   31  C   UNL     1     -12.476  10.660  70.552  1.00  0.00    -0.358 A  
HETATM   32  C   UNL     1     -11.959  11.135  69.363  1.00  0.00    -0.349 A  
HETATM   33  F   UNL     1     -11.910  10.291  68.334  1.00  0.00    -0.247 F  
BRANCH  31  34
HETATM   34  N   UNL     1     -12.544   9.240  70.679  1.00  0.00    -0.496 N  
HETATM   35  H   UNL     1     -13.229   8.677  70.174  1.00  0.00     0.000 HD 
BRANCH  34  36
HETATM   36  S   UNL     1     -11.407   8.560  71.726  1.00  0.00    -0.333 S  
HETATM   37  O   UNL     1     -10.117   9.180  71.533  1.00  0.00    -0.319 OA 
HETATM   38  O   UNL     1     -12.064   8.530  73.015  1.00  0.00    -0.199 OA 
HETATM   39  C   UNL     1     -11.386   6.922  71.043  1.00  0.00    -0.299 C  
ENDBRANCH  34  36
ENDBRANCH  31  34
ENDBRANCH  21  26
ENDBRANCH  16  18
ENDBRANCH  10  12
ENDBRANCH   9  10
ENDBRANCH   7   9
ENDBRANCH   4   7
ENDBRANCH   2   3
TORSDOF 10
ENDMDL
MODEL       61
REMARK 921   NORMALIZED FREE ENERGY PREDICTED BY IDOCK:   -5.97 KCAL/MOL
REMARK 922        TOTAL FREE ENERGY PREDICTED BY IDOCK:  -11.42 KCAL/MOL
REMARK 923 INTER-LIGAND FREE ENERGY PREDICTED BY IDOCK:   -9.67 KCAL/MOL
REMARK 924 INTRA-LIGAND FREE ENERGY PREDICTED BY IDOCK:   -1.75 KCAL/MOL
REMARK 927      BINDING AFFINITY PREDICTED BY RF-SCORE:    0.00 PKD
ROOT
HETATM    1  C   UNL     1     -13.276  15.288  70.921  1.00  0.00    -0.450 C  
HETATM    2  O   UNL     1     -12.228  14.968  69.989  1.00  0.00    -0.311 OA 
ENDROOT
BRANCH   2   3
HETATM    3  C   UNL     1     -11.462  16.041  69.635  1.00  0.00    -0.326 C  
HETATM    4  N   UNL     1     -11.264  16.074  68.272  1.00  0.00    -0.356 N  
HETATM    5  O   UNL     1     -11.013  16.844  70.441  1.00  0.00    -0.087 OA 
HETATM    6  H   UNL     1     -11.690  15.347  67.697  1.00  0.00     0.000 HD 
BRANCH   4   7
HETATM    7  C   UNL     1     -10.462  17.120  67.609  1.00  0.00    -0.355 C  
HETATM    8  C   UNL     1      -8.954  16.810  67.877  1.00  0.00    -0.219 C  
BRANCH   7   9
HETATM    9  C   UNL     1     -10.631  17.267  66.039  1.00  0.00    -0.217 C  
BRANCH   9  10
HETATM   10  N   UNL     1     -10.509  16.123  65.075  1.00  0.00    -0.615 NA 
HETATM   11  H   UNL     1     -10.126  16.314  64.148  1.00  0.00     0.000 HD 
BRANCH  10  12
HETATM   12  C   UNL     1     -10.893  14.802  65.378  1.00  0.00    -0.363 A  
HETATM   13  N   UNL     1     -12.120  14.433  65.008  1.00  0.00    -0.406 NA 
HETATM   14  C   UNL     1     -12.514  13.222  65.414  1.00  0.00    -0.489 A  
HETATM   15  C   UNL     1     -11.727  12.308  66.088  1.00  0.00    -0.440 A  
HETATM   16  C   UNL     1     -10.445  12.691  66.437  1.00  0.00    -0.249 A  
HETATM   17  N   UNL     1     -10.049  13.989  66.126  1.00  0.00    -0.300 NA 
BRANCH  16  18
HETATM   18  C   UNL     1      -9.571  11.644  67.157  1.00  0.00    -0.185 A  
HETATM   19  C   UNL     1      -8.219  11.475  66.800  1.00  0.00    -0.164 A  
HETATM   20  N   UNL     1      -7.638  10.579  67.653  1.00  0.00    -0.092 NA 
HETATM   21  C   UNL     1      -9.661  10.740  68.317  1.00  0.00    -0.164 A  
HETATM   22  N   UNL     1      -8.493  10.099  68.543  1.00  0.00    -0.117 NA 
BRANCH  20  23
HETATM   23  C   UNL     1      -6.229  10.151  67.726  1.00  0.00    -0.057 C  
HETATM   24  C   UNL     1      -5.461  10.392  66.420  1.00  0.00    -0.059 C  
HETATM   25  C   UNL     1      -6.084   8.672  68.117  1.00  0.00    -0.051 C  
ENDBRANCH  20  23
BRANCH  21  26
HETATM   26  C   UNL     1     -10.743  10.359  69.225  1.00  0.00    -0.270 A  
HETATM   27  C   UNL     1     -11.430  11.285  70.049  1.00  0.00    -0.359 A  
HETATM   28  C   UNL     1     -12.330  10.842  71.025  1.00  0.00    -0.404 A  
HETATM   29 CL   UNL     1     -13.280  11.953  71.927  1.00  0.00    -0.554 Cl 
HETATM   30  C   UNL     1     -12.464   9.471  71.285  1.00  0.00    -0.432 A  
HETATM   31  C   UNL     1     -11.782   8.597  70.460  1.00  0.00    -0.081 A  
HETATM   32  C   UNL     1     -11.078   9.042  69.358  1.00  0.00     0.018 A  
HETATM   33  F   UNL     1     -10.789   8.148  68.414  1.00  0.00    -0.203 F  
BRANCH  31  34
HETATM   34  N   UNL     1     -11.792   7.185  70.665  1.00  0.00    -0.458 N  
HETATM   35  H   UNL     1     -12.543   6.587  70.320  1.00  0.00     0.000 HD 
BRANCH  34  36
HETATM   36  S   UNL     1     -10.470   6.576  71.521  1.00  0.00    -0.218 S  
HETATM   37  O   UNL     1      -9.360   7.497  71.447  1.00  0.00    -0.142 OA 
HETATM   38  O   UNL     1     -11.020   6.132  72.784  1.00  0.00    -0.237 OA 
HETATM   39  C   UNL     1     -10.139   5.164  70.499  1.00  0.00    -0.256 C  
ENDBRANCH  34  36
ENDBRANCH  31  34
ENDBRANCH  21  26
ENDBRANCH  16  18
ENDBRANCH  10  12
ENDBRANCH   9  10
ENDBRANCH   7   9
ENDBRANCH   4   7
ENDBRANCH   2   3
TORSDOF 10
ENDMDL
MODEL       62
REMARK 921   NORMALIZED FREE ENERGY PREDICTED BY IDOCK:   -5.94 KCAL/MOL
REMARK 922        TOTAL FREE ENERGY PREDICTED BY IDOCK:  -11.37 KCAL/MOL
REMARK 923 INTER-LIGAND FREE ENERGY PREDICTED BY IDOCK:   -9.25 KCAL/MOL
REMARK 924 INTRA-LIGAND FREE ENERGY PREDICTED BY IDOCK:   -2.12 KCAL/MOL
REMARK 927      BINDING AFFINITY PREDICTED BY RF-SCORE:    0.00 PKD
ROOT
HETATM    1  C   UNL     1     -13.459  13.342  72.112  1.00  0.00    -0.562 C  
HETATM    2  O   UNL     1     -12.444  13.308  71.092  1.00  0.00    -0.363 OA 
ENDROOT
BRANCH   2   3
HETATM    3  C   UNL     1     -12.492  14.371  70.237  1.00  0.00    -0.354 C  
HETATM    4  N   UNL     1     -12.048  14.011  68.982  1.00  0.00    -0.434 N  
HETATM    5  O   UNL     1     -12.870  15.486  70.566  1.00  0.00    -0.443 OA 
HETATM    6  H   UNL     1     -11.755  13.046  68.824  1.00  0.00     0.000 HD 
BRANCH   4   7
HETATM    7  C   UNL     1     -11.978  14.964  67.859  1.00  0.00    -0.176 C  
HETATM    8  C   UNL     1     -10.547  15.592  67.849  1.00  0.00    -0.274 C  
BRANCH   7   9
HETATM    9  C   UNL     1     -12.237  14.382  66.406  1.00  0.00    -0.340 C  
BRANCH   9  10
HETATM   10  N   UNL     1     -11.157  13.822  65.527  1.00  0.00    -0.294 NA 
HETATM   11  H   UNL     1     -10.828  14.391  64.747  1.00  0.00     0.000 HD 
BRANCH  10  12
HETATM   12  C   UNL     1     -10.574  12.554  65.719  1.00  0.00    -0.270 A  
HETATM   13  N   UNL     1     -10.679  11.685  64.712  1.00  0.00    -0.296 NA 
HETATM   14  C   UNL     1     -10.233  10.448  64.957  1.00  0.00    -0.264 A  
HETATM   15  C   UNL     1      -9.597  10.042  66.114  1.00  0.00    -0.265 A  
HETATM   16  C   UNL     1      -9.465  10.962  67.139  1.00  0.00    -0.160 A  
HETATM   17  N   UNL     1     -10.022  12.224  66.951  1.00  0.00    -0.210 NA 
BRANCH  16  18
HETATM   18  C   UNL     1      -8.720  10.499  68.407  1.00  0.00    -0.137 A  
HETATM   19  C   UNL     1      -7.383  10.877  68.629  1.00  0.00    -0.101 A  
HETATM   20  N   UNL     1      -6.990  10.441  69.864  1.00  0.00    -0.136 NA 
HETATM   21  C   UNL     1      -9.022   9.810  69.674  1.00  0.00    -0.215 A  
HETATM   22  N   UNL     1      -7.944   9.768  70.489  1.00  0.00    -0.258 NA 
BRANCH  20  23
HETATM   23  C   UNL     1      -5.714  10.672  70.565  1.00  0.00    -0.103 C  
HETATM   24  C   UNL     1      -5.562   9.816  71.829  1.00  0.00    -0.005 C  
HETATM   25  C   UNL     1      -5.510  12.148  70.942  1.00  0.00    -0.127 C  
ENDBRANCH  20  23
BRANCH  21  26
HETATM   26  C   UNL     1     -10.204   9.130  70.204  1.00  0.00    -0.237 A  
HETATM   27  C   UNL     1     -11.253   9.803  70.878  1.00  0.00    -0.429 A  
HETATM   28  C   UNL     1     -12.268   9.084  71.518  1.00  0.00    -0.335 A  
HETATM   29 CL   UNL     1     -13.623   9.884  72.209  1.00  0.00    -0.430 Cl 
HETATM   30  C   UNL     1     -12.189   7.688  71.610  1.00  0.00    -0.346 A  
HETATM   31  C   UNL     1     -11.154   7.064  70.938  1.00  0.00    -0.267 A  
HETATM   32  C   UNL     1     -10.291   7.769  70.122  1.00  0.00    -0.218 A  
HETATM   33  F   UNL     1      -9.594   7.077  69.223  1.00  0.00    -0.153 F  
BRANCH  31  34
HETATM   34  N   UNL     1     -10.935   5.656  71.007  1.00  0.00    -0.221 N  
HETATM   35  H   UNL     1     -11.134   5.031  70.226  1.00  0.00     0.000 HD 
BRANCH  34  36
HETATM   36  S   UNL     1     -10.322   5.098  72.479  1.00  0.00    -0.211 S  
HETATM   37  O   UNL     1      -9.263   5.965  72.939  1.00  0.00    -0.139 OA 
HETATM   38  O   UNL     1     -11.492   4.817  73.283  1.00  0.00    -0.332 OA 
HETATM   39  C   UNL     1      -9.630   3.571  71.900  1.00  0.00    -0.148 C  
ENDBRANCH  34  36
ENDBRANCH  31  34
ENDBRANCH  21  26
ENDBRANCH  16  18
ENDBRANCH  10  12
ENDBRANCH   9  10
ENDBRANCH   7   9
ENDBRANCH   4   7
ENDBRANCH   2   3
TORSDOF 10
ENDMDL
MODEL       63
REMARK 921   NORMALIZED FREE ENERGY PREDICTED BY IDOCK:   -5.94 KCAL/MOL
REMARK 922        TOTAL FREE ENERGY PREDICTED BY IDOCK:  -11.36 KCAL/MOL
REMARK 923 INTER-LIGAND FREE ENERGY PREDICTED BY IDOCK:  -10.62 KCAL/MOL
REMARK 924 INTRA-LIGAND FREE ENERGY PREDICTED BY IDOCK:   -0.74 KCAL/MOL
REMARK 927      BINDING AFFINITY PREDICTED BY RF-SCORE:    0.00 PKD
ROOT
HETATM    1  C   UNL     1      -6.663  20.199  68.541  1.00  0.00    -0.296 C  
HETATM    2  O   UNL     1      -7.403  18.997  68.817  1.00  0.00    -0.308 OA 
ENDROOT
BRANCH   2   3
HETATM    3  C   UNL     1      -8.726  19.080  68.490  1.00  0.00    -0.357 C  
HETATM    4  N   UNL     1      -8.947  18.609  67.213  1.00  0.00    -0.271 N  
HETATM    5  O   UNL     1      -9.580  19.529  69.242  1.00  0.00    -0.361 OA 
HETATM    6  H   UNL     1      -8.153  18.258  66.677  1.00  0.00     0.000 HD 
BRANCH   4   7
HETATM    7  C   UNL     1     -10.284  18.592  66.592  1.00  0.00    -0.404 C  
HETATM    8  C   UNL     1     -10.427  19.885  65.726  1.00  0.00    -0.518 C  
BRANCH   7   9
HETATM    9  C   UNL     1     -10.620  17.364  65.646  1.00  0.00    -0.153 C  
BRANCH   9  10
HETATM   10  N   UNL     1     -10.027  15.995  65.812  1.00  0.00    -0.342 NA 
HETATM   11  H   UNL     1      -9.128  15.915  66.289  1.00  0.00     0.000 HD 
BRANCH  10  12
HETATM   12  C   UNL     1     -10.640  14.816  65.346  1.00  0.00    -0.378 A  
HETATM   13  N   UNL     1     -11.755  14.961  64.627  1.00  0.00    -0.420 NA 
HETATM   14  C   UNL     1     -12.392  13.831  64.302  1.00  0.00    -0.337 A  
HETATM   15  C   UNL     1     -11.940  12.553  64.565  1.00  0.00    -0.472 A  
HETATM   16  C   UNL     1     -10.765  12.416  65.283  1.00  0.00    -0.287 A  
HETATM   17  N   UNL     1     -10.142  13.577  65.732  1.00  0.00    -0.293 NA 
BRANCH  16  18
HETATM   18  C   UNL     1     -10.260  10.981  65.534  1.00  0.00    -0.327 A  
HETATM   19  C   UNL     1      -9.519  10.302  64.548  1.00  0.00    -0.298 A  
HETATM   20  N   UNL     1      -9.092   9.104  65.052  1.00  0.00    -0.194 NA 
HETATM   21  C   UNL     1     -10.181  10.017  66.646  1.00  0.00    -0.223 A  
HETATM   22  N   UNL     1      -9.510   8.899  66.291  1.00  0.00    -0.219 NA 
BRANCH  20  23
HETATM   23  C   UNL     1      -8.220   8.095  64.425  1.00  0.00    -0.101 C  
HETATM   24  C   UNL     1      -7.795   6.985  65.396  1.00  0.00    -0.119 C  
HETATM   25  C   UNL     1      -6.958   8.714  63.803  1.00  0.00    -0.087 C  
ENDBRANCH  20  23
BRANCH  21  26
HETATM   26  C   UNL     1     -10.712   9.995  68.010  1.00  0.00    -0.303 A  
HETATM   27  C   UNL     1     -11.266  11.132  68.648  1.00  0.00    -0.314 A  
HETATM   28  C   UNL     1     -11.592  11.099  70.008  1.00  0.00    -0.338 A  
HETATM   29 CL   UNL     1     -12.402  12.416  70.759  1.00  0.00    -0.444 Cl 
HETATM   30  C   UNL     1     -11.254   9.983  70.785  1.00  0.00    -0.428 A  
HETATM   31  C   UNL     1     -10.718   8.891  70.128  1.00  0.00    -0.225 A  
HETATM   32  C   UNL     1     -10.613   8.853  68.752  1.00  0.00    -0.157 A  
HETATM   33  F   UNL     1     -10.467   7.659  68.181  1.00  0.00    -0.214 F  
BRANCH  31  34
HETATM   34  N   UNL     1     -10.279   7.722  70.819  1.00  0.00    -0.197 N  
HETATM   35  H   UNL     1      -9.352   7.319  70.680  1.00  0.00     0.000 HD 
BRANCH  34  36
HETATM   36  S   UNL     1     -11.406   7.054  71.884  1.00  0.00    -0.268 S  
HETATM   37  O   UNL     1     -11.338   7.719  73.164  1.00  0.00    -0.374 OA 
HETATM   38  O   UNL     1     -12.634   6.975  71.121  1.00  0.00    -0.377 OA 
HETATM   39  C   UNL     1     -10.696   5.434  72.018  1.00  0.00    -0.220 C  
ENDBRANCH  34  36
ENDBRANCH  31  34
ENDBRANCH  21  26
ENDBRANCH  16  18
ENDBRANCH  10  12
ENDBRANCH   9  10
ENDBRANCH   7   9
ENDBRANCH   4   7
ENDBRANCH   2   3
TORSDOF 10
ENDMDL
MODEL       64
REMARK 921   NORMALIZED FREE ENERGY PREDICTED BY IDOCK:   -5.93 KCAL/MOL
REMARK 922        TOTAL FREE ENERGY PREDICTED BY IDOCK:  -11.35 KCAL/MOL
REMARK 923 INTER-LIGAND FREE ENERGY PREDICTED BY IDOCK:   -9.37 KCAL/MOL
REMARK 924 INTRA-LIGAND FREE ENERGY PREDICTED BY IDOCK:   -1.97 KCAL/MOL
REMARK 927      BINDING AFFINITY PREDICTED BY RF-SCORE:    0.00 PKD
ROOT
HETATM    1  C   UNL     1      -5.614   9.747  66.988  1.00  0.00    -0.046 C  
HETATM    2  O   UNL     1      -6.851   9.221  66.475  1.00  0.00    -0.078 OA 
ENDROOT
BRANCH   2   3
HETATM    3  C   UNL     1      -7.485   8.373  67.337  1.00  0.00    -0.093 C  
HETATM    4  N   UNL     1      -8.024   9.066  68.399  1.00  0.00    -0.103 N  
HETATM    5  O   UNL     1      -7.543   7.162  67.172  1.00  0.00    -0.099 OA 
HETATM    6  H   UNL     1      -7.912  10.080  68.430  1.00  0.00     0.000 HD 
BRANCH   4   7
HETATM    7  C   UNL     1      -8.757   8.402  69.493  1.00  0.00    -0.137 C  
HETATM    8  C   UNL     1      -8.498   9.210  70.805  1.00  0.00    -0.256 C  
BRANCH   7   9
HETATM    9  C   UNL     1     -10.330   8.276  69.332  1.00  0.00    -0.222 C  
BRANCH   9  10
HETATM   10  N   UNL     1     -11.108   8.911  68.216  1.00  0.00    -0.446 NA 
HETATM   11  H   UNL     1     -11.816   8.350  67.743  1.00  0.00     0.000 HD 
BRANCH  10  12
HETATM   12  C   UNL     1     -10.915  10.238  67.786  1.00  0.00    -0.300 A  
HETATM   13  N   UNL     1     -10.427  10.407  66.556  1.00  0.00    -0.223 NA 
HETATM   14  C   UNL     1     -10.130  11.664  66.211  1.00  0.00    -0.221 A  
HETATM   15  C   UNL     1     -10.378  12.785  66.980  1.00  0.00    -0.240 A  
HETATM   16  C   UNL     1     -10.915  12.599  68.241  1.00  0.00    -0.248 A  
HETATM   17  N   UNL     1     -11.127  11.291  68.668  1.00  0.00    -0.211 NA 
BRANCH  16  18
HETATM   18  C   UNL     1     -11.218  13.864  69.069  1.00  0.00    -0.312 A  
HETATM   19  C   UNL     1     -12.379  13.939  69.861  1.00  0.00    -0.300 A  
HETATM   20  N   UNL     1     -12.360  15.102  70.579  1.00  0.00    -0.332 NA 
HETATM   21  C   UNL     1     -10.550  15.123  69.445  1.00  0.00    -0.255 A  
HETATM   22  N   UNL     1     -11.293  15.842  70.316  1.00  0.00    -0.344 NA 
BRANCH  20  23
HETATM   23  C   UNL     1     -13.311  15.576  71.600  1.00  0.00    -0.498 C  
HETATM   24  C   UNL     1     -12.621  16.074  72.877  1.00  0.00    -0.577 C  
HETATM   25  C   UNL     1     -14.343  14.503  71.984  1.00  0.00    -0.639 C  
ENDBRANCH  20  23
BRANCH  21  26
HETATM   26  C   UNL     1      -9.301  15.770  69.042  1.00  0.00    -0.244 A  
HETATM   27  C   UNL     1      -8.099  15.672  69.786  1.00  0.00     0.054 A  
HETATM   28  C   UNL     1      -6.987  16.453  69.452  1.00  0.00    -0.210 A  
HETATM   29 CL   UNL     1      -5.479  16.237  70.247  1.00  0.00    -0.179 Cl 
HETATM   30  C   UNL     1      -7.092  17.435  68.458  1.00  0.00    -0.219 A  
HETATM   31  C   UNL     1      -8.278  17.500  67.751  1.00  0.00    -0.219 A  
HETATM   32  C   UNL     1      -9.284  16.572  67.937  1.00  0.00    -0.211 A  
HETATM   33  F   UNL     1     -10.199  16.459  66.977  1.00  0.00    -0.258 F  
BRANCH  31  34
HETATM   34  N   UNL     1      -8.524  18.495  66.759  1.00  0.00    -0.273 N  
HETATM   35  H   UNL     1      -8.203  18.400  65.795  1.00  0.00     0.000 HD 
BRANCH  34  36
HETATM   36  S   UNL     1      -9.387  19.844  67.297  1.00  0.00    -0.378 S  
HETATM   37  O   UNL     1     -10.136  19.514  68.487  1.00  0.00    -0.409 OA 
HETATM   38  O   UNL     1      -8.433  20.931  67.263  1.00  0.00    -0.247 OA 
HETATM   39  C   UNL     1     -10.497  19.997  65.921  1.00  0.00    -0.406 C  
ENDBRANCH  34  36
ENDBRANCH  31  34
ENDBRANCH  21  26
ENDBRANCH  16  18
ENDBRANCH  10  12
ENDBRANCH   9  10
ENDBRANCH   7   9
ENDBRANCH   4   7
ENDBRANCH   2   3
TORSDOF 10
ENDMDL
MODEL       65
REMARK 921   NORMALIZED FREE ENERGY PREDICTED BY IDOCK:   -5.92 KCAL/MOL
REMARK 922        TOTAL FREE ENERGY PREDICTED BY IDOCK:  -11.34 KCAL/MOL
REMARK 923 INTER-LIGAND FREE ENERGY PREDICTED BY IDOCK:   -9.61 KCAL/MOL
REMARK 924 INTRA-LIGAND FREE ENERGY PREDICTED BY IDOCK:   -1.73 KCAL/MOL
REMARK 927      BINDING AFFINITY PREDICTED BY RF-SCORE:    0.00 PKD
ROOT
HETATM    1  C   UNL     1      -6.307  17.042  66.679  1.00  0.00    -0.212 C  
HETATM    2  O   UNL     1      -6.631  16.218  67.813  1.00  0.00    -0.120 OA 
ENDROOT
BRANCH   2   3
HETATM    3  C   UNL     1      -7.771  16.599  68.460  1.00  0.00    -0.215 C  
HETATM    4  N   UNL     1      -8.270  17.769  67.927  1.00  0.00    -0.231 N  
HETATM    5  O   UNL     1      -8.258  15.977  69.393  1.00  0.00    -0.235 OA 
HETATM    6  H   UNL     1      -7.776  18.201  67.146  1.00  0.00     0.000 HD 
BRANCH   4   7
HETATM    7  C   UNL     1      -9.489  18.421  68.441  1.00  0.00    -0.332 C  
HETATM    8  C   UNL     1      -9.503  19.893  67.917  1.00  0.00    -0.469 C  
BRANCH   7   9
HETATM    9  C   UNL     1     -10.877  17.772  68.032  1.00  0.00    -0.207 C  
BRANCH   9  10
HETATM   10  N   UNL     1     -11.095  16.295  67.874  1.00  0.00    -0.310 NA 
HETATM   11  H   UNL     1     -10.833  15.862  66.989  1.00  0.00     0.000 HD 
BRANCH  10  12
HETATM   12  C   UNL     1     -11.641  15.475  68.881  1.00  0.00    -0.373 A  
HETATM   13  N   UNL     1     -12.312  16.087  69.858  1.00  0.00    -0.129 NA 
HETATM   14  C   UNL     1     -12.713  15.309  70.869  1.00  0.00    -0.435 A  
HETATM   15  C   UNL     1     -12.573  13.935  70.926  1.00  0.00    -0.431 A  
HETATM   16  C   UNL     1     -11.904  13.308  69.890  1.00  0.00    -0.310 A  
HETATM   17  N   UNL     1     -11.376  14.110  68.882  1.00  0.00    -0.260 NA 
BRANCH  16  18
HETATM   18  C   UNL     1     -11.790  11.772  69.956  1.00  0.00    -0.422 A  
HETATM   19  C   UNL     1     -12.301  11.065  71.060  1.00  0.00    -0.385 A  
HETATM   20  N   UNL     1     -12.181   9.722  70.829  1.00  0.00    -0.278 NA 
HETATM   21  C   UNL     1     -11.384  10.657  69.082  1.00  0.00    -0.273 A  
HETATM   22  N   UNL     1     -11.601   9.459  69.668  1.00  0.00     0.099 NA 
BRANCH  20  23
HETATM   23  C   UNL     1     -12.652   8.595  71.654  1.00  0.00    -0.338 C  
HETATM   24  C   UNL     1     -13.953   8.905  72.406  1.00  0.00    -0.516 C  
HETATM   25  C   UNL     1     -11.596   8.129  72.669  1.00  0.00    -0.441 C  
ENDBRANCH  20  23
BRANCH  21  26
HETATM   26  C   UNL     1     -10.759  10.578  67.761  1.00  0.00    -0.319 A  
HETATM   27  C   UNL     1     -11.265  11.248  66.620  1.00  0.00    -0.247 A  
HETATM   28  C   UNL     1     -10.735  10.995  65.350  1.00  0.00    -0.152 A  
HETATM   29 CL   UNL     1     -11.233  11.907  63.981  1.00  0.00    -0.435 Cl 
HETATM   30  C   UNL     1      -9.785   9.979  65.175  1.00  0.00    -0.380 A  
HETATM   31  C   UNL     1      -9.313   9.349  66.310  1.00  0.00    -0.198 A  
HETATM   32  C   UNL     1      -9.677   9.766  67.576  1.00  0.00    -0.157 A  
HETATM   33  F   UNL     1      -8.903   9.390  68.592  1.00  0.00    -0.126 F  
BRANCH  31  34
HETATM   34  N   UNL     1      -8.392   8.261  66.255  1.00  0.00    -0.118 N  
HETATM   35  H   UNL     1      -7.391   8.396  66.110  1.00  0.00     0.000 HD 
BRANCH  34  36
HETATM   36  S   UNL     1      -9.079   6.730  66.446  1.00  0.00    -0.137 S  
HETATM   37  O   UNL     1     -10.478   6.850  66.783  1.00  0.00    -0.257 OA 
HETATM   38  O   UNL     1      -8.624   5.974  65.299  1.00  0.00    -0.151 OA 
HETATM   39  C   UNL     1      -8.165   6.222  67.879  1.00  0.00    -0.114 C  
ENDBRANCH  34  36
ENDBRANCH  31  34
ENDBRANCH  21  26
ENDBRANCH  16  18
ENDBRANCH  10  12
ENDBRANCH   9  10
ENDBRANCH   7   9
ENDBRANCH   4   7
ENDBRANCH   2   3
TORSDOF 10
ENDMDL
MODEL       66
REMARK 921   NORMALIZED FREE ENERGY PREDICTED BY IDOCK:   -5.91 KCAL/MOL
REMARK 922        TOTAL FREE ENERGY PREDICTED BY IDOCK:  -11.33 KCAL/MOL
REMARK 923 INTER-LIGAND FREE ENERGY PREDICTED BY IDOCK:  -10.10 KCAL/MOL
REMARK 924 INTRA-LIGAND FREE ENERGY PREDICTED BY IDOCK:   -1.23 KCAL/MOL
REMARK 927      BINDING AFFINITY PREDICTED BY RF-SCORE:    0.00 PKD
ROOT
HETATM    1  C   UNL     1     -12.525  12.252  63.677  1.00  0.00    -0.541 C  
HETATM    2  O   UNL     1     -13.053  13.098  64.714  1.00  0.00    -0.728 OA 
ENDROOT
BRANCH   2   3
HETATM    3  C   UNL     1     -12.346  13.043  65.880  1.00  0.00    -0.368 C  
HETATM    4  N   UNL     1     -12.110  14.308  66.372  1.00  0.00    -0.431 N  
HETATM    5  O   UNL     1     -11.972  11.997  66.394  1.00  0.00    -0.611 OA 
HETATM    6  H   UNL     1     -12.472  15.110  65.855  1.00  0.00     0.000 HD 
BRANCH   4   7
HETATM    7  C   UNL     1     -11.356  14.551  67.616  1.00  0.00    -0.337 C  
HETATM    8  C   UNL     1     -11.516  16.060  67.988  1.00  0.00    -0.199 C  
BRANCH   7   9
HETATM    9  C   UNL     1     -11.786  13.713  68.892  1.00  0.00    -0.364 C  
BRANCH   9  10
HETATM   10  N   UNL     1     -11.032  12.518  69.399  1.00  0.00    -0.450 NA 
HETATM   11  H   UNL     1     -10.046  12.431  69.152  1.00  0.00     0.000 HD 
BRANCH  10  12
HETATM   12  C   UNL     1     -11.610  11.511  70.197  1.00  0.00    -0.249 A  
HETATM   13  N   UNL     1     -12.708  11.839  70.879  1.00  0.00    -0.283 NA 
HETATM   14  C   UNL     1     -13.170  10.913  71.726  1.00  0.00    -0.408 A  
HETATM   15  C   UNL     1     -12.661   9.637  71.872  1.00  0.00    -0.499 A  
HETATM   16  C   UNL     1     -11.541   9.298  71.134  1.00  0.00    -0.327 A  
HETATM   17  N   UNL     1     -10.974  10.282  70.329  1.00  0.00    -0.303 NA 
BRANCH  16  18
HETATM   18  C   UNL     1     -11.012   7.857  71.283  1.00  0.00    -0.266 A  
HETATM   19  C   UNL     1     -11.316   7.100  72.430  1.00  0.00    -0.274 A  
HETATM   20  N   UNL     1     -10.833   5.831  72.272  1.00  0.00    -0.237 NA 
HETATM   21  C   UNL     1     -10.311   6.849  70.469  1.00  0.00    -0.204 A  
HETATM   22  N   UNL     1     -10.195   5.671  71.123  1.00  0.00    -0.210 NA 
BRANCH  20  23
HETATM   23  C   UNL     1     -10.982   4.666  73.163  1.00  0.00    -0.286 C  
HETATM   24  C   UNL     1     -10.222   4.823  74.487  1.00  0.00    -0.302 C  
HETATM   25  C   UNL     1     -10.540   3.354  72.495  1.00  0.00    -0.069 C  
ENDBRANCH  20  23
BRANCH  21  26
HETATM   26  C   UNL     1      -9.680   6.870  69.149  1.00  0.00    -0.155 A  
HETATM   27  C   UNL     1      -8.725   7.840  68.758  1.00  0.00    -0.128 A  
HETATM   28  C   UNL     1      -8.290   7.920  67.430  1.00  0.00    -0.123 A  
HETATM   29 CL   UNL     1      -7.024   8.988  66.973  1.00  0.00    -0.077 Cl 
HETATM   30  C   UNL     1      -8.891   7.125  66.446  1.00  0.00    -0.161 A  
HETATM   31  C   UNL     1      -9.817   6.187  66.863  1.00  0.00    -0.159 A  
HETATM   32  C   UNL     1     -10.068   5.964  68.203  1.00  0.00    -0.166 A  
HETATM   33  F   UNL     1     -10.652   4.814  68.534  1.00  0.00    -0.114 F  
BRANCH  31  34
HETATM   34  N   UNL     1     -10.539   5.364  65.949  1.00  0.00    -0.501 N  
HETATM   35  H   UNL     1     -11.546   5.451  65.810  1.00  0.00     0.000 HD 
BRANCH  34  36
HETATM   36  S   UNL     1      -9.604   4.233  65.112  1.00  0.00    -0.190 S  
HETATM   37  O   UNL     1      -8.698   4.905  64.210  1.00  0.00    -0.144 OA 
HETATM   38  O   UNL     1      -9.140   3.313  66.128  1.00  0.00    -0.141 OA 
HETATM   39  C   UNL     1     -10.908   3.469  64.183  1.00  0.00    -0.092 C  
ENDBRANCH  34  36
ENDBRANCH  31  34
ENDBRANCH  21  26
ENDBRANCH  16  18
ENDBRANCH  10  12
ENDBRANCH   9  10
ENDBRANCH   7   9
ENDBRANCH   4   7
ENDBRANCH   2   3
TORSDOF 10
ENDMDL
MODEL       67
REMARK 921   NORMALIZED FREE ENERGY PREDICTED BY IDOCK:   -5.90 KCAL/MOL
REMARK 922        TOTAL FREE ENERGY PREDICTED BY IDOCK:  -11.31 KCAL/MOL
REMARK 923 INTER-LIGAND FREE ENERGY PREDICTED BY IDOCK:   -9.84 KCAL/MOL
REMARK 924 INTRA-LIGAND FREE ENERGY PREDICTED BY IDOCK:   -1.47 KCAL/MOL
REMARK 927      BINDING AFFINITY PREDICTED BY RF-SCORE:    0.00 PKD
ROOT
HETATM    1  C   UNL     1     -12.501  11.942  63.309  1.00  0.00    -0.384 C  
HETATM    2  O   UNL     1     -13.159  12.311  64.534  1.00  0.00    -0.791 OA 
ENDROOT
BRANCH   2   3
HETATM    3  C   UNL     1     -12.661  13.446  65.105  1.00  0.00    -0.440 C  
HETATM    4  N   UNL     1     -12.064  13.166  66.315  1.00  0.00    -0.409 N  
HETATM    5  O   UNL     1     -12.755  14.554  64.596  1.00  0.00    -0.630 OA 
HETATM    6  H   UNL     1     -12.046  12.199  66.640  1.00  0.00     0.000 HD 
BRANCH   4   7
HETATM    7  C   UNL     1     -11.450  14.207  67.160  1.00  0.00    -0.353 C  
HETATM    8  C   UNL     1     -11.739  13.848  68.653  1.00  0.00    -0.396 C  
BRANCH   7   9
HETATM    9  C   UNL     1      -9.881  14.406  67.029  1.00  0.00    -0.252 C  
BRANCH   9  10
HETATM   10  N   UNL     1      -8.941  13.335  66.559  1.00  0.00    -0.444 NA 
HETATM   11  H   UNL     1      -7.986  13.603  66.321  1.00  0.00     0.000 HD 
BRANCH  10  12
HETATM   12  C   UNL     1      -9.303  11.980  66.427  1.00  0.00    -0.228 A  
HETATM   13  N   UNL     1      -9.415  11.505  65.185  1.00  0.00    -0.206 NA 
HETATM   14  C   UNL     1      -9.882  10.257  65.076  1.00  0.00    -0.329 A  
HETATM   15  C   UNL     1     -10.156   9.409  66.132  1.00  0.00    -0.324 A  
HETATM   16  C   UNL     1     -10.005   9.903  67.415  1.00  0.00    -0.189 A  
HETATM   17  N   UNL     1      -9.629  11.236  67.555  1.00  0.00    -0.169 NA 
BRANCH  16  18
HETATM   18  C   UNL     1     -10.281   8.930  68.579  1.00  0.00    -0.223 A  
HETATM   19  C   UNL     1     -10.983   9.363  69.720  1.00  0.00    -0.215 A  
HETATM   20  N   UNL     1     -11.197   8.296  70.547  1.00  0.00    -0.255 NA 
HETATM   21  C   UNL     1     -10.145   7.493  68.872  1.00  0.00    -0.192 A  
HETATM   22  N   UNL     1     -10.671   7.176  70.076  1.00  0.00    -0.242 NA 
BRANCH  20  23
HETATM   23  C   UNL     1     -11.957   8.242  71.809  1.00  0.00    -0.316 C  
HETATM   24  C   UNL     1     -12.672   9.560  72.136  1.00  0.00    -0.442 C  
HETATM   25  C   UNL     1     -11.079   7.847  73.008  1.00  0.00    -0.379 C  
ENDBRANCH  20  23
BRANCH  21  26
HETATM   26  C   UNL     1      -9.525   6.368  68.171  1.00  0.00    -0.114 A  
HETATM   27  C   UNL     1      -8.371   5.696  68.644  1.00  0.00    -0.106 A  
HETATM   28  C   UNL     1      -7.718   4.749  67.847  1.00  0.00    -0.082 A  
HETATM   29 CL   UNL     1      -6.411   3.819  68.463  1.00  0.00    -0.032 Cl 
HETATM   30  C   UNL     1      -8.124   4.549  66.521  1.00  0.00    -0.103 A  
HETATM   31  C   UNL     1      -9.255   5.218  66.094  1.00  0.00    -0.154 A  
HETATM   32  C   UNL     1     -10.020   5.974  66.961  1.00  0.00    -0.163 A  
HETATM   33  F   UNL     1     -11.269   6.253  66.592  1.00  0.00    -0.407 F  
BRANCH  31  34
HETATM   34  N   UNL     1      -9.729   5.142  64.750  1.00  0.00    -0.319 N  
HETATM   35  H   UNL     1     -10.307   5.869  64.330  1.00  0.00     0.000 HD 
BRANCH  34  36
HETATM   36  S   UNL     1      -9.262   3.756  63.904  1.00  0.00    -0.138 S  
HETATM   37  O   UNL     1      -7.913   3.904  63.411  1.00  0.00    -0.080 OA 
HETATM   38  O   UNL     1      -9.655   2.654  64.756  1.00  0.00    -0.142 OA 
HETATM   39  C   UNL     1     -10.406   3.889  62.555  1.00  0.00    -0.190 C  
ENDBRANCH  34  36
ENDBRANCH  31  34
ENDBRANCH  21  26
ENDBRANCH  16  18
ENDBRANCH  10  12
ENDBRANCH   9  10
ENDBRANCH   7   9
ENDBRANCH   4   7
ENDBRANCH   2   3
TORSDOF 10
ENDMDL
MODEL       68
REMARK 921   NORMALIZED FREE ENERGY PREDICTED BY IDOCK:   -5.89 KCAL/MOL
REMARK 922        TOTAL FREE ENERGY PREDICTED BY IDOCK:  -11.30 KCAL/MOL
REMARK 923 INTER-LIGAND FREE ENERGY PREDICTED BY IDOCK:   -9.86 KCAL/MOL
REMARK 924 INTRA-LIGAND FREE ENERGY PREDICTED BY IDOCK:   -1.43 KCAL/MOL
REMARK 927      BINDING AFFINITY PREDICTED BY RF-SCORE:    0.00 PKD
ROOT
HETATM    1  C   UNL     1      -5.645   5.987  66.162  1.00  0.00    -0.016 C  
HETATM    2  O   UNL     1      -6.198   7.157  65.536  1.00  0.00    -0.036 OA 
ENDROOT
BRANCH   2   3
HETATM    3  C   UNL     1      -7.560   7.139  65.447  1.00  0.00    -0.100 C  
HETATM    4  N   UNL     1      -8.094   6.187  66.288  1.00  0.00    -0.109 N  
HETATM    5  O   UNL     1      -8.198   7.872  64.704  1.00  0.00    -0.144 OA 
HETATM    6  H   UNL     1      -7.461   5.632  66.865  1.00  0.00     0.000 HD 
BRANCH   4   7
HETATM    7  C   UNL     1      -9.544   5.938  66.390  1.00  0.00    -0.146 C  
HETATM    8  C   UNL     1      -9.807   4.453  65.980  1.00  0.00    -0.241 C  
BRANCH   7   9
HETATM    9  C   UNL     1     -10.211   6.149  67.814  1.00  0.00    -0.172 C  
BRANCH   9  10
HETATM   10  N   UNL     1     -11.042   7.344  68.178  1.00  0.00    -0.463 NA 
HETATM   11  H   UNL     1     -12.039   7.206  68.341  1.00  0.00     0.000 HD 
BRANCH  10  12
HETATM   12  C   UNL     1     -10.522   8.647  68.307  1.00  0.00    -0.184 A  
HETATM   13  N   UNL     1      -9.217   8.799  68.074  1.00  0.00    -0.139 NA 
HETATM   14  C   UNL     1      -8.716  10.014  68.324  1.00  0.00    -0.119 A  
HETATM   15  C   UNL     1      -9.451  11.120  68.703  1.00  0.00    -0.196 A  
HETATM   16  C   UNL     1     -10.809  10.957  68.910  1.00  0.00    -0.219 A  
HETATM   17  N   UNL     1     -11.335   9.676  68.766  1.00  0.00     0.048 NA 
BRANCH  16  18
HETATM   18  C   UNL     1     -11.616  12.212  69.296  1.00  0.00    -0.377 A  
HETATM   19  C   UNL     1     -12.108  12.369  70.606  1.00  0.00    -0.225 A  
HETATM   20  N   UNL     1     -12.684  13.603  70.725  1.00  0.00    -0.298 NA 
HETATM   21  C   UNL     1     -11.982  13.513  68.710  1.00  0.00    -0.339 A  
HETATM   22  N   UNL     1     -12.653  14.288  69.592  1.00  0.00    -0.175 NA 
BRANCH  20  23
HETATM   23  C   UNL     1     -13.255  14.247  71.922  1.00  0.00    -0.375 C  
HETATM   24  C   UNL     1     -14.297  15.322  71.585  1.00  0.00    -0.666 C  
HETATM   25  C   UNL     1     -12.178  14.871  72.824  1.00  0.00    -0.397 C  
ENDBRANCH  20  23
BRANCH  21  26
HETATM   26  C   UNL     1     -11.820  14.111  67.384  1.00  0.00    -0.447 A  
HETATM   27  C   UNL     1     -12.064  13.408  66.179  1.00  0.00    -0.481 A  
HETATM   28  C   UNL     1     -11.722  13.969  64.943  1.00  0.00    -0.380 A  
HETATM   29 CL   UNL     1     -12.148  13.196  63.468  1.00  0.00    -0.605 Cl 
HETATM   30  C   UNL     1     -11.016  15.178  64.892  1.00  0.00    -0.434 A  
HETATM   31  C   UNL     1     -10.799  15.838  66.087  1.00  0.00    -0.240 A  
HETATM   32  C   UNL     1     -11.341  15.385  67.274  1.00  0.00    -0.220 A  
HETATM   33  F   UNL     1     -11.424  16.253  68.280  1.00  0.00    -0.352 F  
BRANCH  31  34
HETATM   34  N   UNL     1     -10.041  17.044  66.169  1.00  0.00    -0.322 N  
HETATM   35  H   UNL     1     -10.458  17.964  66.029  1.00  0.00     0.000 HD 
BRANCH  34  36
HETATM   36  S   UNL     1      -8.401  16.837  66.513  1.00  0.00    -0.312 S  
HETATM   37  O   UNL     1      -8.074  15.431  66.561  1.00  0.00    -0.189 OA 
HETATM   38  O   UNL     1      -7.718  17.758  65.629  1.00  0.00    -0.545 OA 
HETATM   39  C   UNL     1      -8.404  17.501  68.158  1.00  0.00    -0.249 C  
ENDBRANCH  34  36
ENDBRANCH  31  34
ENDBRANCH  21  26
ENDBRANCH  16  18
ENDBRANCH  10  12
ENDBRANCH   9  10
ENDBRANCH   7   9
ENDBRANCH   4   7
ENDBRANCH   2   3
TORSDOF 10
ENDMDL
MODEL       69
REMARK 921   NORMALIZED FREE ENERGY PREDICTED BY IDOCK:   -5.87 KCAL/MOL
REMARK 922        TOTAL FREE ENERGY PREDICTED BY IDOCK:  -11.25 KCAL/MOL
REMARK 923 INTER-LIGAND FREE ENERGY PREDICTED BY IDOCK:  -10.18 KCAL/MOL
REMARK 924 INTRA-LIGAND FREE ENERGY PREDICTED BY IDOCK:   -1.07 KCAL/MOL
REMARK 927      BINDING AFFINITY PREDICTED BY RF-SCORE:    0.00 PKD
ROOT
HETATM    1  C   UNL     1      -6.681  20.900  67.279  1.00  0.00    -0.352 C  
HETATM    2  O   UNL     1      -7.273  20.362  66.083  1.00  0.00    -0.265 OA 
ENDROOT
BRANCH   2   3
HETATM    3  C   UNL     1      -7.671  19.063  66.205  1.00  0.00    -0.278 C  
HETATM    4  N   UNL     1      -8.442  18.890  67.334  1.00  0.00    -0.274 N  
HETATM    5  O   UNL     1      -7.361  18.184  65.412  1.00  0.00    -0.520 OA 
HETATM    6  H   UNL     1      -8.636  19.699  67.924  1.00  0.00     0.000 HD 
BRANCH   4   7
HETATM    7  C   UNL     1      -9.000  17.581  67.725  1.00  0.00    -0.245 C  
HETATM    8  C   UNL     1      -8.014  16.923  68.743  1.00  0.00    -0.254 C  
BRANCH   7   9
HETATM    9  C   UNL     1     -10.433  17.586  68.406  1.00  0.00    -0.372 C  
BRANCH   9  10
HETATM   10  N   UNL     1     -11.004  16.417  69.154  1.00  0.00    -0.321 NA 
HETATM   11  H   UNL     1     -11.198  16.530  70.149  1.00  0.00     0.000 HD 
BRANCH  10  12
HETATM   12  C   UNL     1     -11.289  15.172  68.559  1.00  0.00    -0.309 A  
HETATM   13  N   UNL     1     -11.644  15.187  67.273  1.00  0.00    -0.282 NA 
HETATM   14  C   UNL     1     -12.032  14.015  66.759  1.00  0.00    -0.444 A  
HETATM   15  C   UNL     1     -12.000  12.802  67.419  1.00  0.00    -0.335 A  
HETATM   16  C   UNL     1     -11.598  12.795  68.743  1.00  0.00    -0.312 A  
HETATM   17  N   UNL     1     -11.297  14.019  69.334  1.00  0.00    -0.265 NA 
BRANCH  16  18
HETATM   18  C   UNL     1     -11.534  11.426  69.450  1.00  0.00    -0.378 A  
HETATM   19  C   UNL     1     -12.233  11.210  70.652  1.00  0.00    -0.397 A  
HETATM   20  N   UNL     1     -12.111   9.897  71.013  1.00  0.00    -0.332 NA 
HETATM   21  C   UNL     1     -11.019  10.070  69.186  1.00  0.00    -0.220 A  
HETATM   22  N   UNL     1     -11.357   9.208  70.170  1.00  0.00    -0.195 NA 
BRANCH  20  23
HETATM   23  C   UNL     1     -12.735   9.186  72.144  1.00  0.00    -0.395 C  
HETATM   24  C   UNL     1     -11.904   7.994  72.635  1.00  0.00    -0.380 C  
HETATM   25  C   UNL     1     -14.155   8.695  71.817  1.00  0.00    -0.499 C  
ENDBRANCH  20  23
BRANCH  21  26
HETATM   26  C   UNL     1     -10.192   9.486  68.130  1.00  0.00    -0.231 A  
HETATM   27  C   UNL     1     -10.202   9.945  66.790  1.00  0.00    -0.301 A  
HETATM   28  C   UNL     1      -9.529   9.238  65.787  1.00  0.00    -0.262 A  
HETATM   29 CL   UNL     1      -9.406   9.861  64.190  1.00  0.00    -0.321 Cl 
HETATM   30  C   UNL     1      -8.946   7.996  66.075  1.00  0.00    -0.205 A  
HETATM   31  C   UNL     1      -8.952   7.581  67.393  1.00  0.00    -0.126 A  
HETATM   32  C   UNL     1      -9.418   8.395  68.407  1.00  0.00    -0.139 A  
HETATM   33  F   UNL     1      -9.040   8.105  69.650  1.00  0.00    -0.146 F  
BRANCH  31  34
HETATM   34  N   UNL     1      -8.444   6.311  67.798  1.00  0.00    -0.117 N  
HETATM   35  H   UNL     1      -7.496   6.189  68.154  1.00  0.00     0.000 HD 
BRANCH  34  36
HETATM   36  S   UNL     1      -9.526   5.024  67.645  1.00  0.00    -0.139 S  
HETATM   37  O   UNL     1     -10.758   5.478  67.043  1.00  0.00    -0.267 OA 
HETATM   38  O   UNL     1      -8.742   3.947  67.078  1.00  0.00    -0.104 OA 
HETATM   39  C   UNL     1      -9.789   4.710  69.371  1.00  0.00    -0.202 C  
ENDBRANCH  34  36
ENDBRANCH  31  34
ENDBRANCH  21  26
ENDBRANCH  16  18
ENDBRANCH  10  12
ENDBRANCH   9  10
ENDBRANCH   7   9
ENDBRANCH   4   7
ENDBRANCH   2   3
TORSDOF 10
ENDMDL
MODEL       70
REMARK 921   NORMALIZED FREE ENERGY PREDICTED BY IDOCK:   -5.83 KCAL/MOL
REMARK 922        TOTAL FREE ENERGY PREDICTED BY IDOCK:  -11.20 KCAL/MOL
REMARK 923 INTER-LIGAND FREE ENERGY PREDICTED BY IDOCK:   -9.66 KCAL/MOL
REMARK 924 INTRA-LIGAND FREE ENERGY PREDICTED BY IDOCK:   -1.54 KCAL/MOL
REMARK 927      BINDING AFFINITY PREDICTED BY RF-SCORE:    0.00 PKD
ROOT
HETATM    1  C   UNL     1      -5.752  17.128  66.637  1.00  0.00    -0.186 C  
HETATM    2  O   UNL     1      -6.034  16.237  67.732  1.00  0.00    -0.116 OA 
ENDROOT
BRANCH   2   3
HETATM    3  C   UNL     1      -7.079  16.641  68.511  1.00  0.00    -0.172 C  
HETATM    4  N   UNL     1      -7.663  17.779  67.999  1.00  0.00    -0.231 N  
HETATM    5  O   UNL     1      -7.425  16.059  69.530  1.00  0.00    -0.222 OA 
HETATM    6  H   UNL     1      -7.287  18.178  67.138  1.00  0.00     0.000 HD 
BRANCH   4   7
HETATM    7  C   UNL     1      -8.809  18.446  68.645  1.00  0.00    -0.283 C  
HETATM    8  C   UNL     1      -8.795  19.949  68.217  1.00  0.00    -0.276 C  
BRANCH   7   9
HETATM    9  C   UNL     1     -10.253  17.883  68.304  1.00  0.00    -0.388 C  
BRANCH   9  10
HETATM   10  N   UNL     1     -10.498  16.552  67.656  1.00  0.00    -0.299 NA 
HETATM   11  H   UNL     1     -10.336  16.468  66.652  1.00  0.00     0.000 HD 
BRANCH  10  12
HETATM   12  C   UNL     1     -10.939  15.412  68.356  1.00  0.00    -0.284 A  
HETATM   13  N   UNL     1     -11.749  15.620  69.396  1.00  0.00    -0.364 NA 
HETATM   14  C   UNL     1     -12.055  14.542  70.124  1.00  0.00    -0.334 A  
HETATM   15  C   UNL     1     -11.684  13.244  69.829  1.00  0.00    -0.354 A  
HETATM   16  C   UNL     1     -10.871  13.038  68.728  1.00  0.00    -0.244 A  
HETATM   17  N   UNL     1     -10.445  14.157  68.019  1.00  0.00    -0.236 NA 
BRANCH  16  18
HETATM   18  C   UNL     1     -10.498  11.579  68.395  1.00  0.00    -0.226 A  
HETATM   19  C   UNL     1     -10.368  10.623  69.420  1.00  0.00    -0.208 A  
HETATM   20  N   UNL     1     -10.148   9.394  68.863  1.00  0.00    -0.183 NA 
HETATM   21  C   UNL     1     -10.334  10.726  67.204  1.00  0.00    -0.224 A  
HETATM   22  N   UNL     1     -10.086   9.441  67.541  1.00  0.00    -0.200 NA 
BRANCH  20  23
HETATM   23  C   UNL     1     -10.034   8.083  69.528  1.00  0.00    -0.186 C  
HETATM   24  C   UNL     1      -9.912   6.918  68.538  1.00  0.00    -0.149 C  
HETATM   25  C   UNL     1     -11.210   7.802  70.477  1.00  0.00    -0.267 C  
ENDBRANCH  20  23
BRANCH  21  26
HETATM   26  C   UNL     1     -10.331  10.984  65.764  1.00  0.00    -0.316 A  
HETATM   27  C   UNL     1      -9.303  10.540  64.896  1.00  0.00    -0.278 A  
HETATM   28  C   UNL     1      -9.259  10.966  63.564  1.00  0.00    -0.245 A  
HETATM   29 CL   UNL     1      -8.109  10.321  62.463  1.00  0.00    -0.155 Cl 
HETATM   30  C   UNL     1     -10.160  11.938  63.108  1.00  0.00    -0.341 A  
HETATM   31  C   UNL     1     -11.152  12.345  63.980  1.00  0.00    -0.396 A  
HETATM   32  C   UNL     1     -11.320  11.749  65.215  1.00  0.00    -0.222 A  
HETATM   33  F   UNL     1     -12.497  11.907  65.817  1.00  0.00    -0.135 F  
BRANCH  31  34
HETATM   34  N   UNL     1     -12.087  13.371  63.651  1.00  0.00    -0.756 N  
HETATM   35  H   UNL     1     -12.832  13.235  62.968  1.00  0.00     0.000 HD 
BRANCH  34  36
HETATM   36  S   UNL     1     -11.871  14.828  64.477  1.00  0.00    -0.371 S  
HETATM   37  O   UNL     1     -10.524  14.917  64.988  1.00  0.00    -0.393 OA 
HETATM   38  O   UNL     1     -12.432  15.836  63.601  1.00  0.00    -0.537 OA 
HETATM   39  C   UNL     1     -12.996  14.528  65.815  1.00  0.00     0.112 C  
ENDBRANCH  34  36
ENDBRANCH  31  34
ENDBRANCH  21  26
ENDBRANCH  16  18
ENDBRANCH  10  12
ENDBRANCH   9  10
ENDBRANCH   7   9
ENDBRANCH   4   7
ENDBRANCH   2   3
TORSDOF 10
ENDMDL
MODEL       71
REMARK 921   NORMALIZED FREE ENERGY PREDICTED BY IDOCK:   -5.82 KCAL/MOL
REMARK 922        TOTAL FREE ENERGY PREDICTED BY IDOCK:  -11.17 KCAL/MOL
REMARK 923 INTER-LIGAND FREE ENERGY PREDICTED BY IDOCK:   -9.47 KCAL/MOL
REMARK 924 INTRA-LIGAND FREE ENERGY PREDICTED BY IDOCK:   -1.70 KCAL/MOL
REMARK 927      BINDING AFFINITY PREDICTED BY RF-SCORE:    0.00 PKD
ROOT
HETATM    1  C   UNL     1     -12.390  15.486  73.723  1.00  0.00    -0.610 C  
HETATM    2  O   UNL     1     -13.496  14.610  73.439  1.00  0.00    -0.513 OA 
ENDROOT
BRANCH   2   3
HETATM    3  C   UNL     1     -13.538  14.184  72.144  1.00  0.00    -0.475 C  
HETATM    4  N   UNL     1     -13.128  12.872  72.044  1.00  0.00    -0.400 N  
HETATM    5  O   UNL     1     -13.886  14.895  71.210  1.00  0.00    -0.416 OA 
HETATM    6  H   UNL     1     -12.859  12.377  72.895  1.00  0.00     0.000 HD 
BRANCH   4   7
HETATM    7  C   UNL     1     -13.061  12.154  70.758  1.00  0.00     0.268 C  
HETATM    8  C   UNL     1     -11.806  12.671  69.984  1.00  0.00    -0.358 C  
BRANCH   7   9
HETATM    9  C   UNL     1     -12.945  10.573  70.823  1.00  0.00    -0.330 C  
BRANCH   9  10
HETATM   10  N   UNL     1     -11.999   9.843  71.731  1.00  0.00    -0.339 NA 
HETATM   11  H   UNL     1     -12.266   9.723  72.708  1.00  0.00     0.000 HD 
BRANCH  10  12
HETATM   12  C   UNL     1     -10.763   9.314  71.310  1.00  0.00    -0.352 A  
HETATM   13  N   UNL     1     -10.050   8.651  72.222  1.00  0.00    -0.313 NA 
HETATM   14  C   UNL     1      -8.827   8.267  71.842  1.00  0.00    -0.177 A  
HETATM   15  C   UNL     1      -8.298   8.416  70.575  1.00  0.00    -0.126 A  
HETATM   16  C   UNL     1      -9.061   9.077  69.628  1.00  0.00    -0.154 A  
HETATM   17  N   UNL     1     -10.292   9.587  70.031  1.00  0.00    -0.228 NA 
BRANCH  16  18
HETATM   18  C   UNL     1      -8.468   9.201  68.211  1.00  0.00    -0.125 A  
HETATM   19  C   UNL     1      -7.993   8.062  67.533  1.00  0.00    -0.122 A  
HETATM   20  N   UNL     1      -7.628   8.414  66.263  1.00  0.00    -0.085 NA 
HETATM   21  C   UNL     1      -8.331  10.222  67.157  1.00  0.00    -0.122 A  
HETATM   22  N   UNL     1      -7.787   9.708  66.031  1.00  0.00    -0.101 NA 
BRANCH  20  23
HETATM   23  C   UNL     1      -7.156   7.553  65.163  1.00  0.00    -0.063 C  
HETATM   24  C   UNL     1      -5.636   7.618  64.961  1.00  0.00    -0.033 C  
HETATM   25  C   UNL     1      -7.844   7.877  63.828  1.00  0.00    -0.141 C  
ENDBRANCH  20  23
BRANCH  21  26
HETATM   26  C   UNL     1      -8.607  11.658  67.092  1.00  0.00    -0.164 A  
HETATM   27  C   UNL     1      -8.306  12.556  68.145  1.00  0.00    -0.175 A  
HETATM   28  C   UNL     1      -8.752  13.881  68.103  1.00  0.00    -0.182 A  
HETATM   29 CL   UNL     1      -8.269  15.020  69.296  1.00  0.00    -0.183 Cl 
HETATM   30  C   UNL     1      -9.612  14.300  67.079  1.00  0.00    -0.260 A  
HETATM   31  C   UNL     1      -9.882  13.398  66.067  1.00  0.00    -0.263 A  
HETATM   32  C   UNL     1      -9.253  12.170  66.004  1.00  0.00    -0.118 A  
HETATM   33  F   UNL     1      -9.256  11.539  64.831  1.00  0.00    -0.207 F  
BRANCH  31  34
HETATM   34  N   UNL     1     -10.790  13.688  65.005  1.00  0.00    -0.331 N  
HETATM   35  H   UNL     1     -10.521  14.237  64.188  1.00  0.00     0.000 HD 
BRANCH  34  36
HETATM   36  S   UNL     1     -12.344  13.057  65.199  1.00  0.00    -0.495 S  
HETATM   37  O   UNL     1     -12.384  12.170  66.339  1.00  0.00    -0.489 OA 
HETATM   38  O   UNL     1     -13.225  14.199  65.081  1.00  0.00    -0.743 OA 
HETATM   39  C   UNL     1     -12.417  12.105  63.704  1.00  0.00    -0.549 C  
ENDBRANCH  34  36
ENDBRANCH  31  34
ENDBRANCH  21  26
ENDBRANCH  16  18
ENDBRANCH  10  12
ENDBRANCH   9  10
ENDBRANCH   7   9
ENDBRANCH   4   7
ENDBRANCH   2   3
TORSDOF 10
ENDMDL
MODEL       72
REMARK 921   NORMALIZED FREE ENERGY PREDICTED BY IDOCK:   -5.79 KCAL/MOL
REMARK 922        TOTAL FREE ENERGY PREDICTED BY IDOCK:  -11.14 KCAL/MOL
REMARK 923 INTER-LIGAND FREE ENERGY PREDICTED BY IDOCK:  -10.23 KCAL/MOL
REMARK 924 INTRA-LIGAND FREE ENERGY PREDICTED BY IDOCK:   -0.91 KCAL/MOL
REMARK 927      BINDING AFFINITY PREDICTED BY RF-SCORE:    0.00 PKD
ROOT
HETATM    1  C   UNL     1      -9.730   5.274  74.225  1.00  0.00    -0.168 C  
HETATM    2  O   UNL     1     -11.019   5.135  73.602  1.00  0.00    -0.292 OA 
ENDROOT
BRANCH   2   3
HETATM    3  C   UNL     1     -11.181   5.918  72.496  1.00  0.00    -0.294 C  
HETATM    4  N   UNL     1     -12.408   6.546  72.514  1.00  0.00    -0.513 N  
HETATM    5  O   UNL     1     -10.340   6.024  71.615  1.00  0.00    -0.203 OA 
HETATM    6  H   UNL     1     -13.031   6.381  73.306  1.00  0.00     0.000 HD 
BRANCH   4   7
HETATM    7  C   UNL     1     -12.858   7.445  71.436  1.00  0.00    -0.365 C  
HETATM    8  C   UNL     1     -14.409   7.596  71.552  1.00  0.00    -0.589 C  
BRANCH   7   9
HETATM    9  C   UNL     1     -12.252   8.911  71.424  1.00  0.00    -0.318 C  
BRANCH   9  10
HETATM   10  N   UNL     1     -10.795   9.213  71.620  1.00  0.00    -0.360 NA 
HETATM   11  H   UNL     1     -10.406   9.119  72.558  1.00  0.00     0.000 HD 
BRANCH  10  12
HETATM   12  C   UNL     1      -9.935   9.620  70.581  1.00  0.00    -0.231 A  
HETATM   13  N   UNL     1      -8.703   9.108  70.585  1.00  0.00    -0.213 NA 
HETATM   14  C   UNL     1      -7.861   9.600  69.670  1.00  0.00    -0.129 A  
HETATM   15  C   UNL     1      -8.195  10.506  68.681  1.00  0.00    -0.130 A  
HETATM   16  C   UNL     1      -9.485  11.004  68.667  1.00  0.00    -0.195 A  
HETATM   17  N   UNL     1     -10.348  10.594  69.680  1.00  0.00    -0.190 NA 
BRANCH  16  18
HETATM   18  C   UNL     1      -9.847  11.986  67.535  1.00  0.00    -0.190 A  
HETATM   19  C   UNL     1     -10.813  11.640  66.571  1.00  0.00    -0.284 A  
HETATM   20  N   UNL     1     -11.035  12.712  65.752  1.00  0.00    -0.274 NA 
HETATM   21  C   UNL     1      -9.570  13.382  67.154  1.00  0.00    -0.241 A  
HETATM   22  N   UNL     1     -10.273  13.751  66.060  1.00  0.00    -0.301 NA 
BRANCH  20  23
HETATM   23  C   UNL     1     -12.013  12.855  64.659  1.00  0.00    -0.392 C  
HETATM   24  C   UNL     1     -11.642  12.041  63.412  1.00  0.00    -0.495 C  
HETATM   25  C   UNL     1     -12.223  14.320  64.246  1.00  0.00    -0.451 C  
ENDBRANCH  20  23
BRANCH  21  26
HETATM   26  C   UNL     1      -8.672  14.417  67.670  1.00  0.00    -0.191 A  
HETATM   27  C   UNL     1      -7.786  14.207  68.756  1.00  0.00    -0.114 A  
HETATM   28  C   UNL     1      -7.084  15.278  69.320  1.00  0.00    -0.177 A  
HETATM   29 CL   UNL     1      -5.896  15.018  70.535  1.00  0.00    -0.141 Cl 
HETATM   30  C   UNL     1      -7.346  16.589  68.902  1.00  0.00    -0.219 A  
HETATM   31  C   UNL     1      -8.213  16.755  67.838  1.00  0.00    -0.187 A  
HETATM   32  C   UNL     1      -8.723  15.676  67.143  1.00  0.00    -0.210 A  
HETATM   33  F   UNL     1      -9.213  15.905  65.927  1.00  0.00    -0.324 F  
BRANCH  31  34
HETATM   34  N   UNL     1      -8.604  18.042  67.363  1.00  0.00    -0.241 N  
HETATM   35  H   UNL     1      -8.004  18.611  66.766  1.00  0.00     0.000 HD 
BRANCH  34  36
HETATM   36  S   UNL     1     -10.133  18.556  67.863  1.00  0.00    -0.388 S  
HETATM   37  O   UNL     1     -10.984  17.417  68.114  1.00  0.00    -0.334 OA 
HETATM   38  O   UNL     1      -9.874  19.562  68.871  1.00  0.00    -0.424 OA 
HETATM   39  C   UNL     1     -10.635  19.352  66.359  1.00  0.00    -0.463 C  
ENDBRANCH  34  36
ENDBRANCH  31  34
ENDBRANCH  21  26
ENDBRANCH  16  18
ENDBRANCH  10  12
ENDBRANCH   9  10
ENDBRANCH   7   9
ENDBRANCH   4   7
ENDBRANCH   2   3
TORSDOF 10
ENDMDL
MODEL       73
REMARK 921   NORMALIZED FREE ENERGY PREDICTED BY IDOCK:   -5.79 KCAL/MOL
REMARK 922        TOTAL FREE ENERGY PREDICTED BY IDOCK:  -11.13 KCAL/MOL
REMARK 923 INTER-LIGAND FREE ENERGY PREDICTED BY IDOCK:   -9.49 KCAL/MOL
REMARK 924 INTRA-LIGAND FREE ENERGY PREDICTED BY IDOCK:   -1.64 KCAL/MOL
REMARK 927      BINDING AFFINITY PREDICTED BY RF-SCORE:    0.00 PKD
ROOT
HETATM    1  C   UNL     1     -12.790  16.023  73.703  1.00  0.00    -0.595 C  
HETATM    2  O   UNL     1     -12.441  15.033  72.719  1.00  0.00    -0.343 OA 
ENDROOT
BRANCH   2   3
HETATM    3  C   UNL     1     -12.688  15.426  71.435  1.00  0.00    -0.420 C  
HETATM    4  N   UNL     1     -11.510  15.649  70.755  1.00  0.00    -0.344 N  
HETATM    5  O   UNL     1     -13.813  15.566  70.977  1.00  0.00    -0.545 OA 
HETATM    6  H   UNL     1     -10.626  15.499  71.243  1.00  0.00     0.000 HD 
BRANCH   4   7
HETATM    7  C   UNL     1     -11.475  16.096  69.350  1.00  0.00    -0.296 C  
HETATM    8  C   UNL     1     -10.064  16.708  69.075  1.00  0.00    -0.293 C  
BRANCH   7   9
HETATM    9  C   UNL     1     -11.723  14.991  68.238  1.00  0.00    -0.314 C  
BRANCH   9  10
HETATM   10  N   UNL     1     -10.654  14.479  67.318  1.00  0.00    -0.277 NA 
HETATM   11  H   UNL     1     -10.090  15.161  66.808  1.00  0.00     0.000 HD 
BRANCH  10  12
HETATM   12  C   UNL     1     -10.386  13.111  67.116  1.00  0.00    -0.247 A  
HETATM   13  N   UNL     1      -9.926  12.758  65.915  1.00  0.00    -0.270 NA 
HETATM   14  C   UNL     1      -9.798  11.445  65.699  1.00  0.00    -0.235 A  
HETATM   15  C   UNL     1     -10.008  10.455  66.640  1.00  0.00    -0.262 A  
HETATM   16  C   UNL     1     -10.453  10.837  67.894  1.00  0.00    -0.199 A  
HETATM   17  N   UNL     1     -10.703  12.189  68.107  1.00  0.00    -0.203 NA 
BRANCH  16  18
HETATM   18  C   UNL     1     -10.646   9.721  68.940  1.00  0.00    -0.240 A  
HETATM   19  C   UNL     1     -11.541   9.895  70.012  1.00  0.00    -0.175 A  
HETATM   20  N   UNL     1     -11.618   8.731  70.727  1.00  0.00    -0.275 NA 
HETATM   21  C   UNL     1     -10.247   8.317  69.142  1.00  0.00    -0.218 A  
HETATM   22  N   UNL     1     -10.823   7.788  70.245  1.00  0.00    -0.247 NA 
BRANCH  20  23
HETATM   23  C   UNL     1     -12.481   8.406  71.876  1.00  0.00    -0.347 C  
HETATM   24  C   UNL     1     -13.312   7.134  71.661  1.00  0.00    -0.397 C  
HETATM   25  C   UNL     1     -13.431   9.558  72.242  1.00  0.00    -0.521 C  
ENDBRANCH  20  23
BRANCH  21  26
HETATM   26  C   UNL     1      -9.336   7.409  68.444  1.00  0.00    -0.144 A  
HETATM   27  C   UNL     1      -7.966   7.271  68.780  1.00  0.00    -0.123 A  
HETATM   28  C   UNL     1      -7.104   6.527  67.968  1.00  0.00    -0.086 A  
HETATM   29 CL   UNL     1      -5.479   6.226  68.440  1.00  0.00    -0.008 Cl 
HETATM   30  C   UNL     1      -7.557   6.016  66.744  1.00  0.00    -0.095 A  
HETATM   31  C   UNL     1      -8.899   6.167  66.451  1.00  0.00    -0.141 A  
HETATM   32  C   UNL     1      -9.785   6.703  67.365  1.00  0.00    -0.128 A  
HETATM   33  F   UNL     1     -11.081   6.459  67.180  1.00  0.00    -0.364 F  
BRANCH  31  34
HETATM   34  N   UNL     1      -9.464   5.743  65.211  1.00  0.00    -0.342 N  
HETATM   35  H   UNL     1      -9.636   6.387  64.439  1.00  0.00     0.000 HD 
BRANCH  34  36
HETATM   36  S   UNL     1      -9.828   4.097  65.115  1.00  0.00    -0.206 S  
HETATM   37  O   UNL     1      -9.505   3.441  66.361  1.00  0.00    -0.177 OA 
HETATM   38  O   UNL     1     -11.155   4.045  64.538  1.00  0.00    -0.323 OA 
HETATM   39  C   UNL     1      -8.636   3.648  63.881  1.00  0.00    -0.091 C  
ENDBRANCH  34  36
ENDBRANCH  31  34
ENDBRANCH  21  26
ENDBRANCH  16  18
ENDBRANCH  10  12
ENDBRANCH   9  10
ENDBRANCH   7   9
ENDBRANCH   4   7
ENDBRANCH   2   3
TORSDOF 10
ENDMDL
MODEL       74
REMARK 921   NORMALIZED FREE ENERGY PREDICTED BY IDOCK:   -5.77 KCAL/MOL
REMARK 922        TOTAL FREE ENERGY PREDICTED BY IDOCK:  -11.10 KCAL/MOL
REMARK 923 INTER-LIGAND FREE ENERGY PREDICTED BY IDOCK:   -9.24 KCAL/MOL
REMARK 924 INTRA-LIGAND FREE ENERGY PREDICTED BY IDOCK:   -1.86 KCAL/MOL
REMARK 927      BINDING AFFINITY PREDICTED BY RF-SCORE:    0.00 PKD
ROOT
HETATM    1  C   UNL     1      -9.415   3.542  69.200  1.00  0.00    -0.154 C  
HETATM    2  O   UNL     1      -9.719   4.453  68.129  1.00  0.00    -0.159 OA 
ENDROOT
BRANCH   2   3
HETATM    3  C   UNL     1      -8.621   5.077  67.612  1.00  0.00    -0.104 C  
HETATM    4  N   UNL     1      -8.553   4.902  66.247  1.00  0.00    -0.114 N  
HETATM    5  O   UNL     1      -7.812   5.693  68.293  1.00  0.00    -0.094 OA 
HETATM    6  H   UNL     1      -9.288   4.366  65.785  1.00  0.00     0.000 HD 
BRANCH   4   7
HETATM    7  C   UNL     1      -7.461   5.458  65.426  1.00  0.00    -0.077 C  
HETATM    8  C   UNL     1      -6.743   4.268  64.712  1.00  0.00    -0.045 C  
BRANCH   7   9
HETATM    9  C   UNL     1      -7.868   6.496  64.297  1.00  0.00    -0.113 C  
BRANCH   9  10
HETATM   10  N   UNL     1      -8.489   7.832  64.578  1.00  0.00    -0.373 NA 
HETATM   11  H   UNL     1      -9.070   8.254  63.853  1.00  0.00     0.000 HD 
BRANCH  10  12
HETATM   12  C   UNL     1      -8.316   8.537  65.785  1.00  0.00    -0.140 A  
HETATM   13  N   UNL     1      -7.080   8.952  66.068  1.00  0.00    -0.087 NA 
HETATM   14  C   UNL     1      -6.910   9.505  67.273  1.00  0.00    -0.084 A  
HETATM   15  C   UNL     1      -7.915   9.762  68.185  1.00  0.00    -0.100 A  
HETATM   16  C   UNL     1      -9.198   9.356  67.866  1.00  0.00    -0.129 A  
HETATM   17  N   UNL     1      -9.382   8.675  66.666  1.00  0.00    -0.177 NA 
BRANCH  16  18
HETATM   18  C   UNL     1     -10.311   9.684  68.882  1.00  0.00    -0.220 A  
HETATM   19  C   UNL     1     -10.660   8.758  69.883  1.00  0.00    -0.224 A  
HETATM   20  N   UNL     1     -11.582   9.325  70.718  1.00  0.00    -0.281 NA 
HETATM   21  C   UNL     1     -11.145  10.835  69.272  1.00  0.00    -0.256 A  
HETATM   22  N   UNL     1     -11.913  10.553  70.348  1.00  0.00    -0.307 NA 
BRANCH  20  23
HETATM   23  C   UNL     1     -12.176   8.776  71.951  1.00  0.00    -0.361 C  
HETATM   24  C   UNL     1     -12.287   7.246  71.932  1.00  0.00    -0.346 C  
HETATM   25  C   UNL     1     -13.563   9.367  72.249  1.00  0.00    -0.532 C  
ENDBRANCH  20  23
BRANCH  21  26
HETATM   26  C   UNL     1     -11.349  12.175  68.720  1.00  0.00    -0.339 A  
HETATM   27  C   UNL     1     -11.300  13.355  69.503  1.00  0.00    -0.248 A  
HETATM   28  C   UNL     1     -11.679  14.587  68.960  1.00  0.00    -0.311 A  
HETATM   29 CL   UNL     1     -11.482  16.046  69.846  1.00  0.00    -0.332 Cl 
HETATM   30  C   UNL     1     -12.235  14.648  67.674  1.00  0.00    -0.082 A  
HETATM   31  C   UNL     1     -12.264  13.478  66.939  1.00  0.00    -0.327 A  
HETATM   32  C   UNL     1     -11.678  12.316  67.402  1.00  0.00    -0.335 A  
HETATM   33  F   UNL     1     -11.401  11.370  66.507  1.00  0.00    -0.348 F  
BRANCH  31  34
HETATM   34  N   UNL     1     -12.860  13.402  65.645  1.00  0.00    -0.442 N  
HETATM   35  H   UNL     1     -13.787  13.006  65.491  1.00  0.00     0.000 HD 
BRANCH  34  36
HETATM   36  S   UNL     1     -11.917  14.016  64.386  1.00  0.00    -0.440 S  
HETATM   37  O   UNL     1     -12.643  15.041  63.673  1.00  0.00    -0.680 OA 
HETATM   38  O   UNL     1     -10.620  14.262  64.981  1.00  0.00    -0.375 OA 
HETATM   39  C   UNL     1     -11.835  12.548  63.394  1.00  0.00    -0.503 C  
ENDBRANCH  34  36
ENDBRANCH  31  34
ENDBRANCH  21  26
ENDBRANCH  16  18
ENDBRANCH  10  12
ENDBRANCH   9  10
ENDBRANCH   7   9
ENDBRANCH   4   7
ENDBRANCH   2   3
TORSDOF 10
ENDMDL
MODEL       75
REMARK 921   NORMALIZED FREE ENERGY PREDICTED BY IDOCK:   -5.76 KCAL/MOL
REMARK 922        TOTAL FREE ENERGY PREDICTED BY IDOCK:  -11.08 KCAL/MOL
REMARK 923 INTER-LIGAND FREE ENERGY PREDICTED BY IDOCK:   -9.63 KCAL/MOL
REMARK 924 INTRA-LIGAND FREE ENERGY PREDICTED BY IDOCK:   -1.45 KCAL/MOL
REMARK 927      BINDING AFFINITY PREDICTED BY RF-SCORE:    0.00 PKD
ROOT
HETATM    1  C   UNL     1      -8.131  17.207  66.730  1.00  0.00    -0.243 C  
HETATM    2  O   UNL     1      -8.922  16.618  65.682  1.00  0.00    -0.463 OA 
ENDROOT
BRANCH   2   3
HETATM    3  C   UNL     1     -10.124  16.133  66.110  1.00  0.00    -0.338 C  
HETATM    4  N   UNL     1     -10.562  15.115  65.291  1.00  0.00    -0.379 N  
HETATM    5  O   UNL     1     -10.719  16.569  67.085  1.00  0.00    -0.303 OA 
HETATM    6  H   UNL     1      -9.978  14.835  64.502  1.00  0.00     0.000 HD 
BRANCH   4   7
HETATM    7  C   UNL     1     -11.841  14.413  65.508  1.00  0.00    -0.357 C  
HETATM    8  C   UNL     1     -12.152  13.574  64.227  1.00  0.00    -0.482 C  
BRANCH   7   9
HETATM    9  C   UNL     1     -11.913  13.417  66.741  1.00  0.00    -0.394 C  
BRANCH   9  10
HETATM   10  N   UNL     1     -11.937  11.923  66.606  1.00  0.00    -0.564 NA 
HETATM   11  H   UNL     1     -12.841  11.465  66.488  1.00  0.00     0.000 HD 
BRANCH  10  12
HETATM   12  C   UNL     1     -10.782  11.117  66.635  1.00  0.00    -0.269 A  
HETATM   13  N   UNL     1      -9.627  11.710  66.327  1.00  0.00    -0.215 NA 
HETATM   14  C   UNL     1      -8.563  10.906  66.234  1.00  0.00    -0.164 A  
HETATM   15  C   UNL     1      -8.552   9.556  66.524  1.00  0.00    -0.142 A  
HETATM   16  C   UNL     1      -9.750   8.959  66.875  1.00  0.00    -0.202 A  
HETATM   17  N   UNL     1     -10.894   9.752  66.867  1.00  0.00    -0.119 NA 
BRANCH  16  18
HETATM   18  C   UNL     1      -9.710   7.459  67.229  1.00  0.00    -0.205 A  
HETATM   19  C   UNL     1      -9.270   6.513  66.284  1.00  0.00    -0.133 A  
HETATM   20  N   UNL     1      -9.219   5.280  66.872  1.00  0.00    -0.119 NA 
HETATM   21  C   UNL     1      -9.885   6.599  68.413  1.00  0.00    -0.138 A  
HETATM   22  N   UNL     1      -9.619   5.304  68.134  1.00  0.00    -0.123 NA 
BRANCH  20  23
HETATM   23  C   UNL     1      -8.740   4.005  66.308  1.00  0.00    -0.116 C  
HETATM   24  C   UNL     1      -9.236   3.759  64.876  1.00  0.00    -0.148 C  
HETATM   25  C   UNL     1      -9.126   2.797  67.176  1.00  0.00    -0.192 C  
ENDBRANCH  20  23
BRANCH  21  26
HETATM   26  C   UNL     1     -10.327   6.841  69.787  1.00  0.00    -0.226 A  
HETATM   27  C   UNL     1     -10.756   5.810  70.659  1.00  0.00    -0.351 A  
HETATM   28  C   UNL     1     -11.336   6.117  71.895  1.00  0.00    -0.296 A  
HETATM   29 CL   UNL     1     -11.722   4.881  73.025  1.00  0.00    -0.310 Cl 
HETATM   30  C   UNL     1     -11.617   7.448  72.229  1.00  0.00    -0.333 A  
HETATM   31  C   UNL     1     -11.181   8.427  71.356  1.00  0.00    -0.261 A  
HETATM   32  C   UNL     1     -10.410   8.123  70.252  1.00  0.00    -0.209 A  
HETATM   33  F   UNL     1      -9.714   9.113  69.698  1.00  0.00    -0.159 F  
BRANCH  31  34
HETATM   34  N   UNL     1     -11.461   9.812  71.557  1.00  0.00    -0.366 N  
HETATM   35  H   UNL     1     -10.845  10.423  72.094  1.00  0.00     0.000 HD 
BRANCH  34  36
HETATM   36  S   UNL     1     -12.888  10.365  70.842  1.00  0.00    -0.377 S  
HETATM   37  O   UNL     1     -12.633  10.796  69.488  1.00  0.00    -0.293 OA 
HETATM   38  O   UNL     1     -13.875   9.355  71.158  1.00  0.00    -0.269 OA 
HETATM   39  C   UNL     1     -13.153  11.783  71.876  1.00  0.00    -0.376 C  
ENDBRANCH  34  36
ENDBRANCH  31  34
ENDBRANCH  21  26
ENDBRANCH  16  18
ENDBRANCH  10  12
ENDBRANCH   9  10
ENDBRANCH   7   9
ENDBRANCH   4   7
ENDBRANCH   2   3
TORSDOF 10
ENDMDL
MODEL       76
REMARK 921   NORMALIZED FREE ENERGY PREDICTED BY IDOCK:   -5.76 KCAL/MOL
REMARK 922        TOTAL FREE ENERGY PREDICTED BY IDOCK:  -11.08 KCAL/MOL
REMARK 923 INTER-LIGAND FREE ENERGY PREDICTED BY IDOCK:   -9.14 KCAL/MOL
REMARK 924 INTRA-LIGAND FREE ENERGY PREDICTED BY IDOCK:   -1.94 KCAL/MOL
REMARK 927      BINDING AFFINITY PREDICTED BY RF-SCORE:    0.00 PKD
ROOT
HETATM    1  C   UNL     1     -10.316  18.155  66.073  1.00  0.00    -0.353 C  
HETATM    2  O   UNL     1      -9.825  16.968  65.427  1.00  0.00    -0.531 OA 
ENDROOT
BRANCH   2   3
HETATM    3  C   UNL     1     -10.794  16.256  64.780  1.00  0.00    -0.224 C  
HETATM    4  N   UNL     1     -10.646  14.905  65.009  1.00  0.00    -0.414 N  
HETATM    5  O   UNL     1     -11.658  16.770  64.084  1.00  0.00    -1.106 OA 
HETATM    6  H   UNL     1      -9.883  14.590  65.610  1.00  0.00     0.000 HD 
BRANCH   4   7
HETATM    7  C   UNL     1     -11.547  13.895  64.423  1.00  0.00    -0.382 C  
HETATM    8  C   UNL     1     -10.663  12.783  63.771  1.00  0.00    -0.397 C  
BRANCH   7   9
HETATM    9  C   UNL     1     -12.549  13.165  65.413  1.00  0.00    -0.454 C  
BRANCH   9  10
HETATM   10  N   UNL     1     -12.263  11.846  66.069  1.00  0.00    -0.299 NA 
HETATM   11  H   UNL     1     -12.807  11.035  65.776  1.00  0.00     0.000 HD 
BRANCH  10  12
HETATM   12  C   UNL     1     -11.285  11.666  67.067  1.00  0.00    -0.314 A  
HETATM   13  N   UNL     1     -10.556  12.734  67.394  1.00  0.00    -0.228 NA 
HETATM   14  C   UNL     1      -9.550  12.517  68.248  1.00  0.00    -0.209 A  
HETATM   15  C   UNL     1      -9.279  11.317  68.877  1.00  0.00    -0.076 A  
HETATM   16  C   UNL     1     -10.063  10.224  68.553  1.00  0.00    -0.165 A  
HETATM   17  N   UNL     1     -11.044  10.397  67.581  1.00  0.00    -0.319 NA 
BRANCH  16  18
HETATM   18  C   UNL     1      -9.767   8.904  69.292  1.00  0.00    -0.165 A  
HETATM   19  C   UNL     1     -10.217   8.707  70.611  1.00  0.00    -0.198 A  
HETATM   20  N   UNL     1      -9.931   7.427  70.997  1.00  0.00    -0.184 NA 
HETATM   21  C   UNL     1      -9.208   7.573  68.993  1.00  0.00    -0.146 A  
HETATM   22  N   UNL     1      -9.294   6.745  70.058  1.00  0.00    -0.158 NA 
BRANCH  20  23
HETATM   23  C   UNL     1     -10.283   6.738  72.252  1.00  0.00    -0.189 C  
HETATM   24  C   UNL     1     -11.578   5.922  72.145  1.00  0.00    -0.314 C  
HETATM   25  C   UNL     1     -10.408   7.707  73.439  1.00  0.00    -0.374 C  
ENDBRANCH  20  23
BRANCH  21  26
HETATM   26  C   UNL     1      -8.545   6.989  67.827  1.00  0.00    -0.122 A  
HETATM   27  C   UNL     1      -7.381   6.185  67.914  1.00  0.00    -0.084 A  
HETATM   28  C   UNL     1      -6.689   5.803  66.760  1.00  0.00    -0.058 A  
HETATM   29 CL   UNL     1      -5.367   4.708  66.839  1.00  0.00    -0.012 Cl 
HETATM   30  C   UNL     1      -7.066   6.318  65.512  1.00  0.00    -0.068 A  
HETATM   31  C   UNL     1      -8.208   7.095  65.464  1.00  0.00    -0.139 A  
HETATM   32  C   UNL     1      -9.008   7.276  66.575  1.00  0.00    -0.152 A  
HETATM   33  F   UNL     1     -10.258   7.689  66.370  1.00  0.00    -0.298 F  
BRANCH  31  34
HETATM   34  N   UNL     1      -8.656   7.724  64.264  1.00  0.00    -0.360 N  
HETATM   35  H   UNL     1      -9.248   7.247  63.584  1.00  0.00     0.000 HD 
BRANCH  34  36
HETATM   36  S   UNL     1      -8.133   9.316  64.052  1.00  0.00    -0.161 S  
HETATM   37  O   UNL     1      -8.734  10.175  65.045  1.00  0.00    -0.153 OA 
HETATM   38  O   UNL     1      -6.699   9.215  63.886  1.00  0.00    -0.088 OA 
HETATM   39  C   UNL     1      -8.884   9.618  62.473  1.00  0.00    -0.249 C  
ENDBRANCH  34  36
ENDBRANCH  31  34
ENDBRANCH  21  26
ENDBRANCH  16  18
ENDBRANCH  10  12
ENDBRANCH   9  10
ENDBRANCH   7   9
ENDBRANCH   4   7
ENDBRANCH   2   3
TORSDOF 10
ENDMDL
MODEL       77
REMARK 921   NORMALIZED FREE ENERGY PREDICTED BY IDOCK:   -5.74 KCAL/MOL
REMARK 922        TOTAL FREE ENERGY PREDICTED BY IDOCK:  -11.06 KCAL/MOL
REMARK 923 INTER-LIGAND FREE ENERGY PREDICTED BY IDOCK:   -9.05 KCAL/MOL
REMARK 924 INTRA-LIGAND FREE ENERGY PREDICTED BY IDOCK:   -2.01 KCAL/MOL
REMARK 927      BINDING AFFINITY PREDICTED BY RF-SCORE:    0.00 PKD
ROOT
HETATM    1  C   UNL     1     -14.211   8.011  71.457  1.00  0.00    -0.413 C  
HETATM    2  O   UNL     1     -13.020   8.496  72.101  1.00  0.00    -0.342 OA 
ENDROOT
BRANCH   2   3
HETATM    3  C   UNL     1     -12.097   7.522  72.352  1.00  0.00    -0.176 C  
HETATM    4  N   UNL     1     -10.997   8.043  73.001  1.00  0.00    -0.335 N  
HETATM    5  O   UNL     1     -12.243   6.353  72.024  1.00  0.00    -0.341 OA 
HETATM    6  H   UNL     1     -10.987   9.038  73.224  1.00  0.00     0.000 HD 
BRANCH   4   7
HETATM    7  C   UNL     1      -9.836   7.219  73.385  1.00  0.00    -0.277 C  
HETATM    8  C   UNL     1     -10.282   6.273  74.546  1.00  0.00    -0.320 C  
BRANCH   7   9
HETATM    9  C   UNL     1      -9.203   6.300  72.258  1.00  0.00    -0.139 C  
BRANCH   9  10
HETATM   10  N   UNL     1      -8.591   6.830  70.995  1.00  0.00    -0.136 NA 
HETATM   11  H   UNL     1      -7.576   6.791  70.898  1.00  0.00     0.000 HD 
BRANCH  10  12
HETATM   12  C   UNL     1      -9.340   7.380  69.935  1.00  0.00    -0.154 A  
HETATM   13  N   UNL     1      -9.513   6.611  68.859  1.00  0.00    -0.131 NA 
HETATM   14  C   UNL     1     -10.115   7.191  67.815  1.00  0.00    -0.172 A  
HETATM   15  C   UNL     1     -10.645   8.467  67.805  1.00  0.00    -0.242 A  
HETATM   16  C   UNL     1     -10.488   9.243  68.940  1.00  0.00    -0.215 A  
HETATM   17  N   UNL     1      -9.765   8.701  69.999  1.00  0.00    -0.169 NA 
BRANCH  16  18
HETATM   18  C   UNL     1     -11.118  10.650  68.921  1.00  0.00    -0.314 A  
HETATM   19  C   UNL     1     -11.730  11.174  70.076  1.00  0.00    -0.356 A  
HETATM   20  N   UNL     1     -12.105  12.467  69.839  1.00  0.00    -0.281 NA 
HETATM   21  C   UNL     1     -11.192  11.815  68.022  1.00  0.00    -0.263 A  
HETATM   22  N   UNL     1     -11.827  12.856  68.604  1.00  0.00    -0.319 NA 
BRANCH  20  23
HETATM   23  C   UNL     1     -12.701  13.443  70.768  1.00  0.00    -0.228 C  
HETATM   24  C   UNL     1     -11.751  14.598  71.115  1.00  0.00    -0.332 C  
HETATM   25  C   UNL     1     -13.182  12.793  72.075  1.00  0.00    -0.538 C  
ENDBRANCH  20  23
BRANCH  21  26
HETATM   26  C   UNL     1     -10.777  12.058  66.640  1.00  0.00    -0.280 A  
HETATM   27  C   UNL     1     -11.658  12.526  65.633  1.00  0.00    -0.435 A  
HETATM   28  C   UNL     1     -11.254  12.569  64.295  1.00  0.00    -0.355 A  
HETATM   29 CL   UNL     1     -12.254  13.273  63.087  1.00  0.00    -0.453 Cl 
HETATM   30  C   UNL     1     -10.017  12.029  63.916  1.00  0.00    -0.343 A  
HETATM   31  C   UNL     1      -9.183  11.585  64.925  1.00  0.00     0.008 A  
HETATM   32  C   UNL     1      -9.501  11.758  66.257  1.00  0.00    -0.224 A  
HETATM   33  F   UNL     1      -8.508  11.673  67.141  1.00  0.00    -0.138 F  
BRANCH  31  34
HETATM   34  N   UNL     1      -7.927  10.961  64.660  1.00  0.00    -0.351 N  
HETATM   35  H   UNL     1      -7.119  11.479  64.315  1.00  0.00     0.000 HD 
BRANCH  34  36
HETATM   36  S   UNL     1      -7.876   9.299  64.959  1.00  0.00    -0.117 S  
HETATM   37  O   UNL     1      -7.179   9.036  66.196  1.00  0.00    -0.087 OA 
HETATM   38  O   UNL     1      -9.228   8.840  64.722  1.00  0.00     0.011 OA 
HETATM   39  C   UNL     1      -6.852   8.829  63.588  1.00  0.00    -0.088 C  
ENDBRANCH  34  36
ENDBRANCH  31  34
ENDBRANCH  21  26
ENDBRANCH  16  18
ENDBRANCH  10  12
ENDBRANCH   9  10
ENDBRANCH   7   9
ENDBRANCH   4   7
ENDBRANCH   2   3
TORSDOF 10
ENDMDL
MODEL       78
REMARK 921   NORMALIZED FREE ENERGY PREDICTED BY IDOCK:   -5.74 KCAL/MOL
REMARK 922        TOTAL FREE ENERGY PREDICTED BY IDOCK:  -11.05 KCAL/MOL
REMARK 923 INTER-LIGAND FREE ENERGY PREDICTED BY IDOCK:   -9.96 KCAL/MOL
REMARK 924 INTRA-LIGAND FREE ENERGY PREDICTED BY IDOCK:   -1.09 KCAL/MOL
REMARK 927      BINDING AFFINITY PREDICTED BY RF-SCORE:    0.00 PKD
ROOT
HETATM    1  C   UNL     1      -6.004   7.445  70.865  1.00  0.00    -0.035 C  
HETATM    2  O   UNL     1      -6.787   6.572  70.032  1.00  0.00    -0.051 OA 
ENDROOT
BRANCH   2   3
HETATM    3  C   UNL     1      -7.689   5.817  70.724  1.00  0.00    -0.093 C  
HETATM    4  N   UNL     1      -8.791   5.532  69.946  1.00  0.00    -0.125 N  
HETATM    5  O   UNL     1      -7.525   5.463  71.883  1.00  0.00    -0.088 OA 
HETATM    6  H   UNL     1      -8.818   5.883  68.988  1.00  0.00     0.000 HD 
BRANCH   4   7
HETATM    7  C   UNL     1      -9.932   4.742  70.442  1.00  0.00    -0.245 C  
HETATM    8  C   UNL     1      -9.507   3.238  70.453  1.00  0.00    -0.235 C  
BRANCH   7   9
HETATM    9  C   UNL     1     -10.463   5.081  71.898  1.00  0.00    -0.187 C  
BRANCH   9  10
HETATM   10  N   UNL     1     -10.672   6.478  72.405  1.00  0.00    -0.216 NA 
HETATM   11  H   UNL     1      -9.958   6.882  73.011  1.00  0.00     0.000 HD 
BRANCH  10  12
HETATM   12  C   UNL     1     -11.800   7.263  72.092  1.00  0.00    -0.286 A  
HETATM   13  N   UNL     1     -12.969   6.626  71.999  1.00  0.00    -0.184 NA 
HETATM   14  C   UNL     1     -14.003   7.361  71.578  1.00  0.00    -0.396 A  
HETATM   15  C   UNL     1     -13.972   8.720  71.332  1.00  0.00    -0.321 A  
HETATM   16  C   UNL     1     -12.761   9.375  71.463  1.00  0.00    -0.361 A  
HETATM   17  N   UNL     1     -11.644   8.611  71.791  1.00  0.00    -0.308 NA 
BRANCH  16  18
HETATM   18  C   UNL     1     -12.756  10.897  71.220  1.00  0.00    -0.542 A  
HETATM   19  C   UNL     1     -13.425  11.765  72.104  1.00  0.00    -0.168 A  
HETATM   20  N   UNL     1     -13.177  13.058  71.738  1.00  0.00    -0.419 NA 
HETATM   21  C   UNL     1     -12.100  11.870  70.328  1.00  0.00    -0.325 A  
HETATM   22  N   UNL     1     -12.418  13.142  70.656  1.00  0.00    -0.321 NA 
BRANCH  20  23
HETATM   23  C   UNL     1     -13.589  14.305  72.408  1.00  0.00    -0.500 C  
HETATM   24  C   UNL     1     -13.816  15.465  71.430  1.00  0.00    -0.577 C  
HETATM   25  C   UNL     1     -12.585  14.755  73.481  1.00  0.00    -0.553 C  
ENDBRANCH  20  23
BRANCH  21  26
HETATM   26  C   UNL     1     -11.236  11.749  69.153  1.00  0.00    -0.324 A  
HETATM   27  C   UNL     1     -10.107  10.894  69.102  1.00  0.00    -0.198 A  
HETATM   28  C   UNL     1      -9.216  10.951  68.025  1.00  0.00    -0.156 A  
HETATM   29 CL   UNL     1      -7.931   9.820  67.875  1.00  0.00    -0.104 Cl 
HETATM   30  C   UNL     1      -9.360  11.944  67.047  1.00  0.00    -0.188 A  
HETATM   31  C   UNL     1     -10.474  12.758  67.126  1.00  0.00    -0.233 A  
HETATM   32  C   UNL     1     -11.463  12.542  68.065  1.00  0.00    -0.317 A  
HETATM   33  F   UNL     1     -12.654  13.093  67.838  1.00  0.00    -0.134 F  
BRANCH  31  34
HETATM   34  N   UNL     1     -10.696  13.842  66.225  1.00  0.00    -0.284 N  
HETATM   35  H   UNL     1     -10.493  14.811  66.472  1.00  0.00     0.000 HD 
BRANCH  34  36
HETATM   36  S   UNL     1     -11.320  13.404  64.718  1.00  0.00    -0.353 S  
HETATM   37  O   UNL     1     -10.245  13.136  63.792  1.00  0.00    -0.307 OA 
HETATM   38  O   UNL     1     -12.345  12.425  65.013  1.00  0.00    -0.475 OA 
HETATM   39  C   UNL     1     -12.088  14.949  64.306  1.00  0.00    -0.353 C  
ENDBRANCH  34  36
ENDBRANCH  31  34
ENDBRANCH  21  26
ENDBRANCH  16  18
ENDBRANCH  10  12
ENDBRANCH   9  10
ENDBRANCH   7   9
ENDBRANCH   4   7
ENDBRANCH   2   3
TORSDOF 10
ENDMDL
MODEL       79
REMARK 921   NORMALIZED FREE ENERGY PREDICTED BY IDOCK:   -5.74 KCAL/MOL
REMARK 922        TOTAL FREE ENERGY PREDICTED BY IDOCK:  -11.05 KCAL/MOL
REMARK 923 INTER-LIGAND FREE ENERGY PREDICTED BY IDOCK:   -9.03 KCAL/MOL
REMARK 924 INTRA-LIGAND FREE ENERGY PREDICTED BY IDOCK:   -2.02 KCAL/MOL
REMARK 927      BINDING AFFINITY PREDICTED BY RF-SCORE:    0.00 PKD
ROOT
HETATM    1  C   UNL     1     -12.027  11.267  69.135  1.00  0.00    -0.336 C  
HETATM    2  O   UNL     1     -11.663  10.489  67.980  1.00  0.00    -0.450 OA 
ENDROOT
BRANCH   2   3
HETATM    3  C   UNL     1     -10.635  11.026  67.260  1.00  0.00    -0.245 C  
HETATM    4  N   UNL     1     -10.909  10.988  65.910  1.00  0.00    -0.171 N  
HETATM    5  O   UNL     1      -9.612  11.464  67.767  1.00  0.00    -0.166 OA 
HETATM    6  H   UNL     1     -11.800  10.597  65.602  1.00  0.00     0.000 HD 
BRANCH   4   7
HETATM    7  C   UNL     1      -9.968  11.490  64.892  1.00  0.00    -0.259 C  
HETATM    8  C   UNL     1      -9.671  10.324  63.895  1.00  0.00    -0.325 C  
BRANCH   7   9
HETATM    9  C   UNL     1     -10.443  12.730  64.023  1.00  0.00    -0.406 C  
BRANCH   9  10
HETATM   10  N   UNL     1     -10.609  14.117  64.570  1.00  0.00    -0.597 NA 
HETATM   11  H   UNL     1     -10.778  14.877  63.911  1.00  0.00     0.000 HD 
BRANCH  10  12
HETATM   12  C   UNL     1     -10.543  14.429  65.942  1.00  0.00    -0.307 A  
HETATM   13  N   UNL     1     -11.705  14.577  66.582  1.00  0.00    -0.380 NA 
HETATM   14  C   UNL     1     -11.626  14.997  67.849  1.00  0.00    -0.333 A  
HETATM   15  C   UNL     1     -10.455  15.189  68.557  1.00  0.00    -0.233 A  
HETATM   16  C   UNL     1      -9.257  15.000  67.892  1.00  0.00    -0.182 A  
HETATM   17  N   UNL     1      -9.312  14.673  66.540  1.00  0.00    -0.279 NA 
BRANCH  16  18
HETATM   18  C   UNL     1      -7.963  15.184  68.710  1.00  0.00    -0.162 A  
HETATM   19  C   UNL     1      -7.394  14.097  69.401  1.00  0.00     0.033 A  
HETATM   20  N   UNL     1      -6.203  14.486  69.948  1.00  0.00    -0.139 NA 
HETATM   21  C   UNL     1      -6.936  16.217  68.933  1.00  0.00    -0.161 A  
HETATM   22  N   UNL     1      -5.929  15.760  69.712  1.00  0.00    -0.151 NA 
BRANCH  20  23
HETATM   23  C   UNL     1      -5.214  13.677  70.682  1.00  0.00    -0.120 C  
HETATM   24  C   UNL     1      -5.446  12.167  70.534  1.00  0.00    -0.158 C  
HETATM   25  C   UNL     1      -5.166  14.024  72.179  1.00  0.00    -0.212 C  
ENDBRANCH  20  23
BRANCH  21  26
HETATM   26  C   UNL     1      -6.805  17.620  68.540  1.00  0.00    -0.223 A  
HETATM   27  C   UNL     1      -6.143  18.591  69.332  1.00  0.00    -0.268 A  
HETATM   28  C   UNL     1      -6.203  19.948  68.995  1.00  0.00    -0.298 A  
HETATM   29 CL   UNL     1      -5.284  21.118  69.856  1.00  0.00    -0.376 Cl 
HETATM   30  C   UNL     1      -7.026  20.375  67.944  1.00  0.00    -0.334 A  
HETATM   31  C   UNL     1      -7.654  19.400  67.192  1.00  0.00    -0.235 A  
HETATM   32  C   UNL     1      -7.405  18.057  67.394  1.00  0.00    -0.205 A  
HETATM   33  F   UNL     1      -7.722  17.220  66.408  1.00  0.00    -0.240 F  
BRANCH  31  34
HETATM   34  N   UNL     1      -8.563  19.714  66.138  1.00  0.00    -0.358 N  
HETATM   35  H   UNL     1      -8.256  20.113  65.250  1.00  0.00     0.000 HD 
BRANCH  34  36
HETATM   36  S   UNL     1     -10.184  19.376  66.466  1.00  0.00    -0.491 S  
HETATM   37  O   UNL     1     -10.480  17.997  66.154  1.00  0.00    -0.386 OA 
HETATM   38  O   UNL     1     -10.421  19.938  67.779  1.00  0.00    -0.407 OA 
HETATM   39  C   UNL     1     -10.914  20.431  65.240  1.00  0.00     0.530 C  
ENDBRANCH  34  36
ENDBRANCH  31  34
ENDBRANCH  21  26
ENDBRANCH  16  18
ENDBRANCH  10  12
ENDBRANCH   9  10
ENDBRANCH   7   9
ENDBRANCH   4   7
ENDBRANCH   2   3
TORSDOF 10
ENDMDL
MODEL       80
REMARK 921   NORMALIZED FREE ENERGY PREDICTED BY IDOCK:   -5.73 KCAL/MOL
REMARK 922        TOTAL FREE ENERGY PREDICTED BY IDOCK:  -11.03 KCAL/MOL
REMARK 923 INTER-LIGAND FREE ENERGY PREDICTED BY IDOCK:   -9.82 KCAL/MOL
REMARK 924 INTRA-LIGAND FREE ENERGY PREDICTED BY IDOCK:   -1.20 KCAL/MOL
REMARK 927      BINDING AFFINITY PREDICTED BY RF-SCORE:    0.00 PKD
ROOT
HETATM    1  C   UNL     1      -6.103   9.999  70.733  1.00  0.00    -0.092 C  
HETATM    2  O   UNL     1      -5.892   8.782  71.471  1.00  0.00    -0.042 OA 
ENDROOT
BRANCH   2   3
HETATM    3  C   UNL     1      -6.980   8.383  72.193  1.00  0.00    -0.090 C  
HETATM    4  N   UNL     1      -7.851   7.658  71.409  1.00  0.00    -0.088 N  
HETATM    5  O   UNL     1      -7.143   8.657  73.374  1.00  0.00    -0.311 OA 
HETATM    6  H   UNL     1      -7.608   7.493  70.431  1.00  0.00     0.000 HD 
BRANCH   4   7
HETATM    7  C   UNL     1      -9.120   7.112  71.925  1.00  0.00    -0.134 C  
HETATM    8  C   UNL     1     -10.064   8.313  72.248  1.00  0.00    -0.370 C  
BRANCH   7   9
HETATM    9  C   UNL     1      -9.925   6.137  70.966  1.00  0.00    -0.184 C  
BRANCH   9  10
HETATM   10  N   UNL     1      -9.863   6.201  69.468  1.00  0.00    -0.155 NA 
HETATM   11  H   UNL     1     -10.147   5.377  68.939  1.00  0.00     0.000 HD 
BRANCH  10  12
HETATM   12  C   UNL     1      -9.434   7.336  68.751  1.00  0.00    -0.142 A  
HETATM   13  N   UNL     1      -8.163   7.345  68.345  1.00  0.00    -0.124 NA 
HETATM   14  C   UNL     1      -7.738   8.480  67.779  1.00  0.00    -0.103 A  
HETATM   15  C   UNL     1      -8.526   9.581  67.503  1.00  0.00    -0.126 A  
HETATM   16  C   UNL     1      -9.850   9.545  67.901  1.00  0.00    -0.156 A  
HETATM   17  N   UNL     1     -10.288   8.420  68.593  1.00  0.00    -0.205 NA 
BRANCH  16  18
HETATM   18  C   UNL     1     -10.721  10.769  67.551  1.00  0.00    -0.312 A  
HETATM   19  C   UNL     1     -10.821  11.217  66.220  1.00  0.00    -0.238 A  
HETATM   20  N   UNL     1     -11.733  12.234  66.155  1.00  0.00    -0.501 NA 
HETATM   21  C   UNL     1     -11.697  11.654  68.211  1.00  0.00    -0.304 A  
HETATM   22  N   UNL     1     -12.240  12.535  67.341  1.00  0.00    -0.370 NA 
BRANCH  20  23
HETATM   23  C   UNL     1     -12.232  12.956  64.971  1.00  0.00    -0.464 C  
HETATM   24  C   UNL     1     -12.517  12.030  63.781  1.00  0.00    -0.594 C  
HETATM   25  C   UNL     1     -11.273  14.066  64.512  1.00  0.00    -0.358 C  
ENDBRANCH  20  23
BRANCH  21  26
HETATM   26  C   UNL     1     -12.154  11.811  69.592  1.00  0.00    -0.323 A  
HETATM   27  C   UNL     1     -12.480  10.718  70.432  1.00  0.00    -0.430 A  
HETATM   28  C   UNL     1     -13.080  10.930  71.678  1.00  0.00    -0.433 A  
HETATM   29 CL   UNL     1     -13.344   9.629  72.770  1.00  0.00    -0.139 Cl 
HETATM   30  C   UNL     1     -13.483  12.219  72.054  1.00  0.00    -0.418 A  
HETATM   31  C   UNL     1     -13.145  13.261  71.211  1.00  0.00    -0.218 A  
HETATM   32  C   UNL     1     -12.354  13.064  70.096  1.00  0.00    -0.200 A  
HETATM   33  F   UNL     1     -11.756  14.132  69.572  1.00  0.00    -0.270 F  
BRANCH  31  34
HETATM   34  N   UNL     1     -13.553  14.606  71.456  1.00  0.00    -0.381 N  
HETATM   35  H   UNL     1     -14.218  15.095  70.856  1.00  0.00     0.000 HD 
BRANCH  34  36
HETATM   36  S   UNL     1     -12.854  15.331  72.811  1.00  0.00    -0.464 S  
HETATM   37  O   UNL     1     -13.760  16.299  73.383  1.00  0.00    -0.597 OA 
HETATM   38  O   UNL     1     -12.314  14.231  73.582  1.00  0.00    -0.250 OA 
HETATM   39  C   UNL     1     -11.527  16.174  71.989  1.00  0.00    -0.237 C  
ENDBRANCH  34  36
ENDBRANCH  31  34
ENDBRANCH  21  26
ENDBRANCH  16  18
ENDBRANCH  10  12
ENDBRANCH   9  10
ENDBRANCH   7   9
ENDBRANCH   4   7
ENDBRANCH   2   3
TORSDOF 10
ENDMDL
MODEL       81
REMARK 921   NORMALIZED FREE ENERGY PREDICTED BY IDOCK:   -5.72 KCAL/MOL
REMARK 922        TOTAL FREE ENERGY PREDICTED BY IDOCK:  -11.02 KCAL/MOL
REMARK 923 INTER-LIGAND FREE ENERGY PREDICTED BY IDOCK:   -8.94 KCAL/MOL
REMARK 924 INTRA-LIGAND FREE ENERGY PREDICTED BY IDOCK:   -2.07 KCAL/MOL
REMARK 927      BINDING AFFINITY PREDICTED BY RF-SCORE:    0.00 PKD
ROOT
HETATM    1  C   UNL     1      -8.477  13.755  68.327  1.00  0.00    -0.173 C  
HETATM    2  O   UNL     1      -8.300  14.826  67.383  1.00  0.00    -0.172 OA 
ENDROOT
BRANCH   2   3
HETATM    3  C   UNL     1      -9.459  15.471  67.062  1.00  0.00    -0.225 C  
HETATM    4  N   UNL     1     -10.309  14.636  66.369  1.00  0.00    -0.282 N  
HETATM    5  O   UNL     1      -9.684  16.638  67.350  1.00  0.00    -0.244 OA 
HETATM    6  H   UNL     1     -10.012  13.677  66.185  1.00  0.00     0.000 HD 
BRANCH   4   7
HETATM    7  C   UNL     1     -11.631  15.072  65.882  1.00  0.00    -0.165 C  
HETATM    8  C   UNL     1     -11.457  15.592  64.419  1.00  0.00    -0.266 C  
BRANCH   7   9
HETATM    9  C   UNL     1     -12.781  13.979  65.849  1.00  0.00    -0.397 C  
BRANCH   9  10
HETATM   10  N   UNL     1     -12.666  12.669  65.126  1.00  0.00    -0.732 NA 
HETATM   11  H   UNL     1     -13.475  12.338  64.600  1.00  0.00     0.000 HD 
BRANCH  10  12
HETATM   12  C   UNL     1     -11.506  11.871  65.134  1.00  0.00    -0.243 A  
HETATM   13  N   UNL     1     -11.069  11.433  63.952  1.00  0.00    -0.376 NA 
HETATM   14  C   UNL     1     -10.044  10.575  63.988  1.00  0.00    -0.251 A  
HETATM   15  C   UNL     1      -9.357  10.195  65.126  1.00  0.00    -0.290 A  
HETATM   16  C   UNL     1      -9.800  10.683  66.342  1.00  0.00    -0.211 A  
HETATM   17  N   UNL     1     -10.936  11.488  66.343  1.00  0.00    -0.291 NA 
BRANCH  16  18
HETATM   18  C   UNL     1      -8.998  10.277  67.595  1.00  0.00    -0.137 A  
HETATM   19  C   UNL     1      -7.596  10.402  67.618  1.00  0.00    -0.089 A  
HETATM   20  N   UNL     1      -7.137  10.089  68.867  1.00  0.00    -0.066 NA 
HETATM   21  C   UNL     1      -9.257   9.867  68.987  1.00  0.00    -0.168 A  
HETATM   22  N   UNL     1      -8.111   9.730  69.689  1.00  0.00    -0.137 NA 
BRANCH  20  23
HETATM   23  C   UNL     1      -5.761  10.157  69.391  1.00  0.00    -0.037 C  
HETATM   24  C   UNL     1      -5.345   8.890  70.150  1.00  0.00    -0.028 C  
HETATM   25  C   UNL     1      -5.539  11.373  70.304  1.00  0.00    -0.130 C  
ENDBRANCH  20  23
BRANCH  21  26
HETATM   26  C   UNL     1     -10.468   9.533  69.738  1.00  0.00    -0.253 A  
HETATM   27  C   UNL     1     -11.251  10.497  70.420  1.00  0.00    -0.378 A  
HETATM   28  C   UNL     1     -12.292  10.102  71.267  1.00  0.00    -0.400 A  
HETATM   29 CL   UNL     1     -13.344  11.258  71.981  1.00  0.00    -0.513 Cl 
HETATM   30  C   UNL     1     -12.488   8.744  71.552  1.00  0.00    -0.374 A  
HETATM   31  C   UNL     1     -11.708   7.832  70.866  1.00  0.00    -0.265 A  
HETATM   32  C   UNL     1     -10.842   8.226  69.865  1.00  0.00    -0.213 A  
HETATM   33  F   UNL     1     -10.435   7.295  69.005  1.00  0.00    -0.191 F  
BRANCH  31  34
HETATM   34  N   UNL     1     -11.775   6.428  71.115  1.00  0.00    -0.326 N  
HETATM   35  H   UNL     1     -12.344   5.798  70.550  1.00  0.00     0.000 HD 
BRANCH  34  36
HETATM   36  S   UNL     1     -10.841   5.886  72.414  1.00  0.00    -0.258 S  
HETATM   37  O   UNL     1     -10.151   6.996  73.029  1.00  0.00    -0.179 OA 
HETATM   38  O   UNL     1     -11.721   5.014  73.163  1.00  0.00    -0.313 OA 
HETATM   39  C   UNL     1      -9.684   4.902  71.498  1.00  0.00    -0.172 C  
ENDBRANCH  34  36
ENDBRANCH  31  34
ENDBRANCH  21  26
ENDBRANCH  16  18
ENDBRANCH  10  12
ENDBRANCH   9  10
ENDBRANCH   7   9
ENDBRANCH   4   7
ENDBRANCH   2   3
TORSDOF 10
ENDMDL
MODEL       82
REMARK 921   NORMALIZED FREE ENERGY PREDICTED BY IDOCK:   -5.69 KCAL/MOL
REMARK 922        TOTAL FREE ENERGY PREDICTED BY IDOCK:  -10.98 KCAL/MOL
REMARK 923 INTER-LIGAND FREE ENERGY PREDICTED BY IDOCK:   -9.96 KCAL/MOL
REMARK 924 INTRA-LIGAND FREE ENERGY PREDICTED BY IDOCK:   -1.02 KCAL/MOL
REMARK 927      BINDING AFFINITY PREDICTED BY RF-SCORE:    0.00 PKD
ROOT
HETATM    1  C   UNL     1     -10.521   5.036  72.360  1.00  0.00    -0.217 C  
HETATM    2  O   UNL     1     -11.066   6.189  73.025  1.00  0.00    -0.255 OA 
ENDROOT
BRANCH   2   3
HETATM    3  C   UNL     1     -11.624   7.099  72.175  1.00  0.00    -0.279 C  
HETATM    4  N   UNL     1     -11.015   8.329  72.303  1.00  0.00    -0.323 N  
HETATM    5  O   UNL     1     -12.550   6.838  71.419  1.00  0.00    -0.355 OA 
HETATM    6  H   UNL     1     -10.249   8.429  72.970  1.00  0.00     0.000 HD 
BRANCH   4   7
HETATM    7  C   UNL     1     -11.424   9.506  71.514  1.00  0.00    -0.395 C  
HETATM    8  C   UNL     1     -11.160   9.190  70.007  1.00  0.00    -0.208 C  
BRANCH   7   9
HETATM    9  C   UNL     1     -12.940   9.958  71.632  1.00  0.00    -0.434 C  
BRANCH   9  10
HETATM   10  N   UNL     1     -13.377  11.268  72.218  1.00  0.00    -0.538 NA 
HETATM   11  H   UNL     1     -13.915  11.252  73.085  1.00  0.00     0.000 HD 
BRANCH  10  12
HETATM   12  C   UNL     1     -13.088  12.519  71.638  1.00  0.00    -0.315 A  
HETATM   13  N   UNL     1     -13.635  13.591  72.215  1.00  0.00    -0.548 NA 
HETATM   14  C   UNL     1     -13.455  14.753  71.579  1.00  0.00    -0.394 A  
HETATM   15  C   UNL     1     -12.681  14.937  70.449  1.00  0.00    -0.370 A  
HETATM   16  C   UNL     1     -12.092  13.822  69.880  1.00  0.00    -0.348 A  
HETATM   17  N   UNL     1     -12.358  12.583  70.457  1.00  0.00    -0.308 NA 
BRANCH  16  18
HETATM   18  C   UNL     1     -11.204  14.053  68.641  1.00  0.00    -0.294 A  
HETATM   19  C   UNL     1     -11.123  15.327  68.048  1.00  0.00    -0.312 A  
HETATM   20  N   UNL     1     -10.191  15.299  67.048  1.00  0.00    -0.256 NA 
HETATM   21  C   UNL     1     -10.195  13.322  67.854  1.00  0.00    -0.233 A  
HETATM   22  N   UNL     1      -9.652  14.100  66.891  1.00  0.00    -0.260 NA 
BRANCH  20  23
HETATM   23  C   UNL     1      -9.702  16.407  66.207  1.00  0.00    -0.308 C  
HETATM   24  C   UNL     1      -8.173  16.544  66.226  1.00  0.00    -0.360 C  
HETATM   25  C   UNL     1     -10.322  17.758  66.596  1.00  0.00    -0.345 C  
ENDBRANCH  20  23
BRANCH  21  26
HETATM   26  C   UNL     1      -9.706  11.943  67.862  1.00  0.00    -0.192 A  
HETATM   27  C   UNL     1      -8.691  11.482  68.737  1.00  0.00    -0.048 A  
HETATM   28  C   UNL     1      -8.138  10.207  68.580  1.00  0.00    -0.109 A  
HETATM   29 CL   UNL     1      -7.017   9.578  69.722  1.00  0.00    -0.063 Cl 
HETATM   30  C   UNL     1      -8.490   9.419  67.476  1.00  0.00    -0.122 A  
HETATM   31  C   UNL     1      -9.485   9.899  66.646  1.00  0.00    -0.173 A  
HETATM   32  C   UNL     1     -10.182  11.054  66.941  1.00  0.00    -0.222 A  
HETATM   33  F   UNL     1     -11.353  11.236  66.335  1.00  0.00    -0.340 F  
BRANCH  31  34
HETATM   34  N   UNL     1      -9.886   9.216  65.458  1.00  0.00    -0.452 N  
HETATM   35  H   UNL     1     -10.577   8.465  65.464  1.00  0.00     0.000 HD 
BRANCH  34  36
HETATM   36  S   UNL     1      -9.134   9.742  64.041  1.00  0.00    -0.195 S  
HETATM   37  O   UNL     1      -8.811   8.614  63.199  1.00  0.00    -0.019 OA 
HETATM   38  O   UNL     1      -9.950  10.844  63.576  1.00  0.00    -0.312 OA 
HETATM   39  C   UNL     1      -7.648  10.383  64.769  1.00  0.00    -0.058 C  
ENDBRANCH  34  36
ENDBRANCH  31  34
ENDBRANCH  21  26
ENDBRANCH  16  18
ENDBRANCH  10  12
ENDBRANCH   9  10
ENDBRANCH   7   9
ENDBRANCH   4   7
ENDBRANCH   2   3
TORSDOF 10
ENDMDL
MODEL       83
REMARK 921   NORMALIZED FREE ENERGY PREDICTED BY IDOCK:   -5.68 KCAL/MOL
REMARK 922        TOTAL FREE ENERGY PREDICTED BY IDOCK:  -10.96 KCAL/MOL
REMARK 923 INTER-LIGAND FREE ENERGY PREDICTED BY IDOCK:   -9.86 KCAL/MOL
REMARK 924 INTRA-LIGAND FREE ENERGY PREDICTED BY IDOCK:   -1.10 KCAL/MOL
REMARK 927      BINDING AFFINITY PREDICTED BY RF-SCORE:    0.00 PKD
ROOT
HETATM    1  C   UNL     1     -12.243  17.211  74.456  1.00  0.00     0.170 C  
HETATM    2  O   UNL     1     -12.574  15.815  74.353  1.00  0.00    -0.587 OA 
ENDROOT
BRANCH   2   3
HETATM    3  C   UNL     1     -13.217  15.488  73.194  1.00  0.00    -0.549 C  
HETATM    4  N   UNL     1     -12.542  14.491  72.522  1.00  0.00    -0.325 N  
HETATM    5  O   UNL     1     -14.246  16.031  72.818  1.00  0.00    -0.472 OA 
HETATM    6  H   UNL     1     -11.689  14.113  72.935  1.00  0.00     0.000 HD 
BRANCH   4   7
HETATM    7  C   UNL     1     -13.003  13.949  71.231  1.00  0.00    -0.341 C  
HETATM    8  C   UNL     1     -12.808  15.057  70.147  1.00  0.00    -0.196 C  
BRANCH   7   9
HETATM    9  C   UNL     1     -12.272  12.646  70.697  1.00  0.00    -0.285 C  
BRANCH   9  10
HETATM   10  N   UNL     1     -12.674  11.250  71.071  1.00  0.00    -0.372 NA 
HETATM   11  H   UNL     1     -13.463  11.131  71.707  1.00  0.00     0.000 HD 
BRANCH  10  12
HETATM   12  C   UNL     1     -12.024  10.095  70.593  1.00  0.00    -0.332 A  
HETATM   13  N   UNL     1     -12.066   9.015  71.375  1.00  0.00    -0.311 NA 
HETATM   14  C   UNL     1     -11.339   7.969  70.968  1.00  0.00    -0.273 A  
HETATM   15  C   UNL     1     -10.643   7.894  69.776  1.00  0.00    -0.242 A  
HETATM   16  C   UNL     1     -10.634   9.010  68.959  1.00  0.00    -0.190 A  
HETATM   17  N   UNL     1     -11.290  10.150  69.414  1.00  0.00    -0.209 NA 
BRANCH  16  18
HETATM   18  C   UNL     1      -9.883   8.892  67.618  1.00  0.00    -0.229 A  
HETATM   19  C   UNL     1      -9.266   7.682  67.249  1.00  0.00    -0.131 A  
HETATM   20  N   UNL     1      -8.771   7.798  65.980  1.00  0.00    -0.156 NA 
HETATM   21  C   UNL     1      -9.677   9.687  66.395  1.00  0.00    -0.224 A  
HETATM   22  N   UNL     1      -8.973   9.002  65.466  1.00  0.00    -0.196 NA 
BRANCH  20  23
HETATM   23  C   UNL     1      -8.123   6.774  65.141  1.00  0.00    -0.132 C  
HETATM   24  C   UNL     1      -8.717   5.373  65.340  1.00  0.00    -0.154 C  
HETATM   25  C   UNL     1      -6.605   6.701  65.370  1.00  0.00    -0.050 C  
ENDBRANCH  20  23
BRANCH  21  26
HETATM   26  C   UNL     1     -10.023  11.054  66.002  1.00  0.00    -0.285 A  
HETATM   27  C   UNL     1     -10.847  11.359  64.890  1.00  0.00    -0.323 A  
HETATM   28  C   UNL     1     -10.998  12.680  64.455  1.00  0.00    -0.351 A  
HETATM   29 CL   UNL     1     -12.109  13.082  63.207  1.00  0.00    -0.612 Cl 
HETATM   30  C   UNL     1     -10.233  13.702  65.033  1.00  0.00    -0.356 A  
HETATM   31  C   UNL     1      -9.442  13.368  66.117  1.00  0.00    -0.140 A  
HETATM   32  C   UNL     1      -9.478  12.107  66.679  1.00  0.00    -0.223 A  
HETATM   33  F   UNL     1      -9.011  11.975  67.919  1.00  0.00    -0.154 F  
BRANCH  31  34
HETATM   34  N   UNL     1      -8.574  14.308  66.749  1.00  0.00    -0.415 N  
HETATM   35  H   UNL     1      -7.661  14.047  67.120  1.00  0.00     0.000 HD 
BRANCH  34  36
HETATM   36  S   UNL     1      -9.171  15.885  66.840  1.00  0.00    -0.242 S  
HETATM   37  O   UNL     1      -8.625  16.688  65.772  1.00  0.00    -0.464 OA 
HETATM   38  O   UNL     1     -10.597  15.730  67.037  1.00  0.00    -0.309 OA 
HETATM   39  C   UNL     1      -8.418  16.350  68.377  1.00  0.00    -0.204 C  
ENDBRANCH  34  36
ENDBRANCH  31  34
ENDBRANCH  21  26
ENDBRANCH  16  18
ENDBRANCH  10  12
ENDBRANCH   9  10
ENDBRANCH   7   9
ENDBRANCH   4   7
ENDBRANCH   2   3
TORSDOF 10
ENDMDL
MODEL       84
REMARK 921   NORMALIZED FREE ENERGY PREDICTED BY IDOCK:   -5.68 KCAL/MOL
REMARK 922        TOTAL FREE ENERGY PREDICTED BY IDOCK:  -10.96 KCAL/MOL
REMARK 923 INTER-LIGAND FREE ENERGY PREDICTED BY IDOCK:   -9.22 KCAL/MOL
REMARK 924 INTRA-LIGAND FREE ENERGY PREDICTED BY IDOCK:   -1.74 KCAL/MOL
REMARK 927      BINDING AFFINITY PREDICTED BY RF-SCORE:    0.00 PKD
ROOT
HETATM    1  C   UNL     1     -11.071  20.212  65.349  1.00  0.00     0.341 C  
HETATM    2  O   UNL     1     -10.899  19.820  66.723  1.00  0.00    -0.472 OA 
ENDROOT
BRANCH   2   3
HETATM    3  C   UNL     1      -9.608  19.522  67.049  1.00  0.00    -0.337 C  
HETATM    4  N   UNL     1      -8.733  20.040  66.118  1.00  0.00    -0.525 N  
HETATM    5  O   UNL     1      -9.294  18.870  68.036  1.00  0.00    -0.291 OA 
HETATM    6  H   UNL     1      -9.112  20.570  65.333  1.00  0.00     0.000 HD 
BRANCH   4   7
HETATM    7  C   UNL     1      -7.272  19.861  66.212  1.00  0.00    -0.276 C  
HETATM    8  C   UNL     1      -6.642  20.341  64.865  1.00  0.00    -0.323 C  
BRANCH   7   9
HETATM    9  C   UNL     1      -6.526  20.640  67.374  1.00  0.00    -0.279 C  
BRANCH   9  10
HETATM   10  N   UNL     1      -6.612  20.260  68.824  1.00  0.00    -0.301 NA 
HETATM   11  H   UNL     1      -6.941  20.963  69.486  1.00  0.00     0.000 HD 
BRANCH  10  12
HETATM   12  C   UNL     1      -6.264  18.989  69.320  1.00  0.00    -0.271 A  
HETATM   13  N   UNL     1      -5.599  18.956  70.476  1.00  0.00    -0.224 NA 
HETATM   14  C   UNL     1      -5.166  17.753  70.868  1.00  0.00    -0.258 A  
HETATM   15  C   UNL     1      -5.435  16.558  70.230  1.00  0.00    -0.196 A  
HETATM   16  C   UNL     1      -6.154  16.602  69.049  1.00  0.00    -0.162 A  
HETATM   17  N   UNL     1      -6.519  17.854  68.559  1.00  0.00    -0.204 NA 
BRANCH  16  18
HETATM   18  C   UNL     1      -6.474  15.255  68.371  1.00  0.00    -0.105 A  
HETATM   19  C   UNL     1      -5.455  14.312  68.139  1.00  0.00    -0.122 A  
HETATM   20  N   UNL     1      -6.009  13.167  67.637  1.00  0.00    -0.212 NA 
HETATM   21  C   UNL     1      -7.658  14.487  67.947  1.00  0.00    -0.145 A  
HETATM   22  N   UNL     1      -7.320  13.265  67.480  1.00  0.00    -0.159 NA 
BRANCH  20  23
HETATM   23  C   UNL     1      -5.354  11.884  67.323  1.00  0.00    -0.113 C  
HETATM   24  C   UNL     1      -6.053  11.116  66.192  1.00  0.00    -0.084 C  
HETATM   25  C   UNL     1      -5.245  10.963  68.549  1.00  0.00    -0.040 C  
ENDBRANCH  20  23
BRANCH  21  26
HETATM   26  C   UNL     1      -9.090  14.783  67.878  1.00  0.00    -0.183 A  
HETATM   27  C   UNL     1      -9.895  15.000  69.024  1.00  0.00    -0.236 A  
HETATM   28  C   UNL     1     -11.286  15.101  68.909  1.00  0.00    -0.301 A  
HETATM   29 CL   UNL     1     -12.261  15.513  70.264  1.00  0.00    -0.411 Cl 
HETATM   30  C   UNL     1     -11.909  14.859  67.677  1.00  0.00    -0.268 A  
HETATM   31  C   UNL     1     -11.092  14.654  66.582  1.00  0.00    -0.334 A  
HETATM   32  C   UNL     1      -9.720  14.784  66.667  1.00  0.00    -0.267 A  
HETATM   33  F   UNL     1      -9.049  14.962  65.530  1.00  0.00    -0.202 F  
BRANCH  31  34
HETATM   34  N   UNL     1     -11.609  14.339  65.290  1.00  0.00    -0.336 N  
HETATM   35  H   UNL     1     -11.829  15.056  64.598  1.00  0.00     0.000 HD 
BRANCH  34  36
HETATM   36  S   UNL     1     -11.830  12.692  64.989  1.00  0.00    -0.417 S  
HETATM   37  O   UNL     1     -11.153  11.906  65.994  1.00  0.00    -0.303 OA 
HETATM   38  O   UNL     1     -13.246  12.551  64.725  1.00  0.00    -0.839 OA 
HETATM   39  C   UNL     1     -10.938  12.594  63.459  1.00  0.00    -0.364 C  
ENDBRANCH  34  36
ENDBRANCH  31  34
ENDBRANCH  21  26
ENDBRANCH  16  18
ENDBRANCH  10  12
ENDBRANCH   9  10
ENDBRANCH   7   9
ENDBRANCH   4   7
ENDBRANCH   2   3
TORSDOF 10
ENDMDL
MODEL       85
REMARK 921   NORMALIZED FREE ENERGY PREDICTED BY IDOCK:   -5.67 KCAL/MOL
REMARK 922        TOTAL FREE ENERGY PREDICTED BY IDOCK:  -10.93 KCAL/MOL
REMARK 923 INTER-LIGAND FREE ENERGY PREDICTED BY IDOCK:   -8.71 KCAL/MOL
REMARK 924 INTRA-LIGAND FREE ENERGY PREDICTED BY IDOCK:   -2.22 KCAL/MOL
REMARK 927      BINDING AFFINITY PREDICTED BY RF-SCORE:    0.00 PKD
ROOT
HETATM    1  C   UNL     1     -10.513  11.148  63.769  1.00  0.00    -0.381 C  
HETATM    2  O   UNL     1     -11.741  11.778  63.362  1.00  0.00    -0.427 OA 
ENDROOT
BRANCH   2   3
HETATM    3  C   UNL     1     -11.886  13.051  63.831  1.00  0.00    -0.477 C  
HETATM    4  N   UNL     1     -10.941  13.330  64.795  1.00  0.00    -0.331 N  
HETATM    5  O   UNL     1     -12.756  13.819  63.442  1.00  0.00    -0.795 OA 
HETATM    6  H   UNL     1     -10.263  12.607  65.039  1.00  0.00     0.000 HD 
BRANCH   4   7
HETATM    7  C   UNL     1     -10.870  14.630  65.487  1.00  0.00    -0.345 C  
HETATM    8  C   UNL     1     -11.774  14.549  66.758  1.00  0.00    -0.393 C  
BRANCH   7   9
HETATM    9  C   UNL     1      -9.436  15.109  65.970  1.00  0.00    -0.323 C  
BRANCH   9  10
HETATM   10  N   UNL     1      -8.849  14.765  67.307  1.00  0.00    -0.192 NA 
HETATM   11  H   UNL     1      -8.745  15.512  67.994  1.00  0.00     0.000 HD 
BRANCH  10  12
HETATM   12  C   UNL     1      -8.432  13.468  67.667  1.00  0.00    -0.184 A  
HETATM   13  N   UNL     1      -7.156  13.158  67.428  1.00  0.00    -0.143 NA 
HETATM   14  C   UNL     1      -6.810  11.887  67.657  1.00  0.00    -0.112 A  
HETATM   15  C   UNL     1      -7.631  10.920  68.203  1.00  0.00    -0.094 A  
HETATM   16  C   UNL     1      -8.943  11.263  68.477  1.00  0.00    -0.166 A  
HETATM   17  N   UNL     1      -9.360  12.548  68.141  1.00  0.00    -0.207 NA 
BRANCH  16  18
HETATM   18  C   UNL     1      -9.833  10.179  69.118  1.00  0.00    -0.225 A  
HETATM   19  C   UNL     1     -10.796  10.526  70.085  1.00  0.00    -0.227 A  
HETATM   20  N   UNL     1     -11.525   9.417  70.411  1.00  0.00    -0.248 NA 
HETATM   21  C   UNL     1     -10.127   8.746  68.943  1.00  0.00    -0.198 A  
HETATM   22  N   UNL     1     -11.116   8.334  69.767  1.00  0.00    -0.125 NA 
BRANCH  20  23
HETATM   23  C   UNL     1     -12.691   9.305  71.307  1.00  0.00    -0.299 C  
HETATM   24  C   UNL     1     -13.102  10.649  71.925  1.00  0.00    -0.563 C  
HETATM   25  C   UNL     1     -12.467   8.291  72.439  1.00  0.00    -0.355 C  
ENDBRANCH  20  23
BRANCH  21  26
HETATM   26  C   UNL     1      -9.549   7.684  68.118  1.00  0.00    -0.158 A  
HETATM   27  C   UNL     1      -8.948   6.520  68.656  1.00  0.00    -0.126 A  
HETATM   28  C   UNL     1      -8.255   5.628  67.831  1.00  0.00    -0.101 A  
HETATM   29 CL   UNL     1      -7.652   4.138  68.443  1.00  0.00    -0.066 Cl 
HETATM   30  C   UNL     1      -8.037   5.942  66.483  1.00  0.00    -0.102 A  
HETATM   31  C   UNL     1      -8.640   7.084  65.992  1.00  0.00    -0.148 A  
HETATM   32  C   UNL     1      -9.508   7.834  66.761  1.00  0.00    -0.197 A  
HETATM   33  F   UNL     1     -10.334   8.661  66.124  1.00  0.00    -0.360 F  
BRANCH  31  34
HETATM   34  N   UNL     1      -8.441   7.540  64.654  1.00  0.00    -0.369 N  
HETATM   35  H   UNL     1      -9.176   7.500  63.947  1.00  0.00     0.000 HD 
BRANCH  34  36
HETATM   36  S   UNL     1      -6.900   8.148  64.326  1.00  0.00    -0.066 S  
HETATM   37  O   UNL     1      -6.337   8.745  65.514  1.00  0.00    -0.061 OA 
HETATM   38  O   UNL     1      -6.230   7.088  63.604  1.00  0.00    -0.042 OA 
HETATM   39  C   UNL     1      -7.372   9.424  63.187  1.00  0.00    -0.107 C  
ENDBRANCH  34  36
ENDBRANCH  31  34
ENDBRANCH  21  26
ENDBRANCH  16  18
ENDBRANCH  10  12
ENDBRANCH   9  10
ENDBRANCH   7   9
ENDBRANCH   4   7
ENDBRANCH   2   3
TORSDOF 10
ENDMDL
MODEL       86
REMARK 921   NORMALIZED FREE ENERGY PREDICTED BY IDOCK:   -5.62 KCAL/MOL
REMARK 922        TOTAL FREE ENERGY PREDICTED BY IDOCK:  -10.86 KCAL/MOL
REMARK 923 INTER-LIGAND FREE ENERGY PREDICTED BY IDOCK:  -10.58 KCAL/MOL
REMARK 924 INTRA-LIGAND FREE ENERGY PREDICTED BY IDOCK:   -0.28 KCAL/MOL
REMARK 927      BINDING AFFINITY PREDICTED BY RF-SCORE:    0.00 PKD
ROOT
HETATM    1  C   UNL     1      -9.090   4.920  65.513  1.00  0.00    -0.153 C  
HETATM    2  O   UNL     1      -9.214   6.090  66.343  1.00  0.00    -0.146 OA 
ENDROOT
BRANCH   2   3
HETATM    3  C   UNL     1      -8.504   7.162  65.887  1.00  0.00    -0.147 C  
HETATM    4  N   UNL     1      -8.752   7.383  64.549  1.00  0.00    -0.265 N  
HETATM    5  O   UNL     1      -7.745   7.817  66.589  1.00  0.00    -0.094 OA 
HETATM    6  H   UNL     1      -9.407   6.768  64.065  1.00  0.00     0.000 HD 
BRANCH   4   7
HETATM    7  C   UNL     1      -8.109   8.471  63.789  1.00  0.00    -0.154 C  
HETATM    8  C   UNL     1      -7.771   7.927  62.364  1.00  0.00    -0.122 C  
BRANCH   7   9
HETATM    9  C   UNL     1      -8.950   9.800  63.587  1.00  0.00    -0.240 C  
BRANCH   9  10
HETATM   10  N   UNL     1      -9.930  10.329  64.594  1.00  0.00    -0.336 NA 
HETATM   11  H   UNL     1     -10.157   9.743  65.398  1.00  0.00     0.000 HD 
BRANCH  10  12
HETATM   12  C   UNL     1     -10.555  11.587  64.490  1.00  0.00    -0.329 A  
HETATM   13  N   UNL     1     -11.442  11.738  63.505  1.00  0.00    -0.424 NA 
HETATM   14  C   UNL     1     -11.930  12.973  63.341  1.00  0.00    -0.520 A  
HETATM   15  C   UNL     1     -11.665  14.053  64.160  1.00  0.00    -0.340 A  
HETATM   16  C   UNL     1     -10.768  13.875  65.198  1.00  0.00    -0.362 A  
HETATM   17  N   UNL     1     -10.159  12.629  65.320  1.00  0.00    -0.277 NA 
BRANCH  16  18
HETATM   18  C   UNL     1     -10.513  15.083  66.122  1.00  0.00    -0.313 A  
HETATM   19  C   UNL     1      -9.984  16.279  65.602  1.00  0.00    -0.274 A  
HETATM   20  N   UNL     1      -9.960  17.226  66.589  1.00  0.00    -0.282 NA 
HETATM   21  C   UNL     1     -10.788  15.487  67.512  1.00  0.00    -0.306 A  
HETATM   22  N   UNL     1     -10.402  16.761  67.747  1.00  0.00    -0.307 NA 
BRANCH  20  23
HETATM   23  C   UNL     1      -9.574  18.646  66.500  1.00  0.00    -0.337 C  
HETATM   24  C   UNL     1      -8.112  18.895  66.897  1.00  0.00    -0.275 C  
HETATM   25  C   UNL     1     -10.476  19.555  67.349  1.00  0.00    -0.593 C  
ENDBRANCH  20  23
BRANCH  21  26
HETATM   26  C   UNL     1     -11.334  14.797  68.681  1.00  0.00    -0.305 A  
HETATM   27  C   UNL     1     -11.413  13.386  68.785  1.00  0.00    -0.344 A  
HETATM   28  C   UNL     1     -12.105  12.786  69.843  1.00  0.00    -0.259 A  
HETATM   29 CL   UNL     1     -12.082  11.082  70.065  1.00  0.00    -0.408 Cl 
HETATM   30  C   UNL     1     -12.836  13.575  70.741  1.00  0.00    -0.243 A  
HETATM   31  C   UNL     1     -12.733  14.947  70.612  1.00  0.00    -0.367 A  
HETATM   32  C   UNL     1     -11.866  15.526  69.706  1.00  0.00    -0.359 A  
HETATM   33  F   UNL     1     -11.533  16.800  69.904  1.00  0.00    -0.158 F  
BRANCH  31  34
HETATM   34  N   UNL     1     -13.477  15.851  71.427  1.00  0.00    -0.468 N  
HETATM   35  H   UNL     1     -14.060  16.590  71.034  1.00  0.00     0.000 HD 
BRANCH  34  36
HETATM   36  S   UNL     1     -13.322  15.608  73.091  1.00  0.00    -0.528 S  
HETATM   37  O   UNL     1     -13.876  16.729  73.813  1.00  0.00     0.008 OA 
HETATM   38  O   UNL     1     -13.774  14.250  73.310  1.00  0.00    -0.393 OA 
HETATM   39  C   UNL     1     -11.551  15.656  73.188  1.00  0.00    -0.161 C  
ENDBRANCH  34  36
ENDBRANCH  31  34
ENDBRANCH  21  26
ENDBRANCH  16  18
ENDBRANCH  10  12
ENDBRANCH   9  10
ENDBRANCH   7   9
ENDBRANCH   4   7
ENDBRANCH   2   3
TORSDOF 10
ENDMDL
MODEL       87
REMARK 921   NORMALIZED FREE ENERGY PREDICTED BY IDOCK:   -5.61 KCAL/MOL
REMARK 922        TOTAL FREE ENERGY PREDICTED BY IDOCK:  -10.84 KCAL/MOL
REMARK 923 INTER-LIGAND FREE ENERGY PREDICTED BY IDOCK:   -9.31 KCAL/MOL
REMARK 924 INTRA-LIGAND FREE ENERGY PREDICTED BY IDOCK:   -1.54 KCAL/MOL
REMARK 927      BINDING AFFINITY PREDICTED BY RF-SCORE:    0.00 PKD
ROOT
HETATM    1  C   UNL     1      -7.590  11.919  67.436  1.00  0.00    -0.151 C  
HETATM    2  O   UNL     1      -7.288  13.311  67.229  1.00  0.00    -0.140 OA 
ENDROOT
BRANCH   2   3
HETATM    3  C   UNL     1      -8.092  14.157  67.935  1.00  0.00    -0.154 C  
HETATM    4  N   UNL     1      -9.329  14.274  67.337  1.00  0.00    -0.197 N  
HETATM    5  O   UNL     1      -7.737  14.734  68.954  1.00  0.00    -0.132 OA 
HETATM    6  H   UNL     1      -9.512  13.742  66.485  1.00  0.00     0.000 HD 
BRANCH   4   7
HETATM    7  C   UNL     1     -10.397  15.135  67.877  1.00  0.00    -0.241 C  
HETATM    8  C   UNL     1     -10.459  16.429  67.003  1.00  0.00    -0.291 C  
BRANCH   7   9
HETATM    9  C   UNL     1     -11.862  14.528  67.908  1.00  0.00    -0.336 C  
BRANCH   9  10
HETATM   10  N   UNL     1     -12.663  14.218  66.677  1.00  0.00    -0.413 NA 
HETATM   11  H   UNL     1     -13.583  14.649  66.580  1.00  0.00     0.000 HD 
BRANCH  10  12
HETATM   12  C   UNL     1     -12.216  13.366  65.648  1.00  0.00    -0.463 A  
HETATM   13  N   UNL     1     -12.681  13.608  64.422  1.00  0.00    -0.653 NA 
HETATM   14  C   UNL     1     -12.349  12.716  63.483  1.00  0.00    -0.496 A  
HETATM   15  C   UNL     1     -11.500  11.641  63.665  1.00  0.00    -0.458 A  
HETATM   16  C   UNL     1     -10.999  11.419  64.935  1.00  0.00    -0.216 A  
HETATM   17  N   UNL     1     -11.421  12.268  65.955  1.00  0.00    -0.361 NA 
BRANCH  16  18
HETATM   18  C   UNL     1     -10.026  10.236  65.109  1.00  0.00    -0.395 A  
HETATM   19  C   UNL     1      -9.005  10.006  64.167  1.00  0.00    -0.236 A  
HETATM   20  N   UNL     1      -8.215   8.979  64.602  1.00  0.00    -0.151 NA 
HETATM   21  C   UNL     1      -9.696   9.217  66.122  1.00  0.00    -0.279 A  
HETATM   22  N   UNL     1      -8.633   8.469  65.750  1.00  0.00    -0.159 NA 
BRANCH  20  23
HETATM   23  C   UNL     1      -6.982   8.441  64.000  1.00  0.00    -0.075 C  
HETATM   24  C   UNL     1      -6.423   7.229  64.758  1.00  0.00    -0.037 C  
HETATM   25  C   UNL     1      -5.875   9.500  63.880  1.00  0.00    -0.091 C  
ENDBRANCH  20  23
BRANCH  21  26
HETATM   26  C   UNL     1     -10.297   8.820  67.396  1.00  0.00    -0.349 A  
HETATM   27  C   UNL     1     -10.512   9.720  68.468  1.00  0.00    -0.239 A  
HETATM   28  C   UNL     1     -10.922   9.252  69.722  1.00  0.00    -0.196 A  
HETATM   29 CL   UNL     1     -11.332  10.341  70.986  1.00  0.00    -0.378 Cl 
HETATM   30  C   UNL     1     -11.000   7.874  69.965  1.00  0.00    -0.208 A  
HETATM   31  C   UNL     1     -10.787   7.026  68.895  1.00  0.00    -0.167 A  
HETATM   32  C   UNL     1     -10.607   7.508  67.613  1.00  0.00    -0.233 A  
HETATM   33  F   UNL     1     -10.801   6.659  66.606  1.00  0.00    -0.348 F  
BRANCH  31  34
HETATM   34  N   UNL     1     -10.779   5.606  69.033  1.00  0.00    -0.263 N  
HETATM   35  H   UNL     1     -11.232   4.988  68.359  1.00  0.00     0.000 HD 
BRANCH  34  36
HETATM   36  S   UNL     1      -9.967   5.023  70.394  1.00  0.00    -0.259 S  
HETATM   37  O   UNL     1     -10.658   5.423  71.597  1.00  0.00    -0.227 OA 
HETATM   38  O   UNL     1      -9.687   3.636  70.091  1.00  0.00    -0.192 OA 
HETATM   39  C   UNL     1      -8.477   5.971  70.222  1.00  0.00    -0.124 C  
ENDBRANCH  34  36
ENDBRANCH  31  34
ENDBRANCH  21  26
ENDBRANCH  16  18
ENDBRANCH  10  12
ENDBRANCH   9  10
ENDBRANCH   7   9
ENDBRANCH   4   7
ENDBRANCH   2   3
TORSDOF 10
ENDMDL
MODEL       88
REMARK 921   NORMALIZED FREE ENERGY PREDICTED BY IDOCK:   -5.61 KCAL/MOL
REMARK 922        TOTAL FREE ENERGY PREDICTED BY IDOCK:  -10.84 KCAL/MOL
REMARK 923 INTER-LIGAND FREE ENERGY PREDICTED BY IDOCK:   -9.26 KCAL/MOL
REMARK 924 INTRA-LIGAND FREE ENERGY PREDICTED BY IDOCK:   -1.58 KCAL/MOL
REMARK 927      BINDING AFFINITY PREDICTED BY RF-SCORE:    0.00 PKD
ROOT
HETATM    1  C   UNL     1     -10.679  16.065  67.919  1.00  0.00    -0.316 C  
HETATM    2  O   UNL     1     -11.965  15.749  68.483  1.00  0.00    -0.314 OA 
ENDROOT
BRANCH   2   3
HETATM    3  C   UNL     1     -11.937  15.548  69.833  1.00  0.00    -0.362 C  
HETATM    4  N   UNL     1     -12.781  14.520  70.193  1.00  0.00    -0.526 N  
HETATM    5  O   UNL     1     -11.256  16.213  70.600  1.00  0.00    -0.368 OA 
HETATM    6  H   UNL     1     -13.302  14.034  69.462  1.00  0.00     0.000 HD 
BRANCH   4   7
HETATM    7  C   UNL     1     -12.961  14.091  71.593  1.00  0.00    -0.352 C  
HETATM    8  C   UNL     1     -14.136  14.922  72.202  1.00  0.00    -0.616 C  
BRANCH   7   9
HETATM    9  C   UNL     1     -13.303  12.562  71.838  1.00  0.00    -0.368 C  
BRANCH   9  10
HETATM   10  N   UNL     1     -12.438  11.428  71.370  1.00  0.00    -0.309 NA 
HETATM   11  H   UNL     1     -11.537  11.653  70.947  1.00  0.00     0.000 HD 
BRANCH  10  12
HETATM   12  C   UNL     1     -12.800  10.071  71.481  1.00  0.00    -0.432 A  
HETATM   13  N   UNL     1     -14.083   9.810  71.737  1.00  0.00    -0.001 NA 
HETATM   14  C   UNL     1     -14.386   8.528  71.965  1.00  0.00    -0.447 A  
HETATM   15  C   UNL     1     -13.506   7.468  71.861  1.00  0.00    -0.308 A  
HETATM   16  C   UNL     1     -12.185   7.748  71.563  1.00  0.00    -0.318 A  
HETATM   17  N   UNL     1     -11.821   9.086  71.433  1.00  0.00    -0.303 NA 
BRANCH  16  18
HETATM   18  C   UNL     1     -11.228   6.549  71.417  1.00  0.00    -0.331 A  
HETATM   19  C   UNL     1     -11.010   5.672  72.497  1.00  0.00    -0.264 A  
HETATM   20  N   UNL     1     -10.220   4.636  72.083  1.00  0.00    -0.192 NA 
HETATM   21  C   UNL     1     -10.470   5.865  70.354  1.00  0.00    -0.259 A  
HETATM   22  N   UNL     1      -9.855   4.753  70.815  1.00  0.00    -0.195 NA 
BRANCH  20  23
HETATM   23  C   UNL     1      -9.797   3.439  72.831  1.00  0.00    -0.142 C  
HETATM   24  C   UNL     1      -9.087   2.402  71.950  1.00  0.00    -0.141 C  
HETATM   25  C   UNL     1     -10.967   2.753  73.553  1.00  0.00    -0.316 C  
ENDBRANCH  20  23
BRANCH  21  26
HETATM   26  C   UNL     1     -10.207   6.158  68.945  1.00  0.00    -0.232 A  
HETATM   27  C   UNL     1     -10.528   5.268  67.891  1.00  0.00    -0.154 A  
HETATM   28  C   UNL     1     -10.093   5.520  66.585  1.00  0.00    -0.209 A  
HETATM   29 CL   UNL     1     -10.600   4.533  65.273  1.00  0.00    -0.230 Cl 
HETATM   30  C   UNL     1      -9.225   6.590  66.329  1.00  0.00    -0.160 A  
HETATM   31  C   UNL     1      -8.935   7.440  67.380  1.00  0.00    -0.123 A  
HETATM   32  C   UNL     1      -9.553   7.309  68.608  1.00  0.00    -0.141 A  
HETATM   33  F   UNL     1      -9.530   8.364  69.421  1.00  0.00    -0.155 F  
BRANCH  31  34
HETATM   34  N   UNL     1      -8.018   8.526  67.256  1.00  0.00    -0.101 N  
HETATM   35  H   UNL     1      -7.080   8.499  67.656  1.00  0.00     0.000 HD 
BRANCH  34  36
HETATM   36  S   UNL     1      -8.599   9.859  66.398  1.00  0.00    -0.129 S  
HETATM   37  O   UNL     1      -8.217   9.764  65.009  1.00  0.00    -0.129 OA 
HETATM   38  O   UNL     1      -9.980   9.991  66.811  1.00  0.00    -0.191 OA 
HETATM   39  C   UNL     1      -7.629  11.112  67.196  1.00  0.00    -0.125 C  
ENDBRANCH  34  36
ENDBRANCH  31  34
ENDBRANCH  21  26
ENDBRANCH  16  18
ENDBRANCH  10  12
ENDBRANCH   9  10
ENDBRANCH   7   9
ENDBRANCH   4   7
ENDBRANCH   2   3
TORSDOF 10
ENDMDL
MODEL       89
REMARK 921   NORMALIZED FREE ENERGY PREDICTED BY IDOCK:   -5.60 KCAL/MOL
REMARK 922        TOTAL FREE ENERGY PREDICTED BY IDOCK:  -10.83 KCAL/MOL
REMARK 923 INTER-LIGAND FREE ENERGY PREDICTED BY IDOCK:   -9.54 KCAL/MOL
REMARK 924 INTRA-LIGAND FREE ENERGY PREDICTED BY IDOCK:   -1.29 KCAL/MOL
REMARK 927      BINDING AFFINITY PREDICTED BY RF-SCORE:    0.00 PKD
ROOT
HETATM    1  C   UNL     1     -12.175  13.242  63.800  1.00  0.00    -0.439 C  
HETATM    2  O   UNL     1     -12.581  14.622  63.806  1.00  0.00    -0.820 OA 
ENDROOT
BRANCH   2   3
HETATM    3  C   UNL     1     -11.639  15.469  64.315  1.00  0.00    -0.194 C  
HETATM    4  N   UNL     1     -10.950  14.872  65.349  1.00  0.00    -0.344 N  
HETATM    5  O   UNL     1     -11.458  16.605  63.900  1.00  0.00    -1.186 OA 
HETATM    6  H   UNL     1     -11.189  13.915  65.609  1.00  0.00     0.000 HD 
BRANCH   4   7
HETATM    7  C   UNL     1      -9.880  15.560  66.094  1.00  0.00    -0.316 C  
HETATM    8  C   UNL     1     -10.548  16.385  67.241  1.00  0.00    -0.293 C  
BRANCH   7   9
HETATM    9  C   UNL     1      -8.772  14.647  66.768  1.00  0.00    -0.203 C  
BRANCH   9  10
HETATM   10  N   UNL     1      -8.693  13.159  66.588  1.00  0.00    -0.426 NA 
HETATM   11  H   UNL     1      -7.977  12.787  65.964  1.00  0.00     0.000 HD 
BRANCH  10  12
HETATM   12  C   UNL     1      -9.554  12.248  67.231  1.00  0.00    -0.187 A  
HETATM   13  N   UNL     1     -10.625  12.760  67.841  1.00  0.00    -0.216 NA 
HETATM   14  C   UNL     1     -11.360  11.899  68.552  1.00  0.00    -0.276 A  
HETATM   15  C   UNL     1     -11.153  10.534  68.619  1.00  0.00    -0.319 A  
HETATM   16  C   UNL     1     -10.058  10.011  67.955  1.00  0.00    -0.169 A  
HETATM   17  N   UNL     1      -9.212  10.903  67.301  1.00  0.00    -0.151 NA 
BRANCH  16  18
HETATM   18  C   UNL     1      -9.866   8.483  68.013  1.00  0.00    -0.202 A  
HETATM   19  C   UNL     1      -9.648   7.745  66.833  1.00  0.00    -0.198 A  
HETATM   20  N   UNL     1      -9.396   6.442  67.158  1.00  0.00    -0.122 NA 
HETATM   21  C   UNL     1      -9.692   7.430  69.029  1.00  0.00    -0.160 A  
HETATM   22  N   UNL     1      -9.455   6.225  68.464  1.00  0.00    -0.124 NA 
BRANCH  20  23
HETATM   23  C   UNL     1      -9.028   5.322  66.274  1.00  0.00    -0.133 C  
HETATM   24  C   UNL     1      -8.504   5.784  64.907  1.00  0.00    -0.103 C  
HETATM   25  C   UNL     1     -10.192   4.343  66.049  1.00  0.00    -0.246 C  
ENDBRANCH  20  23
BRANCH  21  26
HETATM   26  C   UNL     1      -9.773   7.405  70.489  1.00  0.00    -0.175 A  
HETATM   27  C   UNL     1      -8.792   7.983  71.333  1.00  0.00    -0.170 A  
HETATM   28  C   UNL     1      -8.827   7.774  72.716  1.00  0.00    -0.173 A  
HETATM   29 CL   UNL     1      -7.736   8.589  73.765  1.00  0.00    -0.151 Cl 
HETATM   30  C   UNL     1      -9.758   6.886  73.269  1.00  0.00    -0.213 A  
HETATM   31  C   UNL     1     -10.702   6.343  72.417  1.00  0.00    -0.226 A  
HETATM   32  C   UNL     1     -10.796   6.735  71.096  1.00  0.00    -0.238 A  
HETATM   33  F   UNL     1     -11.938   6.480  70.461  1.00  0.00    -0.419 F  
BRANCH  31  34
HETATM   34  N   UNL     1     -11.661   5.380  72.851  1.00  0.00    -0.491 N  
HETATM   35  H   UNL     1     -12.665   5.564  72.842  1.00  0.00     0.000 HD 
BRANCH  34  36
HETATM   36  S   UNL     1     -11.014   3.913  73.382  1.00  0.00    -0.221 S  
HETATM   37  O   UNL     1     -10.209   4.122  74.563  1.00  0.00    -0.178 OA 
HETATM   38  O   UNL     1     -12.128   2.989  73.361  1.00  0.00     0.101 OA 
HETATM   39  C   UNL     1      -9.959   3.587  71.994  1.00  0.00    -0.157 C  
ENDBRANCH  34  36
ENDBRANCH  31  34
ENDBRANCH  21  26
ENDBRANCH  16  18
ENDBRANCH  10  12
ENDBRANCH   9  10
ENDBRANCH   7   9
ENDBRANCH   4   7
ENDBRANCH   2   3
TORSDOF 10
ENDMDL
MODEL       90
REMARK 921   NORMALIZED FREE ENERGY PREDICTED BY IDOCK:   -5.60 KCAL/MOL
REMARK 922        TOTAL FREE ENERGY PREDICTED BY IDOCK:  -10.83 KCAL/MOL
REMARK 923 INTER-LIGAND FREE ENERGY PREDICTED BY IDOCK:   -8.34 KCAL/MOL
REMARK 924 INTRA-LIGAND FREE ENERGY PREDICTED BY IDOCK:   -2.49 KCAL/MOL
REMARK 927      BINDING AFFINITY PREDICTED BY RF-SCORE:    0.00 PKD
ROOT
HETATM    1  C   UNL     1      -6.873   6.345  66.517  1.00  0.00    -0.062 C  
HETATM    2  O   UNL     1      -7.484   7.438  65.808  1.00  0.00    -0.075 OA 
ENDROOT
BRANCH   2   3
HETATM    3  C   UNL     1      -7.904   7.110  64.552  1.00  0.00    -0.121 C  
HETATM    4  N   UNL     1      -7.897   5.743  64.373  1.00  0.00    -0.104 N  
HETATM    5  O   UNL     1      -8.226   7.937  63.710  1.00  0.00    -0.114 OA 
HETATM    6  H   UNL     1      -7.607   5.149  65.150  1.00  0.00     0.000 HD 
BRANCH   4   7
HETATM    7  C   UNL     1      -8.293   5.104  63.104  1.00  0.00    -0.115 C  
HETATM    8  C   UNL     1      -7.194   4.058  62.730  1.00  0.00    -0.044 C  
BRANCH   7   9
HETATM    9  C   UNL     1      -9.683   4.339  63.088  1.00  0.00    -0.074 C  
BRANCH   9  10
HETATM   10  N   UNL     1     -10.640   4.323  64.243  1.00  0.00    -0.483 NA 
HETATM   11  H   UNL     1     -11.637   4.240  64.041  1.00  0.00     0.000 HD 
BRANCH  10  12
HETATM   12  C   UNL     1     -10.240   4.417  65.591  1.00  0.00    -0.238 A  
HETATM   13  N   UNL     1      -9.503   3.414  66.071  1.00  0.00    -0.149 NA 
HETATM   14  C   UNL     1      -9.240   3.455  67.381  1.00  0.00    -0.195 A  
HETATM   15  C   UNL     1      -9.584   4.486  68.234  1.00  0.00    -0.203 A  
HETATM   16  C   UNL     1     -10.320   5.537  67.717  1.00  0.00    -0.189 A  
HETATM   17  N   UNL     1     -10.704   5.462  66.381  1.00  0.00    -0.280 NA 
BRANCH  16  18
HETATM   18  C   UNL     1     -10.662   6.694  68.676  1.00  0.00    -0.303 A  
HETATM   19  C   UNL     1     -11.439   6.462  69.827  1.00  0.00    -0.399 A  
HETATM   20  N   UNL     1     -11.504   7.610  70.565  1.00  0.00    -0.255 NA 
HETATM   21  C   UNL     1     -10.298   8.108  68.875  1.00  0.00    -0.211 A  
HETATM   22  N   UNL     1     -10.860   8.617  69.994  1.00  0.00    -0.232 NA 
BRANCH  20  23
HETATM   23  C   UNL     1     -12.128   7.830  71.883  1.00  0.00    -0.304 C  
HETATM   24  C   UNL     1     -12.841   9.185  71.989  1.00  0.00    -0.483 C  
HETATM   25  C   UNL     1     -11.121   7.712  73.037  1.00  0.00    -0.437 C  
ENDBRANCH  20  23
BRANCH  21  26
HETATM   26  C   UNL     1      -9.513   9.072  68.103  1.00  0.00    -0.155 A  
HETATM   27  C   UNL     1      -8.412   9.785  68.637  1.00  0.00    -0.116 A  
HETATM   28  C   UNL     1      -7.813  10.822  67.913  1.00  0.00    -0.109 A  
HETATM   29 CL   UNL     1      -6.386  11.592  68.481  1.00  0.00    -0.051 Cl 
HETATM   30  C   UNL     1      -8.378  11.252  66.705  1.00  0.00    -0.163 A  
HETATM   31  C   UNL     1      -9.449  10.531  66.212  1.00  0.00    -0.177 A  
HETATM   32  C   UNL     1      -9.886   9.372  66.824  1.00  0.00    -0.218 A  
HETATM   33  F   UNL     1     -10.635   8.542  66.100  1.00  0.00    -0.220 F  
BRANCH  31  34
HETATM   34  N   UNL     1     -10.145  10.910  65.025  1.00  0.00    -0.279 N  
HETATM   35  H   UNL     1     -10.048  10.400  64.147  1.00  0.00     0.000 HD 
BRANCH  34  36
HETATM   36  S   UNL     1     -11.141  12.264  65.180  1.00  0.00    -0.327 S  
HETATM   37  O   UNL     1     -11.939  12.162  66.379  1.00  0.00    -0.611 OA 
HETATM   38  O   UNL     1     -10.272  13.393  64.926  1.00  0.00    -0.348 OA 
HETATM   39  C   UNL     1     -12.167  11.986  63.759  1.00  0.00    -0.498 C  
ENDBRANCH  34  36
ENDBRANCH  31  34
ENDBRANCH  21  26
ENDBRANCH  16  18
ENDBRANCH  10  12
ENDBRANCH   9  10
ENDBRANCH   7   9
ENDBRANCH   4   7
ENDBRANCH   2   3
TORSDOF 10
ENDMDL
MODEL       91
REMARK 921   NORMALIZED FREE ENERGY PREDICTED BY IDOCK:   -5.59 KCAL/MOL
REMARK 922        TOTAL FREE ENERGY PREDICTED BY IDOCK:  -10.81 KCAL/MOL
REMARK 923 INTER-LIGAND FREE ENERGY PREDICTED BY IDOCK:   -9.21 KCAL/MOL
REMARK 924 INTRA-LIGAND FREE ENERGY PREDICTED BY IDOCK:   -1.60 KCAL/MOL
REMARK 927      BINDING AFFINITY PREDICTED BY RF-SCORE:    0.00 PKD
ROOT
HETATM    1  C   UNL     1     -10.460  18.343  65.835  1.00  0.00    -0.321 C  
HETATM    2  O   UNL     1      -9.974  17.049  65.435  1.00  0.00    -0.556 OA 
ENDROOT
BRANCH   2   3
HETATM    3  C   UNL     1     -10.931  16.253  64.878  1.00  0.00    -0.307 C  
HETATM    4  N   UNL     1     -11.020  15.050  65.545  1.00  0.00    -0.342 N  
HETATM    5  O   UNL     1     -11.600  16.579  63.907  1.00  0.00    -1.175 OA 
HETATM    6  H   UNL     1     -10.408  14.888  66.346  1.00  0.00     0.000 HD 
BRANCH   4   7
HETATM    7  C   UNL     1     -11.964  13.988  65.151  1.00  0.00    -0.387 C  
HETATM    8  C   UNL     1     -11.434  13.340  63.831  1.00  0.00    -0.409 C  
BRANCH   7   9
HETATM    9  C   UNL     1     -12.190  12.807  66.186  1.00  0.00    -0.271 C  
BRANCH   9  10
HETATM   10  N   UNL     1     -11.202  11.702  66.420  1.00  0.00    -0.311 NA 
HETATM   11  H   UNL     1     -11.397  10.787  66.013  1.00  0.00     0.000 HD 
BRANCH  10  12
HETATM   12  C   UNL     1     -10.020  11.857  67.171  1.00  0.00    -0.194 A  
HETATM   13  N   UNL     1      -9.236  12.888  66.853  1.00  0.00    -0.229 NA 
HETATM   14  C   UNL     1      -8.060  12.947  67.487  1.00  0.00    -0.181 A  
HETATM   15  C   UNL     1      -7.650  12.094  68.494  1.00  0.00    -0.124 A  
HETATM   16  C   UNL     1      -8.487  11.048  68.838  1.00  0.00    -0.122 A  
HETATM   17  N   UNL     1      -9.667  10.898  68.113  1.00  0.00    -0.161 NA 
BRANCH  16  18
HETATM   18  C   UNL     1      -8.028  10.130  69.988  1.00  0.00    -0.108 A  
HETATM   19  C   UNL     1      -6.693  10.157  70.434  1.00  0.00    -0.132 A  
HETATM   20  N   UNL     1      -6.567   9.345  71.527  1.00  0.00    -0.287 NA 
HETATM   21  C   UNL     1      -8.626   9.213  70.975  1.00  0.00    -0.177 A  
HETATM   22  N   UNL     1      -7.703   8.742  71.843  1.00  0.00    -0.311 NA 
BRANCH  20  23
HETATM   23  C   UNL     1      -5.388   9.121  72.382  1.00  0.00    -0.076 C  
HETATM   24  C   UNL     1      -5.137   7.636  72.679  1.00  0.00    -0.036 C  
HETATM   25  C   UNL     1      -5.475   9.881  73.715  1.00  0.00     0.201 C  
ENDBRANCH  20  23
BRANCH  21  26
HETATM   26  C   UNL     1      -9.972   8.676  71.176  1.00  0.00    -0.289 A  
HETATM   27  C   UNL     1     -11.086   9.478  71.525  1.00  0.00    -0.406 A  
HETATM   28  C   UNL     1     -12.306   8.891  71.879  1.00  0.00    -0.376 A  
HETATM   29 CL   UNL     1     -13.705   9.849  72.158  1.00  0.00    -0.376 Cl 
HETATM   30  C   UNL     1     -12.402   7.500  72.017  1.00  0.00    -0.305 A  
HETATM   31  C   UNL     1     -11.296   6.748  71.665  1.00  0.00    -0.266 A  
HETATM   32  C   UNL     1     -10.177   7.328  71.101  1.00  0.00    -0.190 A  
HETATM   33  F   UNL     1      -9.340   6.529  70.441  1.00  0.00    -0.157 F  
BRANCH  31  34
HETATM   34  N   UNL     1     -11.253   5.331  71.821  1.00  0.00    -0.020 N  
HETATM   35  H   UNL     1     -11.503   4.689  71.068  1.00  0.00     0.000 HD 
BRANCH  34  36
HETATM   36  S   UNL     1     -10.758   4.792  73.343  1.00  0.00    -0.286 S  
HETATM   37  O   UNL     1     -10.631   5.908  74.250  1.00  0.00    -0.246 OA 
HETATM   38  O   UNL     1     -11.612   3.659  73.629  1.00  0.00    -0.162 OA 
HETATM   39  C   UNL     1      -9.145   4.208  72.890  1.00  0.00    -0.111 C  
ENDBRANCH  34  36
ENDBRANCH  31  34
ENDBRANCH  21  26
ENDBRANCH  16  18
ENDBRANCH  10  12
ENDBRANCH   9  10
ENDBRANCH   7   9
ENDBRANCH   4   7
ENDBRANCH   2   3
TORSDOF 10
ENDMDL
MODEL       92
REMARK 921   NORMALIZED FREE ENERGY PREDICTED BY IDOCK:   -5.59 KCAL/MOL
REMARK 922        TOTAL FREE ENERGY PREDICTED BY IDOCK:  -10.81 KCAL/MOL
REMARK 923 INTER-LIGAND FREE ENERGY PREDICTED BY IDOCK:   -9.26 KCAL/MOL
REMARK 924 INTRA-LIGAND FREE ENERGY PREDICTED BY IDOCK:   -1.55 KCAL/MOL
REMARK 927      BINDING AFFINITY PREDICTED BY RF-SCORE:    0.00 PKD
ROOT
HETATM    1  C   UNL     1     -12.102  13.080  63.530  1.00  0.00    -0.542 C  
HETATM    2  O   UNL     1     -12.658  14.400  63.667  1.00  0.00    -0.817 OA 
ENDROOT
BRANCH   2   3
HETATM    3  C   UNL     1     -11.811  15.294  64.255  1.00  0.00    -0.225 C  
HETATM    4  N   UNL     1     -11.087  14.695  65.263  1.00  0.00    -0.340 N  
HETATM    5  O   UNL     1     -11.732  16.468  63.922  1.00  0.00    -1.148 OA 
HETATM    6  H   UNL     1     -11.239  13.703  65.452  1.00  0.00     0.000 HD 
BRANCH   4   7
HETATM    7  C   UNL     1     -10.102  15.427  66.080  1.00  0.00    -0.324 C  
HETATM    8  C   UNL     1     -10.870  16.119  67.252  1.00  0.00    -0.235 C  
BRANCH   7   9
HETATM    9  C   UNL     1      -8.934  14.575  66.733  1.00  0.00    -0.246 C  
BRANCH   9  10
HETATM   10  N   UNL     1      -8.707  13.119  66.453  1.00  0.00    -0.422 NA 
HETATM   11  H   UNL     1      -7.909  12.859  65.872  1.00  0.00     0.000 HD 
BRANCH  10  12
HETATM   12  C   UNL     1      -9.534  12.090  66.946  1.00  0.00    -0.203 A  
HETATM   13  N   UNL     1     -10.634  12.465  67.600  1.00  0.00    -0.213 NA 
HETATM   14  C   UNL     1     -11.339  11.482  68.170  1.00  0.00    -0.298 A  
HETATM   15  C   UNL     1     -11.072  10.132  68.051  1.00  0.00    -0.302 A  
HETATM   16  C   UNL     1      -9.945   9.755  67.341  1.00  0.00    -0.191 A  
HETATM   17  N   UNL     1      -9.132  10.764  66.834  1.00  0.00    -0.148 NA 
BRANCH  16  18
HETATM   18  C   UNL     1      -9.685   8.243  67.189  1.00  0.00    -0.255 A  
HETATM   19  C   UNL     1      -9.137   7.729  65.998  1.00  0.00    -0.121 A  
HETATM   20  N   UNL     1      -8.898   6.391  66.154  1.00  0.00    -0.149 NA 
HETATM   21  C   UNL     1      -9.709   7.029  68.024  1.00  0.00    -0.129 A  
HETATM   22  N   UNL     1      -9.268   5.946  67.345  1.00  0.00    -0.110 NA 
BRANCH  20  23
HETATM   23  C   UNL     1      -8.257   5.451  65.218  1.00  0.00    -0.133 C  
HETATM   24  C   UNL     1      -7.935   6.085  63.858  1.00  0.00    -0.114 C  
HETATM   25  C   UNL     1      -9.100   4.187  64.984  1.00  0.00    -0.143 C  
ENDBRANCH  20  23
BRANCH  21  26
HETATM   26  C   UNL     1     -10.149   6.745  69.390  1.00  0.00    -0.183 A  
HETATM   27  C   UNL     1     -11.491   6.891  69.822  1.00  0.00    -0.247 A  
HETATM   28  C   UNL     1     -11.821   6.779  71.177  1.00  0.00    -0.360 A  
HETATM   29 CL   UNL     1     -13.460   6.803  71.696  1.00  0.00    -0.287 Cl 
HETATM   30  C   UNL     1     -10.810   6.650  72.138  1.00  0.00    -0.259 A  
HETATM   31  C   UNL     1      -9.513   6.508  71.681  1.00  0.00    -0.156 A  
HETATM   32  C   UNL     1      -9.228   6.391  70.335  1.00  0.00    -0.155 A  
HETATM   33  F   UNL     1      -8.048   5.873  70.000  1.00  0.00    -0.099 F  
BRANCH  31  34
HETATM   34  N   UNL     1      -8.395   6.430  72.564  1.00  0.00    -0.116 N  
HETATM   35  H   UNL     1      -8.085   5.551  72.979  1.00  0.00     0.000 HD 
BRANCH  34  36
HETATM   36  S   UNL     1      -7.622   7.899  72.871  1.00  0.00    -0.126 S  
HETATM   37  O   UNL     1      -6.991   8.392  71.669  1.00  0.00    -0.072 OA 
HETATM   38  O   UNL     1      -8.592   8.680  73.608  1.00  0.00    -0.319 OA 
HETATM   39  C   UNL     1      -6.382   7.301  73.990  1.00  0.00    -0.076 C  
ENDBRANCH  34  36
ENDBRANCH  31  34
ENDBRANCH  21  26
ENDBRANCH  16  18
ENDBRANCH  10  12
ENDBRANCH   9  10
ENDBRANCH   7   9
ENDBRANCH   4   7
ENDBRANCH   2   3
TORSDOF 10
ENDMDL
MODEL       93
REMARK 921   NORMALIZED FREE ENERGY PREDICTED BY IDOCK:   -5.59 KCAL/MOL
REMARK 922        TOTAL FREE ENERGY PREDICTED BY IDOCK:  -10.81 KCAL/MOL
REMARK 923 INTER-LIGAND FREE ENERGY PREDICTED BY IDOCK:   -9.26 KCAL/MOL
REMARK 924 INTRA-LIGAND FREE ENERGY PREDICTED BY IDOCK:   -1.55 KCAL/MOL
REMARK 927      BINDING AFFINITY PREDICTED BY RF-SCORE:    0.00 PKD
ROOT
HETATM    1  C   UNL     1     -12.278  12.926  63.478  1.00  0.00    -0.512 C  
HETATM    2  O   UNL     1     -12.434  14.335  63.724  1.00  0.00    -0.810 OA 
ENDROOT
BRANCH   2   3
HETATM    3  C   UNL     1     -11.584  14.822  64.674  1.00  0.00    -0.399 C  
HETATM    4  N   UNL     1     -11.657  14.074  65.829  1.00  0.00    -0.330 N  
HETATM    5  O   UNL     1     -10.872  15.802  64.503  1.00  0.00    -0.467 OA 
HETATM    6  H   UNL     1     -12.291  13.275  65.856  1.00  0.00     0.000 HD 
BRANCH   4   7
HETATM    7  C   UNL     1     -10.855  14.382  67.028  1.00  0.00    -0.297 C  
HETATM    8  C   UNL     1     -11.765  14.174  68.281  1.00  0.00    -0.383 C  
BRANCH   7   9
HETATM    9  C   UNL     1      -9.547  13.514  67.260  1.00  0.00    -0.235 C  
BRANCH   9  10
HETATM   10  N   UNL     1      -9.041  12.491  66.286  1.00  0.00    -0.408 NA 
HETATM   11  H   UNL     1      -9.206  12.650  65.291  1.00  0.00     0.000 HD 
BRANCH  10  12
HETATM   12  C   UNL     1      -8.352  11.323  66.667  1.00  0.00    -0.163 A  
HETATM   13  N   UNL     1      -7.146  11.488  67.213  1.00  0.00    -0.118 NA 
HETATM   14  C   UNL     1      -6.453  10.369  67.452  1.00  0.00    -0.066 A  
HETATM   15  C   UNL     1      -6.924   9.082  67.269  1.00  0.00    -0.078 A  
HETATM   16  C   UNL     1      -8.189   8.925  66.732  1.00  0.00    -0.111 A  
HETATM   17  N   UNL     1      -8.885  10.075  66.369  1.00  0.00    -0.141 NA 
BRANCH  16  18
HETATM   18  C   UNL     1      -8.708   7.483  66.570  1.00  0.00    -0.151 A  
HETATM   19  C   UNL     1      -8.519   6.786  65.361  1.00  0.00    -0.096 A  
HETATM   20  N   UNL     1      -8.962   5.502  65.508  1.00  0.00    -0.153 NA 
HETATM   21  C   UNL     1      -9.301   6.422  67.405  1.00  0.00    -0.116 A  
HETATM   22  N   UNL     1      -9.468   5.275  66.711  1.00  0.00    -0.132 NA 
BRANCH  20  23
HETATM   23  C   UNL     1      -8.892   4.383  64.550  1.00  0.00    -0.148 C  
HETATM   24  C   UNL     1      -9.135   3.017  65.206  1.00  0.00    -0.149 C  
HETATM   25  C   UNL     1      -7.553   4.337  63.797  1.00  0.00    -0.066 C  
ENDBRANCH  20  23
BRANCH  21  26
HETATM   26  C   UNL     1      -9.784   6.368  68.785  1.00  0.00    -0.135 A  
HETATM   27  C   UNL     1      -9.488   5.303  69.672  1.00  0.00    -0.196 A  
HETATM   28  C   UNL     1     -10.121   5.214  70.917  1.00  0.00    -0.232 A  
HETATM   29 CL   UNL     1      -9.663   4.017  72.062  1.00  0.00    -0.220 Cl 
HETATM   30  C   UNL     1     -11.150   6.106  71.247  1.00  0.00    -0.351 A  
HETATM   31  C   UNL     1     -11.410   7.133  70.360  1.00  0.00    -0.289 A  
HETATM   32  C   UNL     1     -10.624   7.342  69.243  1.00  0.00    -0.213 A  
HETATM   33  F   UNL     1     -10.680   8.543  68.670  1.00  0.00    -0.230 F  
BRANCH  31  34
HETATM   34  N   UNL     1     -12.472   8.065  70.557  1.00  0.00    -0.335 N  
HETATM   35  H   UNL     1     -13.327   8.047  70.002  1.00  0.00     0.000 HD 
BRANCH  34  36
HETATM   36  S   UNL     1     -12.210   9.201  71.778  1.00  0.00    -0.389 S  
HETATM   37  O   UNL     1     -13.222   9.078  72.800  1.00  0.00    -0.403 OA 
HETATM   38  O   UNL     1     -10.797   9.103  72.077  1.00  0.00    -0.352 OA 
HETATM   39  C   UNL     1     -12.504  10.668  70.824  1.00  0.00    -0.385 C  
ENDBRANCH  34  36
ENDBRANCH  31  34
ENDBRANCH  21  26
ENDBRANCH  16  18
ENDBRANCH  10  12
ENDBRANCH   9  10
ENDBRANCH   7   9
ENDBRANCH   4   7
ENDBRANCH   2   3
TORSDOF 10
ENDMDL
MODEL       94
REMARK 921   NORMALIZED FREE ENERGY PREDICTED BY IDOCK:   -5.58 KCAL/MOL
REMARK 922        TOTAL FREE ENERGY PREDICTED BY IDOCK:  -10.80 KCAL/MOL
REMARK 923 INTER-LIGAND FREE ENERGY PREDICTED BY IDOCK:   -9.94 KCAL/MOL
REMARK 924 INTRA-LIGAND FREE ENERGY PREDICTED BY IDOCK:   -0.86 KCAL/MOL
REMARK 927      BINDING AFFINITY PREDICTED BY RF-SCORE:    0.00 PKD
ROOT
HETATM    1  C   UNL     1     -12.667  14.072  65.768  1.00  0.00    -0.450 C  
HETATM    2  O   UNL     1     -12.274  14.681  64.525  1.00  0.00    -0.472 OA 
ENDROOT
BRANCH   2   3
HETATM    3  C   UNL     1     -11.495  15.790  64.680  1.00  0.00    -0.282 C  
HETATM    4  N   UNL     1     -10.832  15.760  65.888  1.00  0.00    -0.303 N  
HETATM    5  O   UNL     1     -11.421  16.685  63.849  1.00  0.00    -1.186 OA 
HETATM    6  H   UNL     1     -10.972  14.958  66.503  1.00  0.00     0.000 HD 
BRANCH   4   7
HETATM    7  C   UNL     1      -9.928  16.839  66.327  1.00  0.00    -0.320 C  
HETATM    8  C   UNL     1     -10.528  18.197  65.840  1.00  0.00    -0.292 C  
BRANCH   7   9
HETATM    9  C   UNL     1      -9.680  16.978  67.888  1.00  0.00    -0.263 C  
BRANCH   9  10
HETATM   10  N   UNL     1      -9.427  15.813  68.799  1.00  0.00    -0.207 NA 
HETATM   11  H   UNL     1      -8.715  15.915  69.524  1.00  0.00     0.000 HD 
BRANCH  10  12
HETATM   12  C   UNL     1     -10.116  14.588  68.711  1.00  0.00    -0.239 A  
HETATM   13  N   UNL     1     -11.171  14.432  69.512  1.00  0.00    -0.257 NA 
HETATM   14  C   UNL     1     -11.735  13.220  69.508  1.00  0.00    -0.322 A  
HETATM   15  C   UNL     1     -11.375  12.172  68.682  1.00  0.00    -0.330 A  
HETATM   16  C   UNL     1     -10.300  12.357  67.832  1.00  0.00    -0.210 A  
HETATM   17  N   UNL     1      -9.624  13.573  67.899  1.00  0.00    -0.211 NA 
BRANCH  16  18
HETATM   18  C   UNL     1      -9.937  11.189  66.893  1.00  0.00    -0.230 A  
HETATM   19  C   UNL     1      -9.820  11.398  65.506  1.00  0.00    -0.231 A  
HETATM   20  N   UNL     1      -9.382  10.246  64.914  1.00  0.00    -0.228 NA 
HETATM   21  C   UNL     1      -9.500   9.786  66.996  1.00  0.00    -0.157 A  
HETATM   22  N   UNL     1      -9.221   9.259  65.782  1.00  0.00    -0.207 NA 
BRANCH  20  23
HETATM   23  C   UNL     1      -9.033  10.006  63.502  1.00  0.00    -0.256 C  
HETATM   24  C   UNL     1      -7.580   9.551  63.313  1.00  0.00    -0.115 C  
HETATM   25  C   UNL     1      -9.281  11.238  62.617  1.00  0.00    -0.330 C  
ENDBRANCH  20  23
BRANCH  21  26
HETATM   26  C   UNL     1      -9.356   8.846  68.108  1.00  0.00    -0.151 A  
HETATM   27  C   UNL     1      -8.144   8.179  68.412  1.00  0.00    -0.128 A  
HETATM   28  C   UNL     1      -8.110   7.160  69.371  1.00  0.00    -0.130 A  
HETATM   29 CL   UNL     1      -6.624   6.448  69.858  1.00  0.00    -0.046 Cl 
HETATM   30  C   UNL     1      -9.301   6.699  69.948  1.00  0.00    -0.153 A  
HETATM   31  C   UNL     1     -10.464   7.375  69.630  1.00  0.00    -0.232 A  
HETATM   32  C   UNL     1     -10.449   8.522  68.860  1.00  0.00    -0.188 A  
HETATM   33  F   UNL     1     -11.515   9.318  68.924  1.00  0.00    -0.003 F  
BRANCH  31  34
HETATM   34  N   UNL     1     -11.744   6.962  70.107  1.00  0.00    -0.570 N  
HETATM   35  H   UNL     1     -12.395   6.423  69.534  1.00  0.00     0.000 HD 
BRANCH  34  36
HETATM   36  S   UNL     1     -12.105   7.430  71.689  1.00  0.00    -0.333 S  
HETATM   37  O   UNL     1     -11.753   6.377  72.613  1.00  0.00    -0.216 OA 
HETATM   38  O   UNL     1     -11.572   8.770  71.808  1.00  0.00    -0.299 OA 
HETATM   39  C   UNL     1     -13.870   7.515  71.529  1.00  0.00    -0.387 C  
ENDBRANCH  34  36
ENDBRANCH  31  34
ENDBRANCH  21  26
ENDBRANCH  16  18
ENDBRANCH  10  12
ENDBRANCH   9  10
ENDBRANCH   7   9
ENDBRANCH   4   7
ENDBRANCH   2   3
TORSDOF 10
ENDMDL
MODEL       95
REMARK 921   NORMALIZED FREE ENERGY PREDICTED BY IDOCK:   -5.55 KCAL/MOL
REMARK 922        TOTAL FREE ENERGY PREDICTED BY IDOCK:  -10.75 KCAL/MOL
REMARK 923 INTER-LIGAND FREE ENERGY PREDICTED BY IDOCK:   -9.12 KCAL/MOL
REMARK 924 INTRA-LIGAND FREE ENERGY PREDICTED BY IDOCK:   -1.63 KCAL/MOL
REMARK 927      BINDING AFFINITY PREDICTED BY RF-SCORE:    0.00 PKD
ROOT
HETATM    1  C   UNL     1      -5.907   6.224  66.817  1.00  0.00    -0.020 C  
HETATM    2  O   UNL     1      -7.301   5.912  66.644  1.00  0.00    -0.076 OA 
ENDROOT
BRANCH   2   3
HETATM    3  C   UNL     1      -7.861   5.291  67.723  1.00  0.00    -0.092 C  
HETATM    4  N   UNL     1      -7.648   6.018  68.874  1.00  0.00    -0.089 N  
HETATM    5  O   UNL     1      -8.457   4.224  67.654  1.00  0.00    -0.098 OA 
HETATM    6  H   UNL     1      -7.134   6.897  68.809  1.00  0.00     0.000 HD 
BRANCH   4   7
HETATM    7  C   UNL     1      -8.132   5.577  70.195  1.00  0.00    -0.098 C  
HETATM    8  C   UNL     1      -6.890   5.402  71.128  1.00  0.00    -0.052 C  
BRANCH   7   9
HETATM    9  C   UNL     1      -9.141   6.542  70.949  1.00  0.00    -0.154 C  
BRANCH   9  10
HETATM   10  N   UNL     1     -10.346   7.160  70.301  1.00  0.00    -0.198 NA 
HETATM   11  H   UNL     1     -11.244   6.687  70.406  1.00  0.00     0.000 HD 
BRANCH  10  12
HETATM   12  C   UNL     1     -10.306   8.354  69.556  1.00  0.00    -0.219 A  
HETATM   13  N   UNL     1      -9.570   8.345  68.443  1.00  0.00    -0.146 NA 
HETATM   14  C   UNL     1      -9.440   9.520  67.817  1.00  0.00    -0.131 A  
HETATM   15  C   UNL     1     -10.076  10.693  68.177  1.00  0.00    -0.179 A  
HETATM   16  C   UNL     1     -10.862  10.681  69.315  1.00  0.00    -0.239 A  
HETATM   17  N   UNL     1     -10.923   9.499  70.047  1.00  0.00    -0.242 NA 
BRANCH  16  18
HETATM   18  C   UNL     1     -11.592  11.990  69.677  1.00  0.00    -0.371 A  
HETATM   19  C   UNL     1     -12.300  12.101  70.889  1.00  0.00    -0.273 A  
HETATM   20  N   UNL     1     -12.755  13.383  71.028  1.00  0.00    -0.333 NA 
HETATM   21  C   UNL     1     -11.703  13.369  69.170  1.00  0.00    -0.326 A  
HETATM   22  N   UNL     1     -12.441  14.147  69.993  1.00  0.00    -0.335 NA 
BRANCH  20  23
HETATM   23  C   UNL     1     -13.468  13.994  72.164  1.00  0.00    -0.475 C  
HETATM   24  C   UNL     1     -14.406  15.132  71.741  1.00  0.00    -0.696 C  
HETATM   25  C   UNL     1     -12.511  14.520  73.245  1.00  0.00    -0.368 C  
ENDBRANCH  20  23
BRANCH  21  26
HETATM   26  C   UNL     1     -11.234  14.046  67.960  1.00  0.00    -0.302 A  
HETATM   27  C   UNL     1     -11.979  14.091  66.755  1.00  0.00    -0.473 A  
HETATM   28  C   UNL     1     -11.408  14.595  65.581  1.00  0.00    -0.338 A  
HETATM   29 CL   UNL     1     -12.344  14.794  64.154  1.00  0.00    -0.420 Cl 
HETATM   30  C   UNL     1     -10.051  14.942  65.553  1.00  0.00    -0.400 A  
HETATM   31  C   UNL     1      -9.356  14.889  66.747  1.00  0.00    -0.250 A  
HETATM   32  C   UNL     1      -9.990  14.609  67.942  1.00  0.00    -0.221 A  
HETATM   33  F   UNL     1      -9.364  14.956  69.065  1.00  0.00    -0.185 F  
BRANCH  31  34
HETATM   34  N   UNL     1      -7.958  15.160  66.832  1.00  0.00    -0.305 N  
HETATM   35  H   UNL     1      -7.258  14.419  66.882  1.00  0.00     0.000 HD 
BRANCH  34  36
HETATM   36  S   UNL     1      -7.546  16.798  66.845  1.00  0.00    -0.245 S  
HETATM   37  O   UNL     1      -7.944  17.422  65.606  1.00  0.00    -0.477 OA 
HETATM   38  O   UNL     1      -7.996  17.282  68.133  1.00  0.00    -0.208 OA 
HETATM   39  C   UNL     1      -5.782  16.612  66.876  1.00  0.00    -0.081 C  
ENDBRANCH  34  36
ENDBRANCH  31  34
ENDBRANCH  21  26
ENDBRANCH  16  18
ENDBRANCH  10  12
ENDBRANCH   9  10
ENDBRANCH   7   9
ENDBRANCH   4   7
ENDBRANCH   2   3
TORSDOF 10
ENDMDL
MODEL       96
REMARK 921   NORMALIZED FREE ENERGY PREDICTED BY IDOCK:   -5.54 KCAL/MOL
REMARK 922        TOTAL FREE ENERGY PREDICTED BY IDOCK:  -10.73 KCAL/MOL
REMARK 923 INTER-LIGAND FREE ENERGY PREDICTED BY IDOCK:  -10.17 KCAL/MOL
REMARK 924 INTRA-LIGAND FREE ENERGY PREDICTED BY IDOCK:   -0.56 KCAL/MOL
REMARK 927      BINDING AFFINITY PREDICTED BY RF-SCORE:    0.00 PKD
ROOT
HETATM    1  C   UNL     1      -9.885   3.522  63.339  1.00  0.00    -0.143 C  
HETATM    2  O   UNL     1      -9.228   2.952  64.485  1.00  0.00    -0.124 OA 
ENDROOT
BRANCH   2   3
HETATM    3  C   UNL     1      -9.222   3.771  65.576  1.00  0.00    -0.153 C  
HETATM    4  N   UNL     1      -9.318   5.093  65.199  1.00  0.00    -0.333 N  
HETATM    5  O   UNL     1      -9.130   3.364  66.726  1.00  0.00    -0.144 OA 
HETATM    6  H   UNL     1      -9.389   5.315  64.205  1.00  0.00     0.000 HD 
BRANCH   4   7
HETATM    7  C   UNL     1      -9.321   6.201  66.172  1.00  0.00    -0.102 C  
HETATM    8  C   UNL     1     -10.582   6.040  67.079  1.00  0.00    -0.385 C  
BRANCH   7   9
HETATM    9  C   UNL     1      -8.068   6.312  67.139  1.00  0.00    -0.109 C  
BRANCH   9  10
HETATM   10  N   UNL     1      -7.141   7.491  67.173  1.00  0.00    -0.082 NA 
HETATM   11  H   UNL     1      -6.204   7.379  66.786  1.00  0.00     0.000 HD 
BRANCH  10  12
HETATM   12  C   UNL     1      -7.493   8.745  67.710  1.00  0.00    -0.093 A  
HETATM   13  N   UNL     1      -6.693   9.240  68.657  1.00  0.00    -0.053 NA 
HETATM   14  C   UNL     1      -7.109  10.367  69.244  1.00  0.00    -0.090 A  
HETATM   15  C   UNL     1      -8.229  11.092  68.883  1.00  0.00    -0.127 A  
HETATM   16  C   UNL     1      -9.032  10.585  67.877  1.00  0.00    -0.137 A  
HETATM   17  N   UNL     1      -8.682   9.355  67.327  1.00  0.00    -0.128 NA 
BRANCH  16  18
HETATM   18  C   UNL     1     -10.256  11.427  67.464  1.00  0.00    -0.210 A  
HETATM   19  C   UNL     1     -10.479  11.748  66.112  1.00  0.00    -0.245 A  
HETATM   20  N   UNL     1     -11.677  12.396  65.995  1.00  0.00    -0.437 NA 
HETATM   21  C   UNL     1     -11.481  11.968  68.078  1.00  0.00    -0.328 A  
HETATM   22  N   UNL     1     -12.274  12.571  67.164  1.00  0.00    -0.416 NA 
BRANCH  20  23
HETATM   23  C   UNL     1     -12.370  12.848  64.775  1.00  0.00    -0.459 C  
HETATM   24  C   UNL     1     -12.077  11.963  63.557  1.00  0.00    -0.575 C  
HETATM   25  C   UNL     1     -12.038  14.306  64.416  1.00  0.00    -0.490 C  
ENDBRANCH  20  23
BRANCH  21  26
HETATM   26  C   UNL     1     -11.986  12.032  69.450  1.00  0.00    -0.334 A  
HETATM   27  C   UNL     1     -12.278  10.884  70.227  1.00  0.00    -0.432 A  
HETATM   28  C   UNL     1     -12.924  11.004  71.462  1.00  0.00    -0.448 A  
HETATM   29 CL   UNL     1     -13.149   9.639  72.483  1.00  0.00    -0.371 Cl 
HETATM   30  C   UNL     1     -13.407  12.249  71.885  1.00  0.00    -0.431 A  
HETATM   31  C   UNL     1     -13.101  13.348  71.104  1.00  0.00    -0.178 A  
HETATM   32  C   UNL     1     -12.268  13.247  70.007  1.00  0.00    -0.275 A  
HETATM   33  F   UNL     1     -11.714  14.370  69.553  1.00  0.00    -0.268 F  
BRANCH  31  34
HETATM   34  N   UNL     1     -13.588  14.656  71.399  1.00  0.00    -0.387 N  
HETATM   35  H   UNL     1     -14.228  15.155  70.781  1.00  0.00     0.000 HD 
BRANCH  34  36
HETATM   36  S   UNL     1     -13.027  15.319  72.847  1.00  0.00    -0.516 S  
HETATM   37  O   UNL     1     -14.034  16.176  73.427  1.00  0.00    -0.488 OA 
HETATM   38  O   UNL     1     -12.457  14.201  73.569  1.00  0.00    -0.238 OA 
HETATM   39  C   UNL     1     -11.716  16.310  72.178  1.00  0.00    -0.441 C  
ENDBRANCH  34  36
ENDBRANCH  31  34
ENDBRANCH  21  26
ENDBRANCH  16  18
ENDBRANCH  10  12
ENDBRANCH   9  10
ENDBRANCH   7   9
ENDBRANCH   4   7
ENDBRANCH   2   3
TORSDOF 10
ENDMDL
MODEL       97
REMARK 921   NORMALIZED FREE ENERGY PREDICTED BY IDOCK:   -5.54 KCAL/MOL
REMARK 922        TOTAL FREE ENERGY PREDICTED BY IDOCK:  -10.73 KCAL/MOL
REMARK 923 INTER-LIGAND FREE ENERGY PREDICTED BY IDOCK:   -8.56 KCAL/MOL
REMARK 924 INTRA-LIGAND FREE ENERGY PREDICTED BY IDOCK:   -2.17 KCAL/MOL
REMARK 927      BINDING AFFINITY PREDICTED BY RF-SCORE:    0.00 PKD
ROOT
HETATM    1  C   UNL     1      -9.672   9.010  66.225  1.00  0.00    -0.275 C  
HETATM    2  O   UNL     1      -8.519   8.220  65.882  1.00  0.00    -0.123 OA 
ENDROOT
BRANCH   2   3
HETATM    3  C   UNL     1      -7.549   8.222  66.841  1.00  0.00    -0.092 C  
HETATM    4  N   UNL     1      -7.989   7.595  67.987  1.00  0.00    -0.121 N  
HETATM    5  O   UNL     1      -6.447   8.730  66.686  1.00  0.00    -0.061 OA 
HETATM    6  H   UNL     1      -8.933   7.208  68.001  1.00  0.00     0.000 HD 
BRANCH   4   7
HETATM    7  C   UNL     1      -7.152   7.462  69.194  1.00  0.00    -0.079 C  
HETATM    8  C   UNL     1      -5.758   6.913  68.753  1.00  0.00    -0.018 C  
BRANCH   7   9
HETATM    9  C   UNL     1      -6.884   8.782  70.032  1.00  0.00    -0.042 C  
BRANCH   9  10
HETATM   10  N   UNL     1      -5.987   9.894  69.573  1.00  0.00    -0.040 NA 
HETATM   11  H   UNL     1      -4.982   9.722  69.545  1.00  0.00     0.000 HD 
BRANCH  10  12
HETATM   12  C   UNL     1      -6.455  11.163  69.179  1.00  0.00    -0.074 A  
HETATM   13  N   UNL     1      -5.666  12.205  69.445  1.00  0.00    -0.076 NA 
HETATM   14  C   UNL     1      -6.180  13.411  69.180  1.00  0.00    -0.098 A  
HETATM   15  C   UNL     1      -7.399  13.647  68.575  1.00  0.00    -0.114 A  
HETATM   16  C   UNL     1      -8.194  12.556  68.274  1.00  0.00    -0.168 A  
HETATM   17  N   UNL     1      -7.731  11.296  68.643  1.00  0.00    -0.129 NA 
BRANCH  16  18
HETATM   18  C   UNL     1      -9.535  12.838  67.566  1.00  0.00    -0.187 A  
HETATM   19  C   UNL     1      -9.561  13.221  66.212  1.00  0.00    -0.235 A  
HETATM   20  N   UNL     1     -10.859  13.299  65.791  1.00  0.00    -0.273 NA 
HETATM   21  C   UNL     1     -10.977  12.703  67.839  1.00  0.00    -0.230 A  
HETATM   22  N   UNL     1     -11.722  13.030  66.759  1.00  0.00    -0.364 NA 
BRANCH  20  23
HETATM   23  C   UNL     1     -11.379  13.577  64.440  1.00  0.00    -0.382 C  
HETATM   24  C   UNL     1     -12.283  14.817  64.390  1.00  0.00    -0.447 C  
HETATM   25  C   UNL     1     -12.146  12.384  63.849  1.00  0.00    -0.587 C  
ENDBRANCH  20  23
BRANCH  21  26
HETATM   26  C   UNL     1     -11.757  12.348  69.025  1.00  0.00    -0.372 A  
HETATM   27  C   UNL     1     -12.141  13.287  70.013  1.00  0.00    -0.385 A  
HETATM   28  C   UNL     1     -12.729  12.863  71.210  1.00  0.00    -0.278 A  
HETATM   29 CL   UNL     1     -13.337  13.996  72.351  1.00  0.00    -0.564 Cl 
HETATM   30  C   UNL     1     -12.826  11.495  71.499  1.00  0.00    -0.485 A  
HETATM   31  C   UNL     1     -12.444  10.608  70.511  1.00  0.00    -0.358 A  
HETATM   32  C   UNL     1     -12.080  11.041  69.250  1.00  0.00    -0.292 A  
HETATM   33  F   UNL     1     -12.110  10.147  68.263  1.00  0.00     0.044 F  
BRANCH  31  34
HETATM   34  N   UNL     1     -12.440   9.195  70.710  1.00  0.00    -0.499 N  
HETATM   35  H   UNL     1     -13.236   8.605  70.465  1.00  0.00     0.000 HD 
BRANCH  34  36
HETATM   36  S   UNL     1     -11.022   8.571  71.382  1.00  0.00    -0.286 S  
HETATM   37  O   UNL     1      -9.948   9.528  71.257  1.00  0.00    -0.255 OA 
HETATM   38  O   UNL     1     -11.427   8.028  72.661  1.00  0.00    -0.381 OA 
HETATM   39  C   UNL     1     -10.767   7.240  70.237  1.00  0.00    -0.236 C  
ENDBRANCH  34  36
ENDBRANCH  31  34
ENDBRANCH  21  26
ENDBRANCH  16  18
ENDBRANCH  10  12
ENDBRANCH   9  10
ENDBRANCH   7   9
ENDBRANCH   4   7
ENDBRANCH   2   3
TORSDOF 10
ENDMDL
MODEL       98
REMARK 921   NORMALIZED FREE ENERGY PREDICTED BY IDOCK:   -5.54 KCAL/MOL
REMARK 922        TOTAL FREE ENERGY PREDICTED BY IDOCK:  -10.73 KCAL/MOL
REMARK 923 INTER-LIGAND FREE ENERGY PREDICTED BY IDOCK:   -9.40 KCAL/MOL
REMARK 924 INTRA-LIGAND FREE ENERGY PREDICTED BY IDOCK:   -1.33 KCAL/MOL
REMARK 927      BINDING AFFINITY PREDICTED BY RF-SCORE:    0.00 PKD
ROOT
HETATM    1  C   UNL     1      -6.256  11.768  69.772  1.00  0.00    -0.138 C  
HETATM    2  O   UNL     1      -7.513  11.170  70.137  1.00  0.00     0.178 OA 
ENDROOT
BRANCH   2   3
HETATM    3  C   UNL     1      -7.421   9.841  70.435  1.00  0.00    -0.149 C  
HETATM    4  N   UNL     1      -7.736   9.069  69.338  1.00  0.00    -0.081 N  
HETATM    5  O   UNL     1      -7.112   9.417  71.540  1.00  0.00    -0.319 OA 
HETATM    6  H   UNL     1      -7.981   9.536  68.464  1.00  0.00     0.000 HD 
BRANCH   4   7
HETATM    7  C   UNL     1      -7.733   7.595  69.374  1.00  0.00    -0.107 C  
HETATM    8  C   UNL     1      -7.848   7.151  70.868  1.00  0.00    -0.095 C  
BRANCH   7   9
HETATM    9  C   UNL     1      -8.892   6.854  68.583  1.00  0.00    -0.124 C  
BRANCH   9  10
HETATM   10  N   UNL     1     -10.304   7.356  68.507  1.00  0.00    -0.195 NA 
HETATM   11  H   UNL     1     -10.898   7.012  67.752  1.00  0.00     0.000 HD 
BRANCH  10  12
HETATM   12  C   UNL     1     -10.856   8.277  69.420  1.00  0.00    -0.084 A  
HETATM   13  N   UNL     1     -11.175   7.809  70.628  1.00  0.00    -0.268 NA 
HETATM   14  C   UNL     1     -11.813   8.661  71.437  1.00  0.00    -0.297 A  
HETATM   15  C   UNL     1     -12.072   9.989  71.156  1.00  0.00    -0.475 A  
HETATM   16  C   UNL     1     -11.707  10.471  69.912  1.00  0.00    -0.294 A  
HETATM   17  N   UNL     1     -11.143   9.573  69.009  1.00  0.00    -0.096 NA 
BRANCH  16  18
HETATM   18  C   UNL     1     -11.972  11.964  69.632  1.00  0.00    -0.365 A  
HETATM   19  C   UNL     1     -12.451  12.808  70.652  1.00  0.00    -0.246 A  
HETATM   20  N   UNL     1     -12.494  14.094  70.188  1.00  0.00    -0.350 NA 
HETATM   21  C   UNL     1     -11.745  12.942  68.553  1.00  0.00    -0.339 A  
HETATM   22  N   UNL     1     -12.112  14.189  68.924  1.00  0.00    -0.336 NA 
BRANCH  20  23
HETATM   23  C   UNL     1     -12.843  15.328  70.915  1.00  0.00    -0.449 C  
HETATM   24  C   UNL     1     -11.712  15.830  71.822  1.00  0.00    -0.562 C  
HETATM   25  C   UNL     1     -14.118  15.172  71.758  1.00  0.00    -0.645 C  
ENDBRANCH  20  23
BRANCH  21  26
HETATM   26  C   UNL     1     -11.265  12.840  67.174  1.00  0.00    -0.336 A  
HETATM   27  C   UNL     1     -12.069  13.139  66.046  1.00  0.00    -0.495 A  
HETATM   28  C   UNL     1     -11.619  12.854  64.753  1.00  0.00    -0.331 A  
HETATM   29 CL   UNL     1     -12.514  13.347  63.371  1.00  0.00    -0.382 Cl 
HETATM   30  C   UNL     1     -10.422  12.149  64.565  1.00  0.00    -0.339 A  
HETATM   31  C   UNL     1      -9.662  11.877  65.688  1.00  0.00    -0.227 A  
HETATM   32  C   UNL     1     -10.008  12.365  66.933  1.00  0.00    -0.215 A  
HETATM   33  F   UNL     1      -9.056  12.402  67.863  1.00  0.00    -0.162 F  
BRANCH  31  34
HETATM   34  N   UNL     1      -8.458  11.115  65.630  1.00  0.00    -0.347 N  
HETATM   35  H   UNL     1      -7.538  11.532  65.773  1.00  0.00     0.000 HD 
BRANCH  34  36
HETATM   36  S   UNL     1      -8.666   9.470  65.307  1.00  0.00    -0.179 S  
HETATM   37  O   UNL     1      -9.699   8.922  66.154  1.00  0.00    -0.255 OA 
HETATM   38  O   UNL     1      -8.724   9.381  63.864  1.00  0.00    -0.209 OA 
HETATM   39  C   UNL     1      -7.079   8.903  65.863  1.00  0.00    -0.084 C  
ENDBRANCH  34  36
ENDBRANCH  31  34
ENDBRANCH  21  26
ENDBRANCH  16  18
ENDBRANCH  10  12
ENDBRANCH   9  10
ENDBRANCH   7   9
ENDBRANCH   4   7
ENDBRANCH   2   3
TORSDOF 10
ENDMDL
MODEL       99
REMARK 921   NORMALIZED FREE ENERGY PREDICTED BY IDOCK:   -5.53 KCAL/MOL
REMARK 922        TOTAL FREE ENERGY PREDICTED BY IDOCK:  -10.72 KCAL/MOL
REMARK 923 INTER-LIGAND FREE ENERGY PREDICTED BY IDOCK:  -10.01 KCAL/MOL
REMARK 924 INTRA-LIGAND FREE ENERGY PREDICTED BY IDOCK:   -0.71 KCAL/MOL
REMARK 927      BINDING AFFINITY PREDICTED BY RF-SCORE:    0.00 PKD
ROOT
HETATM    1  C   UNL     1     -10.401   4.828  66.037  1.00  0.00    -0.293 C  
HETATM    2  O   UNL     1      -9.887   4.938  67.376  1.00  0.00    -0.161 OA 
ENDROOT
BRANCH   2   3
HETATM    3  C   UNL     1      -8.807   5.765  67.483  1.00  0.00    -0.106 C  
HETATM    4  N   UNL     1      -8.790   6.686  66.458  1.00  0.00    -0.134 N  
HETATM    5  O   UNL     1      -7.972   5.674  68.372  1.00  0.00    -0.098 OA 
HETATM    6  H   UNL     1      -9.544   6.666  65.769  1.00  0.00     0.000 HD 
BRANCH   4   7
HETATM    7  C   UNL     1      -7.728   7.699  66.314  1.00  0.00    -0.089 C  
HETATM    8  C   UNL     1      -6.592   7.083  65.437  1.00  0.00    -0.047 C  
BRANCH   7   9
HETATM    9  C   UNL     1      -8.136   9.077  65.641  1.00  0.00    -0.115 C  
BRANCH   9  10
HETATM   10  N   UNL     1      -9.505   9.369  65.101  1.00  0.00    -0.426 NA 
HETATM   11  H   UNL     1     -10.111   8.580  64.874  1.00  0.00     0.000 HD 
BRANCH  10  12
HETATM   12  C   UNL     1      -9.999  10.671  64.888  1.00  0.00    -0.318 A  
HETATM   13  N   UNL     1     -10.560  10.915  63.703  1.00  0.00    -0.261 NA 
HETATM   14  C   UNL     1     -10.908  12.185  63.471  1.00  0.00    -0.458 A  
HETATM   15  C   UNL     1     -10.822  13.218  64.384  1.00  0.00    -0.422 A  
HETATM   16  C   UNL     1     -10.269  12.944  65.622  1.00  0.00    -0.285 A  
HETATM   17  N   UNL     1      -9.794  11.655  65.848  1.00  0.00    -0.226 NA 
BRANCH  16  18
HETATM   18  C   UNL     1     -10.215  14.102  66.639  1.00  0.00    -0.270 A  
HETATM   19  C   UNL     1      -9.592  15.319  66.304  1.00  0.00    -0.303 A  
HETATM   20  N   UNL     1      -9.777  16.214  67.320  1.00  0.00    -0.231 NA 
HETATM   21  C   UNL     1     -10.776  14.438  67.960  1.00  0.00    -0.241 A  
HETATM   22  N   UNL     1     -10.449  15.695  68.336  1.00  0.00    -0.237 NA 
BRANCH  20  23
HETATM   23  C   UNL     1      -9.383  17.633  67.387  1.00  0.00    -0.247 C  
HETATM   24  C   UNL     1      -8.515  17.957  68.611  1.00  0.00    -0.272 C  
HETATM   25  C   UNL     1     -10.594  18.580  67.378  1.00  0.00    -0.463 C  
ENDBRANCH  20  23
BRANCH  21  26
HETATM   26  C   UNL     1     -11.552  13.694  68.952  1.00  0.00    -0.362 A  
HETATM   27  C   UNL     1     -11.927  14.231  70.208  1.00  0.00    -0.398 A  
HETATM   28  C   UNL     1     -12.511  13.419  71.186  1.00  0.00    -0.327 A  
HETATM   29 CL   UNL     1     -13.109  14.085  72.654  1.00  0.00    -0.551 Cl 
HETATM   30  C   UNL     1     -12.613  12.036  70.982  1.00  0.00    -0.370 A  
HETATM   31  C   UNL     1     -12.240  11.548  69.744  1.00  0.00    -0.244 A  
HETATM   32  C   UNL     1     -11.881  12.391  68.711  1.00  0.00    -0.311 A  
HETATM   33  F   UNL     1     -11.919  11.897  67.475  1.00  0.00    -0.372 F  
BRANCH  31  34
HETATM   34  N   UNL     1     -12.242  10.154  69.439  1.00  0.00    -0.420 N  
HETATM   35  H   UNL     1     -13.054   9.681  69.040  1.00  0.00     0.000 HD 
BRANCH  34  36
HETATM   36  S   UNL     1     -10.802   9.343  69.785  1.00  0.00    -0.216 S  
HETATM   37  O   UNL     1     -10.729   8.112  69.034  1.00  0.00    -0.185 OA 
HETATM   38  O   UNL     1      -9.775  10.361  69.700  1.00  0.00    -0.205 OA 
HETATM   39  C   UNL     1     -11.123   8.979  71.491  1.00  0.00    -0.349 C  
ENDBRANCH  34  36
ENDBRANCH  31  34
ENDBRANCH  21  26
ENDBRANCH  16  18
ENDBRANCH  10  12
ENDBRANCH   9  10
ENDBRANCH   7   9
ENDBRANCH   4   7
ENDBRANCH   2   3
TORSDOF 10
ENDMDL
MODEL      100
REMARK 921   NORMALIZED FREE ENERGY PREDICTED BY IDOCK:   -5.53 KCAL/MOL
REMARK 922        TOTAL FREE ENERGY PREDICTED BY IDOCK:  -10.72 KCAL/MOL
REMARK 923 INTER-LIGAND FREE ENERGY PREDICTED BY IDOCK:   -9.35 KCAL/MOL
REMARK 924 INTRA-LIGAND FREE ENERGY PREDICTED BY IDOCK:   -1.36 KCAL/MOL
REMARK 927      BINDING AFFINITY PREDICTED BY RF-SCORE:    0.00 PKD
ROOT
HETATM    1  C   UNL     1     -10.948  14.657  65.842  1.00  0.00    -0.332 C  
HETATM    2  O   UNL     1     -12.022  14.335  66.744  1.00  0.00    -0.414 OA 
ENDROOT
BRANCH   2   3
HETATM    3  C   UNL     1     -11.604  14.015  68.003  1.00  0.00    -0.337 C  
HETATM    4  N   UNL     1     -12.459  14.533  68.951  1.00  0.00    -0.569 N  
HETATM    5  O   UNL     1     -10.594  13.365  68.234  1.00  0.00    -0.240 OA 
HETATM    6  H   UNL     1     -13.274  15.063  68.639  1.00  0.00     0.000 HD 
BRANCH   4   7
HETATM    7  C   UNL     1     -12.245  14.354  70.399  1.00  0.00    -0.338 C  
HETATM    8  C   UNL     1     -13.145  15.388  71.150  1.00  0.00    -0.565 C  
BRANCH   7   9
HETATM    9  C   UNL     1     -12.581  12.926  71.004  1.00  0.00    -0.287 C  
BRANCH   9  10
HETATM   10  N   UNL     1     -11.859  11.667  70.621  1.00  0.00    -0.471 NA 
HETATM   11  H   UNL     1     -11.032  11.747  70.030  1.00  0.00     0.000 HD 
BRANCH  10  12
HETATM   12  C   UNL     1     -12.261  10.381  71.032  1.00  0.00    -0.393 A  
HETATM   13  N   UNL     1     -13.479  10.272  71.565  1.00  0.00    -0.295 NA 
HETATM   14  C   UNL     1     -13.795   9.073  72.064  1.00  0.00    -0.444 A  
HETATM   15  C   UNL     1     -13.008   7.940  71.984  1.00  0.00    -0.270 A  
HETATM   16  C   UNL     1     -11.760   8.058  71.400  1.00  0.00    -0.287 A  
HETATM   17  N   UNL     1     -11.362   9.322  70.974  1.00  0.00    -0.293 NA 
BRANCH  16  18
HETATM   18  C   UNL     1     -10.913   6.775  71.287  1.00  0.00    -0.288 A  
HETATM   19  C   UNL     1     -10.968   5.792  72.293  1.00  0.00    -0.262 A  
HETATM   20  N   UNL     1     -10.223   4.712  71.909  1.00  0.00    -0.196 NA 
HETATM   21  C   UNL     1     -10.056   6.101  70.295  1.00  0.00    -0.188 A  
HETATM   22  N   UNL     1      -9.639   4.893  70.734  1.00  0.00    -0.171 NA 
BRANCH  20  23
HETATM   23  C   UNL     1     -10.052   3.416  72.589  1.00  0.00    -0.162 C  
HETATM   24  C   UNL     1     -11.099   3.171  73.684  1.00  0.00    -0.321 C  
HETATM   25  C   UNL     1      -8.652   3.254  73.202  1.00  0.00    -0.081 C  
ENDBRANCH  20  23
BRANCH  21  26
HETATM   26  C   UNL     1      -9.529   6.481  68.984  1.00  0.00    -0.130 A  
HETATM   27  C   UNL     1      -8.836   7.693  68.745  1.00  0.00    -0.131 A  
HETATM   28  C   UNL     1      -8.513   8.086  67.442  1.00  0.00    -0.126 A  
HETATM   29 CL   UNL     1      -7.544   9.475  67.147  1.00  0.00    -0.091 Cl 
HETATM   30  C   UNL     1      -8.986   7.348  66.348  1.00  0.00    -0.190 A  
HETATM   31  C   UNL     1      -9.655   6.170  66.619  1.00  0.00    -0.152 A  
HETATM   32  C   UNL     1      -9.767   5.679  67.905  1.00  0.00    -0.125 A  
HETATM   33  F   UNL     1     -10.063   4.388  68.045  1.00  0.00    -0.193 F  
BRANCH  31  34
HETATM   34  N   UNL     1     -10.235   5.366  65.593  1.00  0.00    -0.407 N  
HETATM   35  H   UNL     1     -11.244   5.270  65.475  1.00  0.00     0.000 HD 
BRANCH  34  36
HETATM   36  S   UNL     1      -9.128   4.582  64.586  1.00  0.00    -0.136 S  
HETATM   37  O   UNL     1      -8.443   5.543  63.755  1.00  0.00    -0.118 OA 
HETATM   38  O   UNL     1      -8.418   3.670  65.457  1.00  0.00    -0.107 OA 
HETATM   39  C   UNL     1     -10.287   3.667  63.603  1.00  0.00    -0.241 C  
ENDBRANCH  34  36
ENDBRANCH  31  34
ENDBRANCH  21  26
ENDBRANCH  16  18
ENDBRANCH  10  12
ENDBRANCH   9  10
ENDBRANCH   7   9
ENDBRANCH   4   7
ENDBRANCH   2   3
TORSDOF 10
ENDMDL
MODEL      101
REMARK 921   NORMALIZED FREE ENERGY PREDICTED BY IDOCK:   -5.50 KCAL/MOL
REMARK 922        TOTAL FREE ENERGY PREDICTED BY IDOCK:  -10.68 KCAL/MOL
REMARK 923 INTER-LIGAND FREE ENERGY PREDICTED BY IDOCK:   -9.59 KCAL/MOL
REMARK 924 INTRA-LIGAND FREE ENERGY PREDICTED BY IDOCK:   -1.09 KCAL/MOL
REMARK 927      BINDING AFFINITY PREDICTED BY RF-SCORE:    0.00 PKD
ROOT
HETATM    1  C   UNL     1      -5.854  10.158  69.948  1.00  0.00    -0.048 C  
HETATM    2  O   UNL     1      -6.913  10.023  70.912  1.00  0.00    -0.337 OA 
ENDROOT
BRANCH   2   3
HETATM    3  C   UNL     1      -6.890   8.838  71.589  1.00  0.00    -0.078 C  
HETATM    4  N   UNL     1      -8.169   8.378  71.819  1.00  0.00    -0.141 N  
HETATM    5  O   UNL     1      -5.859   8.285  71.946  1.00  0.00    -0.036 OA 
HETATM    6  H   UNL     1      -8.956   8.928  71.473  1.00  0.00     0.000 HD 
BRANCH   4   7
HETATM    7  C   UNL     1      -8.446   7.124  72.543  1.00  0.00    -0.111 C  
HETATM    8  C   UNL     1      -9.152   7.491  73.888  1.00  0.00    -0.315 C  
BRANCH   7   9
HETATM    9  C   UNL     1      -9.371   6.062  71.812  1.00  0.00    -0.148 C  
BRANCH   9  10
HETATM   10  N   UNL     1     -10.479   6.428  70.869  1.00  0.00    -0.221 NA 
HETATM   11  H   UNL     1     -10.472   6.016  69.936  1.00  0.00     0.000 HD 
BRANCH  10  12
HETATM   12  C   UNL     1     -11.526   7.311  71.199  1.00  0.00    -0.283 A  
HETATM   13  N   UNL     1     -12.594   6.780  71.797  1.00  0.00    -0.359 NA 
HETATM   14  C   UNL     1     -13.628   7.606  71.988  1.00  0.00    -0.161 A  
HETATM   15  C   UNL     1     -13.635   8.958  71.707  1.00  0.00    -0.461 A  
HETATM   16  C   UNL     1     -12.509   9.503  71.116  1.00  0.00    -0.315 A  
HETATM   17  N   UNL     1     -11.461   8.642  70.803  1.00  0.00    -0.271 NA 
BRANCH  16  18
HETATM   18  C   UNL     1     -12.524  11.021  70.844  1.00  0.00    -0.509 A  
HETATM   19  C   UNL     1     -13.089  11.909  71.779  1.00  0.00    -0.360 A  
HETATM   20  N   UNL     1     -12.876  13.194  71.364  1.00  0.00    -0.354 NA 
HETATM   21  C   UNL     1     -11.964  11.973  69.868  1.00  0.00    -0.318 A  
HETATM   22  N   UNL     1     -12.239  13.253  70.205  1.00  0.00    -0.328 NA 
BRANCH  20  23
HETATM   23  C   UNL     1     -13.207  14.455  72.052  1.00  0.00    -0.369 C  
HETATM   24  C   UNL     1     -12.916  15.697  71.198  1.00  0.00    -0.539 C  
HETATM   25  C   UNL     1     -12.479  14.600  73.397  1.00  0.00    -0.441 C  
ENDBRANCH  20  23
BRANCH  21  26
HETATM   26  C   UNL     1     -11.234  11.824  68.609  1.00  0.00    -0.312 A  
HETATM   27  C   UNL     1     -10.759  10.579  68.127  1.00  0.00    -0.273 A  
HETATM   28  C   UNL     1      -9.915  10.520  67.013  1.00  0.00    -0.201 A  
HETATM   29 CL   UNL     1      -9.454   9.013  66.327  1.00  0.00    -0.281 Cl 
HETATM   30  C   UNL     1      -9.426  11.701  66.439  1.00  0.00    -0.232 A  
HETATM   31  C   UNL     1      -9.912  12.897  66.933  1.00  0.00    -0.238 A  
HETATM   32  C   UNL     1     -10.917  12.934  67.880  1.00  0.00    -0.241 A  
HETATM   33  F   UNL     1     -11.593  14.074  68.012  1.00  0.00    -0.288 F  
BRANCH  31  34
HETATM   34  N   UNL     1      -9.444  14.163  66.471  1.00  0.00    -0.297 N  
HETATM   35  H   UNL     1      -9.692  14.539  65.556  1.00  0.00     0.000 HD 
BRANCH  34  36
HETATM   36  S   UNL     1      -8.447  14.995  67.551  1.00  0.00    -0.187 S  
HETATM   37  O   UNL     1      -8.805  14.669  68.912  1.00  0.00    -0.179 OA 
HETATM   38  O   UNL     1      -7.107  14.804  67.039  1.00  0.00    -0.144 OA 
HETATM   39  C   UNL     1      -8.988  16.642  67.174  1.00  0.00    -0.210 C  
ENDBRANCH  34  36
ENDBRANCH  31  34
ENDBRANCH  21  26
ENDBRANCH  16  18
ENDBRANCH  10  12
ENDBRANCH   9  10
ENDBRANCH   7   9
ENDBRANCH   4   7
ENDBRANCH   2   3
TORSDOF 10
ENDMDL
MODEL      102
REMARK 921   NORMALIZED FREE ENERGY PREDICTED BY IDOCK:   -5.50 KCAL/MOL
REMARK 922        TOTAL FREE ENERGY PREDICTED BY IDOCK:  -10.67 KCAL/MOL
REMARK 923 INTER-LIGAND FREE ENERGY PREDICTED BY IDOCK:  -10.13 KCAL/MOL
REMARK 924 INTRA-LIGAND FREE ENERGY PREDICTED BY IDOCK:   -0.54 KCAL/MOL
REMARK 927      BINDING AFFINITY PREDICTED BY RF-SCORE:    0.00 PKD
ROOT
HETATM    1  C   UNL     1      -9.154   7.079  66.166  1.00  0.00    -0.115 C  
HETATM    2  O   UNL     1      -9.692   8.227  66.846  1.00  0.00    -0.185 OA 
ENDROOT
BRANCH   2   3
HETATM    3  C   UNL     1      -9.874   8.035  68.185  1.00  0.00    -0.170 C  
HETATM    4  N   UNL     1     -11.068   7.392  68.431  1.00  0.00    -0.438 N  
HETATM    5  O   UNL     1      -9.076   8.405  69.035  1.00  0.00    -0.146 OA 
HETATM    6  H   UNL     1     -11.656   7.130  67.638  1.00  0.00     0.000 HD 
BRANCH   4   7
HETATM    7  C   UNL     1     -11.532   7.066  69.792  1.00  0.00    -0.130 C  
HETATM    8  C   UNL     1     -10.672   5.873  70.320  1.00  0.00    -0.383 C  
BRANCH   7   9
HETATM    9  C   UNL     1     -11.437   8.219  70.879  1.00  0.00    -0.274 C  
BRANCH   9  10
HETATM   10  N   UNL     1     -12.429   9.338  70.997  1.00  0.00    -0.449 NA 
HETATM   11  H   UNL     1     -13.325   9.141  71.444  1.00  0.00     0.000 HD 
BRANCH  10  12
HETATM   12  C   UNL     1     -12.194  10.644  70.526  1.00  0.00    -0.358 A  
HETATM   13  N   UNL     1     -12.593  11.647  71.309  1.00  0.00    -0.361 NA 
HETATM   14  C   UNL     1     -12.479  12.875  70.792  1.00  0.00    -0.286 A  
HETATM   15  C   UNL     1     -11.900  13.180  69.575  1.00  0.00    -0.383 A  
HETATM   16  C   UNL     1     -11.459  12.132  68.786  1.00  0.00    -0.307 A  
HETATM   17  N   UNL     1     -11.671  10.838  69.252  1.00  0.00    -0.302 NA 
BRANCH  16  18
HETATM   18  C   UNL     1     -10.784  12.496  67.449  1.00  0.00    -0.254 A  
HETATM   19  C   UNL     1     -11.302  12.013  66.232  1.00  0.00    -0.357 A  
HETATM   20  N   UNL     1     -10.602  12.565  65.195  1.00  0.00    -0.285 NA 
HETATM   21  C   UNL     1      -9.720  13.389  66.956  1.00  0.00    -0.239 A  
HETATM   22  N   UNL     1      -9.628  13.361  65.608  1.00  0.00    -0.070 NA 
BRANCH  20  23
HETATM   23  C   UNL     1     -10.833  12.426  63.746  1.00  0.00    -0.454 C  
HETATM   24  C   UNL     1     -12.316  12.258  63.389  1.00  0.00    -0.624 C  
HETATM   25  C   UNL     1     -10.044  11.258  63.134  1.00  0.00    -0.385 C  
ENDBRANCH  20  23
BRANCH  21  26
HETATM   26  C   UNL     1      -8.728  14.244  67.610  1.00  0.00    -0.192 A  
HETATM   27  C   UNL     1      -7.875  13.792  68.647  1.00  0.00    -0.108 A  
HETATM   28  C   UNL     1      -7.074  14.695  69.356  1.00  0.00    -0.157 A  
HETATM   29 CL   UNL     1      -5.926  14.145  70.511  1.00  0.00    -0.173 Cl 
HETATM   30  C   UNL     1      -7.204  16.072  69.135  1.00  0.00    -0.208 A  
HETATM   31  C   UNL     1      -8.043  16.476  68.114  1.00  0.00    -0.172 A  
HETATM   32  C   UNL     1      -8.652  15.565  67.273  1.00  0.00    -0.193 A  
HETATM   33  F   UNL     1      -9.108  16.017  66.107  1.00  0.00    -0.280 F  
BRANCH  31  34
HETATM   34  N   UNL     1      -8.302  17.851  67.835  1.00  0.00    -0.241 N  
HETATM   35  H   UNL     1      -7.620  18.455  67.376  1.00  0.00     0.000 HD 
BRANCH  34  36
HETATM   36  S   UNL     1      -9.821  18.406  68.321  1.00  0.00    -0.377 S  
HETATM   37  O   UNL     1      -9.679  19.538  69.206  1.00  0.00    -0.394 OA 
HETATM   38  O   UNL     1     -10.598  18.474  67.101  1.00  0.00    -0.402 OA 
HETATM   39  C   UNL     1     -10.322  16.983  69.253  1.00  0.00    -0.276 C  
ENDBRANCH  34  36
ENDBRANCH  31  34
ENDBRANCH  21  26
ENDBRANCH  16  18
ENDBRANCH  10  12
ENDBRANCH   9  10
ENDBRANCH   7   9
ENDBRANCH   4   7
ENDBRANCH   2   3
TORSDOF 10
ENDMDL
MODEL      103
REMARK 921   NORMALIZED FREE ENERGY PREDICTED BY IDOCK:   -5.47 KCAL/MOL
REMARK 922        TOTAL FREE ENERGY PREDICTED BY IDOCK:  -10.63 KCAL/MOL
REMARK 923 INTER-LIGAND FREE ENERGY PREDICTED BY IDOCK:   -7.99 KCAL/MOL
REMARK 924 INTRA-LIGAND FREE ENERGY PREDICTED BY IDOCK:   -2.64 KCAL/MOL
REMARK 927      BINDING AFFINITY PREDICTED BY RF-SCORE:    0.00 PKD
ROOT
HETATM    1  C   UNL     1      -7.824   8.966  71.287  1.00  0.00    -0.125 C  
HETATM    2  O   UNL     1      -7.843   9.839  70.144  1.00  0.00    -0.159 OA 
ENDROOT
BRANCH   2   3
HETATM    3  C   UNL     1      -6.682  10.535  69.967  1.00  0.00    -0.151 C  
HETATM    4  N   UNL     1      -6.624  11.078  68.701  1.00  0.00    -0.055 N  
HETATM    5  O   UNL     1      -5.818  10.638  70.827  1.00  0.00    -0.136 OA 
HETATM    6  H   UNL     1      -7.407  10.925  68.066  1.00  0.00     0.000 HD 
BRANCH   4   7
HETATM    7  C   UNL     1      -5.474  11.872  68.228  1.00  0.00    -0.043 C  
HETATM    8  C   UNL     1      -5.169  11.445  66.756  1.00  0.00    -0.114 C  
BRANCH   7   9
HETATM    9  C   UNL     1      -5.644  13.449  68.224  1.00  0.00    -0.098 C  
BRANCH   9  10
HETATM   10  N   UNL     1      -6.398  14.205  67.170  1.00  0.00    -0.319 NA 
HETATM   11  H   UNL     1      -6.045  14.179  66.213  1.00  0.00     0.000 HD 
BRANCH  10  12
HETATM   12  C   UNL     1      -7.566  14.950  67.428  1.00  0.00    -0.204 A  
HETATM   13  N   UNL     1      -7.760  16.040  66.683  1.00  0.00    -0.235 NA 
HETATM   14  C   UNL     1      -8.804  16.804  67.025  1.00  0.00    -0.207 A  
HETATM   15  C   UNL     1      -9.729  16.502  68.005  1.00  0.00    -0.236 A  
HETATM   16  C   UNL     1      -9.534  15.351  68.748  1.00  0.00    -0.211 A  
HETATM   17  N   UNL     1      -8.392  14.599  68.488  1.00  0.00    -0.156 NA 
BRANCH  16  18
HETATM   18  C   UNL     1     -10.598  15.014  69.812  1.00  0.00    -0.232 A  
HETATM   19  C   UNL     1     -11.045  16.000  70.712  1.00  0.00    -0.293 A  
HETATM   20  N   UNL     1     -12.061  15.488  71.471  1.00  0.00    -0.351 NA 
HETATM   21  C   UNL     1     -11.497  13.900  70.159  1.00  0.00    -0.099 A  
HETATM   22  N   UNL     1     -12.321  14.222  71.182  1.00  0.00    -0.348 NA 
BRANCH  20  23
HETATM   23  C   UNL     1     -12.894  16.165  72.481  1.00  0.00    -0.310 C  
HETATM   24  C   UNL     1     -12.205  16.279  73.848  1.00  0.00    -0.586 C  
HETATM   25  C   UNL     1     -14.257  15.483  72.673  1.00  0.00    -0.397 C  
ENDBRANCH  20  23
BRANCH  21  26
HETATM   26  C   UNL     1     -11.648  12.527  69.674  1.00  0.00    -0.323 A  
HETATM   27  C   UNL     1     -11.666  11.397  70.528  1.00  0.00    -0.296 A  
HETATM   28  C   UNL     1     -11.632  10.102  70.000  1.00  0.00    -0.253 A  
HETATM   29 CL   UNL     1     -11.806   8.725  71.013  1.00  0.00    -0.322 Cl 
HETATM   30  C   UNL     1     -11.450   9.910  68.624  1.00  0.00     0.046 A  
HETATM   31  C   UNL     1     -11.439  11.034  67.821  1.00  0.00    -0.261 A  
HETATM   32  C   UNL     1     -11.702  12.291  68.330  1.00  0.00    -0.337 A  
HETATM   33  F   UNL     1     -12.059  13.240  67.467  1.00  0.00    -0.379 F  
BRANCH  31  34
HETATM   34  N   UNL     1     -11.200  10.969  66.416  1.00  0.00    -0.077 N  
HETATM   35  H   UNL     1     -11.929  10.723  65.746  1.00  0.00     0.000 HD 
BRANCH  34  36
HETATM   36  S   UNL     1      -9.620  11.331  65.941  1.00  0.00    -0.229 S  
HETATM   37  O   UNL     1      -8.803  11.609  67.098  1.00  0.00    -0.161 OA 
HETATM   38  O   UNL     1      -9.276  10.300  64.985  1.00  0.00    -0.178 OA 
HETATM   39  C   UNL     1      -9.957  12.842  65.075  1.00  0.00    -0.150 C  
ENDBRANCH  34  36
ENDBRANCH  31  34
ENDBRANCH  21  26
ENDBRANCH  16  18
ENDBRANCH  10  12
ENDBRANCH   9  10
ENDBRANCH   7   9
ENDBRANCH   4   7
ENDBRANCH   2   3
TORSDOF 10
ENDMDL
MODEL      104
REMARK 921   NORMALIZED FREE ENERGY PREDICTED BY IDOCK:   -5.47 KCAL/MOL
REMARK 922        TOTAL FREE ENERGY PREDICTED BY IDOCK:  -10.63 KCAL/MOL
REMARK 923 INTER-LIGAND FREE ENERGY PREDICTED BY IDOCK:   -8.28 KCAL/MOL
REMARK 924 INTRA-LIGAND FREE ENERGY PREDICTED BY IDOCK:   -2.35 KCAL/MOL
REMARK 927      BINDING AFFINITY PREDICTED BY RF-SCORE:    0.00 PKD
ROOT
HETATM    1  C   UNL     1     -13.070  11.348  71.713  1.00  0.00    -0.418 C  
HETATM    2  O   UNL     1     -12.873  10.383  70.665  1.00  0.00    -0.353 OA 
ENDROOT
BRANCH   2   3
HETATM    3  C   UNL     1     -11.864   9.499  70.917  1.00  0.00    -0.309 C  
HETATM    4  N   UNL     1     -12.153   8.260  70.386  1.00  0.00    -0.439 N  
HETATM    5  O   UNL     1     -10.854   9.787  71.543  1.00  0.00    -0.262 OA 
HETATM    6  H   UNL     1     -13.031   8.136  69.881  1.00  0.00     0.000 HD 
BRANCH   4   7
HETATM    7  C   UNL     1     -11.245   7.106  70.518  1.00  0.00    -0.290 C  
HETATM    8  C   UNL     1     -11.712   6.264  71.749  1.00  0.00    -0.355 C  
BRANCH   7   9
HETATM    9  C   UNL     1     -11.162   6.111  69.285  1.00  0.00    -0.367 C  
BRANCH   9  10
HETATM   10  N   UNL     1     -11.469   6.509  67.871  1.00  0.00    -0.641 NA 
HETATM   11  H   UNL     1     -12.349   6.193  67.462  1.00  0.00     0.000 HD 
BRANCH  10  12
HETATM   12  C   UNL     1     -10.610   7.292  67.075  1.00  0.00    -0.344 A  
HETATM   13  N   UNL     1      -9.628   6.651  66.439  1.00  0.00    -0.137 NA 
HETATM   14  C   UNL     1      -8.747   7.422  65.793  1.00  0.00    -0.109 A  
HETATM   15  C   UNL     1      -8.834   8.794  65.657  1.00  0.00    -0.239 A  
HETATM   16  C   UNL     1      -9.876   9.444  66.294  1.00  0.00    -0.281 A  
HETATM   17  N   UNL     1     -10.741   8.676  67.067  1.00  0.00    -0.216 NA 
BRANCH  16  18
HETATM   18  C   UNL     1      -9.976  10.970  66.099  1.00  0.00    -0.277 A  
HETATM   19  C   UNL     1     -10.941  11.519  65.234  1.00  0.00    -0.228 A  
HETATM   20  N   UNL     1     -10.902  12.882  65.323  1.00  0.00    -0.287 NA 
HETATM   21  C   UNL     1      -9.406  12.197  66.684  1.00  0.00    -0.226 A  
HETATM   22  N   UNL     1      -9.965  13.309  66.156  1.00  0.00    -0.289 NA 
BRANCH  20  23
HETATM   23  C   UNL     1     -11.775  13.878  64.675  1.00  0.00    -0.397 C  
HETATM   24  C   UNL     1     -11.137  15.271  64.592  1.00  0.00    -0.346 C  
HETATM   25  C   UNL     1     -13.140  14.003  65.369  1.00  0.00    -0.215 C  
ENDBRANCH  20  23
BRANCH  21  26
HETATM   26  C   UNL     1      -8.347  12.460  67.659  1.00  0.00    -0.169 A  
HETATM   27  C   UNL     1      -7.368  13.471  67.492  1.00  0.00    -0.174 A  
HETATM   28  C   UNL     1      -6.278  13.560  68.364  1.00  0.00    -0.093 A  
HETATM   29 CL   UNL     1      -5.167  14.867  68.265  1.00  0.00    -0.108 Cl 
HETATM   30  C   UNL     1      -6.072  12.571  69.335  1.00  0.00    -0.108 A  
HETATM   31  C   UNL     1      -7.049  11.602  69.472  1.00  0.00     0.056 A  
HETATM   32  C   UNL     1      -8.230  11.658  68.758  1.00  0.00    -0.055 A  
HETATM   33  F   UNL     1      -9.257  10.944  69.215  1.00  0.00    -0.182 F  
BRANCH  31  34
HETATM   34  N   UNL     1      -6.922  10.511  70.383  1.00  0.00    -0.203 N  
HETATM   35  H   UNL     1      -6.991  10.630  71.393  1.00  0.00     0.000 HD 
BRANCH  34  36
HETATM   36  S   UNL     1      -6.649   9.007  69.665  1.00  0.00    -0.043 S  
HETATM   37  O   UNL     1      -7.884   8.266  69.573  1.00  0.00    -0.099 OA 
HETATM   38  O   UNL     1      -5.834   9.295  68.503  1.00  0.00    -0.041 OA 
HETATM   39  C   UNL     1      -5.628   8.305  70.934  1.00  0.00    -0.032 C  
ENDBRANCH  34  36
ENDBRANCH  31  34
ENDBRANCH  21  26
ENDBRANCH  16  18
ENDBRANCH  10  12
ENDBRANCH   9  10
ENDBRANCH   7   9
ENDBRANCH   4   7
ENDBRANCH   2   3
TORSDOF 10
ENDMDL
MODEL      105
REMARK 921   NORMALIZED FREE ENERGY PREDICTED BY IDOCK:   -5.43 KCAL/MOL
REMARK 922        TOTAL FREE ENERGY PREDICTED BY IDOCK:  -10.56 KCAL/MOL
REMARK 923 INTER-LIGAND FREE ENERGY PREDICTED BY IDOCK:   -8.95 KCAL/MOL
REMARK 924 INTRA-LIGAND FREE ENERGY PREDICTED BY IDOCK:   -1.61 KCAL/MOL
REMARK 927      BINDING AFFINITY PREDICTED BY RF-SCORE:    0.00 PKD
ROOT
HETATM    1  C   UNL     1     -13.802   9.157  72.455  1.00  0.00    -0.457 C  
HETATM    2  O   UNL     1     -12.430   9.483  72.166  1.00  0.00    -0.357 OA 
ENDROOT
BRANCH   2   3
HETATM    3  C   UNL     1     -11.605   8.397  72.129  1.00  0.00    -0.374 C  
HETATM    4  N   UNL     1     -11.341   8.024  70.829  1.00  0.00    -0.274 N  
HETATM    5  O   UNL     1     -11.179   7.838  73.131  1.00  0.00    -0.402 OA 
HETATM    6  H   UNL     1     -11.754   8.567  70.070  1.00  0.00     0.000 HD 
BRANCH   4   7
HETATM    7  C   UNL     1     -10.486   6.872  70.489  1.00  0.00    -0.211 C  
HETATM    8  C   UNL     1     -11.126   6.143  69.263  1.00  0.00    -0.463 C  
BRANCH   7   9
HETATM    9  C   UNL     1      -8.979   7.184  70.104  1.00  0.00    -0.145 C  
BRANCH   9  10
HETATM   10  N   UNL     1      -8.564   7.835  68.817  1.00  0.00    -0.129 NA 
HETATM   11  H   UNL     1      -8.490   7.251  67.984  1.00  0.00     0.000 HD 
BRANCH  10  12
HETATM   12  C   UNL     1      -8.271   9.207  68.694  1.00  0.00    -0.114 A  
HETATM   13  N   UNL     1      -7.295   9.685  69.468  1.00  0.00    -0.075 NA 
HETATM   14  C   UNL     1      -7.115  11.010  69.432  1.00  0.00    -0.128 A  
HETATM   15  C   UNL     1      -7.784  11.886  68.600  1.00  0.00    -0.113 A  
HETATM   16  C   UNL     1      -8.772  11.373  67.778  1.00  0.00    -0.136 A  
HETATM   17  N   UNL     1      -9.056  10.014  67.879  1.00  0.00    -0.131 NA 
BRANCH  16  18
HETATM   18  C   UNL     1      -9.481  12.362  66.831  1.00  0.00    -0.219 A  
HETATM   19  C   UNL     1      -9.907  11.948  65.555  1.00  0.00    -0.232 A  
HETATM   20  N   UNL     1     -10.603  12.964  64.961  1.00  0.00    -0.303 NA 
HETATM   21  C   UNL     1     -10.035  13.727  66.874  1.00  0.00    -0.264 A  
HETATM   22  N   UNL     1     -10.658  14.049  65.718  1.00  0.00    -0.290 NA 
BRANCH  20  23
HETATM   23  C   UNL     1     -11.309  12.970  63.668  1.00  0.00    -0.339 C  
HETATM   24  C   UNL     1     -12.404  14.043  63.588  1.00  0.00    -0.087 C  
HETATM   25  C   UNL     1     -11.932  11.606  63.332  1.00  0.00    -0.310 C  
ENDBRANCH  20  23
BRANCH  21  26
HETATM   26  C   UNL     1     -10.009  14.803  67.865  1.00  0.00    -0.213 A  
HETATM   27  C   UNL     1     -10.865  14.842  68.994  1.00  0.00    -0.248 A  
HETATM   28  C   UNL     1     -10.920  15.979  69.808  1.00  0.00    -0.334 A  
HETATM   29 CL   UNL     1     -11.838  15.987  71.261  1.00  0.00    -0.486 Cl 
HETATM   30  C   UNL     1     -10.226  17.140  69.442  1.00  0.00    -0.164 A  
HETATM   31  C   UNL     1      -9.398  17.064  68.337  1.00  0.00    -0.266 A  
HETATM   32  C   UNL     1      -9.178  15.870  67.678  1.00  0.00    -0.208 A  
HETATM   33  F   UNL     1      -8.100  15.789  66.900  1.00  0.00    -0.197 F  
BRANCH  31  34
HETATM   34  N   UNL     1      -8.689  18.194  67.833  1.00  0.00    -0.256 N  
HETATM   35  H   UNL     1      -9.018  18.735  67.033  1.00  0.00     0.000 HD 
BRANCH  34  36
HETATM   36  S   UNL     1      -7.264  18.571  68.657  1.00  0.00    -0.291 S  
HETATM   37  O   UNL     1      -7.407  19.829  69.351  1.00  0.00    -0.318 OA 
HETATM   38  O   UNL     1      -6.899  17.349  69.341  1.00  0.00    -0.233 OA 
HETATM   39  C   UNL     1      -6.209  18.789  67.247  1.00  0.00    -0.178 C  
ENDBRANCH  34  36
ENDBRANCH  31  34
ENDBRANCH  21  26
ENDBRANCH  16  18
ENDBRANCH  10  12
ENDBRANCH   9  10
ENDBRANCH   7   9
ENDBRANCH   4   7
ENDBRANCH   2   3
TORSDOF 10
ENDMDL
MODEL      106
REMARK 921   NORMALIZED FREE ENERGY PREDICTED BY IDOCK:   -5.41 KCAL/MOL
REMARK 922        TOTAL FREE ENERGY PREDICTED BY IDOCK:  -10.53 KCAL/MOL
REMARK 923 INTER-LIGAND FREE ENERGY PREDICTED BY IDOCK:   -9.11 KCAL/MOL
REMARK 924 INTRA-LIGAND FREE ENERGY PREDICTED BY IDOCK:   -1.42 KCAL/MOL
REMARK 927      BINDING AFFINITY PREDICTED BY RF-SCORE:    0.00 PKD
ROOT
HETATM    1  C   UNL     1     -13.779   8.993  71.927  1.00  0.00    -0.441 C  
HETATM    2  O   UNL     1     -12.384   8.767  71.657  1.00  0.00    -0.304 OA 
ENDROOT
BRANCH   2   3
HETATM    3  C   UNL     1     -11.985   7.480  71.874  1.00  0.00    -0.301 C  
HETATM    4  N   UNL     1     -10.627   7.419  72.103  1.00  0.00    -0.214 N  
HETATM    5  O   UNL     1     -12.748   6.524  71.851  1.00  0.00    -0.325 OA 
HETATM    6  H   UNL     1     -10.090   8.286  72.097  1.00  0.00     0.000 HD 
BRANCH   4   7
HETATM    7  C   UNL     1      -9.919   6.150  72.355  1.00  0.00    -0.169 C  
HETATM    8  C   UNL     1     -10.311   5.657  73.785  1.00  0.00    -0.270 C  
BRANCH   7   9
HETATM    9  C   UNL     1     -10.214   4.952  71.357  1.00  0.00    -0.187 C  
BRANCH   9  10
HETATM   10  N   UNL     1      -9.820   4.956  69.909  1.00  0.00    -0.205 NA 
HETATM   11  H   UNL     1      -9.367   4.124  69.531  1.00  0.00     0.000 HD 
BRANCH  10  12
HETATM   12  C   UNL     1     -10.041   6.044  69.042  1.00  0.00    -0.176 A  
HETATM   13  N   UNL     1     -10.931   5.864  68.065  1.00  0.00    -0.242 NA 
HETATM   14  C   UNL     1     -11.035   6.858  67.177  1.00  0.00    -0.357 A  
HETATM   15  C   UNL     1     -10.376   8.070  67.252  1.00  0.00    -0.371 A  
HETATM   16  C   UNL     1      -9.481   8.258  68.289  1.00  0.00    -0.138 A  
HETATM   17  N   UNL     1      -9.269   7.194  69.162  1.00  0.00    -0.140 NA 
BRANCH  16  18
HETATM   18  C   UNL     1      -8.783   9.630  68.375  1.00  0.00    -0.120 A  
HETATM   19  C   UNL     1      -7.465   9.732  68.858  1.00  0.00    -0.075 A  
HETATM   20  N   UNL     1      -7.037  11.024  68.728  1.00  0.00    -0.079 NA 
HETATM   21  C   UNL     1      -9.028  11.021  67.954  1.00  0.00    -0.144 A  
HETATM   22  N   UNL     1      -7.970  11.818  68.225  1.00  0.00    -0.140 NA 
BRANCH  20  23
HETATM   23  C   UNL     1      -5.708  11.593  69.016  1.00  0.00    -0.051 C  
HETATM   24  C   UNL     1      -5.592  12.156  70.439  1.00  0.00    -0.162 C  
HETATM   25  C   UNL     1      -5.310  12.692  68.018  1.00  0.00    -0.087 C  
ENDBRANCH  20  23
BRANCH  21  26
HETATM   26  C   UNL     1     -10.171  11.717  67.363  1.00  0.00    -0.226 A  
HETATM   27  C   UNL     1     -10.435  11.737  65.971  1.00  0.00    -0.286 A  
HETATM   28  C   UNL     1     -11.435  12.563  65.446  1.00  0.00    -0.344 A  
HETATM   29 CL   UNL     1     -11.868  12.488  63.784  1.00  0.00    -0.528 Cl 
HETATM   30  C   UNL     1     -12.100  13.475  66.277  1.00  0.00    -0.476 A  
HETATM   31  C   UNL     1     -11.820  13.425  67.629  1.00  0.00    -0.354 A  
HETATM   32  C   UNL     1     -10.999  12.451  68.163  1.00  0.00    -0.228 A  
HETATM   33  F   UNL     1     -11.088  12.224  69.472  1.00  0.00    -0.267 F  
BRANCH  31  34
HETATM   34  N   UNL     1     -12.388  14.342  68.563  1.00  0.00    -0.569 N  
HETATM   35  H   UNL     1     -13.358  14.279  68.873  1.00  0.00     0.000 HD 
BRANCH  34  36
HETATM   36  S   UNL     1     -11.336  15.540  69.119  1.00  0.00    -0.354 S  
HETATM   37  O   UNL     1     -10.000  15.009  69.251  1.00  0.00    -0.225 OA 
HETATM   38  O   UNL     1     -11.629  16.698  68.301  1.00  0.00    -0.145 OA 
HETATM   39  C   UNL     1     -12.045  15.769  70.729  1.00  0.00    -0.408 C  
ENDBRANCH  34  36
ENDBRANCH  31  34
ENDBRANCH  21  26
ENDBRANCH  16  18
ENDBRANCH  10  12
ENDBRANCH   9  10
ENDBRANCH   7   9
ENDBRANCH   4   7
ENDBRANCH   2   3
TORSDOF 10
ENDMDL
MODEL      107
REMARK 921   NORMALIZED FREE ENERGY PREDICTED BY IDOCK:   -5.37 KCAL/MOL
REMARK 922        TOTAL FREE ENERGY PREDICTED BY IDOCK:  -10.47 KCAL/MOL
REMARK 923 INTER-LIGAND FREE ENERGY PREDICTED BY IDOCK:   -8.45 KCAL/MOL
REMARK 924 INTRA-LIGAND FREE ENERGY PREDICTED BY IDOCK:   -2.02 KCAL/MOL
REMARK 927      BINDING AFFINITY PREDICTED BY RF-SCORE:    0.00 PKD
ROOT
HETATM    1  C   UNL     1     -11.463  15.940  70.457  1.00  0.00    -0.392 C  
HETATM    2  O   UNL     1     -12.531  15.116  69.957  1.00  0.00    -0.322 OA 
ENDROOT
BRANCH   2   3
HETATM    3  C   UNL     1     -12.111  14.126  69.116  1.00  0.00    -0.325 C  
HETATM    4  N   UNL     1     -12.013  14.590  67.822  1.00  0.00    -0.545 N  
HETATM    5  O   UNL     1     -11.873  12.984  69.484  1.00  0.00    -0.305 OA 
HETATM    6  H   UNL     1     -12.239  15.567  67.633  1.00  0.00     0.000 HD 
BRANCH   4   7
HETATM    7  C   UNL     1     -11.593  13.732  66.698  1.00  0.00    -0.369 C  
HETATM    8  C   UNL     1     -12.546  14.018  65.493  1.00  0.00    -0.543 C  
BRANCH   7   9
HETATM    9  C   UNL     1     -10.109  13.917  66.168  1.00  0.00    -0.308 C  
BRANCH   9  10
HETATM   10  N   UNL     1      -8.910  14.024  67.063  1.00  0.00    -0.248 NA 
HETATM   11  H   UNL     1      -8.436  14.925  67.127  1.00  0.00     0.000 HD 
BRANCH  10  12
HETATM   12  C   UNL     1      -8.402  12.950  67.820  1.00  0.00    -0.178 A  
HETATM   13  N   UNL     1      -7.098  12.977  68.103  1.00  0.00    -0.093 NA 
HETATM   14  C   UNL     1      -6.609  11.891  68.710  1.00  0.00    -0.080 A  
HETATM   15  C   UNL     1      -7.354  10.811  69.143  1.00  0.00    -0.115 A  
HETATM   16  C   UNL     1      -8.711  10.810  68.872  1.00  0.00    -0.152 A  
HETATM   17  N   UNL     1      -9.225  11.877  68.141  1.00  0.00    -0.183 NA 
BRANCH  16  18
HETATM   18  C   UNL     1      -9.530   9.614  69.395  1.00  0.00    -0.201 A  
HETATM   19  C   UNL     1     -10.404   9.769  70.488  1.00  0.00    -0.283 A  
HETATM   20  N   UNL     1     -11.092   8.604  70.683  1.00  0.00    -0.246 NA 
HETATM   21  C   UNL     1      -9.828   8.224  69.004  1.00  0.00    -0.176 A  
HETATM   22  N   UNL     1     -10.735   7.657  69.830  1.00  0.00    -0.249 NA 
BRANCH  20  23
HETATM   23  C   UNL     1     -12.170   8.316  71.647  1.00  0.00    -0.313 C  
HETATM   24  C   UNL     1     -12.761   6.910  71.482  1.00  0.00    -0.396 C  
HETATM   25  C   UNL     1     -13.313   9.342  71.574  1.00  0.00    -0.436 C  
ENDBRANCH  20  23
BRANCH  21  26
HETATM   26  C   UNL     1      -9.320   7.332  67.962  1.00  0.00    -0.130 A  
HETATM   27  C   UNL     1      -8.679   6.099  68.238  1.00  0.00    -0.114 A  
HETATM   28  C   UNL     1      -8.056   5.375  67.216  1.00  0.00    -0.101 A  
HETATM   29 CL   UNL     1      -7.406   3.810  67.506  1.00  0.00    -0.066 Cl 
HETATM   30  C   UNL     1      -7.947   5.923  65.931  1.00  0.00    -0.109 A  
HETATM   31  C   UNL     1      -8.588   7.126  65.697  1.00  0.00    -0.107 A  
HETATM   32  C   UNL     1      -9.390   7.717  66.653  1.00  0.00    -0.190 A  
HETATM   33  F   UNL     1     -10.264   8.632  66.240  1.00  0.00    -0.357 F  
BRANCH  31  34
HETATM   34  N   UNL     1      -8.498   7.811  64.449  1.00  0.00    -0.374 N  
HETATM   35  H   UNL     1      -9.078   7.565  63.646  1.00  0.00     0.000 HD 
BRANCH  34  36
HETATM   36  S   UNL     1      -7.361   9.058  64.397  1.00  0.00    -0.102 S  
HETATM   37  O   UNL     1      -7.118   9.568  65.726  1.00  0.00    -0.091 OA 
HETATM   38  O   UNL     1      -6.295   8.552  63.558  1.00  0.00    -0.080 OA 
HETATM   39  C   UNL     1      -8.320  10.234  63.477  1.00  0.00    -0.169 C  
ENDBRANCH  34  36
ENDBRANCH  31  34
ENDBRANCH  21  26
ENDBRANCH  16  18
ENDBRANCH  10  12
ENDBRANCH   9  10
ENDBRANCH   7   9
ENDBRANCH   4   7
ENDBRANCH   2   3
TORSDOF 10
ENDMDL
MODEL      108
REMARK 921   NORMALIZED FREE ENERGY PREDICTED BY IDOCK:   -5.36 KCAL/MOL
REMARK 922        TOTAL FREE ENERGY PREDICTED BY IDOCK:  -10.45 KCAL/MOL
REMARK 923 INTER-LIGAND FREE ENERGY PREDICTED BY IDOCK:   -9.12 KCAL/MOL
REMARK 924 INTRA-LIGAND FREE ENERGY PREDICTED BY IDOCK:   -1.33 KCAL/MOL
REMARK 927      BINDING AFFINITY PREDICTED BY RF-SCORE:    0.00 PKD
ROOT
HETATM    1  C   UNL     1     -12.527  15.513  74.114  1.00  0.00    -0.662 C  
HETATM    2  O   UNL     1     -12.070  16.259  72.972  1.00  0.00    -0.504 OA 
ENDROOT
BRANCH   2   3
HETATM    3  C   UNL     1     -12.610  15.837  71.791  1.00  0.00    -0.462 C  
HETATM    4  N   UNL     1     -11.715  16.002  70.755  1.00  0.00    -0.454 N  
HETATM    5  O   UNL     1     -13.743  15.389  71.689  1.00  0.00    -0.460 OA 
HETATM    6  H   UNL     1     -10.793  16.389  70.962  1.00  0.00     0.000 HD 
BRANCH   4   7
HETATM    7  C   UNL     1     -12.035  15.643  69.362  1.00  0.00    -0.331 C  
HETATM    8  C   UNL     1     -11.032  16.394  68.429  1.00  0.00    -0.353 C  
BRANCH   7   9
HETATM    9  C   UNL     1     -11.956  14.105  68.980  1.00  0.00    -0.340 C  
BRANCH   9  10
HETATM   10  N   UNL     1     -12.014  13.590  67.572  1.00  0.00    -0.362 NA 
HETATM   11  H   UNL     1     -12.523  14.140  66.879  1.00  0.00     0.000 HD 
BRANCH  10  12
HETATM   12  C   UNL     1     -11.408  12.390  67.153  1.00  0.00    -0.329 A  
HETATM   13  N   UNL     1     -11.009  12.329  65.881  1.00  0.00    -0.290 NA 
HETATM   14  C   UNL     1     -10.552  11.143  65.467  1.00  0.00    -0.225 A  
HETATM   15  C   UNL     1     -10.376  10.029  66.266  1.00  0.00    -0.235 A  
HETATM   16  C   UNL     1     -10.764  10.115  67.591  1.00  0.00    -0.285 A  
HETATM   17  N   UNL     1     -11.347  11.304  68.019  1.00  0.00    -0.294 NA 
BRANCH  16  18
HETATM   18  C   UNL     1     -10.525   8.874  68.474  1.00  0.00    -0.218 A  
HETATM   19  C   UNL     1     -11.129   8.772  69.742  1.00  0.00    -0.073 A  
HETATM   20  N   UNL     1     -10.858   7.541  70.271  1.00  0.00    -0.243 NA 
HETATM   21  C   UNL     1      -9.898   7.545  68.363  1.00  0.00    -0.164 A  
HETATM   22  N   UNL     1     -10.092   6.807  69.479  1.00  0.00    -0.175 NA 
BRANCH  20  23
HETATM   23  C   UNL     1     -11.343   6.949  71.531  1.00  0.00    -0.266 C  
HETATM   24  C   UNL     1     -12.112   7.948  72.406  1.00  0.00    -0.336 C  
HETATM   25  C   UNL     1     -10.209   6.333  72.366  1.00  0.00    -0.208 C  
ENDBRANCH  20  23
BRANCH  21  26
HETATM   26  C   UNL     1      -9.082   6.889  67.341  1.00  0.00    -0.122 A  
HETATM   27  C   UNL     1      -7.740   7.251  67.067  1.00  0.00    -0.111 A  
HETATM   28  C   UNL     1      -7.067   6.715  65.963  1.00  0.00    -0.062 A  
HETATM   29 CL   UNL     1      -5.397   7.027  65.704  1.00  0.00    -0.026 Cl 
HETATM   30  C   UNL     1      -7.755   5.914  65.043  1.00  0.00    -0.095 A  
HETATM   31  C   UNL     1      -9.062   5.579  65.344  1.00  0.00    -0.053 A  
HETATM   32  C   UNL     1      -9.640   5.927  66.549  1.00  0.00    -0.156 A  
HETATM   33  F   UNL     1     -10.725   5.253  66.926  1.00  0.00    -0.274 F  
BRANCH  31  34
HETATM   34  N   UNL     1      -9.882   4.821  64.456  1.00  0.00    -0.362 N  
HETATM   35  H   UNL     1     -10.701   5.216  63.994  1.00  0.00     0.000 HD 
BRANCH  34  36
HETATM   36  S   UNL     1      -9.397   3.220  64.225  1.00  0.00    -0.144 S  
HETATM   37  O   UNL     1      -8.232   3.169  63.373  1.00  0.00    -0.083 OA 
HETATM   38  O   UNL     1      -9.411   2.635  65.549  1.00  0.00    -0.131 OA 
HETATM   39  C   UNL     1     -10.816   2.655  63.322  1.00  0.00    -0.231 C  
ENDBRANCH  34  36
ENDBRANCH  31  34
ENDBRANCH  21  26
ENDBRANCH  16  18
ENDBRANCH  10  12
ENDBRANCH   9  10
ENDBRANCH   7   9
ENDBRANCH   4   7
ENDBRANCH   2   3
TORSDOF 10
ENDMDL
MODEL      109
REMARK 921   NORMALIZED FREE ENERGY PREDICTED BY IDOCK:   -5.34 KCAL/MOL
REMARK 922        TOTAL FREE ENERGY PREDICTED BY IDOCK:  -10.42 KCAL/MOL
REMARK 923 INTER-LIGAND FREE ENERGY PREDICTED BY IDOCK:   -8.49 KCAL/MOL
REMARK 924 INTRA-LIGAND FREE ENERGY PREDICTED BY IDOCK:   -1.92 KCAL/MOL
REMARK 927      BINDING AFFINITY PREDICTED BY RF-SCORE:    0.00 PKD
ROOT
HETATM    1  C   UNL     1     -10.491  10.849  67.057  1.00  0.00    -0.244 C  
HETATM    2  O   UNL     1      -9.580  10.592  65.973  1.00  0.00    -0.183 OA 
ENDROOT
BRANCH   2   3
HETATM    3  C   UNL     1     -10.090  10.900  64.745  1.00  0.00    -0.321 C  
HETATM    4  N   UNL     1     -11.098  11.833  64.851  1.00  0.00    -0.302 N  
HETATM    5  O   UNL     1      -9.695  10.392  63.704  1.00  0.00    -0.296 OA 
HETATM    6  H   UNL     1     -11.343  12.187  65.777  1.00  0.00     0.000 HD 
BRANCH   4   7
HETATM    7  C   UNL     1     -11.839  12.341  63.682  1.00  0.00    -0.522 C  
HETATM    8  C   UNL     1     -13.260  11.693  63.694  1.00  0.00     0.245 C  
BRANCH   7   9
HETATM    9  C   UNL     1     -12.049  13.911  63.592  1.00  0.00    -0.201 C  
BRANCH   9  10
HETATM   10  N   UNL     1     -11.495  14.886  64.589  1.00  0.00    -0.551 NA 
HETATM   11  H   UNL     1     -11.350  15.851  64.289  1.00  0.00     0.000 HD 
BRANCH  10  12
HETATM   12  C   UNL     1     -11.163  14.544  65.914  1.00  0.00    -0.331 A  
HETATM   13  N   UNL     1     -12.177  14.387  66.767  1.00  0.00    -0.378 NA 
HETATM   14  C   UNL     1     -11.841  14.189  68.046  1.00  0.00    -0.365 A  
HETATM   15  C   UNL     1     -10.552  14.041  68.521  1.00  0.00    -0.260 A  
HETATM   16  C   UNL     1      -9.510  14.173  67.620  1.00  0.00    -0.213 A  
HETATM   17  N   UNL     1      -9.830  14.493  66.304  1.00  0.00    -0.290 NA 
BRANCH  16  18
HETATM   18  C   UNL     1      -8.082  13.968  68.164  1.00  0.00    -0.151 A  
HETATM   19  C   UNL     1      -7.554  12.672  68.313  1.00  0.00    -0.133 A  
HETATM   20  N   UNL     1      -6.245  12.761  68.698  1.00  0.00    -0.066 NA 
HETATM   21  C   UNL     1      -6.902  14.784  68.504  1.00  0.00    -0.107 A  
HETATM   22  N   UNL     1      -5.848  14.015  68.855  1.00  0.00    -0.080 NA 
BRANCH  20  23
HETATM   23  C   UNL     1      -5.262  11.680  68.893  1.00  0.00    -0.046 C  
HETATM   24  C   UNL     1      -5.314  10.616  67.789  1.00  0.00    -0.040 C  
HETATM   25  C   UNL     1      -5.415  10.985  70.255  1.00  0.00    -0.091 C  
ENDBRANCH  20  23
BRANCH  21  26
HETATM   26  C   UNL     1      -6.654  16.223  68.590  1.00  0.00    -0.135 A  
HETATM   27  C   UNL     1      -6.057  16.844  69.715  1.00  0.00    -0.229 A  
HETATM   28  C   UNL     1      -6.008  18.238  69.818  1.00  0.00    -0.236 A  
HETATM   29 CL   UNL     1      -5.155  19.004  71.099  1.00  0.00    -0.265 Cl 
HETATM   30  C   UNL     1      -6.663  19.037  68.871  1.00  0.00    -0.321 A  
HETATM   31  C   UNL     1      -7.232  18.397  67.786  1.00  0.00    -0.223 A  
HETATM   32  C   UNL     1      -7.076  17.040  67.580  1.00  0.00    -0.146 A  
HETATM   33  F   UNL     1      -7.300  16.576  66.353  1.00  0.00    -0.255 F  
BRANCH  31  34
HETATM   34  N   UNL     1      -7.978  19.096  66.790  1.00  0.00    -0.260 N  
HETATM   35  H   UNL     1      -7.532  19.576  66.008  1.00  0.00     0.000 HD 
BRANCH  34  36
HETATM   36  S   UNL     1      -9.653  19.072  67.001  1.00  0.00    -0.332 S  
HETATM   37  O   UNL     1     -10.308  18.727  65.761  1.00  0.00    -0.562 OA 
HETATM   38  O   UNL     1      -9.861  18.316  68.219  1.00  0.00    -0.312 OA 
HETATM   39  C   UNL     1      -9.889  20.797  67.338  1.00  0.00    -0.294 C  
ENDBRANCH  34  36
ENDBRANCH  31  34
ENDBRANCH  21  26
ENDBRANCH  16  18
ENDBRANCH  10  12
ENDBRANCH   9  10
ENDBRANCH   7   9
ENDBRANCH   4   7
ENDBRANCH   2   3
TORSDOF 10
ENDMDL
MODEL      110
REMARK 921   NORMALIZED FREE ENERGY PREDICTED BY IDOCK:   -5.34 KCAL/MOL
REMARK 922        TOTAL FREE ENERGY PREDICTED BY IDOCK:  -10.42 KCAL/MOL
REMARK 923 INTER-LIGAND FREE ENERGY PREDICTED BY IDOCK:   -9.01 KCAL/MOL
REMARK 924 INTRA-LIGAND FREE ENERGY PREDICTED BY IDOCK:   -1.41 KCAL/MOL
REMARK 927      BINDING AFFINITY PREDICTED BY RF-SCORE:    0.00 PKD
ROOT
HETATM    1  C   UNL     1      -9.824  20.321  67.023  1.00  0.00    -0.467 C  
HETATM    2  O   UNL     1     -10.862  19.331  66.916  1.00  0.00    -0.450 OA 
ENDROOT
BRANCH   2   3
HETATM    3  C   UNL     1     -10.394  18.070  66.682  1.00  0.00    -0.371 C  
HETATM    4  N   UNL     1     -11.147  17.134  67.359  1.00  0.00    -0.039 N  
HETATM    5  O   UNL     1      -9.427  17.829  65.973  1.00  0.00    -0.502 OA 
HETATM    6  H   UNL     1     -11.935  17.455  67.923  1.00  0.00     0.000 HD 
BRANCH   4   7
HETATM    7  C   UNL     1     -10.860  15.689  67.300  1.00  0.00    -0.298 C  
HETATM    8  C   UNL     1     -11.515  15.018  68.550  1.00  0.00    -0.335 C  
BRANCH   7   9
HETATM    9  C   UNL     1     -11.386  14.903  66.026  1.00  0.00    -0.306 C  
BRANCH   9  10
HETATM   10  N   UNL     1     -12.092  13.581  66.094  1.00  0.00    -0.420 NA 
HETATM   11  H   UNL     1     -13.110  13.581  66.150  1.00  0.00     0.000 HD 
BRANCH  10  12
HETATM   12  C   UNL     1     -11.426  12.339  66.086  1.00  0.00    -0.374 A  
HETATM   13  N   UNL     1     -10.918  11.937  64.920  1.00  0.00    -0.306 NA 
HETATM   14  C   UNL     1     -10.403  10.703  64.900  1.00  0.00    -0.277 A  
HETATM   15  C   UNL     1     -10.273   9.872  65.996  1.00  0.00    -0.269 A  
HETATM   16  C   UNL     1     -10.774  10.315  67.207  1.00  0.00    -0.263 A  
HETATM   17  N   UNL     1     -11.418  11.549  67.229  1.00  0.00    -0.495 NA 
BRANCH  16  18
HETATM   18  C   UNL     1     -10.587   9.388  68.425  1.00  0.00    -0.247 A  
HETATM   19  C   UNL     1     -10.981   9.808  69.710  1.00  0.00    -0.256 A  
HETATM   20  N   UNL     1     -10.819   8.775  70.590  1.00  0.00    -0.224 NA 
HETATM   21  C   UNL     1     -10.198   7.994  68.702  1.00  0.00    -0.206 A  
HETATM   22  N   UNL     1     -10.316   7.694  70.015  1.00  0.00    -0.217 NA 
BRANCH  20  23
HETATM   23  C   UNL     1     -11.175   8.712  72.020  1.00  0.00    -0.364 C  
HETATM   24  C   UNL     1     -10.596   7.481  72.728  1.00  0.00    -0.365 C  
HETATM   25  C   UNL     1     -12.694   8.743  72.249  1.00  0.00    -0.466 C  
ENDBRANCH  20  23
BRANCH  21  26
HETATM   26  C   UNL     1      -9.671   6.904  67.880  1.00  0.00    -0.136 A  
HETATM   27  C   UNL     1     -10.421   6.267  66.860  1.00  0.00    -0.337 A  
HETATM   28  C   UNL     1      -9.934   5.117  66.229  1.00  0.00    -0.210 A  
HETATM   29 CL   UNL     1     -10.758   4.421  64.891  1.00  0.00    -0.188 Cl 
HETATM   30  C   UNL     1      -8.758   4.508  66.688  1.00  0.00    -0.111 A  
HETATM   31  C   UNL     1      -8.051   5.160  67.682  1.00  0.00    -0.099 A  
HETATM   32  C   UNL     1      -8.425   6.409  68.136  1.00  0.00    -0.115 A  
HETATM   33  F   UNL     1      -7.507   7.126  68.782  1.00  0.00    -0.090 F  
BRANCH  31  34
HETATM   34  N   UNL     1      -6.875   4.608  68.271  1.00  0.00    -0.054 N  
HETATM   35  H   UNL     1      -5.937   4.847  67.949  1.00  0.00     0.000 HD 
BRANCH  34  36
HETATM   36  S   UNL     1      -7.148   3.531  69.543  1.00  0.00    -0.042 S  
HETATM   37  O   UNL     1      -7.904   4.177  70.590  1.00  0.00    -0.051 OA 
HETATM   38  O   UNL     1      -7.600   2.313  68.904  1.00  0.00    -0.044 OA 
HETATM   39  C   UNL     1      -5.465   3.326  70.065  1.00  0.00    -0.016 C  
ENDBRANCH  34  36
ENDBRANCH  31  34
ENDBRANCH  21  26
ENDBRANCH  16  18
ENDBRANCH  10  12
ENDBRANCH   9  10
ENDBRANCH   7   9
ENDBRANCH   4   7
ENDBRANCH   2   3
TORSDOF 10
ENDMDL
MODEL      111
REMARK 921   NORMALIZED FREE ENERGY PREDICTED BY IDOCK:   -5.33 KCAL/MOL
REMARK 922        TOTAL FREE ENERGY PREDICTED BY IDOCK:  -10.39 KCAL/MOL
REMARK 923 INTER-LIGAND FREE ENERGY PREDICTED BY IDOCK:   -8.82 KCAL/MOL
REMARK 924 INTRA-LIGAND FREE ENERGY PREDICTED BY IDOCK:   -1.58 KCAL/MOL
REMARK 927      BINDING AFFINITY PREDICTED BY RF-SCORE:    0.00 PKD
ROOT
HETATM    1  C   UNL     1      -6.950  11.482  68.006  1.00  0.00    -0.077 C  
HETATM    2  O   UNL     1      -7.164  12.566  67.085  1.00  0.00    -0.136 OA 
ENDROOT
BRANCH   2   3
HETATM    3  C   UNL     1      -6.923  13.797  67.623  1.00  0.00    -0.174 C  
HETATM    4  N   UNL     1      -7.832  14.723  67.156  1.00  0.00    -0.289 N  
HETATM    5  O   UNL     1      -6.009  14.026  68.403  1.00  0.00    -0.085 OA 
HETATM    6  H   UNL     1      -8.554  14.415  66.504  1.00  0.00     0.000 HD 
BRANCH   4   7
HETATM    7  C   UNL     1      -7.802  16.141  67.561  1.00  0.00    -0.147 C  
HETATM    8  C   UNL     1      -7.870  17.012  66.265  1.00  0.00    -0.346 C  
BRANCH   7   9
HETATM    9  C   UNL     1      -8.968  16.640  68.513  1.00  0.00    -0.235 C  
BRANCH   9  10
HETATM   10  N   UNL     1     -10.425  16.393  68.250  1.00  0.00    -0.286 NA 
HETATM   11  H   UNL     1     -11.077  17.166  68.386  1.00  0.00     0.000 HD 
BRANCH  10  12
HETATM   12  C   UNL     1     -10.943  15.153  67.827  1.00  0.00    -0.306 A  
HETATM   13  N   UNL     1     -11.562  15.131  66.646  1.00  0.00    -0.201 NA 
HETATM   14  C   UNL     1     -12.157  13.979  66.318  1.00  0.00    -0.456 A  
HETATM   15  C   UNL     1     -12.096  12.809  67.051  1.00  0.00    -0.252 A  
HETATM   16  C   UNL     1     -11.422  12.837  68.259  1.00  0.00    -0.314 A  
HETATM   17  N   UNL     1     -10.891  14.054  68.677  1.00  0.00    -0.251 NA 
BRANCH  16  18
HETATM   18  C   UNL     1     -11.334  11.512  69.044  1.00  0.00    -0.339 A  
HETATM   19  C   UNL     1     -11.992  11.370  70.281  1.00  0.00    -0.373 A  
HETATM   20  N   UNL     1     -11.858  10.081  70.715  1.00  0.00    -0.321 NA 
HETATM   21  C   UNL     1     -10.830  10.142  68.844  1.00  0.00    -0.223 A  
HETATM   22  N   UNL     1     -11.134   9.340  69.889  1.00  0.00    -0.217 NA 
BRANCH  20  23
HETATM   23  C   UNL     1     -12.443   9.440  71.907  1.00  0.00    -0.390 C  
HETATM   24  C   UNL     1     -11.594   8.278  72.441  1.00  0.00    -0.464 C  
HETATM   25  C   UNL     1     -13.872   8.931  71.658  1.00  0.00    -0.432 C  
ENDBRANCH  20  23
BRANCH  21  26
HETATM   26  C   UNL     1     -10.041   9.494  67.797  1.00  0.00    -0.244 A  
HETATM   27  C   UNL     1     -10.012   9.942  66.453  1.00  0.00    -0.309 A  
HETATM   28  C   UNL     1      -9.385   9.182  65.460  1.00  0.00    -0.221 A  
HETATM   29 CL   UNL     1      -9.211   9.783  63.859  1.00  0.00    -0.288 Cl 
HETATM   30  C   UNL     1      -8.890   7.906  65.760  1.00  0.00    -0.155 A  
HETATM   31  C   UNL     1      -8.932   7.502  67.081  1.00  0.00    -0.126 A  
HETATM   32  C   UNL     1      -9.346   8.354  68.086  1.00  0.00    -0.133 A  
HETATM   33  F   UNL     1      -8.994   8.047  69.333  1.00  0.00    -0.143 F  
BRANCH  31  34
HETATM   34  N   UNL     1      -8.515   6.203  67.498  1.00  0.00    -0.109 N  
HETATM   35  H   UNL     1      -7.535   5.963  67.647  1.00  0.00     0.000 HD 
BRANCH  34  36
HETATM   36  S   UNL     1      -9.764   5.089  67.727  1.00  0.00    -0.155 S  
HETATM   37  O   UNL     1     -10.132   5.032  69.122  1.00  0.00    -0.202 OA 
HETATM   38  O   UNL     1     -10.725   5.392  66.687  1.00  0.00    -0.295 OA 
HETATM   39  C   UNL     1      -8.873   3.619  67.287  1.00  0.00    -0.127 C  
ENDBRANCH  34  36
ENDBRANCH  31  34
ENDBRANCH  21  26
ENDBRANCH  16  18
ENDBRANCH  10  12
ENDBRANCH   9  10
ENDBRANCH   7   9
ENDBRANCH   4   7
ENDBRANCH   2   3
TORSDOF 10
ENDMDL
MODEL      112
REMARK 921   NORMALIZED FREE ENERGY PREDICTED BY IDOCK:   -5.29 KCAL/MOL
REMARK 922        TOTAL FREE ENERGY PREDICTED BY IDOCK:  -10.33 KCAL/MOL
REMARK 923 INTER-LIGAND FREE ENERGY PREDICTED BY IDOCK:   -9.03 KCAL/MOL
REMARK 924 INTRA-LIGAND FREE ENERGY PREDICTED BY IDOCK:   -1.30 KCAL/MOL
REMARK 927      BINDING AFFINITY PREDICTED BY RF-SCORE:    0.00 PKD
ROOT
HETATM    1  C   UNL     1     -10.543   3.312  62.649  1.00  0.00    -0.179 C  
HETATM    2  O   UNL     1     -11.030   3.672  63.954  1.00  0.00    -0.282 OA 
ENDROOT
BRANCH   2   3
HETATM    3  C   UNL     1     -10.040   3.910  64.862  1.00  0.00    -0.182 C  
HETATM    4  N   UNL     1     -10.220   5.130  65.477  1.00  0.00    -0.419 N  
HETATM    5  O   UNL     1      -9.118   3.134  65.075  1.00  0.00    -0.134 OA 
HETATM    6  H   UNL     1     -11.029   5.695  65.217  1.00  0.00     0.000 HD 
BRANCH   4   7
HETATM    7  C   UNL     1      -9.291   5.653  66.496  1.00  0.00    -0.150 C  
HETATM    8  C   UNL     1      -9.411   4.749  67.765  1.00  0.00    -0.180 C  
BRANCH   7   9
HETATM    9  C   UNL     1      -7.753   5.703  66.109  1.00  0.00    -0.095 C  
BRANCH   9  10
HETATM   10  N   UNL     1      -7.040   6.952  65.683  1.00  0.00    -0.067 NA 
HETATM   11  H   UNL     1      -6.386   6.890  64.902  1.00  0.00     0.000 HD 
BRANCH  10  12
HETATM   12  C   UNL     1      -7.221   8.205  66.301  1.00  0.00    -0.078 A  
HETATM   13  N   UNL     1      -6.197   8.678  67.014  1.00  0.00    -0.055 NA 
HETATM   14  C   UNL     1      -6.430   9.804  67.697  1.00  0.00    -0.067 A  
HETATM   15  C   UNL     1      -7.593  10.548  67.641  1.00  0.00    -0.093 A  
HETATM   16  C   UNL     1      -8.636  10.063  66.872  1.00  0.00    -0.125 A  
HETATM   17  N   UNL     1      -8.459   8.834  66.242  1.00  0.00    -0.119 NA 
BRANCH  16  18
HETATM   18  C   UNL     1      -9.911  10.926  66.794  1.00  0.00    -0.245 A  
HETATM   19  C   UNL     1     -10.230  11.626  65.615  1.00  0.00    -0.243 A  
HETATM   20  N   UNL     1     -11.454  12.216  65.760  1.00  0.00    -0.361 NA 
HETATM   21  C   UNL     1     -11.114  11.193  67.603  1.00  0.00    -0.287 A  
HETATM   22  N   UNL     1     -11.982  12.001  66.955  1.00  0.00    -0.609 NA 
BRANCH  20  23
HETATM   23  C   UNL     1     -12.238  12.977  64.769  1.00  0.00    -0.435 C  
HETATM   24  C   UNL     1     -12.465  12.204  63.463  1.00  0.00    -0.666 C  
HETATM   25  C   UNL     1     -11.600  14.335  64.433  1.00  0.00    -0.358 C  
ENDBRANCH  20  23
BRANCH  21  26
HETATM   26  C   UNL     1     -11.534  10.818  68.954  1.00  0.00    -0.362 A  
HETATM   27  C   UNL     1     -12.274  11.675  69.805  1.00  0.00    -0.285 A  
HETATM   28  C   UNL     1     -12.492  11.336  71.145  1.00  0.00    -0.373 A  
HETATM   29 CL   UNL     1     -13.512  12.288  72.147  1.00  0.00    -0.561 Cl 
HETATM   30  C   UNL     1     -11.871  10.205  71.693  1.00  0.00    -0.236 A  
HETATM   31  C   UNL     1     -11.159   9.391  70.833  1.00  0.00    -0.319 A  
HETATM   32  C   UNL     1     -11.142   9.616  69.470  1.00  0.00    -0.168 A  
HETATM   33  F   UNL     1     -10.783   8.602  68.686  1.00  0.00    -0.232 F  
BRANCH  31  34
HETATM   34  N   UNL     1     -10.434   8.248  71.285  1.00  0.00    -0.205 N  
HETATM   35  H   UNL     1     -10.831   7.308  71.274  1.00  0.00     0.000 HD 
BRANCH  34  36
HETATM   36  S   UNL     1      -8.871   8.565  71.839  1.00  0.00    -0.211 S  
HETATM   37  O   UNL     1      -8.234   9.552  70.999  1.00  0.00    -0.301 OA 
HETATM   38  O   UNL     1      -9.015   8.746  73.268  1.00  0.00    -0.242 OA 
HETATM   39  C   UNL     1      -8.164   6.969  71.521  1.00  0.00    -0.108 C  
ENDBRANCH  34  36
ENDBRANCH  31  34
ENDBRANCH  21  26
ENDBRANCH  16  18
ENDBRANCH  10  12
ENDBRANCH   9  10
ENDBRANCH   7   9
ENDBRANCH   4   7
ENDBRANCH   2   3
TORSDOF 10
ENDMDL
MODEL      113
REMARK 921   NORMALIZED FREE ENERGY PREDICTED BY IDOCK:   -5.27 KCAL/MOL
REMARK 922        TOTAL FREE ENERGY PREDICTED BY IDOCK:  -10.30 KCAL/MOL
REMARK 923 INTER-LIGAND FREE ENERGY PREDICTED BY IDOCK:   -8.94 KCAL/MOL
REMARK 924 INTRA-LIGAND FREE ENERGY PREDICTED BY IDOCK:   -1.36 KCAL/MOL
REMARK 927      BINDING AFFINITY PREDICTED BY RF-SCORE:    0.00 PKD
ROOT
HETATM    1  C   UNL     1      -9.944  20.211  67.148  1.00  0.00    -0.455 C  
HETATM    2  O   UNL     1     -10.891  19.131  67.242  1.00  0.00    -0.476 OA 
ENDROOT
BRANCH   2   3
HETATM    3  C   UNL     1     -10.373  17.918  66.894  1.00  0.00    -0.355 C  
HETATM    4  N   UNL     1     -10.970  16.905  67.613  1.00  0.00    -0.233 N  
HETATM    5  O   UNL     1      -9.489  17.775  66.060  1.00  0.00    -0.502 OA 
HETATM    6  H   UNL     1     -11.699  17.145  68.285  1.00  0.00     0.000 HD 
BRANCH   4   7
HETATM    7  C   UNL     1     -10.596  15.487  67.452  1.00  0.00    -0.292 C  
HETATM    8  C   UNL     1     -10.790  14.779  68.831  1.00  0.00    -0.259 C  
BRANCH   7   9
HETATM    9  C   UNL     1     -11.414  14.646  66.383  1.00  0.00    -0.347 C  
BRANCH   9  10
HETATM   10  N   UNL     1     -12.005  13.295  66.660  1.00  0.00    -0.393 NA 
HETATM   11  H   UNL     1     -12.959  13.251  67.018  1.00  0.00     0.000 HD 
BRANCH  10  12
HETATM   12  C   UNL     1     -11.316  12.084  66.453  1.00  0.00    -0.354 A  
HETATM   13  N   UNL     1     -10.769  11.900  65.250  1.00  0.00    -0.275 NA 
HETATM   14  C   UNL     1     -10.230  10.696  65.030  1.00  0.00    -0.310 A  
HETATM   15  C   UNL     1     -10.114   9.688  65.967  1.00  0.00    -0.318 A  
HETATM   16  C   UNL     1     -10.656   9.903  67.221  1.00  0.00    -0.252 A  
HETATM   17  N   UNL     1     -11.323  11.105  67.440  1.00  0.00    -0.453 NA 
BRANCH  16  18
HETATM   18  C   UNL     1     -10.483   8.780  68.263  1.00  0.00    -0.236 A  
HETATM   19  C   UNL     1     -11.129   8.858  69.511  1.00  0.00    -0.001 A  
HETATM   20  N   UNL     1     -10.913   7.698  70.203  1.00  0.00    -0.256 NA 
HETATM   21  C   UNL     1      -9.893   7.432  68.345  1.00  0.00    -0.158 A  
HETATM   22  N   UNL     1     -10.145   6.848  69.538  1.00  0.00    -0.170 NA 
BRANCH  20  23
HETATM   23  C   UNL     1     -11.456   7.285  71.509  1.00  0.00    -0.263 C  
HETATM   24  C   UNL     1     -12.778   7.983  71.857  1.00  0.00    -0.354 C  
HETATM   25  C   UNL     1     -10.461   7.514  72.658  1.00  0.00    -0.322 C  
ENDBRANCH  20  23
BRANCH  21  26
HETATM   26  C   UNL     1      -9.065   6.629  67.445  1.00  0.00    -0.120 A  
HETATM   27  C   UNL     1      -7.657   6.765  67.355  1.00  0.00    -0.105 A  
HETATM   28  C   UNL     1      -6.939   6.102  66.353  1.00  0.00    -0.067 A  
HETATM   29 CL   UNL     1      -5.221   6.135  66.323  1.00  0.00    -0.012 Cl 
HETATM   30  C   UNL     1      -7.619   5.400  65.349  1.00  0.00    -0.079 A  
HETATM   31  C   UNL     1      -8.991   5.286  65.471  1.00  0.00    -0.155 A  
HETATM   32  C   UNL     1      -9.661   5.751  66.586  1.00  0.00    -0.152 A  
HETATM   33  F   UNL     1     -10.881   5.269  66.813  1.00  0.00    -0.303 F  
BRANCH  31  34
HETATM   34  N   UNL     1      -9.797   4.648  64.481  1.00  0.00    -0.368 N  
HETATM   35  H   UNL     1     -10.598   5.107  64.048  1.00  0.00     0.000 HD 
BRANCH  34  36
HETATM   36  S   UNL     1      -9.326   3.077  64.079  1.00  0.00    -0.125 S  
HETATM   37  O   UNL     1      -8.350   3.105  63.015  1.00  0.00    -0.077 OA 
HETATM   38  O   UNL     1      -9.065   2.432  65.348  1.00  0.00    -0.133 OA 
HETATM   39  C   UNL     1     -10.880   2.505  63.442  1.00  0.00    -0.210 C  
ENDBRANCH  34  36
ENDBRANCH  31  34
ENDBRANCH  21  26
ENDBRANCH  16  18
ENDBRANCH  10  12
ENDBRANCH   9  10
ENDBRANCH   7   9
ENDBRANCH   4   7
ENDBRANCH   2   3
TORSDOF 10
ENDMDL
MODEL      114
REMARK 921   NORMALIZED FREE ENERGY PREDICTED BY IDOCK:   -5.26 KCAL/MOL
REMARK 922        TOTAL FREE ENERGY PREDICTED BY IDOCK:  -10.29 KCAL/MOL
REMARK 923 INTER-LIGAND FREE ENERGY PREDICTED BY IDOCK:   -8.97 KCAL/MOL
REMARK 924 INTRA-LIGAND FREE ENERGY PREDICTED BY IDOCK:   -1.32 KCAL/MOL
REMARK 927      BINDING AFFINITY PREDICTED BY RF-SCORE:    0.00 PKD
ROOT
HETATM    1  C   UNL     1     -11.755  15.785  68.973  1.00  0.00    -0.396 C  
HETATM    2  O   UNL     1     -11.656  14.414  69.399  1.00  0.00    -0.268 OA 
ENDROOT
BRANCH   2   3
HETATM    3  C   UNL     1     -11.883  13.512  68.400  1.00  0.00    -0.373 C  
HETATM    4  N   UNL     1     -11.886  14.132  67.169  1.00  0.00    -0.405 N  
HETATM    5  O   UNL     1     -12.069  12.319  68.598  1.00  0.00    -0.272 OA 
HETATM    6  H   UNL     1     -11.720  15.138  67.127  1.00  0.00     0.000 HD 
BRANCH   4   7
HETATM    7  C   UNL     1     -12.121  13.401  65.910  1.00  0.00    -0.439 C  
HETATM    8  C   UNL     1     -13.181  14.197  65.083  1.00  0.00     0.154 C  
BRANCH   7   9
HETATM    9  C   UNL     1     -10.868  13.181  64.963  1.00  0.00    -0.315 C  
BRANCH   9  10
HETATM   10  N   UNL     1      -9.468  12.979  65.465  1.00  0.00    -0.468 NA 
HETATM   11  H   UNL     1      -8.718  13.513  65.026  1.00  0.00     0.000 HD 
BRANCH  10  12
HETATM   12  C   UNL     1      -9.132  12.093  66.507  1.00  0.00    -0.199 A  
HETATM   13  N   UNL     1      -8.303  12.555  67.445  1.00  0.00    -0.173 NA 
HETATM   14  C   UNL     1      -7.895  11.664  68.355  1.00  0.00    -0.137 A  
HETATM   15  C   UNL     1      -8.334  10.357  68.449  1.00  0.00    -0.119 A  
HETATM   16  C   UNL     1      -9.219   9.900  67.489  1.00  0.00    -0.134 A  
HETATM   17  N   UNL     1      -9.572  10.775  66.465  1.00  0.00    -0.179 NA 
BRANCH  16  18
HETATM   18  C   UNL     1      -9.725   8.451  67.634  1.00  0.00    -0.201 A  
HETATM   19  C   UNL     1      -9.318   7.458  66.723  1.00  0.00    -0.160 A  
HETATM   20  N   UNL     1      -9.806   6.248  67.129  1.00  0.00    -0.133 NA 
HETATM   21  C   UNL     1     -10.488   7.639  68.599  1.00  0.00    -0.177 A  
HETATM   22  N   UNL     1     -10.539   6.340  68.228  1.00  0.00    -0.229 NA 
BRANCH  20  23
HETATM   23  C   UNL     1      -9.574   4.913  66.547  1.00  0.00    -0.169 C  
HETATM   24  C   UNL     1     -10.630   4.522  65.506  1.00  0.00    -0.218 C  
HETATM   25  C   UNL     1      -9.503   3.810  67.615  1.00  0.00    -0.234 C  
ENDBRANCH  20  23
BRANCH  21  26
HETATM   26  C   UNL     1     -11.230   7.947  69.822  1.00  0.00     0.003 A  
HETATM   27  C   UNL     1     -11.684   9.248  70.150  1.00  0.00    -0.008 A  
HETATM   28  C   UNL     1     -12.229   9.518  71.410  1.00  0.00    -0.371 A  
HETATM   29 CL   UNL     1     -12.921  11.049  71.770  1.00  0.00    -0.574 Cl 
HETATM   30  C   UNL     1     -12.212   8.533  72.408  1.00  0.00    -0.432 A  
HETATM   31  C   UNL     1     -11.764   7.275  72.051  1.00  0.00    -0.292 A  
HETATM   32  C   UNL     1     -11.444   6.963  70.745  1.00  0.00    -0.335 A  
HETATM   33  F   UNL     1     -11.406   5.674  70.413  1.00  0.00    -0.353 F  
BRANCH  31  34
HETATM   34  N   UNL     1     -11.644   6.210  72.993  1.00  0.00    -0.483 N  
HETATM   35  H   UNL     1     -12.450   5.687  73.335  1.00  0.00     0.000 HD 
BRANCH  34  36
HETATM   36  S   UNL     1     -10.068   5.880  73.503  1.00  0.00    -0.214 S  
HETATM   37  O   UNL     1      -9.266   5.434  72.388  1.00  0.00    -0.141 OA 
HETATM   38  O   UNL     1      -9.695   7.020  74.314  1.00  0.00    -0.275 OA 
HETATM   39  C   UNL     1     -10.430   4.504  74.562  1.00  0.00    -0.253 C  
ENDBRANCH  34  36
ENDBRANCH  31  34
ENDBRANCH  21  26
ENDBRANCH  16  18
ENDBRANCH  10  12
ENDBRANCH   9  10
ENDBRANCH   7   9
ENDBRANCH   4   7
ENDBRANCH   2   3
TORSDOF 10
ENDMDL
MODEL      115
REMARK 921   NORMALIZED FREE ENERGY PREDICTED BY IDOCK:   -5.26 KCAL/MOL
REMARK 922        TOTAL FREE ENERGY PREDICTED BY IDOCK:  -10.29 KCAL/MOL
REMARK 923 INTER-LIGAND FREE ENERGY PREDICTED BY IDOCK:   -9.43 KCAL/MOL
REMARK 924 INTRA-LIGAND FREE ENERGY PREDICTED BY IDOCK:   -0.86 KCAL/MOL
REMARK 927      BINDING AFFINITY PREDICTED BY RF-SCORE:    0.00 PKD
ROOT
HETATM    1  C   UNL     1      -9.035   2.349  65.485  1.00  0.00    -0.125 C  
HETATM    2  O   UNL     1      -8.582   2.243  66.847  1.00  0.00    -0.096 OA 
ENDROOT
BRANCH   2   3
HETATM    3  C   UNL     1      -8.532   3.439  67.502  1.00  0.00    -0.097 C  
HETATM    4  N   UNL     1      -9.719   4.126  67.361  1.00  0.00    -0.181 N  
HETATM    5  O   UNL     1      -7.550   3.833  68.116  1.00  0.00    -0.065 OA 
HETATM    6  H   UNL     1     -10.473   3.696  66.823  1.00  0.00     0.000 HD 
BRANCH   4   7
HETATM    7  C   UNL     1      -9.944   5.457  67.955  1.00  0.00    -0.154 C  
HETATM    8  C   UNL     1     -10.924   6.240  67.023  1.00  0.00    -0.442 C  
BRANCH   7   9
HETATM    9  C   UNL     1     -10.566   5.496  69.414  1.00  0.00    -0.279 C  
BRANCH   9  10
HETATM   10  N   UNL     1     -10.628   6.733  70.262  1.00  0.00    -0.207 NA 
HETATM   11  H   UNL     1     -11.178   6.701  71.120  1.00  0.00     0.000 HD 
BRANCH  10  12
HETATM   12  C   UNL     1      -9.970   7.936  69.938  1.00  0.00    -0.192 A  
HETATM   13  N   UNL     1      -8.916   8.265  70.686  1.00  0.00    -0.146 NA 
HETATM   14  C   UNL     1      -8.382   9.468  70.448  1.00  0.00    -0.192 A  
HETATM   15  C   UNL     1      -8.772  10.332  69.443  1.00  0.00    -0.168 A  
HETATM   16  C   UNL     1      -9.846   9.964  68.653  1.00  0.00    -0.158 A  
HETATM   17  N   UNL     1     -10.491   8.768  68.954  1.00  0.00    -0.214 NA 
BRANCH  16  18
HETATM   18  C   UNL     1     -10.242  10.926  67.514  1.00  0.00    -0.224 A  
HETATM   19  C   UNL     1     -10.276  10.477  66.180  1.00  0.00    -0.236 A  
HETATM   20  N   UNL     1     -10.763  11.475  65.383  1.00  0.00    -0.285 NA 
HETATM   21  C   UNL     1     -10.778  12.289  67.357  1.00  0.00    -0.230 A  
HETATM   22  N   UNL     1     -11.033  12.580  66.062  1.00  0.00    -0.274 NA 
BRANCH  20  23
HETATM   23  C   UNL     1     -11.059  11.445  63.939  1.00  0.00    -0.329 C  
HETATM   24  C   UNL     1      -9.825  11.716  63.068  1.00  0.00    -0.331 C  
HETATM   25  C   UNL     1     -12.166  12.436  63.545  1.00  0.00    -0.661 C  
ENDBRANCH  20  23
BRANCH  21  26
HETATM   26  C   UNL     1     -11.039  13.391  68.285  1.00  0.00    -0.289 A  
HETATM   27  C   UNL     1     -11.714  13.225  69.519  1.00  0.00    -0.384 A  
HETATM   28  C   UNL     1     -12.094  14.336  70.280  1.00  0.00    -0.335 A  
HETATM   29 CL   UNL     1     -12.776  14.149  71.846  1.00  0.00    -0.409 Cl 
HETATM   30  C   UNL     1     -11.925  15.629  69.767  1.00  0.00    -0.371 A  
HETATM   31  C   UNL     1     -11.260  15.753  68.562  1.00  0.00    -0.354 A  
HETATM   32  C   UNL     1     -10.690  14.663  67.933  1.00  0.00    -0.250 A  
HETATM   33  F   UNL     1      -9.755  14.903  67.016  1.00  0.00    -0.220 F  
BRANCH  31  34
HETATM   34  N   UNL     1     -11.082  17.010  67.911  1.00  0.00    -0.229 N  
HETATM   35  H   UNL     1     -11.755  17.380  67.239  1.00  0.00     0.000 HD 
BRANCH  34  36
HETATM   36  S   UNL     1      -9.675  17.843  68.334  1.00  0.00    -0.356 S  
HETATM   37  O   UNL     1     -10.008  19.093  68.974  1.00  0.00    -0.416 OA 
HETATM   38  O   UNL     1      -8.836  16.850  68.971  1.00  0.00    -0.247 OA 
HETATM   39  C   UNL     1      -9.067  18.156  66.697  1.00  0.00    -0.282 C  
ENDBRANCH  34  36
ENDBRANCH  31  34
ENDBRANCH  21  26
ENDBRANCH  16  18
ENDBRANCH  10  12
ENDBRANCH   9  10
ENDBRANCH   7   9
ENDBRANCH   4   7
ENDBRANCH   2   3
TORSDOF 10
ENDMDL
MODEL      116
REMARK 921   NORMALIZED FREE ENERGY PREDICTED BY IDOCK:   -5.25 KCAL/MOL
REMARK 922        TOTAL FREE ENERGY PREDICTED BY IDOCK:  -10.28 KCAL/MOL
REMARK 923 INTER-LIGAND FREE ENERGY PREDICTED BY IDOCK:   -8.87 KCAL/MOL
REMARK 924 INTRA-LIGAND FREE ENERGY PREDICTED BY IDOCK:   -1.41 KCAL/MOL
REMARK 927      BINDING AFFINITY PREDICTED BY RF-SCORE:    0.00 PKD
ROOT
HETATM    1  C   UNL     1      -9.062  17.921  66.461  1.00  0.00    -0.261 C  
HETATM    2  O   UNL     1      -9.610  16.774  65.787  1.00  0.00    -0.506 OA 
ENDROOT
BRANCH   2   3
HETATM    3  C   UNL     1     -10.505  16.071  66.539  1.00  0.00    -0.302 C  
HETATM    4  N   UNL     1     -10.869  14.902  65.906  1.00  0.00    -0.324 N  
HETATM    5  O   UNL     1     -10.924  16.455  67.623  1.00  0.00    -0.308 OA 
HETATM    6  H   UNL     1     -10.452  14.686  65.000  1.00  0.00     0.000 HD 
BRANCH   4   7
HETATM    7  C   UNL     1     -11.836  13.951  66.485  1.00  0.00    -0.414 C  
HETATM    8  C   UNL     1     -12.495  13.160  65.310  1.00  0.00    -0.550 C  
BRANCH   7   9
HETATM    9  C   UNL     1     -11.264  12.875  67.501  1.00  0.00    -0.290 C  
BRANCH   9  10
HETATM   10  N   UNL     1     -11.595  11.412  67.442  1.00  0.00    -0.561 NA 
HETATM   11  H   UNL     1     -12.518  11.114  67.758  1.00  0.00     0.000 HD 
BRANCH  10  12
HETATM   12  C   UNL     1     -10.702  10.428  66.974  1.00  0.00    -0.235 A  
HETATM   13  N   UNL     1      -9.742  10.834  66.141  1.00  0.00    -0.199 NA 
HETATM   14  C   UNL     1      -8.984   9.870  65.608  1.00  0.00    -0.171 A  
HETATM   15  C   UNL     1      -9.057   8.527  65.925  1.00  0.00    -0.237 A  
HETATM   16  C   UNL     1     -10.035   8.123  66.816  1.00  0.00    -0.279 A  
HETATM   17  N   UNL     1     -10.911   9.093  67.298  1.00  0.00    -0.159 NA 
BRANCH  16  18
HETATM   18  C   UNL     1     -10.076   6.627  67.184  1.00  0.00    -0.230 A  
HETATM   19  C   UNL     1      -9.663   5.652  66.256  1.00  0.00    -0.135 A  
HETATM   20  N   UNL     1      -9.684   4.423  66.856  1.00  0.00    -0.199 NA 
HETATM   21  C   UNL     1     -10.317   5.788  68.371  1.00  0.00    -0.213 A  
HETATM   22  N   UNL     1     -10.109   4.479  68.109  1.00  0.00    -0.026 NA 
BRANCH  20  23
HETATM   23  C   UNL     1      -9.257   3.121  66.313  1.00  0.00    -0.130 C  
HETATM   24  C   UNL     1      -8.556   2.239  67.355  1.00  0.00    -0.122 C  
HETATM   25  C   UNL     1      -8.336   3.267  65.091  1.00  0.00    -0.095 C  
ENDBRANCH  20  23
BRANCH  21  26
HETATM   26  C   UNL     1     -10.775   6.065  69.733  1.00  0.00    -0.399 A  
HETATM   27  C   UNL     1     -12.015   6.684  70.026  1.00  0.00    -0.187 A  
HETATM   28  C   UNL     1     -12.322   7.085  71.331  1.00  0.00    -0.377 A  
HETATM   29 CL   UNL     1     -13.878   7.699  71.729  1.00  0.00    -0.429 Cl 
HETATM   30  C   UNL     1     -11.353   6.996  72.339  1.00  0.00    -0.307 A  
HETATM   31  C   UNL     1     -10.157   6.384  72.019  1.00  0.00    -0.178 A  
HETATM   32  C   UNL     1      -9.954   5.788  70.789  1.00  0.00    -0.193 A  
HETATM   33  F   UNL     1      -8.966   4.901  70.692  1.00  0.00    -0.123 F  
BRANCH  31  34
HETATM   34  N   UNL     1      -9.073   6.289  72.942  1.00  0.00    -0.131 N  
HETATM   35  H   UNL     1      -8.986   5.521  73.608  1.00  0.00     0.000 HD 
BRANCH  34  36
HETATM   36  S   UNL     1      -7.945   7.543  72.854  1.00  0.00    -0.112 S  
HETATM   37  O   UNL     1      -7.368   7.602  71.532  1.00  0.00    -0.068 OA 
HETATM   38  O   UNL     1      -8.608   8.679  73.458  1.00  0.00    -0.341 OA 
HETATM   39  C   UNL     1      -6.753   6.889  73.993  1.00  0.00    -0.078 C  
ENDBRANCH  34  36
ENDBRANCH  31  34
ENDBRANCH  21  26
ENDBRANCH  16  18
ENDBRANCH  10  12
ENDBRANCH   9  10
ENDBRANCH   7   9
ENDBRANCH   4   7
ENDBRANCH   2   3
TORSDOF 10
ENDMDL
MODEL      117
REMARK 921   NORMALIZED FREE ENERGY PREDICTED BY IDOCK:   -5.24 KCAL/MOL
REMARK 922        TOTAL FREE ENERGY PREDICTED BY IDOCK:  -10.25 KCAL/MOL
REMARK 923 INTER-LIGAND FREE ENERGY PREDICTED BY IDOCK:   -8.56 KCAL/MOL
REMARK 924 INTRA-LIGAND FREE ENERGY PREDICTED BY IDOCK:   -1.69 KCAL/MOL
REMARK 927      BINDING AFFINITY PREDICTED BY RF-SCORE:    0.00 PKD
ROOT
HETATM    1  C   UNL     1      -6.781  14.027  68.710  1.00  0.00    -0.100 C  
HETATM    2  O   UNL     1      -8.213  14.043  68.570  1.00  0.00    -0.142 OA 
ENDROOT
BRANCH   2   3
HETATM    3  C   UNL     1      -8.658  14.861  67.572  1.00  0.00    -0.184 C  
HETATM    4  N   UNL     1     -10.012  15.090  67.691  1.00  0.00    -0.225 N  
HETATM    5  O   UNL     1      -7.934  15.308  66.693  1.00  0.00    -0.164 OA 
HETATM    6  H   UNL     1     -10.514  14.661  68.469  1.00  0.00     0.000 HD 
BRANCH   4   7
HETATM    7  C   UNL     1     -10.764  15.929  66.739  1.00  0.00    -0.281 C  
HETATM    8  C   UNL     1     -10.272  17.402  66.906  1.00  0.00    -0.322 C  
BRANCH   7   9
HETATM    9  C   UNL     1     -10.628  15.568  65.200  1.00  0.00    -0.431 C  
BRANCH   9  10
HETATM   10  N   UNL     1     -11.282  14.378  64.561  1.00  0.00    -0.567 NA 
HETATM   11  H   UNL     1     -12.060  14.543  63.922  1.00  0.00     0.000 HD 
BRANCH  10  12
HETATM   12  C   UNL     1     -10.883  13.048  64.794  1.00  0.00    -0.337 A  
HETATM   13  N   UNL     1     -10.396  12.374  63.751  1.00  0.00    -0.432 NA 
HETATM   14  C   UNL     1     -10.141  11.078  63.959  1.00  0.00    -0.350 A  
HETATM   15  C   UNL     1     -10.250  10.425  65.172  1.00  0.00    -0.326 A  
HETATM   16  C   UNL     1     -10.725  11.144  66.254  1.00  0.00    -0.240 A  
HETATM   17  N   UNL     1     -11.105  12.465  66.037  1.00  0.00    -0.295 NA 
BRANCH  16  18
HETATM   18  C   UNL     1     -10.805  10.407  67.606  1.00  0.00    -0.361 A  
HETATM   19  C   UNL     1     -11.408  11.021  68.720  1.00  0.00    -0.283 A  
HETATM   20  N   UNL     1     -11.456  10.128  69.754  1.00  0.00    -0.246 NA 
HETATM   21  C   UNL     1     -10.535   9.063  68.148  1.00  0.00    -0.207 A  
HETATM   22  N   UNL     1     -10.905   8.964  69.445  1.00  0.00    -0.172 NA 
BRANCH  20  23
HETATM   23  C   UNL     1     -12.069  10.286  71.085  1.00  0.00    -0.395 C  
HETATM   24  C   UNL     1     -13.155   9.241  71.372  1.00  0.00    -0.387 C  
HETATM   25  C   UNL     1     -12.666  11.687  71.295  1.00  0.00    -0.444 C  
ENDBRANCH  20  23
BRANCH  21  26
HETATM   26  C   UNL     1      -9.916   7.854  67.604  1.00  0.00    -0.234 A  
HETATM   27  C   UNL     1     -10.641   6.854  66.910  1.00  0.00    -0.372 A  
HETATM   28  C   UNL     1     -10.035   5.639  66.570  1.00  0.00    -0.176 A  
HETATM   29 CL   UNL     1     -10.852   4.480  65.599  1.00  0.00    -0.214 Cl 
HETATM   30  C   UNL     1      -8.742   5.348  67.026  1.00  0.00    -0.107 A  
HETATM   31  C   UNL     1      -8.065   6.348  67.698  1.00  0.00    -0.114 A  
HETATM   32  C   UNL     1      -8.590   7.618  67.827  1.00  0.00    -0.121 A  
HETATM   33  F   UNL     1      -7.745   8.604  68.122  1.00  0.00    -0.095 F  
BRANCH  31  34
HETATM   34  N   UNL     1      -6.769   6.149  68.262  1.00  0.00    -0.065 N  
HETATM   35  H   UNL     1      -5.937   6.618  67.903  1.00  0.00     0.000 HD 
BRANCH  34  36
HETATM   36  S   UNL     1      -6.713   5.078  69.567  1.00  0.00    -0.053 S  
HETATM   37  O   UNL     1      -7.947   5.138  70.314  1.00  0.00    -0.079 OA 
HETATM   38  O   UNL     1      -6.208   3.842  69.009  1.00  0.00    -0.027 OA 
HETATM   39  C   UNL     1      -5.422   5.874  70.488  1.00  0.00    -0.013 C  
ENDBRANCH  34  36
ENDBRANCH  31  34
ENDBRANCH  21  26
ENDBRANCH  16  18
ENDBRANCH  10  12
ENDBRANCH   9  10
ENDBRANCH   7   9
ENDBRANCH   4   7
ENDBRANCH   2   3
TORSDOF 10
ENDMDL
MODEL      118
REMARK 921   NORMALIZED FREE ENERGY PREDICTED BY IDOCK:   -5.20 KCAL/MOL
REMARK 922        TOTAL FREE ENERGY PREDICTED BY IDOCK:  -10.20 KCAL/MOL
REMARK 923 INTER-LIGAND FREE ENERGY PREDICTED BY IDOCK:   -8.36 KCAL/MOL
REMARK 924 INTRA-LIGAND FREE ENERGY PREDICTED BY IDOCK:   -1.84 KCAL/MOL
REMARK 927      BINDING AFFINITY PREDICTED BY RF-SCORE:    0.00 PKD
ROOT
HETATM    1  C   UNL     1     -10.763  11.375  63.819  1.00  0.00    -0.403 C  
HETATM    2  O   UNL     1     -11.974  12.054  63.441  1.00  0.00    -0.484 OA 
ENDROOT
BRANCH   2   3
HETATM    3  C   UNL     1     -12.030  13.351  63.862  1.00  0.00    -0.465 C  
HETATM    4  N   UNL     1     -11.190  13.555  64.936  1.00  0.00    -0.328 N  
HETATM    5  O   UNL     1     -12.746  14.198  63.347  1.00  0.00    -0.767 OA 
HETATM    6  H   UNL     1     -10.637  12.770  65.282  1.00  0.00     0.000 HD 
BRANCH   4   7
HETATM    7  C   UNL     1     -11.057  14.863  65.605  1.00  0.00    -0.348 C  
HETATM    8  C   UNL     1     -11.854  14.799  66.947  1.00  0.00    -0.279 C  
BRANCH   7   9
HETATM    9  C   UNL     1      -9.587  15.339  65.964  1.00  0.00    -0.338 C  
BRANCH   9  10
HETATM   10  N   UNL     1      -8.914  15.055  67.275  1.00  0.00    -0.189 NA 
HETATM   11  H   UNL     1      -8.948  15.773  67.999  1.00  0.00     0.000 HD 
BRANCH  10  12
HETATM   12  C   UNL     1      -8.239  13.852  67.562  1.00  0.00    -0.188 A  
HETATM   13  N   UNL     1      -6.910  13.868  67.451  1.00  0.00    -0.216 NA 
HETATM   14  C   UNL     1      -6.296  12.689  67.602  1.00  0.00    -0.147 A  
HETATM   15  C   UNL     1      -6.913  11.505  67.953  1.00  0.00    -0.075 A  
HETATM   16  C   UNL     1      -8.289  11.509  68.098  1.00  0.00    -0.152 A  
HETATM   17  N   UNL     1      -8.964  12.698  67.834  1.00  0.00    -0.181 NA 
BRANCH  16  18
HETATM   18  C   UNL     1      -8.955  10.186  68.526  1.00  0.00    -0.127 A  
HETATM   19  C   UNL     1      -9.778  10.137  69.666  1.00  0.00    -0.221 A  
HETATM   20  N   UNL     1     -10.335   8.892  69.766  1.00  0.00    -0.202 NA 
HETATM   21  C   UNL     1      -9.133   8.820  68.002  1.00  0.00    -0.140 A  
HETATM   22  N   UNL     1      -9.931   8.078  68.802  1.00  0.00    -0.183 NA 
BRANCH  20  23
HETATM   23  C   UNL     1     -11.324   8.395  70.739  1.00  0.00    -0.265 C  
HETATM   24  C   UNL     1     -10.858   8.539  72.194  1.00  0.00    -0.427 C  
HETATM   25  C   UNL     1     -11.710   6.928  70.489  1.00  0.00    -0.401 C  
ENDBRANCH  20  23
BRANCH  21  26
HETATM   26  C   UNL     1      -8.595   8.096  66.849  1.00  0.00    -0.126 A  
HETATM   27  C   UNL     1      -8.541   8.644  65.544  1.00  0.00    -0.200 A  
HETATM   28  C   UNL     1      -8.185   7.847  64.450  1.00  0.00    -0.051 A  
HETATM   29 CL   UNL     1      -7.968   8.529  62.887  1.00  0.00    -0.151 Cl 
HETATM   30  C   UNL     1      -8.003   6.467  64.616  1.00  0.00    -0.116 A  
HETATM   31  C   UNL     1      -8.061   5.969  65.903  1.00  0.00    -0.119 A  
HETATM   32  C   UNL     1      -8.187   6.802  66.998  1.00  0.00    -0.113 A  
HETATM   33  F   UNL     1      -7.845   6.309  68.186  1.00  0.00    -0.097 F  
BRANCH  31  34
HETATM   34  N   UNL     1      -7.953   4.575  66.190  1.00  0.00    -0.099 N  
HETATM   35  H   UNL     1      -7.074   4.140  66.473  1.00  0.00     0.000 HD 
BRANCH  34  36
HETATM   36  S   UNL     1      -9.386   3.697  66.027  1.00  0.00    -0.154 S  
HETATM   37  O   UNL     1     -10.513   4.595  65.933  1.00  0.00    -0.287 OA 
HETATM   38  O   UNL     1      -9.101   2.709  65.009  1.00  0.00    -0.131 OA 
HETATM   39  C   UNL     1      -9.383   2.913  67.619  1.00  0.00    -0.188 C  
ENDBRANCH  34  36
ENDBRANCH  31  34
ENDBRANCH  21  26
ENDBRANCH  16  18
ENDBRANCH  10  12
ENDBRANCH   9  10
ENDBRANCH   7   9
ENDBRANCH   4   7
ENDBRANCH   2   3
TORSDOF 10
ENDMDL
MODEL      119
REMARK 921   NORMALIZED FREE ENERGY PREDICTED BY IDOCK:   -5.19 KCAL/MOL
REMARK 922        TOTAL FREE ENERGY PREDICTED BY IDOCK:  -10.18 KCAL/MOL
REMARK 923 INTER-LIGAND FREE ENERGY PREDICTED BY IDOCK:   -8.50 KCAL/MOL
REMARK 924 INTRA-LIGAND FREE ENERGY PREDICTED BY IDOCK:   -1.68 KCAL/MOL
REMARK 927      BINDING AFFINITY PREDICTED BY RF-SCORE:    0.00 PKD
ROOT
HETATM    1  C   UNL     1      -9.932  11.218  63.532  1.00  0.00    -0.376 C  
HETATM    2  O   UNL     1     -11.194  11.714  63.048  1.00  0.00    -0.173 OA 
ENDROOT
BRANCH   2   3
HETATM    3  C   UNL     1     -11.620  12.843  63.687  1.00  0.00    -0.485 C  
HETATM    4  N   UNL     1     -10.830  13.115  64.783  1.00  0.00    -0.332 N  
HETATM    5  O   UNL     1     -12.584  13.501  63.322  1.00  0.00    -0.773 OA 
HETATM    6  H   UNL     1     -10.049  12.492  64.990  1.00  0.00     0.000 HD 
BRANCH   4   7
HETATM    7  C   UNL     1     -11.067  14.270  65.668  1.00  0.00    -0.316 C  
HETATM    8  C   UNL     1     -12.312  13.948  66.555  1.00  0.00    -0.447 C  
BRANCH   7   9
HETATM    9  C   UNL     1      -9.891  14.674  66.653  1.00  0.00    -0.269 C  
BRANCH   9  10
HETATM   10  N   UNL     1      -9.495  13.868  67.855  1.00  0.00    -0.205 NA 
HETATM   11  H   UNL     1      -9.428  14.346  68.754  1.00  0.00     0.000 HD 
BRANCH  10  12
HETATM   12  C   UNL     1      -9.211  12.490  67.813  1.00  0.00    -0.198 A  
HETATM   13  N   UNL     1      -8.252  12.099  66.972  1.00  0.00    -0.176 NA 
HETATM   14  C   UNL     1      -8.082  10.778  66.850  1.00  0.00    -0.132 A  
HETATM   15  C   UNL     1      -8.744   9.815  67.587  1.00  0.00    -0.125 A  
HETATM   16  C   UNL     1      -9.714  10.235  68.480  1.00  0.00    -0.161 A  
HETATM   17  N   UNL     1      -9.989  11.598  68.542  1.00  0.00    -0.197 NA 
BRANCH  16  18
HETATM   18  C   UNL     1     -10.415   9.147  69.317  1.00  0.00    -0.231 A  
HETATM   19  C   UNL     1     -11.235   9.501  70.406  1.00  0.00    -0.270 A  
HETATM   20  N   UNL     1     -11.826   8.376  70.908  1.00  0.00    -0.259 NA 
HETATM   21  C   UNL     1     -10.635   7.691  69.274  1.00  0.00    -0.201 A  
HETATM   22  N   UNL     1     -11.451   7.278  70.270  1.00  0.00    -0.247 NA 
BRANCH  20  23
HETATM   23  C   UNL     1     -12.825   8.258  71.986  1.00  0.00    -0.340 C  
HETATM   24  C   UNL     1     -14.005   7.351  71.612  1.00  0.00    -0.523 C  
HETATM   25  C   UNL     1     -13.375   9.623  72.430  1.00  0.00    -0.426 C  
ENDBRANCH  20  23
BRANCH  21  26
HETATM   26  C   UNL     1     -10.124   6.611  68.428  1.00  0.00    -0.163 A  
HETATM   27  C   UNL     1     -10.813   6.120  67.292  1.00  0.00    -0.438 A  
HETATM   28  C   UNL     1     -10.367   4.973  66.627  1.00  0.00    -0.270 A  
HETATM   29 CL   UNL     1     -11.102   4.453  65.163  1.00  0.00    -0.120 Cl 
HETATM   30  C   UNL     1      -9.308   4.222  67.155  1.00  0.00    -0.187 A  
HETATM   31  C   UNL     1      -8.657   4.733  68.263  1.00  0.00    -0.101 A  
HETATM   32  C   UNL     1      -8.962   5.980  68.771  1.00  0.00    -0.118 A  
HETATM   33  F   UNL     1      -8.059   6.558  69.560  1.00  0.00    -0.109 F  
BRANCH  31  34
HETATM   34  N   UNL     1      -7.606   4.030  68.925  1.00  0.00    -0.054 N  
HETATM   35  H   UNL     1      -7.760   3.489  69.775  1.00  0.00     0.000 HD 
BRANCH  34  36
HETATM   36  S   UNL     1      -6.088   4.161  68.196  1.00  0.00    -0.032 S  
HETATM   37  O   UNL     1      -6.217   4.099  66.759  1.00  0.00    -0.030 OA 
HETATM   38  O   UNL     1      -5.452   5.275  68.866  1.00  0.00    -0.004 OA 
HETATM   39  C   UNL     1      -5.391   2.643  68.796  1.00  0.00    -0.013 C  
ENDBRANCH  34  36
ENDBRANCH  31  34
ENDBRANCH  21  26
ENDBRANCH  16  18
ENDBRANCH  10  12
ENDBRANCH   9  10
ENDBRANCH   7   9
ENDBRANCH   4   7
ENDBRANCH   2   3
TORSDOF 10
ENDMDL
MODEL      120
REMARK 921   NORMALIZED FREE ENERGY PREDICTED BY IDOCK:   -5.18 KCAL/MOL
REMARK 922        TOTAL FREE ENERGY PREDICTED BY IDOCK:  -10.16 KCAL/MOL
REMARK 923 INTER-LIGAND FREE ENERGY PREDICTED BY IDOCK:   -9.41 KCAL/MOL
REMARK 924 INTRA-LIGAND FREE ENERGY PREDICTED BY IDOCK:   -0.75 KCAL/MOL
REMARK 927      BINDING AFFINITY PREDICTED BY RF-SCORE:    0.00 PKD
ROOT
HETATM    1  C   UNL     1      -9.592   3.333  69.712  1.00  0.00    -0.087 C  
HETATM    2  O   UNL     1      -9.443   4.056  70.947  1.00  0.00    -0.138 OA 
ENDROOT
BRANCH   2   3
HETATM    3  C   UNL     1      -9.120   5.371  70.776  1.00  0.00    -0.141 C  
HETATM    4  N   UNL     1      -9.729   6.155  71.733  1.00  0.00    -0.154 N  
HETATM    5  O   UNL     1      -8.394   5.777  69.879  1.00  0.00    -0.115 OA 
HETATM    6  H   UNL     1     -10.315   5.704  72.435  1.00  0.00     0.000 HD 
BRANCH   4   7
HETATM    7  C   UNL     1      -9.566   7.620  71.783  1.00  0.00    -0.149 C  
HETATM    8  C   UNL     1      -9.604   8.057  73.283  1.00  0.00    -0.322 C  
BRANCH   7   9
HETATM    9  C   UNL     1      -8.234   8.217  71.162  1.00  0.00    -0.112 C  
BRANCH   9  10
HETATM   10  N   UNL     1      -8.096   8.635  69.728  1.00  0.00    -0.111 NA 
HETATM   11  H   UNL     1      -7.188   8.517  69.277  1.00  0.00     0.000 HD 
BRANCH  10  12
HETATM   12  C   UNL     1      -9.149   9.183  68.969  1.00  0.00    -0.143 A  
HETATM   13  N   UNL     1      -9.470   8.549  67.840  1.00  0.00    -0.138 NA 
HETATM   14  C   UNL     1     -10.382   9.151  67.070  1.00  0.00    -0.263 A  
HETATM   15  C   UNL     1     -11.071  10.303  67.397  1.00  0.00    -0.261 A  
HETATM   16  C   UNL     1     -10.752  10.934  68.587  1.00  0.00    -0.203 A  
HETATM   17  N   UNL     1      -9.725  10.389  69.352  1.00  0.00    -0.219 NA 
BRANCH  16  18
HETATM   18  C   UNL     1     -11.558  12.197  68.950  1.00  0.00    -0.377 A  
HETATM   19  C   UNL     1     -12.051  12.379  70.256  1.00  0.00    -0.297 A  
HETATM   20  N   UNL     1     -12.625  13.616  70.352  1.00  0.00    -0.270 NA 
HETATM   21  C   UNL     1     -11.920  13.489  68.340  1.00  0.00    -0.343 A  
HETATM   22  N   UNL     1     -12.590  14.280  69.207  1.00  0.00    -0.019 NA 
BRANCH  20  23
HETATM   23  C   UNL     1     -13.196  14.282  71.537  1.00  0.00    -0.348 C  
HETATM   24  C   UNL     1     -12.145  15.029  72.369  1.00  0.00    -0.438 C  
HETATM   25  C   UNL     1     -13.948  13.305  72.455  1.00  0.00    -0.557 C  
ENDBRANCH  20  23
BRANCH  21  26
HETATM   26  C   UNL     1     -11.755  14.062  67.004  1.00  0.00    -0.425 A  
HETATM   27  C   UNL     1     -12.049  13.355  65.812  1.00  0.00    -0.481 A  
HETATM   28  C   UNL     1     -11.704  13.886  64.564  1.00  0.00    -0.410 A  
HETATM   29 CL   UNL     1     -12.187  13.113  63.107  1.00  0.00    -0.489 Cl 
HETATM   30  C   UNL     1     -10.949  15.063  64.486  1.00  0.00    -0.209 A  
HETATM   31  C   UNL     1     -10.683  15.728  65.668  1.00  0.00    -0.348 A  
HETATM   32  C   UNL     1     -11.224  15.313  66.869  1.00  0.00    -0.256 A  
HETATM   33  F   UNL     1     -11.254  16.196  67.866  1.00  0.00    -0.335 F  
BRANCH  31  34
HETATM   34  N   UNL     1      -9.874  16.902  65.721  1.00  0.00    -0.197 N  
HETATM   35  H   UNL     1     -10.199  17.808  65.384  1.00  0.00     0.000 HD 
BRANCH  34  36
HETATM   36  S   UNL     1      -8.336  16.681  66.384  1.00  0.00    -0.332 S  
HETATM   37  O   UNL     1      -8.125  15.289  66.703  1.00  0.00    -0.200 OA 
HETATM   38  O   UNL     1      -7.447  17.415  65.508  1.00  0.00    -0.287 OA 
HETATM   39  C   UNL     1      -8.574  17.604  67.881  1.00  0.00    -0.238 C  
ENDBRANCH  34  36
ENDBRANCH  31  34
ENDBRANCH  21  26
ENDBRANCH  16  18
ENDBRANCH  10  12
ENDBRANCH   9  10
ENDBRANCH   7   9
ENDBRANCH   4   7
ENDBRANCH   2   3
TORSDOF 10
ENDMDL
MODEL      121
REMARK 921   NORMALIZED FREE ENERGY PREDICTED BY IDOCK:   -5.16 KCAL/MOL
REMARK 922        TOTAL FREE ENERGY PREDICTED BY IDOCK:  -10.13 KCAL/MOL
REMARK 923 INTER-LIGAND FREE ENERGY PREDICTED BY IDOCK:   -8.70 KCAL/MOL
REMARK 924 INTRA-LIGAND FREE ENERGY PREDICTED BY IDOCK:   -1.43 KCAL/MOL
REMARK 927      BINDING AFFINITY PREDICTED BY RF-SCORE:    0.00 PKD
ROOT
HETATM    1  C   UNL     1     -10.827   3.782  64.247  1.00  0.00    -0.133 C  
HETATM    2  O   UNL     1     -10.608   4.497  65.476  1.00  0.00    -0.282 OA 
ENDROOT
BRANCH   2   3
HETATM    3  C   UNL     1      -9.352   5.018  65.591  1.00  0.00    -0.154 C  
HETATM    4  N   UNL     1      -8.947   5.590  64.404  1.00  0.00    -0.359 N  
HETATM    5  O   UNL     1      -8.689   4.962  66.618  1.00  0.00    -0.110 OA 
HETATM    6  H   UNL     1      -9.588   5.577  63.610  1.00  0.00     0.000 HD 
BRANCH   4   7
HETATM    7  C   UNL     1      -7.625   6.220  64.234  1.00  0.00    -0.097 C  
HETATM    8  C   UNL     1      -6.991   5.660  62.920  1.00  0.00    -0.043 C  
BRANCH   7   9
HETATM    9  C   UNL     1      -7.591   7.802  64.125  1.00  0.00    -0.113 C  
BRANCH   9  10
HETATM   10  N   UNL     1      -6.620   8.670  64.871  1.00  0.00    -0.068 NA 
HETATM   11  H   UNL     1      -5.722   8.873  64.433  1.00  0.00     0.000 HD 
BRANCH  10  12
HETATM   12  C   UNL     1      -6.880   9.219  66.142  1.00  0.00    -0.085 A  
HETATM   13  N   UNL     1      -5.833   9.698  66.816  1.00  0.00    -0.054 NA 
HETATM   14  C   UNL     1      -6.076  10.098  68.069  1.00  0.00    -0.052 A  
HETATM   15  C   UNL     1      -7.321  10.143  68.667  1.00  0.00    -0.082 A  
HETATM   16  C   UNL     1      -8.404   9.674  67.946  1.00  0.00    -0.117 A  
HETATM   17  N   UNL     1      -8.159   9.146  66.681  1.00  0.00    -0.110 NA 
BRANCH  16  18
HETATM   18  C   UNL     1      -9.788   9.765  68.618  1.00  0.00    -0.168 A  
HETATM   19  C   UNL     1     -10.119   8.915  69.690  1.00  0.00    -0.200 A  
HETATM   20  N   UNL     1     -11.345   9.268  70.182  1.00  0.00    -0.210 NA 
HETATM   21  C   UNL     1     -10.976  10.637  68.585  1.00  0.00    -0.246 A  
HETATM   22  N   UNL     1     -11.891  10.271  69.510  1.00  0.00    -0.137 NA 
BRANCH  20  23
HETATM   23  C   UNL     1     -12.066   8.726  71.348  1.00  0.00    -0.307 C  
HETATM   24  C   UNL     1     -13.110   9.700  71.913  1.00  0.00    -0.530 C  
HETATM   25  C   UNL     1     -11.117   8.309  72.483  1.00  0.00    -0.439 C  
ENDBRANCH  20  23
BRANCH  21  26
HETATM   26  C   UNL     1     -11.387  11.761  67.742  1.00  0.00    -0.358 A  
HETATM   27  C   UNL     1     -11.351  11.726  66.327  1.00  0.00    -0.350 A  
HETATM   28  C   UNL     1     -11.584  12.885  65.578  1.00  0.00    -0.358 A  
HETATM   29 CL   UNL     1     -11.692  12.828  63.864  1.00  0.00    -0.483 Cl 
HETATM   30  C   UNL     1     -11.728  14.120  66.223  1.00  0.00    -0.402 A  
HETATM   31  C   UNL     1     -11.762  14.116  67.605  1.00  0.00    -0.387 A  
HETATM   32  C   UNL     1     -11.760  12.938  68.326  1.00  0.00    -0.350 A  
HETATM   33  F   UNL     1     -12.183  12.990  69.587  1.00  0.00    -0.334 F  
BRANCH  31  34
HETATM   34  N   UNL     1     -11.844  15.316  68.372  1.00  0.00    -0.505 N  
HETATM   35  H   UNL     1     -12.709  15.847  68.469  1.00  0.00     0.000 HD 
BRANCH  34  36
HETATM   36  S   UNL     1     -10.401  15.794  69.109  1.00  0.00    -0.260 S  
HETATM   37  O   UNL     1     -10.568  15.847  70.543  1.00  0.00    -0.257 OA 
HETATM   38  O   UNL     1      -9.379  14.984  68.481  1.00  0.00    -0.183 OA 
HETATM   39  C   UNL     1     -10.321  17.442  68.459  1.00  0.00    -0.378 C  
ENDBRANCH  34  36
ENDBRANCH  31  34
ENDBRANCH  21  26
ENDBRANCH  16  18
ENDBRANCH  10  12
ENDBRANCH   9  10
ENDBRANCH   7   9
ENDBRANCH   4   7
ENDBRANCH   2   3
TORSDOF 10
ENDMDL
MODEL      122
REMARK 921   NORMALIZED FREE ENERGY PREDICTED BY IDOCK:   -5.09 KCAL/MOL
REMARK 922        TOTAL FREE ENERGY PREDICTED BY IDOCK:  -10.03 KCAL/MOL
REMARK 923 INTER-LIGAND FREE ENERGY PREDICTED BY IDOCK:   -8.73 KCAL/MOL
REMARK 924 INTRA-LIGAND FREE ENERGY PREDICTED BY IDOCK:   -1.29 KCAL/MOL
REMARK 927      BINDING AFFINITY PREDICTED BY RF-SCORE:    0.00 PKD
ROOT
HETATM    1  C   UNL     1     -10.456  17.654  69.129  1.00  0.00    -0.128 C  
HETATM    2  O   UNL     1      -9.771  18.872  68.786  1.00  0.00    -0.375 OA 
ENDROOT
BRANCH   2   3
HETATM    3  C   UNL     1      -8.492  18.679  68.352  1.00  0.00    -0.338 C  
HETATM    4  N   UNL     1      -8.379  18.971  67.010  1.00  0.00    -0.270 N  
HETATM    5  O   UNL     1      -7.586  18.285  69.074  1.00  0.00    -0.246 OA 
HETATM    6  H   UNL     1      -9.207  19.293  66.507  1.00  0.00     0.000 HD 
BRANCH   4   7
HETATM    7  C   UNL     1      -7.111  18.839  66.270  1.00  0.00    -0.246 C  
HETATM    8  C   UNL     1      -6.015  19.637  67.048  1.00  0.00    -0.182 C  
BRANCH   7   9
HETATM    9  C   UNL     1      -6.550  17.370  66.061  1.00  0.00    -0.141 C  
BRANCH   9  10
HETATM   10  N   UNL     1      -7.034  16.175  66.830  1.00  0.00    -0.233 NA 
HETATM   11  H   UNL     1      -6.395  15.740  67.496  1.00  0.00     0.000 HD 
BRANCH  10  12
HETATM   12  C   UNL     1      -8.321  15.620  66.683  1.00  0.00    -0.275 A  
HETATM   13  N   UNL     1      -9.133  16.210  65.804  1.00  0.00    -0.412 NA 
HETATM   14  C   UNL     1     -10.389  15.751  65.769  1.00  0.00    -0.369 A  
HETATM   15  C   UNL     1     -10.868  14.673  66.488  1.00  0.00    -0.315 A  
HETATM   16  C   UNL     1     -10.005  14.049  67.372  1.00  0.00    -0.243 A  
HETATM   17  N   UNL     1      -8.725  14.579  67.510  1.00  0.00    -0.177 NA 
BRANCH  16  18
HETATM   18  C   UNL     1     -10.548  12.826  68.137  1.00  0.00    -0.242 A  
HETATM   19  C   UNL     1     -11.420  12.996  69.229  1.00  0.00    -0.289 A  
HETATM   20  N   UNL     1     -11.846  11.770  69.659  1.00  0.00    -0.324 NA 
HETATM   21  C   UNL     1     -10.552  11.357  68.011  1.00  0.00    -0.191 A  
HETATM   22  N   UNL     1     -11.308  10.776  68.969  1.00  0.00    -0.262 NA 
BRANCH  20  23
HETATM   23  C   UNL     1     -12.827  11.447  70.711  1.00  0.00    -0.167 C  
HETATM   24  C   UNL     1     -12.837  12.471  71.855  1.00  0.00    -0.311 C  
HETATM   25  C   UNL     1     -12.612  10.047  71.306  1.00  0.00    -0.495 C  
ENDBRANCH  20  23
BRANCH  21  26
HETATM   26  C   UNL     1      -9.881  10.413  67.117  1.00  0.00    -0.221 A  
HETATM   27  C   UNL     1      -9.865  10.553  65.707  1.00  0.00    -0.295 A  
HETATM   28  C   UNL     1      -9.365   9.530  64.894  1.00  0.00    -0.198 A  
HETATM   29 CL   UNL     1      -9.201   9.746  63.197  1.00  0.00    -0.278 Cl 
HETATM   30  C   UNL     1      -8.993   8.303  65.458  1.00  0.00    -0.114 A  
HETATM   31  C   UNL     1      -9.018   8.203  66.836  1.00  0.00    -0.140 A  
HETATM   32  C   UNL     1      -9.296   9.294  67.637  1.00  0.00    -0.128 A  
HETATM   33  F   UNL     1      -8.923   9.229  68.913  1.00  0.00    -0.129 F  
BRANCH  31  34
HETATM   34  N   UNL     1      -8.720   6.988  67.522  1.00  0.00    -0.121 N  
HETATM   35  H   UNL     1      -7.794   6.785  67.900  1.00  0.00     0.000 HD 
BRANCH  34  36
HETATM   36  S   UNL     1     -10.011   5.909  67.660  1.00  0.00    -0.153 S  
HETATM   37  O   UNL     1     -11.250   6.566  67.314  1.00  0.00    -0.376 OA 
HETATM   38  O   UNL     1      -9.562   4.706  66.991  1.00  0.00    -0.154 OA 
HETATM   39  C   UNL     1      -9.943   5.660  69.416  1.00  0.00    -0.197 C  
ENDBRANCH  34  36
ENDBRANCH  31  34
ENDBRANCH  21  26
ENDBRANCH  16  18
ENDBRANCH  10  12
ENDBRANCH   9  10
ENDBRANCH   7   9
ENDBRANCH   4   7
ENDBRANCH   2   3
TORSDOF 10
ENDMDL
MODEL      123
REMARK 921   NORMALIZED FREE ENERGY PREDICTED BY IDOCK:   -5.09 KCAL/MOL
REMARK 922        TOTAL FREE ENERGY PREDICTED BY IDOCK:  -10.03 KCAL/MOL
REMARK 923 INTER-LIGAND FREE ENERGY PREDICTED BY IDOCK:   -8.80 KCAL/MOL
REMARK 924 INTRA-LIGAND FREE ENERGY PREDICTED BY IDOCK:   -1.22 KCAL/MOL
REMARK 927      BINDING AFFINITY PREDICTED BY RF-SCORE:    0.00 PKD
ROOT
HETATM    1  C   UNL     1     -13.079   9.973  71.971  1.00  0.00    -0.441 C  
HETATM    2  O   UNL     1     -12.575   9.078  70.964  1.00  0.00    -0.247 OA 
ENDROOT
BRANCH   2   3
HETATM    3  C   UNL     1     -11.237   8.831  71.071  1.00  0.00    -0.273 C  
HETATM    4  N   UNL     1     -10.995   7.478  71.177  1.00  0.00    -0.243 N  
HETATM    5  O   UNL     1     -10.387   9.710  71.081  1.00  0.00    -0.294 OA 
HETATM    6  H   UNL     1     -11.787   6.836  71.157  1.00  0.00     0.000 HD 
BRANCH   4   7
HETATM    7  C   UNL     1      -9.637   6.922  71.319  1.00  0.00    -0.165 C  
HETATM    8  C   UNL     1      -9.717   5.698  72.288  1.00  0.00    -0.177 C  
BRANCH   7   9
HETATM    9  C   UNL     1      -8.926   6.415  69.994  1.00  0.00    -0.146 C  
BRANCH   9  10
HETATM   10  N   UNL     1      -9.154   7.021  68.641  1.00  0.00    -0.133 NA 
HETATM   11  H   UNL     1      -9.784   6.540  67.998  1.00  0.00     0.000 HD 
BRANCH  10  12
HETATM   12  C   UNL     1      -8.547   8.216  68.207  1.00  0.00    -0.130 A  
HETATM   13  N   UNL     1      -7.229   8.319  68.382  1.00  0.00    -0.090 NA 
HETATM   14  C   UNL     1      -6.689   9.506  68.083  1.00  0.00    -0.062 A  
HETATM   15  C   UNL     1      -7.365  10.575  67.528  1.00  0.00    -0.092 A  
HETATM   16  C   UNL     1      -8.727  10.444  67.322  1.00  0.00    -0.125 A  
HETATM   17  N   UNL     1      -9.333   9.259  67.730  1.00  0.00    -0.129 NA 
BRANCH  16  18
HETATM   18  C   UNL     1      -9.456  11.635  66.668  1.00  0.00    -0.213 A  
HETATM   19  C   UNL     1     -10.541  11.419  65.799  1.00  0.00    -0.260 A  
HETATM   20  N   UNL     1     -11.083  12.624  65.446  1.00  0.00    -0.285 NA 
HETATM   21  C   UNL     1      -9.470  13.106  66.760  1.00  0.00    -0.252 A  
HETATM   22  N   UNL     1     -10.433  13.646  65.980  1.00  0.00    -0.294 NA 
BRANCH  20  23
HETATM   23  C   UNL     1     -12.278  12.898  64.628  1.00  0.00    -0.435 C  
HETATM   24  C   UNL     1     -12.354  12.026  63.367  1.00  0.00    -0.635 C  
HETATM   25  C   UNL     1     -12.380  14.374  64.213  1.00  0.00    -0.402 C  
ENDBRANCH  20  23
BRANCH  21  26
HETATM   26  C   UNL     1      -8.644  14.087  67.465  1.00  0.00    -0.196 A  
HETATM   27  C   UNL     1      -7.905  13.785  68.635  1.00  0.00    -0.108 A  
HETATM   28  C   UNL     1      -7.279  14.801  69.366  1.00  0.00    -0.168 A  
HETATM   29 CL   UNL     1      -6.256  14.435  70.698  1.00  0.00    -0.183 Cl 
HETATM   30  C   UNL     1      -7.484  16.143  69.021  1.00  0.00    -0.210 A  
HETATM   31  C   UNL     1      -8.208  16.401  67.872  1.00  0.00    -0.166 A  
HETATM   32  C   UNL     1      -8.626  15.384  67.036  1.00  0.00    -0.234 A  
HETATM   33  F   UNL     1      -8.956  15.712  65.789  1.00  0.00    -0.356 F  
BRANCH  31  34
HETATM   34  N   UNL     1      -8.534  17.725  67.453  1.00  0.00    -0.224 N  
HETATM   35  H   UNL     1      -7.892  18.301  66.908  1.00  0.00     0.000 HD 
BRANCH  34  36
HETATM   36  S   UNL     1     -10.060  18.271  67.926  1.00  0.00    -0.381 S  
HETATM   37  O   UNL     1     -10.769  18.814  66.791  1.00  0.00    -0.401 OA 
HETATM   38  O   UNL     1     -10.603  17.198  68.732  1.00  0.00    -0.343 OA 
HETATM   39  C   UNL     1      -9.537  19.592  68.987  1.00  0.00    -0.309 C  
ENDBRANCH  34  36
ENDBRANCH  31  34
ENDBRANCH  21  26
ENDBRANCH  16  18
ENDBRANCH  10  12
ENDBRANCH   9  10
ENDBRANCH   7   9
ENDBRANCH   4   7
ENDBRANCH   2   3
TORSDOF 10
ENDMDL
MODEL      124
REMARK 921   NORMALIZED FREE ENERGY PREDICTED BY IDOCK:   -5.08 KCAL/MOL
REMARK 922        TOTAL FREE ENERGY PREDICTED BY IDOCK:  -10.01 KCAL/MOL
REMARK 923 INTER-LIGAND FREE ENERGY PREDICTED BY IDOCK:   -8.09 KCAL/MOL
REMARK 924 INTRA-LIGAND FREE ENERGY PREDICTED BY IDOCK:   -1.92 KCAL/MOL
REMARK 927      BINDING AFFINITY PREDICTED BY RF-SCORE:    0.00 PKD
ROOT
HETATM    1  C   UNL     1     -11.647  15.788  68.215  1.00  0.00    -0.298 C  
HETATM    2  O   UNL     1     -11.100  15.439  66.931  1.00  0.00    -0.316 OA 
ENDROOT
BRANCH   2   3
HETATM    3  C   UNL     1     -10.172  16.328  66.472  1.00  0.00    -0.300 C  
HETATM    4  N   UNL     1      -9.259  16.639  67.456  1.00  0.00    -0.206 N  
HETATM    5  O   UNL     1     -10.178  16.784  65.337  1.00  0.00    -0.599 OA 
HETATM    6  H   UNL     1      -9.354  16.195  68.370  1.00  0.00     0.000 HD 
BRANCH   4   7
HETATM    7  C   UNL     1      -8.150  17.587  67.243  1.00  0.00    -0.203 C  
HETATM    8  C   UNL     1      -7.892  18.335  68.590  1.00  0.00    -0.313 C  
BRANCH   7   9
HETATM    9  C   UNL     1      -6.760  16.975  66.782  1.00  0.00    -0.230 C  
BRANCH   9  10
HETATM   10  N   UNL     1      -5.915  16.083  67.643  1.00  0.00    -0.143 NA 
HETATM   11  H   UNL     1      -4.985  16.410  67.908  1.00  0.00     0.000 HD 
BRANCH  10  12
HETATM   12  C   UNL     1      -6.332  14.819  68.105  1.00  0.00    -0.138 A  
HETATM   13  N   UNL     1      -5.843  14.416  69.279  1.00  0.00    -0.086 NA 
HETATM   14  C   UNL     1      -6.147  13.165  69.642  1.00  0.00    -0.120 A  
HETATM   15  C   UNL     1      -6.990  12.315  68.953  1.00  0.00    -0.098 A  
HETATM   16  C   UNL     1      -7.517  12.757  67.752  1.00  0.00    -0.135 A  
HETATM   17  N   UNL     1      -7.125  14.013  67.297  1.00  0.00    -0.128 NA 
BRANCH  16  18
HETATM   18  C   UNL     1      -8.484  11.807  67.018  1.00  0.00    -0.175 A  
HETATM   19  C   UNL     1      -8.158  11.298  65.747  1.00  0.00     0.111 A  
HETATM   20  N   UNL     1      -9.113  10.399  65.363  1.00  0.00    -0.177 NA 
HETATM   21  C   UNL     1      -9.731  11.071  67.294  1.00  0.00    -0.166 A  
HETATM   22  N   UNL     1     -10.082  10.277  66.258  1.00  0.00    -0.232 NA 
BRANCH  20  23
HETATM   23  C   UNL     1      -9.157   9.551  64.158  1.00  0.00    -0.153 C  
HETATM   24  C   UNL     1      -8.378   8.239  64.320  1.00  0.00    -0.068 C  
HETATM   25  C   UNL     1      -8.638  10.280  62.908  1.00  0.00    -0.194 C  
ENDBRANCH  20  23
BRANCH  21  26
HETATM   26  C   UNL     1     -10.677  11.059  68.410  1.00  0.00    -0.240 A  
HETATM   27  C   UNL     1     -11.167  12.236  69.028  1.00  0.00    -0.319 A  
HETATM   28  C   UNL     1     -11.926  12.164  70.201  1.00  0.00    -0.314 A  
HETATM   29 CL   UNL     1     -12.652  13.568  70.877  1.00  0.00    -0.425 Cl 
HETATM   30  C   UNL     1     -12.101  10.935  70.850  1.00  0.00    -0.455 A  
HETATM   31  C   UNL     1     -11.612   9.807  70.218  1.00  0.00    -0.220 A  
HETATM   32  C   UNL     1     -11.066   9.867  68.950  1.00  0.00    -0.140 A  
HETATM   33  F   UNL     1     -10.985   8.729  68.263  1.00  0.00    -0.191 F  
BRANCH  31  34
HETATM   34  N   UNL     1     -11.676   8.510  70.808  1.00  0.00    -0.404 N  
HETATM   35  H   UNL     1     -12.540   7.970  70.852  1.00  0.00     0.000 HD 
BRANCH  34  36
HETATM   36  S   UNL     1     -10.215   7.933  71.429  1.00  0.00    -0.193 S  
HETATM   37  O   UNL     1      -9.639   6.963  70.528  1.00  0.00    -0.169 OA 
HETATM   38  O   UNL     1      -9.498   9.118  71.847  1.00  0.00    -0.332 OA 
HETATM   39  C   UNL     1     -10.860   7.105  72.859  1.00  0.00    -0.323 C  
ENDBRANCH  34  36
ENDBRANCH  31  34
ENDBRANCH  21  26
ENDBRANCH  16  18
ENDBRANCH  10  12
ENDBRANCH   9  10
ENDBRANCH   7   9
ENDBRANCH   4   7
ENDBRANCH   2   3
TORSDOF 10
ENDMDL
MODEL      125
REMARK 921   NORMALIZED FREE ENERGY PREDICTED BY IDOCK:   -5.08 KCAL/MOL
REMARK 922        TOTAL FREE ENERGY PREDICTED BY IDOCK:  -10.01 KCAL/MOL
REMARK 923 INTER-LIGAND FREE ENERGY PREDICTED BY IDOCK:   -8.54 KCAL/MOL
REMARK 924 INTRA-LIGAND FREE ENERGY PREDICTED BY IDOCK:   -1.47 KCAL/MOL
REMARK 927      BINDING AFFINITY PREDICTED BY RF-SCORE:    0.00 PKD
ROOT
HETATM    1  C   UNL     1     -12.101  15.141  64.434  1.00  0.00    -0.300 C  
HETATM    2  O   UNL     1     -13.026  14.214  65.029  1.00  0.00    -0.721 OA 
ENDROOT
BRANCH   2   3
HETATM    3  C   UNL     1     -12.594  12.920  65.010  1.00  0.00    -0.472 C  
HETATM    4  N   UNL     1     -11.534  12.743  65.872  1.00  0.00    -0.338 N  
HETATM    5  O   UNL     1     -13.090  12.053  64.303  1.00  0.00    -0.671 OA 
HETATM    6  H   UNL     1     -11.203  13.543  66.413  1.00  0.00     0.000 HD 
BRANCH   4   7
HETATM    7  C   UNL     1     -10.857  11.445  66.046  1.00  0.00    -0.249 C  
HETATM    8  C   UNL     1      -9.315  11.695  65.989  1.00  0.00    -0.241 C  
BRANCH   7   9
HETATM    9  C   UNL     1     -11.147  10.657  67.392  1.00  0.00    -0.272 C  
BRANCH   9  10
HETATM   10  N   UNL     1     -11.915  11.232  68.546  1.00  0.00    -0.575 NA 
HETATM   11  H   UNL     1     -12.337  12.154  68.432  1.00  0.00     0.000 HD 
BRANCH  10  12
HETATM   12  C   UNL     1     -12.086  10.571  69.778  1.00  0.00    -0.214 A  
HETATM   13  N   UNL     1     -13.066  11.014  70.568  1.00  0.00    -0.079 NA 
HETATM   14  C   UNL     1     -13.133  10.461  71.783  1.00  0.00    -0.462 A  
HETATM   15  C   UNL     1     -12.344   9.420  72.234  1.00  0.00    -0.298 A  
HETATM   16  C   UNL     1     -11.353   8.947  71.392  1.00  0.00    -0.309 A  
HETATM   17  N   UNL     1     -11.188   9.583  70.165  1.00  0.00    -0.244 NA 
BRANCH  16  18
HETATM   18  C   UNL     1     -10.507   7.762  71.899  1.00  0.00    -0.268 A  
HETATM   19  C   UNL     1     -10.884   7.062  73.061  1.00  0.00    -0.309 A  
HETATM   20  N   UNL     1     -10.046   5.995  73.235  1.00  0.00    -0.183 NA 
HETATM   21  C   UNL     1      -9.367   6.945  71.446  1.00  0.00    -0.156 A  
HETATM   22  N   UNL     1      -9.110   5.929  72.301  1.00  0.00    -0.142 NA 
BRANCH  20  23
HETATM   23  C   UNL     1     -10.099   4.932  74.255  1.00  0.00    -0.226 C  
HETATM   24  C   UNL     1      -8.749   4.235  74.465  1.00  0.00    -0.098 C  
HETATM   25  C   UNL     1     -11.160   3.866  73.939  1.00  0.00    -0.239 C  
ENDBRANCH  20  23
BRANCH  21  26
HETATM   26  C   UNL     1      -8.442   7.032  70.316  1.00  0.00    -0.138 A  
HETATM   27  C   UNL     1      -7.738   8.213  69.976  1.00  0.00    -0.086 A  
HETATM   28  C   UNL     1      -7.007   8.291  68.785  1.00  0.00    -0.067 A  
HETATM   29 CL   UNL     1      -6.028   9.658  68.432  1.00  0.00    -0.043 Cl 
HETATM   30  C   UNL     1      -7.070   7.246  67.854  1.00  0.00    -0.085 A  
HETATM   31  C   UNL     1      -7.763   6.108  68.220  1.00  0.00    -0.103 A  
HETATM   32  C   UNL     1      -8.287   5.956  69.489  1.00  0.00    -0.114 A  
HETATM   33  F   UNL     1      -8.582   4.720  69.887  1.00  0.00    -0.073 F  
BRANCH  31  34
HETATM   34  N   UNL     1      -7.947   5.005  67.334  1.00  0.00    -0.095 N  
HETATM   35  H   UNL     1      -7.375   4.162  67.382  1.00  0.00     0.000 HD 
BRANCH  34  36
HETATM   36  S   UNL     1      -9.183   5.197  66.199  1.00  0.00    -0.156 S  
HETATM   37  O   UNL     1     -10.398   5.624  66.852  1.00  0.00    -0.204 OA 
HETATM   38  O   UNL     1      -8.580   5.952  65.121  1.00  0.00    -0.149 OA 
HETATM   39  C   UNL     1      -9.338   3.500  65.707  1.00  0.00    -0.157 C  
ENDBRANCH  34  36
ENDBRANCH  31  34
ENDBRANCH  21  26
ENDBRANCH  16  18
ENDBRANCH  10  12
ENDBRANCH   9  10
ENDBRANCH   7   9
ENDBRANCH   4   7
ENDBRANCH   2   3
TORSDOF 10
ENDMDL
MODEL      126
REMARK 921   NORMALIZED FREE ENERGY PREDICTED BY IDOCK:   -5.07 KCAL/MOL
REMARK 922        TOTAL FREE ENERGY PREDICTED BY IDOCK:  -10.00 KCAL/MOL
REMARK 923 INTER-LIGAND FREE ENERGY PREDICTED BY IDOCK:   -8.24 KCAL/MOL
REMARK 924 INTRA-LIGAND FREE ENERGY PREDICTED BY IDOCK:   -1.76 KCAL/MOL
REMARK 927      BINDING AFFINITY PREDICTED BY RF-SCORE:    0.00 PKD
ROOT
HETATM    1  C   UNL     1     -13.239  11.065  71.955  1.00  0.00    -0.342 C  
HETATM    2  O   UNL     1     -13.218  10.245  70.773  1.00  0.00    -0.385 OA 
ENDROOT
BRANCH   2   3
HETATM    3  C   UNL     1     -12.042   9.577  70.591  1.00  0.00    -0.162 C  
HETATM    4  N   UNL     1     -12.244   8.213  70.608  1.00  0.00    -0.491 N  
HETATM    5  O   UNL     1     -10.964  10.136  70.446  1.00  0.00    -0.289 OA 
HETATM    6  H   UNL     1     -13.193   7.860  70.737  1.00  0.00     0.000 HD 
BRANCH   4   7
HETATM    7  C   UNL     1     -11.145   7.244  70.447  1.00  0.00    -0.268 C  
HETATM    8  C   UNL     1     -11.064   6.388  71.751  1.00  0.00    -0.311 C  
BRANCH   7   9
HETATM    9  C   UNL     1     -11.256   6.227  69.234  1.00  0.00    -0.389 C  
BRANCH   9  10
HETATM   10  N   UNL     1     -11.416   6.649  67.803  1.00  0.00    -0.658 NA 
HETATM   11  H   UNL     1     -12.223   6.299  67.286  1.00  0.00     0.000 HD 
BRANCH  10  12
HETATM   12  C   UNL     1     -10.515   7.499  67.133  1.00  0.00    -0.336 A  
HETATM   13  N   UNL     1      -9.537   6.914  66.440  1.00  0.00    -0.139 NA 
HETATM   14  C   UNL     1      -8.618   7.733  65.918  1.00  0.00    -0.153 A  
HETATM   15  C   UNL     1      -8.661   9.113  65.958  1.00  0.00    -0.176 A  
HETATM   16  C   UNL     1      -9.699   9.709  66.652  1.00  0.00    -0.209 A  
HETATM   17  N   UNL     1     -10.605   8.876  67.302  1.00  0.00    -0.275 NA 
BRANCH  16  18
HETATM   18  C   UNL     1      -9.748  11.250  66.655  1.00  0.00    -0.222 A  
HETATM   19  C   UNL     1     -10.822  11.932  66.050  1.00  0.00    -0.299 A  
HETATM   20  N   UNL     1     -10.693  13.272  66.285  1.00  0.00    -0.284 NA 
HETATM   21  C   UNL     1      -9.018  12.377  67.262  1.00  0.00    -0.190 A  
HETATM   22  N   UNL     1      -9.601  13.563  66.975  1.00  0.00    -0.240 NA 
BRANCH  20  23
HETATM   23  C   UNL     1     -11.612  14.367  65.927  1.00  0.00    -0.361 C  
HETATM   24  C   UNL     1     -12.904  13.872  65.262  1.00  0.00    -0.437 C  
HETATM   25  C   UNL     1     -10.955  15.410  65.008  1.00  0.00    -0.450 C  
ENDBRANCH  20  23
BRANCH  21  26
HETATM   26  C   UNL     1      -7.789  12.484  68.049  1.00  0.00    -0.147 A  
HETATM   27  C   UNL     1      -7.438  11.568  69.071  1.00  0.00    -0.073 A  
HETATM   28  C   UNL     1      -6.346  11.819  69.910  1.00  0.00    -0.113 A  
HETATM   29 CL   UNL     1      -5.817  10.649  71.052  1.00  0.00    -0.039 Cl 
HETATM   30  C   UNL     1      -5.666  13.041  69.831  1.00  0.00    -0.123 A  
HETATM   31  C   UNL     1      -6.034  13.909  68.821  1.00  0.00    -0.085 A  
HETATM   32  C   UNL     1      -6.959  13.552  67.859  1.00  0.00    -0.144 A  
HETATM   33  F   UNL     1      -6.970  14.253  66.728  1.00  0.00     0.209 F  
BRANCH  31  34
HETATM   34  N   UNL     1      -5.457  15.207  68.678  1.00  0.00    -0.088 N  
HETATM   35  H   UNL     1      -4.732  15.411  67.989  1.00  0.00     0.000 HD 
BRANCH  34  36
HETATM   36  S   UNL     1      -6.061  16.379  69.732  1.00  0.00    -0.194 S  
HETATM   37  O   UNL     1      -7.501  16.296  69.798  1.00  0.00    -0.022 OA 
HETATM   38  O   UNL     1      -5.228  16.279  70.912  1.00  0.00    -0.185 OA 
HETATM   39  C   UNL     1      -5.591  17.817  68.806  1.00  0.00    -0.174 C  
ENDBRANCH  34  36
ENDBRANCH  31  34
ENDBRANCH  21  26
ENDBRANCH  16  18
ENDBRANCH  10  12
ENDBRANCH   9  10
ENDBRANCH   7   9
ENDBRANCH   4   7
ENDBRANCH   2   3
TORSDOF 10
ENDMDL
MODEL      127
REMARK 921   NORMALIZED FREE ENERGY PREDICTED BY IDOCK:   -5.06 KCAL/MOL
REMARK 922        TOTAL FREE ENERGY PREDICTED BY IDOCK:   -9.98 KCAL/MOL
REMARK 923 INTER-LIGAND FREE ENERGY PREDICTED BY IDOCK:   -9.76 KCAL/MOL
REMARK 924 INTRA-LIGAND FREE ENERGY PREDICTED BY IDOCK:   -0.22 KCAL/MOL
REMARK 927      BINDING AFFINITY PREDICTED BY RF-SCORE:    0.00 PKD
ROOT
HETATM    1  C   UNL     1      -5.233   7.271  68.304  1.00  0.00    -0.021 C  
HETATM    2  O   UNL     1      -5.734   6.067  67.698  1.00  0.00    -0.011 OA 
ENDROOT
BRANCH   2   3
HETATM    3  C   UNL     1      -7.059   5.844  67.935  1.00  0.00    -0.071 C  
HETATM    4  N   UNL     1      -7.804   6.052  66.794  1.00  0.00    -0.100 N  
HETATM    5  O   UNL     1      -7.504   5.516  69.026  1.00  0.00    -0.078 OA 
HETATM    6  H   UNL     1      -7.322   6.325  65.937  1.00  0.00     0.000 HD 
BRANCH   4   7
HETATM    7  C   UNL     1      -9.270   5.897  66.761  1.00  0.00    -0.133 C  
HETATM    8  C   UNL     1      -9.591   4.368  66.738  1.00  0.00    -0.216 C  
BRANCH   7   9
HETATM    9  C   UNL     1     -10.086   6.521  67.969  1.00  0.00    -0.150 C  
BRANCH   9  10
HETATM   10  N   UNL     1     -10.035   7.972  68.350  1.00  0.00    -0.179 NA 
HETATM   11  H   UNL     1      -9.471   8.600  67.777  1.00  0.00     0.000 HD 
BRANCH  10  12
HETATM   12  C   UNL     1     -10.722   8.515  69.453  1.00  0.00    -0.156 A  
HETATM   13  N   UNL     1     -10.993   7.684  70.462  1.00  0.00    -0.246 NA 
HETATM   14  C   UNL     1     -11.754   8.182  71.442  1.00  0.00    -0.285 A  
HETATM   15  C   UNL     1     -12.188   9.491  71.532  1.00  0.00    -0.468 A  
HETATM   16  C   UNL     1     -11.872  10.351  70.496  1.00  0.00    -0.337 A  
HETATM   17  N   UNL     1     -11.178   9.827  69.409  1.00  0.00    -0.167 NA 
BRANCH  16  18
HETATM   18  C   UNL     1     -12.335  11.815  70.634  1.00  0.00    -0.421 A  
HETATM   19  C   UNL     1     -12.869  12.284  71.848  1.00  0.00    -0.213 A  
HETATM   20  N   UNL     1     -13.094  13.629  71.751  1.00  0.00    -0.367 NA 
HETATM   21  C   UNL     1     -12.281  13.067  69.858  1.00  0.00    -0.202 A  
HETATM   22  N   UNL     1     -12.784  14.109  70.557  1.00  0.00    -0.334 NA 
BRANCH  20  23
HETATM   23  C   UNL     1     -13.562  14.567  72.788  1.00  0.00    -0.433 C  
HETATM   24  C   UNL     1     -14.408  15.715  72.220  1.00  0.00    -0.480 C  
HETATM   25  C   UNL     1     -12.406  15.164  73.606  1.00  0.00    -0.674 C  
ENDBRANCH  20  23
BRANCH  21  26
HETATM   26  C   UNL     1     -11.855  13.402  68.499  1.00  0.00    -0.401 A  
HETATM   27  C   UNL     1     -11.575  12.428  67.509  1.00  0.00    -0.431 A  
HETATM   28  C   UNL     1     -11.001  12.797  66.287  1.00  0.00    -0.280 A  
HETATM   29 CL   UNL     1     -10.795  11.652  65.022  1.00  0.00    -0.348 Cl 
HETATM   30  C   UNL     1     -10.577  14.116  66.080  1.00  0.00    -0.297 A  
HETATM   31  C   UNL     1     -10.870  15.040  67.066  1.00  0.00    -0.311 A  
HETATM   32  C   UNL     1     -11.638  14.708  68.164  1.00  0.00    -0.335 A  
HETATM   33  F   UNL     1     -12.198  15.707  68.845  1.00  0.00    -0.340 F  
BRANCH  31  34
HETATM   34  N   UNL     1     -10.437  16.398  66.995  1.00  0.00    -0.301 N  
HETATM   35  H   UNL     1     -10.974  17.120  66.515  1.00  0.00     0.000 HD 
BRANCH  34  36
HETATM   36  S   UNL     1      -8.970  16.722  67.765  1.00  0.00    -0.218 S  
HETATM   37  O   UNL     1      -9.042  17.984  68.464  1.00  0.00    -0.283 OA 
HETATM   38  O   UNL     1      -8.623  15.488  68.436  1.00  0.00    -0.160 OA 
HETATM   39  C   UNL     1      -7.961  16.903  66.317  1.00  0.00    -0.315 C  
ENDBRANCH  34  36
ENDBRANCH  31  34
ENDBRANCH  21  26
ENDBRANCH  16  18
ENDBRANCH  10  12
ENDBRANCH   9  10
ENDBRANCH   7   9
ENDBRANCH   4   7
ENDBRANCH   2   3
TORSDOF 10
ENDMDL
MODEL      128
REMARK 921   NORMALIZED FREE ENERGY PREDICTED BY IDOCK:   -5.06 KCAL/MOL
REMARK 922        TOTAL FREE ENERGY PREDICTED BY IDOCK:   -9.97 KCAL/MOL
REMARK 923 INTER-LIGAND FREE ENERGY PREDICTED BY IDOCK:   -7.82 KCAL/MOL
REMARK 924 INTRA-LIGAND FREE ENERGY PREDICTED BY IDOCK:   -2.15 KCAL/MOL
REMARK 927      BINDING AFFINITY PREDICTED BY RF-SCORE:    0.00 PKD
ROOT
HETATM    1  C   UNL     1     -10.491  17.236  65.841  1.00  0.00    -0.262 C  
HETATM    2  O   UNL     1     -10.459  16.239  64.804  1.00  0.00    -0.607 OA 
ENDROOT
BRANCH   2   3
HETATM    3  C   UNL     1     -10.254  14.972  65.268  1.00  0.00    -0.377 C  
HETATM    4  N   UNL     1     -10.698  14.038  64.357  1.00  0.00    -0.602 N  
HETATM    5  O   UNL     1      -9.752  14.724  66.355  1.00  0.00    -0.261 OA 
HETATM    6  H   UNL     1     -11.101  14.364  63.478  1.00  0.00     0.000 HD 
BRANCH   4   7
HETATM    7  C   UNL     1     -10.613  12.586  64.600  1.00  0.00    -0.316 C  
HETATM    8  C   UNL     1     -11.974  12.121  65.212  1.00  0.00    -0.313 C  
BRANCH   7   9
HETATM    9  C   UNL     1     -10.334  11.661  63.341  1.00  0.00    -0.435 C  
BRANCH   9  10
HETATM   10  N   UNL     1      -8.966  11.201  62.931  1.00  0.00    -0.430 NA 
HETATM   11  H   UNL     1      -8.577  11.564  62.061  1.00  0.00     0.000 HD 
BRANCH  10  12
HETATM   12  C   UNL     1      -8.189  10.295  63.680  1.00  0.00    -0.158 A  
HETATM   13  N   UNL     1      -6.865  10.446  63.620  1.00  0.00    -0.064 NA 
HETATM   14  C   UNL     1      -6.141   9.503  64.232  1.00  0.00    -0.083 A  
HETATM   15  C   UNL     1      -6.652   8.465  64.987  1.00  0.00    -0.063 A  
HETATM   16  C   UNL     1      -8.027   8.339  65.068  1.00  0.00    -0.141 A  
HETATM   17  N   UNL     1      -8.804   9.241  64.346  1.00  0.00    -0.191 NA 
BRANCH  16  18
HETATM   18  C   UNL     1      -8.577   7.196  65.944  1.00  0.00    -0.157 A  
HETATM   19  C   UNL     1      -8.612   5.875  65.456  1.00  0.00    -0.150 A  
HETATM   20  N   UNL     1      -9.031   5.039  66.453  1.00  0.00    -0.120 NA 
HETATM   21  C   UNL     1      -9.017   6.984  67.335  1.00  0.00    -0.117 A  
HETATM   22  N   UNL     1      -9.314   5.687  67.573  1.00  0.00    -0.109 NA 
BRANCH  20  23
HETATM   23  C   UNL     1      -9.142   3.569  66.442  1.00  0.00    -0.159 C  
HETATM   24  C   UNL     1      -9.023   2.948  67.841  1.00  0.00    -0.194 C  
HETATM   25  C   UNL     1      -8.105   2.908  65.521  1.00  0.00    -0.087 C  
ENDBRANCH  20  23
BRANCH  21  26
HETATM   26  C   UNL     1      -9.244   7.873  68.474  1.00  0.00    -0.138 A  
HETATM   27  C   UNL     1     -10.412   7.830  69.275  1.00  0.00    -0.221 A  
HETATM   28  C   UNL     1     -10.657   8.817  70.235  1.00  0.00    -0.216 A  
HETATM   29 CL   UNL     1     -11.989   8.696  71.314  1.00  0.00    -0.328 Cl 
HETATM   30  C   UNL     1      -9.813   9.932  70.328  1.00  0.00    -0.236 A  
HETATM   31  C   UNL     1      -8.681   9.939  69.534  1.00  0.00    -0.190 A  
HETATM   32  C   UNL     1      -8.334   8.852  68.757  1.00  0.00    -0.123 A  
HETATM   33  F   UNL     1      -7.071   8.772  68.343  1.00  0.00    -0.071 F  
BRANCH  31  34
HETATM   34  N   UNL     1      -7.780  11.045  69.496  1.00  0.00    -0.365 N  
HETATM   35  H   UNL     1      -7.066  11.195  70.208  1.00  0.00     0.000 HD 
BRANCH  34  36
HETATM   36  S   UNL     1      -7.984  12.089  68.184  1.00  0.00    -0.160 S  
HETATM   37  O   UNL     1      -9.047  11.616  67.330  1.00  0.00    -0.162 OA 
HETATM   38  O   UNL     1      -7.994  13.415  68.765  1.00  0.00    -0.093 OA 
HETATM   39  C   UNL     1      -6.419  11.810  67.396  1.00  0.00    -0.116 C  
ENDBRANCH  34  36
ENDBRANCH  31  34
ENDBRANCH  21  26
ENDBRANCH  16  18
ENDBRANCH  10  12
ENDBRANCH   9  10
ENDBRANCH   7   9
ENDBRANCH   4   7
ENDBRANCH   2   3
TORSDOF 10
ENDMDL
MODEL      129
REMARK 921   NORMALIZED FREE ENERGY PREDICTED BY IDOCK:   -5.04 KCAL/MOL
REMARK 922        TOTAL FREE ENERGY PREDICTED BY IDOCK:   -9.95 KCAL/MOL
REMARK 923 INTER-LIGAND FREE ENERGY PREDICTED BY IDOCK:   -9.39 KCAL/MOL
REMARK 924 INTRA-LIGAND FREE ENERGY PREDICTED BY IDOCK:   -0.56 KCAL/MOL
REMARK 927      BINDING AFFINITY PREDICTED BY RF-SCORE:    0.00 PKD
ROOT
HETATM    1  C   UNL     1     -11.809  17.236  74.470  1.00  0.00     0.240 C  
HETATM    2  O   UNL     1     -12.325  15.896  74.557  1.00  0.00    -0.621 OA 
ENDROOT
BRANCH   2   3
HETATM    3  C   UNL     1     -13.140  15.554  73.517  1.00  0.00    -0.489 C  
HETATM    4  N   UNL     1     -12.668  14.432  72.870  1.00  0.00    -0.382 N  
HETATM    5  O   UNL     1     -14.144  16.183  73.212  1.00  0.00    -0.442 OA 
HETATM    6  H   UNL     1     -11.816  13.990  73.216  1.00  0.00     0.000 HD 
BRANCH   4   7
HETATM    7  C   UNL     1     -13.344  13.845  71.699  1.00  0.00    -0.362 C  
HETATM    8  C   UNL     1     -14.074  14.997  70.937  1.00  0.00    -0.163 C  
BRANCH   7   9
HETATM    9  C   UNL     1     -12.428  13.099  70.640  1.00  0.00    -0.286 C  
BRANCH   9  10
HETATM   10  N   UNL     1     -11.488  13.805  69.706  1.00  0.00    -0.414 NA 
HETATM   11  H   UNL     1     -10.851  14.498  70.098  1.00  0.00     0.000 HD 
BRANCH  10  12
HETATM   12  C   UNL     1     -11.438  13.564  68.319  1.00  0.00    -0.310 A  
HETATM   13  N   UNL     1     -12.068  14.439  67.533  1.00  0.00    -0.351 NA 
HETATM   14  C   UNL     1     -12.118  14.128  66.234  1.00  0.00    -0.442 A  
HETATM   15  C   UNL     1     -11.496  13.043  65.646  1.00  0.00    -0.365 A  
HETATM   16  C   UNL     1     -10.818  12.161  66.467  1.00  0.00    -0.270 A  
HETATM   17  N   UNL     1     -10.847  12.401  67.838  1.00  0.00    -0.214 NA 
BRANCH  16  18
HETATM   18  C   UNL     1     -10.101  10.978  65.787  1.00  0.00    -0.305 A  
HETATM   19  C   UNL     1      -9.866  10.987  64.399  1.00  0.00    -0.298 A  
HETATM   20  N   UNL     1      -9.121   9.892  64.062  1.00  0.00    -0.248 NA 
HETATM   21  C   UNL     1      -9.385   9.750  66.176  1.00  0.00    -0.191 A  
HETATM   22  N   UNL     1      -8.856   9.119  65.104  1.00  0.00    -0.198 NA 
BRANCH  20  23
HETATM   23  C   UNL     1      -8.561   9.522  62.749  1.00  0.00    -0.215 C  
HETATM   24  C   UNL     1      -8.142   8.048  62.670  1.00  0.00    -0.152 C  
HETATM   25  C   UNL     1      -7.361  10.397  62.355  1.00  0.00    -0.162 C  
ENDBRANCH  20  23
BRANCH  21  26
HETATM   26  C   UNL     1      -9.177   9.055  67.447  1.00  0.00    -0.158 A  
HETATM   27  C   UNL     1      -7.911   8.589  67.881  1.00  0.00    -0.108 A  
HETATM   28  C   UNL     1      -7.799   7.778  69.015  1.00  0.00    -0.118 A  
HETATM   29 CL   UNL     1      -6.261   7.331  69.639  1.00  0.00    -0.030 Cl 
HETATM   30  C   UNL     1      -8.952   7.311  69.661  1.00  0.00    -0.141 A  
HETATM   31  C   UNL     1     -10.169   7.788  69.213  1.00  0.00    -0.211 A  
HETATM   32  C   UNL     1     -10.250   8.765  68.240  1.00  0.00    -0.201 A  
HETATM   33  F   UNL     1     -11.393   9.442  68.144  1.00  0.00    -0.138 F  
BRANCH  31  34
HETATM   34  N   UNL     1     -11.412   7.339  69.750  1.00  0.00    -0.497 N  
HETATM   35  H   UNL     1     -12.015   6.678  69.259  1.00  0.00     0.000 HD 
BRANCH  34  36
HETATM   36  S   UNL     1     -11.814   7.981  71.259  1.00  0.00    -0.294 S  
HETATM   37  O   UNL     1     -11.019   7.362  72.293  1.00  0.00    -0.230 OA 
HETATM   38  O   UNL     1     -11.835   9.415  71.056  1.00  0.00    -0.290 OA 
HETATM   39  C   UNL     1     -13.481   7.380  71.351  1.00  0.00    -0.330 C  
ENDBRANCH  34  36
ENDBRANCH  31  34
ENDBRANCH  21  26
ENDBRANCH  16  18
ENDBRANCH  10  12
ENDBRANCH   9  10
ENDBRANCH   7   9
ENDBRANCH   4   7
ENDBRANCH   2   3
TORSDOF 10
ENDMDL
MODEL      130
REMARK 921   NORMALIZED FREE ENERGY PREDICTED BY IDOCK:   -5.04 KCAL/MOL
REMARK 922        TOTAL FREE ENERGY PREDICTED BY IDOCK:   -9.95 KCAL/MOL
REMARK 923 INTER-LIGAND FREE ENERGY PREDICTED BY IDOCK:   -8.39 KCAL/MOL
REMARK 924 INTRA-LIGAND FREE ENERGY PREDICTED BY IDOCK:   -1.56 KCAL/MOL
REMARK 927      BINDING AFFINITY PREDICTED BY RF-SCORE:    0.00 PKD
ROOT
HETATM    1  C   UNL     1      -9.575   9.972  64.801  1.00  0.00    -0.308 C  
HETATM    2  O   UNL     1      -8.152  10.146  64.920  1.00  0.00    -0.145 OA 
ENDROOT
BRANCH   2   3
HETATM    3  C   UNL     1      -7.701  10.111  66.207  1.00  0.00    -0.110 C  
HETATM    4  N   UNL     1      -8.505   9.308  66.988  1.00  0.00    -0.123 N  
HETATM    5  O   UNL     1      -6.719  10.728  66.596  1.00  0.00    -0.102 OA 
HETATM    6  H   UNL     1      -9.301   8.842  66.552  1.00  0.00     0.000 HD 
BRANCH   4   7
HETATM    7  C   UNL     1      -8.262   9.096  68.426  1.00  0.00    -0.115 C  
HETATM    8  C   UNL     1      -7.061   8.107  68.570  1.00  0.00    -0.076 C  
BRANCH   7   9
HETATM    9  C   UNL     1      -7.909  10.378  69.292  1.00  0.00    -0.147 C  
BRANCH   9  10
HETATM   10  N   UNL     1      -6.509  10.856  69.544  1.00  0.00    -0.081 NA 
HETATM   11  H   UNL     1      -5.741  10.205  69.378  1.00  0.00     0.000 HD 
BRANCH  10  12
HETATM   12  C   UNL     1      -6.195  12.152  69.996  1.00  0.00    -0.097 A  
HETATM   13  N   UNL     1      -5.491  12.241  71.126  1.00  0.00    -0.344 NA 
HETATM   14  C   UNL     1      -5.312  13.476  71.608  1.00  0.00    -0.190 A  
HETATM   15  C   UNL     1      -5.708  14.644  70.986  1.00  0.00    -0.131 A  
HETATM   16  C   UNL     1      -6.409  14.539  69.798  1.00  0.00    -0.148 A  
HETATM   17  N   UNL     1      -6.708  13.261  69.333  1.00  0.00    -0.075 NA 
BRANCH  16  18
HETATM   18  C   UNL     1      -6.811  15.854  69.101  1.00  0.00    -0.170 A  
HETATM   19  C   UNL     1      -5.866  16.881  68.914  1.00  0.00    -0.154 A  
HETATM   20  N   UNL     1      -6.431  17.884  68.178  1.00  0.00    -0.185 NA 
HETATM   21  C   UNL     1      -7.964  16.409  68.370  1.00  0.00    -0.178 A  
HETATM   22  N   UNL     1      -7.697  17.639  67.875  1.00  0.00    -0.211 NA 
BRANCH  20  23
HETATM   23  C   UNL     1      -5.810  19.117  67.662  1.00  0.00    -0.192 C  
HETATM   24  C   UNL     1      -6.785  20.301  67.603  1.00  0.00    -0.300 C  
HETATM   25  C   UNL     1      -5.187  18.923  66.270  1.00  0.00    -0.165 C  
ENDBRANCH  20  23
BRANCH  21  26
HETATM   26  C   UNL     1      -9.326  15.940  68.116  1.00  0.00    -0.198 A  
HETATM   27  C   UNL     1     -10.339  15.920  69.107  1.00  0.00    -0.237 A  
HETATM   28  C   UNL     1     -11.567  15.297  68.859  1.00  0.00    -0.347 A  
HETATM   29 CL   UNL     1     -12.857  15.395  69.991  1.00  0.00    -0.202 Cl 
HETATM   30  C   UNL     1     -11.762  14.573  67.675  1.00  0.00    -0.410 A  
HETATM   31  C   UNL     1     -10.754  14.617  66.731  1.00  0.00    -0.301 A  
HETATM   32  C   UNL     1      -9.643  15.422  66.893  1.00  0.00    -0.226 A  
HETATM   33  F   UNL     1      -8.932  15.713  65.806  1.00  0.00    -0.356 F  
BRANCH  31  34
HETATM   34  N   UNL     1     -10.811  13.873  65.515  1.00  0.00    -0.297 N  
HETATM   35  H   UNL     1     -10.095  13.195  65.253  1.00  0.00     0.000 HD 
BRANCH  34  36
HETATM   36  S   UNL     1     -12.152  14.195  64.540  1.00  0.00    -0.459 S  
HETATM   37  O   UNL     1     -13.365  13.788  65.210  1.00  0.00    -0.710 OA 
HETATM   38  O   UNL     1     -11.949  15.548  64.068  1.00  0.00    -0.531 OA 
HETATM   39  C   UNL     1     -11.788  13.058  63.228  1.00  0.00    -0.364 C  
ENDBRANCH  34  36
ENDBRANCH  31  34
ENDBRANCH  21  26
ENDBRANCH  16  18
ENDBRANCH  10  12
ENDBRANCH   9  10
ENDBRANCH   7   9
ENDBRANCH   4   7
ENDBRANCH   2   3
TORSDOF 10
ENDMDL
MODEL      131
REMARK 921   NORMALIZED FREE ENERGY PREDICTED BY IDOCK:   -5.04 KCAL/MOL
REMARK 922        TOTAL FREE ENERGY PREDICTED BY IDOCK:   -9.95 KCAL/MOL
REMARK 923 INTER-LIGAND FREE ENERGY PREDICTED BY IDOCK:   -8.55 KCAL/MOL
REMARK 924 INTRA-LIGAND FREE ENERGY PREDICTED BY IDOCK:   -1.40 KCAL/MOL
REMARK 927      BINDING AFFINITY PREDICTED BY RF-SCORE:    0.00 PKD
ROOT
HETATM    1  C   UNL     1      -6.282  17.809  68.840  1.00  0.00    -0.209 C  
HETATM    2  O   UNL     1      -7.001  17.398  67.663  1.00  0.00    -0.157 OA 
ENDROOT
BRANCH   2   3
HETATM    3  C   UNL     1      -8.339  17.660  67.718  1.00  0.00    -0.226 C  
HETATM    4  N   UNL     1      -8.914  17.547  66.471  1.00  0.00    -0.260 N  
HETATM    5  O   UNL     1      -8.925  17.966  68.748  1.00  0.00    -0.275 OA 
HETATM    6  H   UNL     1      -8.323  17.285  65.681  1.00  0.00     0.000 HD 
BRANCH   4   7
HETATM    7  C   UNL     1     -10.348  17.788  66.230  1.00  0.00    -0.358 C  
HETATM    8  C   UNL     1     -10.542  19.317  65.974  1.00  0.00    -0.550 C  
BRANCH   7   9
HETATM    9  C   UNL     1     -11.009  17.028  65.005  1.00  0.00     0.017 C  
BRANCH   9  10
HETATM   10  N   UNL     1     -10.621  15.644  64.573  1.00  0.00    -0.682 NA 
HETATM   11  H   UNL     1     -10.072  15.543  63.718  1.00  0.00     0.000 HD 
BRANCH  10  12
HETATM   12  C   UNL     1     -10.970  14.478  65.281  1.00  0.00    -0.360 A  
HETATM   13  N   UNL     1     -12.019  14.563  66.101  1.00  0.00    -0.350 NA 
HETATM   14  C   UNL     1     -12.259  13.488  66.858  1.00  0.00    -0.327 A  
HETATM   15  C   UNL     1     -11.577  12.289  66.785  1.00  0.00    -0.434 A  
HETATM   16  C   UNL     1     -10.512  12.202  65.906  1.00  0.00    -0.254 A  
HETATM   17  N   UNL     1     -10.170  13.345  65.189  1.00  0.00    -0.315 NA 
BRANCH  16  18
HETATM   18  C   UNL     1      -9.788  10.844  65.813  1.00  0.00    -0.286 A  
HETATM   19  C   UNL     1      -9.592  10.223  64.565  1.00  0.00    -0.316 A  
HETATM   20  N   UNL     1      -8.832   9.100  64.736  1.00  0.00    -0.185 NA 
HETATM   21  C   UNL     1      -9.035   9.932  66.692  1.00  0.00    -0.139 A  
HETATM   22  N   UNL     1      -8.520   8.887  66.005  1.00  0.00    -0.123 NA 
BRANCH  20  23
HETATM   23  C   UNL     1      -8.300   8.178  63.716  1.00  0.00     0.011 C  
HETATM   24  C   UNL     1      -6.936   7.586  64.096  1.00  0.00    -0.061 C  
HETATM   25  C   UNL     1      -8.181   8.837  62.332  1.00  0.00    -0.176 C  
ENDBRANCH  20  23
BRANCH  21  26
HETATM   26  C   UNL     1      -8.776   9.893  68.132  1.00  0.00    -0.122 A  
HETATM   27  C   UNL     1      -7.482  10.028  68.694  1.00  0.00    -0.083 A  
HETATM   28  C   UNL     1      -7.270   9.804  70.058  1.00  0.00    -0.130 A  
HETATM   29 CL   UNL     1      -5.741  10.110  70.781  1.00  0.00    -0.081 Cl 
HETATM   30  C   UNL     1      -8.311   9.318  70.861  1.00  0.00    -0.196 A  
HETATM   31  C   UNL     1      -9.560   9.202  70.280  1.00  0.00    -0.213 A  
HETATM   32  C   UNL     1      -9.804   9.642  68.994  1.00  0.00    -0.182 A  
HETATM   33  F   UNL     1     -11.073   9.861  68.652  1.00  0.00    -0.251 F  
BRANCH  31  34
HETATM   34  N   UNL     1     -10.681   8.662  70.978  1.00  0.00    -0.217 N  
HETATM   35  H   UNL     1     -11.379   9.251  71.433  1.00  0.00     0.000 HD 
BRANCH  34  36
HETATM   36  S   UNL     1     -10.769   6.976  70.996  1.00  0.00    -0.237 S  
HETATM   37  O   UNL     1     -12.001   6.534  70.385  1.00  0.00    -0.397 OA 
HETATM   38  O   UNL     1      -9.474   6.533  70.526  1.00  0.00    -0.165 OA 
HETATM   39  C   UNL     1     -10.863   6.748  72.753  1.00  0.00    -0.262 C  
ENDBRANCH  34  36
ENDBRANCH  31  34
ENDBRANCH  21  26
ENDBRANCH  16  18
ENDBRANCH  10  12
ENDBRANCH   9  10
ENDBRANCH   7   9
ENDBRANCH   4   7
ENDBRANCH   2   3
TORSDOF 10
ENDMDL
MODEL      132
REMARK 921   NORMALIZED FREE ENERGY PREDICTED BY IDOCK:   -5.04 KCAL/MOL
REMARK 922        TOTAL FREE ENERGY PREDICTED BY IDOCK:   -9.95 KCAL/MOL
REMARK 923 INTER-LIGAND FREE ENERGY PREDICTED BY IDOCK:   -8.51 KCAL/MOL
REMARK 924 INTRA-LIGAND FREE ENERGY PREDICTED BY IDOCK:   -1.43 KCAL/MOL
REMARK 927      BINDING AFFINITY PREDICTED BY RF-SCORE:    0.00 PKD
ROOT
HETATM    1  C   UNL     1      -8.512   9.253  63.273  1.00  0.00    -0.204 C  
HETATM    2  O   UNL     1      -9.258   9.471  64.483  1.00  0.00    -0.238 OA 
ENDROOT
BRANCH   2   3
HETATM    3  C   UNL     1      -9.087   8.491  65.417  1.00  0.00    -0.043 C  
HETATM    4  N   UNL     1     -10.199   8.382  66.224  1.00  0.00    -0.424 N  
HETATM    5  O   UNL     1      -8.069   7.820  65.513  1.00  0.00    -0.113 OA 
HETATM    6  H   UNL     1     -10.993   8.999  66.050  1.00  0.00     0.000 HD 
BRANCH   4   7
HETATM    7  C   UNL     1     -10.288   7.411  67.331  1.00  0.00    -0.270 C  
HETATM    8  C   UNL     1     -10.521   5.996  66.710  1.00  0.00    -0.329 C  
BRANCH   7   9
HETATM    9  C   UNL     1      -9.027   7.294  68.286  1.00  0.00    -0.125 C  
BRANCH   9  10
HETATM   10  N   UNL     1      -8.654   8.329  69.307  1.00  0.00    -0.136 NA 
HETATM   11  H   UNL     1      -8.706   8.073  70.293  1.00  0.00     0.000 HD 
BRANCH  10  12
HETATM   12  C   UNL     1      -8.238   9.634  68.980  1.00  0.00    -0.113 A  
HETATM   13  N   UNL     1      -7.088  10.050  69.513  1.00  0.00    -0.078 NA 
HETATM   14  C   UNL     1      -6.772  11.331  69.296  1.00  0.00    -0.110 A  
HETATM   15  C   UNL     1      -7.483  12.207  68.498  1.00  0.00    -0.117 A  
HETATM   16  C   UNL     1      -8.656  11.753  67.923  1.00  0.00    -0.156 A  
HETATM   17  N   UNL     1      -9.067  10.458  68.226  1.00  0.00    -0.141 NA 
BRANCH  16  18
HETATM   18  C   UNL     1      -9.415  12.734  67.007  1.00  0.00    -0.233 A  
HETATM   19  C   UNL     1      -9.853  12.327  65.733  1.00  0.00    -0.244 A  
HETATM   20  N   UNL     1     -10.592  13.330  65.170  1.00  0.00    -0.316 NA 
HETATM   21  C   UNL     1     -10.011  14.080  67.083  1.00  0.00    -0.252 A  
HETATM   22  N   UNL     1     -10.666  14.401  65.946  1.00  0.00    -0.297 NA 
BRANCH  20  23
HETATM   23  C   UNL     1     -11.325  13.335  63.891  1.00  0.00    -0.318 C  
HETATM   24  C   UNL     1     -12.451  14.376  63.849  1.00  0.00    -0.004 C  
HETATM   25  C   UNL     1     -11.914  11.958  63.546  1.00  0.00    -0.567 C  
ENDBRANCH  20  23
BRANCH  21  26
HETATM   26  C   UNL     1      -9.998  15.140  68.092  1.00  0.00    -0.221 A  
HETATM   27  C   UNL     1     -10.876  15.168  69.203  1.00  0.00    -0.251 A  
HETATM   28  C   UNL     1     -10.941  16.292  70.034  1.00  0.00    -0.355 A  
HETATM   29 CL   UNL     1     -11.887  16.282  71.468  1.00  0.00    -0.500 Cl 
HETATM   30  C   UNL     1     -10.232  17.454  69.700  1.00  0.00     0.120 A  
HETATM   31  C   UNL     1      -9.384  17.390  68.611  1.00  0.00    -0.267 A  
HETATM   32  C   UNL     1      -9.157  16.205  67.937  1.00  0.00    -0.192 A  
HETATM   33  F   UNL     1      -8.064  16.129  67.180  1.00  0.00    -0.160 F  
BRANCH  31  34
HETATM   34  N   UNL     1      -8.657  18.523  68.138  1.00  0.00    -0.294 N  
HETATM   35  H   UNL     1      -7.839  18.891  68.623  1.00  0.00     0.000 HD 
BRANCH  34  36
HETATM   36  S   UNL     1      -9.253  19.213  66.717  1.00  0.00    -0.334 S  
HETATM   37  O   UNL     1     -10.016  18.240  65.971  1.00  0.00    -0.497 OA 
HETATM   38  O   UNL     1      -9.814  20.482  67.128  1.00  0.00    -0.454 OA 
HETATM   39  C   UNL     1      -7.701  19.497  65.906  1.00  0.00    -0.275 C  
ENDBRANCH  34  36
ENDBRANCH  31  34
ENDBRANCH  21  26
ENDBRANCH  16  18
ENDBRANCH  10  12
ENDBRANCH   9  10
ENDBRANCH   7   9
ENDBRANCH   4   7
ENDBRANCH   2   3
TORSDOF 10
ENDMDL
MODEL      133
REMARK 921   NORMALIZED FREE ENERGY PREDICTED BY IDOCK:   -5.01 KCAL/MOL
REMARK 922        TOTAL FREE ENERGY PREDICTED BY IDOCK:   -9.90 KCAL/MOL
REMARK 923 INTER-LIGAND FREE ENERGY PREDICTED BY IDOCK:   -8.16 KCAL/MOL
REMARK 924 INTRA-LIGAND FREE ENERGY PREDICTED BY IDOCK:   -1.74 KCAL/MOL
REMARK 927      BINDING AFFINITY PREDICTED BY RF-SCORE:    0.00 PKD
ROOT
HETATM    1  C   UNL     1      -9.807  20.162  67.003  1.00  0.00    -0.455 C  
HETATM    2  O   UNL     1     -10.856  19.218  67.281  1.00  0.00    -0.479 OA 
ENDROOT
BRANCH   2   3
HETATM    3  C   UNL     1     -10.445  18.142  68.013  1.00  0.00    -0.371 C  
HETATM    4  N   UNL     1     -11.275  17.061  67.806  1.00  0.00    -0.084 N  
HETATM    5  O   UNL     1      -9.473  18.162  68.755  1.00  0.00    -0.313 OA 
HETATM    6  H   UNL     1     -12.059  17.162  67.161  1.00  0.00     0.000 HD 
BRANCH   4   7
HETATM    7  C   UNL     1     -11.077  15.764  68.480  1.00  0.00    -0.335 C  
HETATM    8  C   UNL     1     -11.855  15.802  69.834  1.00  0.00    -0.355 C  
BRANCH   7   9
HETATM    9  C   UNL     1     -11.565  14.469  67.704  1.00  0.00    -0.378 C  
BRANCH   9  10
HETATM   10  N   UNL     1     -11.693  13.115  68.338  1.00  0.00    -0.331 NA 
HETATM   11  H   UNL     1     -12.622  12.802  68.618  1.00  0.00     0.000 HD 
BRANCH  10  12
HETATM   12  C   UNL     1     -10.603  12.254  68.568  1.00  0.00    -0.234 A  
HETATM   13  N   UNL     1      -9.412  12.659  68.123  1.00  0.00    -0.215 NA 
HETATM   14  C   UNL     1      -8.414  11.776  68.236  1.00  0.00    -0.161 A  
HETATM   15  C   UNL     1      -8.502  10.543  68.853  1.00  0.00    -0.152 A  
HETATM   16  C   UNL     1      -9.735  10.148  69.340  1.00  0.00    -0.229 A  
HETATM   17  N   UNL     1     -10.816  11.002  69.133  1.00  0.00    -0.224 NA 
BRANCH  16  18
HETATM   18  C   UNL     1      -9.804   8.785  70.057  1.00  0.00    -0.187 A  
HETATM   19  C   UNL     1     -10.319   8.691  71.364  1.00  0.00    -0.261 A  
HETATM   20  N   UNL     1     -10.379   7.375  71.729  1.00  0.00    -0.192 NA 
HETATM   21  C   UNL     1      -9.598   7.360  69.742  1.00  0.00    -0.163 A  
HETATM   22  N   UNL     1      -9.917   6.566  70.788  1.00  0.00    -0.184 NA 
BRANCH  20  23
HETATM   23  C   UNL     1     -10.924   6.781  72.963  1.00  0.00    -0.260 C  
HETATM   24  C   UNL     1      -9.954   6.867  74.149  1.00  0.00    -0.351 C  
HETATM   25  C   UNL     1     -11.342   5.314  72.775  1.00  0.00    -0.342 C  
ENDBRANCH  20  23
BRANCH  21  26
HETATM   26  C   UNL     1      -9.081   6.643  68.576  1.00  0.00    -0.128 A  
HETATM   27  C   UNL     1      -8.164   5.567  68.668  1.00  0.00    -0.102 A  
HETATM   28  C   UNL     1      -7.567   5.037  67.519  1.00  0.00    -0.087 A  
HETATM   29 CL   UNL     1      -6.572   3.638  67.599  1.00  0.00    -0.041 Cl 
HETATM   30  C   UNL     1      -7.771   5.650  66.275  1.00  0.00    -0.099 A  
HETATM   31  C   UNL     1      -8.674   6.695  66.222  1.00  0.00    -0.145 A  
HETATM   32  C   UNL     1      -9.426   7.059  67.322  1.00  0.00    -0.138 A  
HETATM   33  F   UNL     1     -10.523   7.781  67.102  1.00  0.00    -0.297 F  
BRANCH  31  34
HETATM   34  N   UNL     1      -8.918   7.436  65.027  1.00  0.00    -0.248 N  
HETATM   35  H   UNL     1      -9.407   7.037  64.226  1.00  0.00     0.000 HD 
BRANCH  34  36
HETATM   36  S   UNL     1      -8.340   9.022  65.037  1.00  0.00    -0.174 S  
HETATM   37  O   UNL     1      -9.416   9.944  65.314  1.00  0.00    -0.228 OA 
HETATM   38  O   UNL     1      -7.139   8.973  65.844  1.00  0.00    -0.086 OA 
HETATM   39  C   UNL     1      -7.888   9.135  63.325  1.00  0.00    -0.130 C  
ENDBRANCH  34  36
ENDBRANCH  31  34
ENDBRANCH  21  26
ENDBRANCH  16  18
ENDBRANCH  10  12
ENDBRANCH   9  10
ENDBRANCH   7   9
ENDBRANCH   4   7
ENDBRANCH   2   3
TORSDOF 10
ENDMDL
MODEL      134
REMARK 921   NORMALIZED FREE ENERGY PREDICTED BY IDOCK:   -5.00 KCAL/MOL
REMARK 922        TOTAL FREE ENERGY PREDICTED BY IDOCK:   -9.88 KCAL/MOL
REMARK 923 INTER-LIGAND FREE ENERGY PREDICTED BY IDOCK:   -8.60 KCAL/MOL
REMARK 924 INTRA-LIGAND FREE ENERGY PREDICTED BY IDOCK:   -1.28 KCAL/MOL
REMARK 927      BINDING AFFINITY PREDICTED BY RF-SCORE:    0.00 PKD
ROOT
HETATM    1  C   UNL     1      -9.094   1.896  67.481  1.00  0.00    -0.148 C  
HETATM    2  O   UNL     1      -7.934   2.583  66.978  1.00  0.00    -0.070 OA 
ENDROOT
BRANCH   2   3
HETATM    3  C   UNL     1      -8.179   3.871  66.601  1.00  0.00    -0.100 C  
HETATM    4  N   UNL     1      -7.118   4.385  65.888  1.00  0.00    -0.069 N  
HETATM    5  O   UNL     1      -9.207   4.472  66.882  1.00  0.00    -0.119 OA 
HETATM    6  H   UNL     1      -6.309   3.788  65.714  1.00  0.00     0.000 HD 
BRANCH   4   7
HETATM    7  C   UNL     1      -7.104   5.764  65.365  1.00  0.00    -0.069 C  
HETATM    8  C   UNL     1      -8.210   5.873  64.267  1.00  0.00    -0.088 C  
BRANCH   7   9
HETATM    9  C   UNL     1      -7.370   6.930  66.406  1.00  0.00    -0.073 C  
BRANCH   9  10
HETATM   10  N   UNL     1      -6.383   8.018  66.713  1.00  0.00    -0.054 NA 
HETATM   11  H   UNL     1      -5.404   7.759  66.833  1.00  0.00     0.000 HD 
BRANCH  10  12
HETATM   12  C   UNL     1      -6.732   9.376  66.844  1.00  0.00    -0.076 A  
HETATM   13  N   UNL     1      -5.744  10.228  67.122  1.00  0.00    -0.045 NA 
HETATM   14  C   UNL     1      -6.110  11.490  67.368  1.00  0.00    -0.083 A  
HETATM   15  C   UNL     1      -7.395  11.986  67.262  1.00  0.00    -0.151 A  
HETATM   16  C   UNL     1      -8.407  11.099  66.940  1.00  0.00    -0.147 A  
HETATM   17  N   UNL     1      -8.068   9.757  66.791  1.00  0.00    -0.119 NA 
BRANCH  16  18
HETATM   18  C   UNL     1      -9.828  11.679  66.791  1.00  0.00    -0.222 A  
HETATM   19  C   UNL     1     -10.194  12.382  65.628  1.00  0.00    -0.262 A  
HETATM   20  N   UNL     1     -11.525  12.690  65.689  1.00  0.00    -0.332 NA 
HETATM   21  C   UNL     1     -11.121  11.627  67.497  1.00  0.00    -0.276 A  
HETATM   22  N   UNL     1     -12.088  12.281  66.815  1.00  0.00    -0.565 NA 
BRANCH  20  23
HETATM   23  C   UNL     1     -12.371  13.341  64.673  1.00  0.00    -0.391 C  
HETATM   24  C   UNL     1     -12.340  12.623  63.317  1.00  0.00    -0.453 C  
HETATM   25  C   UNL     1     -12.000  14.817  64.457  1.00  0.00    -0.451 C  
ENDBRANCH  20  23
BRANCH  21  26
HETATM   26  C   UNL     1     -11.557  11.073  68.779  1.00  0.00    -0.386 A  
HETATM   27  C   UNL     1     -12.272  11.820  69.747  1.00  0.00    -0.270 A  
HETATM   28  C   UNL     1     -12.505  11.296  71.023  1.00  0.00    -0.400 A  
HETATM   29 CL   UNL     1     -13.498  12.125  72.156  1.00  0.00    -0.531 Cl 
HETATM   30  C   UNL     1     -11.923  10.079  71.400  1.00  0.00    -0.470 A  
HETATM   31  C   UNL     1     -11.235   9.376  70.429  1.00  0.00    -0.262 A  
HETATM   32  C   UNL     1     -11.206   9.796  69.114  1.00  0.00    -0.061 A  
HETATM   33  F   UNL     1     -10.877   8.896  68.190  1.00  0.00    -0.251 F  
BRANCH  31  34
HETATM   34  N   UNL     1     -10.548   8.156  70.709  1.00  0.00    -0.210 N  
HETATM   35  H   UNL     1      -9.541   8.118  70.869  1.00  0.00     0.000 HD 
BRANCH  34  36
HETATM   36  S   UNL     1     -11.525   6.779  70.754  1.00  0.00    -0.361 S  
HETATM   37  O   UNL     1     -12.820   7.104  71.304  1.00  0.00    -0.380 OA 
HETATM   38  O   UNL     1     -11.371   6.174  69.449  1.00  0.00    -0.420 OA 
HETATM   39  C   UNL     1     -10.592   5.849  71.942  1.00  0.00    -0.231 C  
ENDBRANCH  34  36
ENDBRANCH  31  34
ENDBRANCH  21  26
ENDBRANCH  16  18
ENDBRANCH  10  12
ENDBRANCH   9  10
ENDBRANCH   7   9
ENDBRANCH   4   7
ENDBRANCH   2   3
TORSDOF 10
ENDMDL
MODEL      135
REMARK 921   NORMALIZED FREE ENERGY PREDICTED BY IDOCK:   -4.97 KCAL/MOL
REMARK 922        TOTAL FREE ENERGY PREDICTED BY IDOCK:   -9.83 KCAL/MOL
REMARK 923 INTER-LIGAND FREE ENERGY PREDICTED BY IDOCK:   -8.71 KCAL/MOL
REMARK 924 INTRA-LIGAND FREE ENERGY PREDICTED BY IDOCK:   -1.11 KCAL/MOL
REMARK 927      BINDING AFFINITY PREDICTED BY RF-SCORE:    0.00 PKD
ROOT
HETATM    1  C   UNL     1      -5.771  14.140  67.978  1.00  0.00    -0.129 C  
HETATM    2  O   UNL     1      -7.109  14.662  67.883  1.00  0.00    -0.123 OA 
ENDROOT
BRANCH   2   3
HETATM    3  C   UNL     1      -7.157  16.005  67.645  1.00  0.00    -0.154 C  
HETATM    4  N   UNL     1      -8.084  16.616  68.462  1.00  0.00    -0.214 N  
HETATM    5  O   UNL     1      -6.468  16.567  66.804  1.00  0.00    -0.210 OA 
HETATM    6  H   UNL     1      -8.603  16.042  69.128  1.00  0.00     0.000 HD 
BRANCH   4   7
HETATM    7  C   UNL     1      -8.357  18.064  68.412  1.00  0.00    -0.298 C  
HETATM    8  C   UNL     1      -7.070  18.812  68.885  1.00  0.00    -0.333 C  
BRANCH   7   9
HETATM    9  C   UNL     1      -8.753  18.673  67.002  1.00  0.00    -0.280 C  
BRANCH   9  10
HETATM   10  N   UNL     1     -10.043  18.374  66.295  1.00  0.00    -0.419 NA 
HETATM   11  H   UNL     1     -10.595  19.159  65.950  1.00  0.00     0.000 HD 
BRANCH  10  12
HETATM   12  C   UNL     1     -10.533  17.071  66.084  1.00  0.00    -0.271 A  
HETATM   13  N   UNL     1     -10.847  16.742  64.830  1.00  0.00    -0.799 NA 
HETATM   14  C   UNL     1     -11.429  15.549  64.665  1.00  0.00    -0.324 A  
HETATM   15  C   UNL     1     -11.635  14.615  65.662  1.00  0.00    -0.328 A  
HETATM   16  C   UNL     1     -11.275  14.955  66.953  1.00  0.00    -0.343 A  
HETATM   17  N   UNL     1     -10.772  16.235  67.169  1.00  0.00    -0.288 NA 
BRANCH  16  18
HETATM   18  C   UNL     1     -11.480  13.885  68.044  1.00  0.00    -0.339 A  
HETATM   19  C   UNL     1     -12.296  14.149  69.160  1.00  0.00    -0.138 A  
HETATM   20  N   UNL     1     -12.408  13.015  69.915  1.00  0.00    -0.174 NA 
HETATM   21  C   UNL     1     -11.163  12.463  68.269  1.00  0.00    -0.263 A  
HETATM   22  N   UNL     1     -11.707  12.006  69.419  1.00  0.00    -0.320 NA 
BRANCH  20  23
HETATM   23  C   UNL     1     -13.221  12.782  71.121  1.00  0.00     0.048 C  
HETATM   24  C   UNL     1     -13.071  13.893  72.169  1.00  0.00    -0.497 C  
HETATM   25  C   UNL     1     -12.912  11.431  71.788  1.00  0.00    -0.519 C  
ENDBRANCH  20  23
BRANCH  21  26
HETATM   26  C   UNL     1     -10.357  11.476  67.550  1.00  0.00    -0.220 A  
HETATM   27  C   UNL     1     -10.455  11.261  66.153  1.00  0.00    -0.305 A  
HETATM   28  C   UNL     1      -9.793  10.186  65.548  1.00  0.00    -0.298 A  
HETATM   29 CL   UNL     1      -9.779  10.000  63.840  1.00  0.00    -0.240 Cl 
HETATM   30  C   UNL     1      -9.131   9.236  66.337  1.00  0.00    -0.200 A  
HETATM   31  C   UNL     1      -9.053   9.480  67.695  1.00  0.00    -0.120 A  
HETATM   32  C   UNL     1      -9.513  10.660  68.247  1.00  0.00    -0.159 A  
HETATM   33  F   UNL     1      -9.061  10.989  69.455  1.00  0.00    -0.124 F  
BRANCH  31  34
HETATM   34  N   UNL     1      -8.458   8.557  68.606  1.00  0.00    -0.130 N  
HETATM   35  H   UNL     1      -9.010   7.990  69.250  1.00  0.00     0.000 HD 
BRANCH  34  36
HETATM   36  S   UNL     1      -6.773   8.470  68.540  1.00  0.00    -0.061 S  
HETATM   37  O   UNL     1      -6.215   9.780  68.299  1.00  0.00    -0.050 OA 
HETATM   38  O   UNL     1      -6.398   7.672  69.687  1.00  0.00    -0.030 OA 
HETATM   39  C   UNL     1      -6.629   7.486  67.071  1.00  0.00    -0.062 C  
ENDBRANCH  34  36
ENDBRANCH  31  34
ENDBRANCH  21  26
ENDBRANCH  16  18
ENDBRANCH  10  12
ENDBRANCH   9  10
ENDBRANCH   7   9
ENDBRANCH   4   7
ENDBRANCH   2   3
TORSDOF 10
ENDMDL
MODEL      136
REMARK 921   NORMALIZED FREE ENERGY PREDICTED BY IDOCK:   -4.96 KCAL/MOL
REMARK 922        TOTAL FREE ENERGY PREDICTED BY IDOCK:   -9.82 KCAL/MOL
REMARK 923 INTER-LIGAND FREE ENERGY PREDICTED BY IDOCK:   -8.14 KCAL/MOL
REMARK 924 INTRA-LIGAND FREE ENERGY PREDICTED BY IDOCK:   -1.68 KCAL/MOL
REMARK 927      BINDING AFFINITY PREDICTED BY RF-SCORE:    0.00 PKD
ROOT
HETATM    1  C   UNL     1     -12.137  12.733  70.548  1.00  0.00    -0.285 C  
HETATM    2  O   UNL     1     -11.526  11.437  70.414  1.00  0.00    -0.247 OA 
ENDROOT
BRANCH   2   3
HETATM    3  C   UNL     1     -12.361  10.404  70.728  1.00  0.00    -0.367 C  
HETATM    4  N   UNL     1     -11.702   9.449  71.473  1.00  0.00    -0.369 N  
HETATM    5  O   UNL     1     -13.530  10.349  70.373  1.00  0.00    -0.081 OA 
HETATM    6  H   UNL     1     -10.721   9.604  71.709  1.00  0.00     0.000 HD 
BRANCH   4   7
HETATM    7  C   UNL     1     -12.356   8.214  71.941  1.00  0.00    -0.332 C  
HETATM    8  C   UNL     1     -13.686   8.616  72.657  1.00  0.00    -0.293 C  
BRANCH   7   9
HETATM    9  C   UNL     1     -12.733   7.137  70.838  1.00  0.00    -0.172 C  
BRANCH   9  10
HETATM   10  N   UNL     1     -11.733   6.502  69.916  1.00  0.00    -0.617 NA 
HETATM   11  H   UNL     1     -11.944   5.577  69.541  1.00  0.00     0.000 HD 
BRANCH  10  12
HETATM   12  C   UNL     1     -10.520   7.112  69.540  1.00  0.00    -0.225 A  
HETATM   13  N   UNL     1      -9.509   7.024  70.406  1.00  0.00    -0.163 NA 
HETATM   14  C   UNL     1      -8.408   7.713  70.091  1.00  0.00    -0.130 A  
HETATM   15  C   UNL     1      -8.210   8.414  68.917  1.00  0.00    -0.115 A  
HETATM   16  C   UNL     1      -9.255   8.470  68.012  1.00  0.00    -0.136 A  
HETATM   17  N   UNL     1     -10.452   7.855  68.368  1.00  0.00    -0.194 NA 
BRANCH  16  18
HETATM   18  C   UNL     1      -9.002   9.226  66.693  1.00  0.00    -0.165 A  
HETATM   19  C   UNL     1      -8.337   8.595  65.624  1.00  0.00    -0.145 A  
HETATM   20  N   UNL     1      -8.338   9.427  64.539  1.00  0.00    -0.153 NA 
HETATM   21  C   UNL     1      -9.380  10.503  66.062  1.00  0.00    -0.178 A  
HETATM   22  N   UNL     1      -8.924  10.588  64.792  1.00  0.00    -0.195 NA 
BRANCH  20  23
HETATM   23  C   UNL     1      -7.840   9.171  63.176  1.00  0.00    -0.132 C  
HETATM   24  C   UNL     1      -8.371   7.860  62.580  1.00  0.00    -0.049 C  
HETATM   25  C   UNL     1      -6.305   9.158  63.104  1.00  0.00    -0.090 C  
ENDBRANCH  20  23
BRANCH  21  26
HETATM   26  C   UNL     1     -10.086  11.697  66.529  1.00  0.00    -0.239 A  
HETATM   27  C   UNL     1     -11.194  12.261  65.851  1.00  0.00    -0.381 A  
HETATM   28  C   UNL     1     -11.716  13.499  66.241  1.00  0.00    -0.367 A  
HETATM   29 CL   UNL     1     -13.150  14.123  65.528  1.00  0.00    -0.355 Cl 
HETATM   30  C   UNL     1     -11.067  14.255  67.226  1.00  0.00    -0.315 A  
HETATM   31  C   UNL     1      -9.991  13.673  67.869  1.00  0.00    -0.244 A  
HETATM   32  C   UNL     1      -9.628  12.361  67.631  1.00  0.00    -0.193 A  
HETATM   33  F   UNL     1      -8.864  11.762  68.542  1.00  0.00    -0.161 F  
BRANCH  31  34
HETATM   34  N   UNL     1      -9.214  14.367  68.844  1.00  0.00    -0.353 N  
HETATM   35  H   UNL     1      -9.350  14.237  69.846  1.00  0.00     0.000 HD 
BRANCH  34  36
HETATM   36  S   UNL     1      -8.053  15.420  68.216  1.00  0.00    -0.141 S  
HETATM   37  O   UNL     1      -7.781  15.097  66.835  1.00  0.00    -0.177 OA 
HETATM   38  O   UNL     1      -8.487  16.738  68.629  1.00  0.00    -0.239 OA 
HETATM   39  C   UNL     1      -6.684  14.914  69.224  1.00  0.00    -0.141 C  
ENDBRANCH  34  36
ENDBRANCH  31  34
ENDBRANCH  21  26
ENDBRANCH  16  18
ENDBRANCH  10  12
ENDBRANCH   9  10
ENDBRANCH   7   9
ENDBRANCH   4   7
ENDBRANCH   2   3
TORSDOF 10
ENDMDL
MODEL      137
REMARK 921   NORMALIZED FREE ENERGY PREDICTED BY IDOCK:   -4.95 KCAL/MOL
REMARK 922        TOTAL FREE ENERGY PREDICTED BY IDOCK:   -9.80 KCAL/MOL
REMARK 923 INTER-LIGAND FREE ENERGY PREDICTED BY IDOCK:   -8.46 KCAL/MOL
REMARK 924 INTRA-LIGAND FREE ENERGY PREDICTED BY IDOCK:   -1.34 KCAL/MOL
REMARK 927      BINDING AFFINITY PREDICTED BY RF-SCORE:    0.00 PKD
ROOT
HETATM    1  C   UNL     1     -10.432  17.706  66.307  1.00  0.00    -0.292 C  
HETATM    2  O   UNL     1     -10.169  17.147  67.606  1.00  0.00    -0.304 OA 
ENDROOT
BRANCH   2   3
HETATM    3  C   UNL     1     -11.032  16.150  67.959  1.00  0.00    -0.338 C  
HETATM    4  N   UNL     1     -11.123  15.204  66.961  1.00  0.00    -0.334 N  
HETATM    5  O   UNL     1     -11.640  16.129  69.019  1.00  0.00    -0.353 OA 
HETATM    6  H   UNL     1     -10.566  15.328  66.115  1.00  0.00     0.000 HD 
BRANCH   4   7
HETATM    7  C   UNL     1     -11.995  14.019  67.065  1.00  0.00    -0.438 C  
HETATM    8  C   UNL     1     -12.660  13.787  65.671  1.00  0.00    -0.551 C  
BRANCH   7   9
HETATM    9  C   UNL     1     -11.302  12.652  67.479  1.00  0.00    -0.308 C  
BRANCH   9  10
HETATM   10  N   UNL     1     -12.060  11.407  67.834  1.00  0.00    -0.621 NA 
HETATM   11  H   UNL     1     -12.712  11.027  67.147  1.00  0.00     0.000 HD 
BRANCH  10  12
HETATM   12  C   UNL     1     -11.923  10.733  69.064  1.00  0.00    -0.186 A  
HETATM   13  N   UNL     1     -12.464  11.318  70.134  1.00  0.00    -0.253 NA 
HETATM   14  C   UNL     1     -12.216  10.731  71.310  1.00  0.00    -0.321 A  
HETATM   15  C   UNL     1     -11.539   9.539  71.482  1.00  0.00    -0.465 A  
HETATM   16  C   UNL     1     -11.010   8.926  70.361  1.00  0.00    -0.244 A  
HETATM   17  N   UNL     1     -11.157   9.575  69.138  1.00  0.00    -0.119 NA 
BRANCH  16  18
HETATM   18  C   UNL     1     -10.291   7.579  70.571  1.00  0.00    -0.217 A  
HETATM   19  C   UNL     1     -10.522   6.818  71.733  1.00  0.00    -0.207 A  
HETATM   20  N   UNL     1      -9.862   5.626  71.629  1.00  0.00    -0.166 NA 
HETATM   21  C   UNL     1      -9.431   6.655  69.808  1.00  0.00    -0.147 A  
HETATM   22  N   UNL     1      -9.173   5.525  70.502  1.00  0.00    -0.146 NA 
BRANCH  20  23
HETATM   23  C   UNL     1      -9.875   4.477  72.553  1.00  0.00    -0.161 C  
HETATM   24  C   UNL     1      -9.651   3.135  71.843  1.00  0.00    -0.222 C  
HETATM   25  C   UNL     1     -11.175   4.393  73.367  1.00  0.00    -0.386 C  
ENDBRANCH  20  23
BRANCH  21  26
HETATM   26  C   UNL     1      -8.769   6.727  68.505  1.00  0.00    -0.124 A  
HETATM   27  C   UNL     1      -7.856   7.751  68.151  1.00  0.00    -0.121 A  
HETATM   28  C   UNL     1      -7.393   7.871  66.837  1.00  0.00    -0.090 A  
HETATM   29 CL   UNL     1      -6.173   9.010  66.426  1.00  0.00    -0.063 Cl 
HETATM   30  C   UNL     1      -7.927   7.059  65.827  1.00  0.00    -0.116 A  
HETATM   31  C   UNL     1      -8.813   6.070  66.209  1.00  0.00    -0.141 A  
HETATM   32  C   UNL     1      -9.086   5.816  67.539  1.00  0.00    -0.106 A  
HETATM   33  F   UNL     1      -9.617   4.633  67.840  1.00  0.00    -0.151 F  
BRANCH  31  34
HETATM   34  N   UNL     1      -9.467   5.223  65.265  1.00  0.00    -0.358 N  
HETATM   35  H   UNL     1     -10.472   5.269  65.091  1.00  0.00     0.000 HD 
BRANCH  34  36
HETATM   36  S   UNL     1      -8.458   4.136  64.458  1.00  0.00    -0.111 S  
HETATM   37  O   UNL     1      -7.929   4.743  63.259  1.00  0.00    -0.076 OA 
HETATM   38  O   UNL     1      -7.601   3.591  65.489  1.00  0.00    -0.076 OA 
HETATM   39  C   UNL     1      -9.685   2.931  64.021  1.00  0.00    -0.151 C  
ENDBRANCH  34  36
ENDBRANCH  31  34
ENDBRANCH  21  26
ENDBRANCH  16  18
ENDBRANCH  10  12
ENDBRANCH   9  10
ENDBRANCH   7   9
ENDBRANCH   4   7
ENDBRANCH   2   3
TORSDOF 10
ENDMDL
MODEL      138
REMARK 921   NORMALIZED FREE ENERGY PREDICTED BY IDOCK:   -4.93 KCAL/MOL
REMARK 922        TOTAL FREE ENERGY PREDICTED BY IDOCK:   -9.76 KCAL/MOL
REMARK 923 INTER-LIGAND FREE ENERGY PREDICTED BY IDOCK:   -8.58 KCAL/MOL
REMARK 924 INTRA-LIGAND FREE ENERGY PREDICTED BY IDOCK:   -1.18 KCAL/MOL
REMARK 927      BINDING AFFINITY PREDICTED BY RF-SCORE:    0.00 PKD
ROOT
HETATM    1  C   UNL     1     -11.780  14.884  64.343  1.00  0.00    -0.328 C  
HETATM    2  O   UNL     1     -10.924  15.065  65.485  1.00  0.00    -0.328 OA 
ENDROOT
BRANCH   2   3
HETATM    3  C   UNL     1     -11.465  14.610  66.653  1.00  0.00    -0.357 C  
HETATM    4  N   UNL     1     -10.638  14.891  67.719  1.00  0.00    -0.258 N  
HETATM    5  O   UNL     1     -12.537  14.024  66.717  1.00  0.00    -0.311 OA 
HETATM    6  H   UNL     1      -9.764  15.388  67.544  1.00  0.00     0.000 HD 
BRANCH   4   7
HETATM    7  C   UNL     1     -10.965  14.503  69.104  1.00  0.00    -0.268 C  
HETATM    8  C   UNL     1     -12.005  15.529  69.658  1.00  0.00    -0.380 C  
BRANCH   7   9
HETATM    9  C   UNL     1     -11.584  13.058  69.318  1.00  0.00    -0.310 C  
BRANCH   9  10
HETATM   10  N   UNL     1     -12.142  12.574  70.624  1.00  0.00    -0.498 NA 
HETATM   11  H   UNL     1     -12.439  13.270  71.308  1.00  0.00     0.000 HD 
BRANCH  10  12
HETATM   12  C   UNL     1     -12.277  11.212  70.960  1.00  0.00    -0.333 A  
HETATM   13  N   UNL     1     -13.276  10.892  71.783  1.00  0.00    -0.438 NA 
HETATM   14  C   UNL     1     -13.313   9.619  72.191  1.00  0.00    -0.454 A  
HETATM   15  C   UNL     1     -12.471   8.614  71.756  1.00  0.00    -0.397 A  
HETATM   16  C   UNL     1     -11.459   8.953  70.875  1.00  0.00    -0.288 A  
HETATM   17  N   UNL     1     -11.329  10.293  70.524  1.00  0.00    -0.323 NA 
BRANCH  16  18
HETATM   18  C   UNL     1     -10.554   7.810  70.373  1.00  0.00    -0.227 A  
HETATM   19  C   UNL     1     -10.782   6.484  70.786  1.00  0.00    -0.241 A  
HETATM   20  N   UNL     1      -9.926   5.652  70.120  1.00  0.00    -0.192 NA 
HETATM   21  C   UNL     1      -9.476   7.608  69.389  1.00  0.00    -0.152 A  
HETATM   22  N   UNL     1      -9.111   6.308  69.308  1.00  0.00    -0.134 NA 
BRANCH  20  23
HETATM   23  C   UNL     1      -9.850   4.180  70.156  1.00  0.00    -0.172 C  
HETATM   24  C   UNL     1      -9.860   3.615  71.583  1.00  0.00    -0.230 C  
HETATM   25  C   UNL     1      -8.615   3.637  69.420  1.00  0.00    -0.108 C  
ENDBRANCH  20  23
BRANCH  21  26
HETATM   26  C   UNL     1      -8.696   8.507  68.537  1.00  0.00    -0.139 A  
HETATM   27  C   UNL     1      -7.704   9.386  69.036  1.00  0.00    -0.075 A  
HETATM   28  C   UNL     1      -7.118  10.347  68.205  1.00  0.00    -0.082 A  
HETATM   29 CL   UNL     1      -5.810  11.317  68.753  1.00  0.00    -0.043 Cl 
HETATM   30  C   UNL     1      -7.600  10.536  66.903  1.00  0.00    -0.110 A  
HETATM   31  C   UNL     1      -8.566   9.659  66.449  1.00  0.00    -0.127 A  
HETATM   32  C   UNL     1      -8.971   8.574  67.201  1.00  0.00    -0.130 A  
HETATM   33  F   UNL     1      -9.587   7.581  66.563  1.00  0.00    -0.210 F  
BRANCH  31  34
HETATM   34  N   UNL     1      -9.176   9.789  65.165  1.00  0.00    -0.223 N  
HETATM   35  H   UNL     1     -10.127  10.138  65.043  1.00  0.00     0.000 HD 
BRANCH  34  36
HETATM   36  S   UNL     1      -8.209   9.321  63.862  1.00  0.00    -0.175 S  
HETATM   37  O   UNL     1      -6.949  10.026  63.898  1.00  0.00    -0.123 OA 
HETATM   38  O   UNL     1      -8.284   7.876  63.846  1.00  0.00    -0.120 OA 
HETATM   39  C   UNL     1      -9.216   9.973  62.555  1.00  0.00    -0.296 C  
ENDBRANCH  34  36
ENDBRANCH  31  34
ENDBRANCH  21  26
ENDBRANCH  16  18
ENDBRANCH  10  12
ENDBRANCH   9  10
ENDBRANCH   7   9
ENDBRANCH   4   7
ENDBRANCH   2   3
TORSDOF 10
ENDMDL
MODEL      139
REMARK 921   NORMALIZED FREE ENERGY PREDICTED BY IDOCK:   -4.92 KCAL/MOL
REMARK 922        TOTAL FREE ENERGY PREDICTED BY IDOCK:   -9.76 KCAL/MOL
REMARK 923 INTER-LIGAND FREE ENERGY PREDICTED BY IDOCK:   -8.56 KCAL/MOL
REMARK 924 INTRA-LIGAND FREE ENERGY PREDICTED BY IDOCK:   -1.20 KCAL/MOL
REMARK 927      BINDING AFFINITY PREDICTED BY RF-SCORE:    0.00 PKD
ROOT
HETATM    1  C   UNL     1     -10.736   3.215  63.372  1.00  0.00    -0.244 C  
HETATM    2  O   UNL     1      -9.784   3.222  64.451  1.00  0.00    -0.152 OA 
ENDROOT
BRANCH   2   3
HETATM    3  C   UNL     1      -8.934   4.289  64.425  1.00  0.00    -0.148 C  
HETATM    4  N   UNL     1      -8.620   4.698  65.703  1.00  0.00    -0.121 N  
HETATM    5  O   UNL     1      -8.527   4.803  63.392  1.00  0.00    -0.110 OA 
HETATM    6  H   UNL     1      -9.021   4.190  66.492  1.00  0.00     0.000 HD 
BRANCH   4   7
HETATM    7  C   UNL     1      -7.729   5.841  65.977  1.00  0.00    -0.095 C  
HETATM    8  C   UNL     1      -6.294   5.458  65.493  1.00  0.00    -0.035 C  
BRANCH   7   9
HETATM    9  C   UNL     1      -8.097   7.221  65.285  1.00  0.00    -0.134 C  
BRANCH   9  10
HETATM   10  N   UNL     1      -7.364   8.505  65.544  1.00  0.00    -0.083 NA 
HETATM   11  H   UNL     1      -6.702   8.831  64.840  1.00  0.00     0.000 HD 
BRANCH  10  12
HETATM   12  C   UNL     1      -7.540   9.284  66.703  1.00  0.00    -0.093 A  
HETATM   13  N   UNL     1      -6.980   8.829  67.825  1.00  0.00    -0.074 NA 
HETATM   14  C   UNL     1      -7.262   9.512  68.940  1.00  0.00    -0.072 A  
HETATM   15  C   UNL     1      -7.993  10.683  68.997  1.00  0.00    -0.140 A  
HETATM   16  C   UNL     1      -8.541  11.163  67.821  1.00  0.00    -0.131 A  
HETATM   17  N   UNL     1      -8.357  10.408  66.666  1.00  0.00    -0.125 NA 
BRANCH  16  18
HETATM   18  C   UNL     1      -9.323  12.489  67.901  1.00  0.00    -0.200 A  
HETATM   19  C   UNL     1      -8.934  13.595  67.122  1.00  0.00    -0.231 A  
HETATM   20  N   UNL     1      -9.845  14.602  67.284  1.00  0.00    -0.229 NA 
HETATM   21  C   UNL     1     -10.565  13.004  68.505  1.00  0.00    -0.258 A  
HETATM   22  N   UNL     1     -10.807  14.282  68.136  1.00  0.00    -0.239 NA 
BRANCH  20  23
HETATM   23  C   UNL     1      -9.907  15.912  66.610  1.00  0.00    -0.254 C  
HETATM   24  C   UNL     1      -8.522  16.519  66.353  1.00  0.00    -0.357 C  
HETATM   25  C   UNL     1     -10.756  16.932  67.385  1.00  0.00    -0.241 C  
ENDBRANCH  20  23
BRANCH  21  26
HETATM   26  C   UNL     1     -11.543  12.452  69.442  1.00  0.00    -0.371 A  
HETATM   27  C   UNL     1     -12.168  13.218  70.457  1.00  0.00    -0.416 A  
HETATM   28  C   UNL     1     -12.956  12.601  71.435  1.00  0.00    -0.258 A  
HETATM   29 CL   UNL     1     -13.840  13.530  72.579  1.00  0.00    -0.673 Cl 
HETATM   30  C   UNL     1     -13.031  11.203  71.496  1.00  0.00    -0.542 A  
HETATM   31  C   UNL     1     -12.412  10.488  70.489  1.00  0.00    -0.347 A  
HETATM   32  C   UNL     1     -11.831  11.117  69.405  1.00  0.00    -0.345 A  
HETATM   33  F   UNL     1     -11.615  10.385  68.314  1.00  0.00    -0.336 F  
BRANCH  31  34
HETATM   34  N   UNL     1     -12.369   9.062  70.477  1.00  0.00    -0.471 N  
HETATM   35  H   UNL     1     -13.164   8.491  70.190  1.00  0.00     0.000 HD 
BRANCH  34  36
HETATM   36  S   UNL     1     -10.904   8.386  70.976  1.00  0.00    -0.247 S  
HETATM   37  O   UNL     1     -10.441   7.425  70.002  1.00  0.00    -0.215 OA 
HETATM   38  O   UNL     1     -10.098   9.515  71.389  1.00  0.00    -0.258 OA 
HETATM   39  C   UNL     1     -11.497   7.535  72.415  1.00  0.00    -0.315 C  
ENDBRANCH  34  36
ENDBRANCH  31  34
ENDBRANCH  21  26
ENDBRANCH  16  18
ENDBRANCH  10  12
ENDBRANCH   9  10
ENDBRANCH   7   9
ENDBRANCH   4   7
ENDBRANCH   2   3
TORSDOF 10
ENDMDL
MODEL      140
REMARK 921   NORMALIZED FREE ENERGY PREDICTED BY IDOCK:   -4.89 KCAL/MOL
REMARK 922        TOTAL FREE ENERGY PREDICTED BY IDOCK:   -9.70 KCAL/MOL
REMARK 923 INTER-LIGAND FREE ENERGY PREDICTED BY IDOCK:   -7.48 KCAL/MOL
REMARK 924 INTRA-LIGAND FREE ENERGY PREDICTED BY IDOCK:   -2.22 KCAL/MOL
REMARK 927      BINDING AFFINITY PREDICTED BY RF-SCORE:    0.00 PKD
ROOT
HETATM    1  C   UNL     1     -13.107  13.905  65.276  1.00  0.00    -0.158 C  
HETATM    2  O   UNL     1     -12.221  12.810  64.984  1.00  0.00    -0.419 OA 
ENDROOT
BRANCH   2   3
HETATM    3  C   UNL     1     -10.900  13.121  65.124  1.00  0.00    -0.304 C  
HETATM    4  N   UNL     1     -10.733  14.168  66.004  1.00  0.00    -0.294 N  
HETATM    5  O   UNL     1     -10.003  12.541  64.527  1.00  0.00    -0.253 OA 
HETATM    6  H   UNL     1     -11.559  14.575  66.443  1.00  0.00     0.000 HD 
BRANCH   4   7
HETATM    7  C   UNL     1      -9.408  14.725  66.336  1.00  0.00    -0.291 C  
HETATM    8  C   UNL     1      -9.455  16.265  66.078  1.00  0.00    -0.369 C  
BRANCH   7   9
HETATM    9  C   UNL     1      -8.897  14.522  67.824  1.00  0.00    -0.183 C  
BRANCH   9  10
HETATM   10  N   UNL     1      -8.767  13.182  68.487  1.00  0.00    -0.341 NA 
HETATM   11  H   UNL     1      -8.122  13.094  69.272  1.00  0.00     0.000 HD 
BRANCH  10  12
HETATM   12  C   UNL     1      -9.486  12.039  68.086  1.00  0.00    -0.200 A  
HETATM   13  N   UNL     1     -10.761  11.964  68.471  1.00  0.00    -0.216 NA 
HETATM   14  C   UNL     1     -11.391  10.818  68.191  1.00  0.00    -0.308 A  
HETATM   15  C   UNL     1     -10.860   9.770  67.463  1.00  0.00    -0.286 A  
HETATM   16  C   UNL     1      -9.547   9.874  67.041  1.00  0.00    -0.175 A  
HETATM   17  N   UNL     1      -8.834  11.009  67.418  1.00  0.00    -0.137 NA 
BRANCH  16  18
HETATM   18  C   UNL     1      -8.986   8.710  66.200  1.00  0.00    -0.221 A  
HETATM   19  C   UNL     1      -8.533   8.932  64.885  1.00  0.00    -0.178 A  
HETATM   20  N   UNL     1      -7.982   7.779  64.399  1.00  0.00    -0.137 NA 
HETATM   21  C   UNL     1      -8.608   7.298  66.383  1.00  0.00    -0.138 A  
HETATM   22  N   UNL     1      -8.051   6.780  65.265  1.00  0.00    -0.127 NA 
BRANCH  20  23
HETATM   23  C   UNL     1      -7.305   7.549  63.110  1.00  0.00    -0.090 C  
HETATM   24  C   UNL     1      -7.038   6.064  62.830  1.00  0.00    -0.050 C  
HETATM   25  C   UNL     1      -5.979   8.318  62.997  1.00  0.00    -0.077 C  
ENDBRANCH  20  23
BRANCH  21  26
HETATM   26  C   UNL     1      -8.752   6.342  67.482  1.00  0.00    -0.113 A  
HETATM   27  C   UNL     1      -9.073   4.976  67.288  1.00  0.00    -0.117 A  
HETATM   28  C   UNL     1      -9.375   4.152  68.378  1.00  0.00    -0.155 A  
HETATM   29 CL   UNL     1      -9.617   2.463  68.174  1.00  0.00    -0.209 Cl 
HETATM   30  C   UNL     1      -9.489   4.700  69.663  1.00  0.00    -0.232 A  
HETATM   31  C   UNL     1      -9.166   6.035  69.815  1.00  0.00    -0.143 A  
HETATM   32  C   UNL     1      -8.651   6.780  68.772  1.00  0.00    -0.123 A  
HETATM   33  F   UNL     1      -8.009   7.905  69.080  1.00  0.00    -0.111 F  
BRANCH  31  34
HETATM   34  N   UNL     1      -9.302   6.718  71.060  1.00  0.00    -0.160 N  
HETATM   35  H   UNL     1      -8.592   6.673  71.791  1.00  0.00     0.000 HD 
BRANCH  34  36
HETATM   36  S   UNL     1     -10.726   7.609  71.236  1.00  0.00    -0.230 S  
HETATM   37  O   UNL     1     -10.474   9.008  70.987  1.00  0.00    -0.224 OA 
HETATM   38  O   UNL     1     -11.723   6.862  70.499  1.00  0.00    -0.341 OA 
HETATM   39  C   UNL     1     -10.970   7.350  72.974  1.00  0.00    -0.374 C  
ENDBRANCH  34  36
ENDBRANCH  31  34
ENDBRANCH  21  26
ENDBRANCH  16  18
ENDBRANCH  10  12
ENDBRANCH   9  10
ENDBRANCH   7   9
ENDBRANCH   4   7
ENDBRANCH   2   3
TORSDOF 10
ENDMDL
MODEL      141
REMARK 921   NORMALIZED FREE ENERGY PREDICTED BY IDOCK:   -4.88 KCAL/MOL
REMARK 922        TOTAL FREE ENERGY PREDICTED BY IDOCK:   -9.69 KCAL/MOL
REMARK 923 INTER-LIGAND FREE ENERGY PREDICTED BY IDOCK:   -8.76 KCAL/MOL
REMARK 924 INTRA-LIGAND FREE ENERGY PREDICTED BY IDOCK:   -0.93 KCAL/MOL
REMARK 927      BINDING AFFINITY PREDICTED BY RF-SCORE:    0.00 PKD
ROOT
HETATM    1  C   UNL     1     -12.264  14.564  64.964  1.00  0.00    -0.373 C  
HETATM    2  O   UNL     1     -11.624  13.482  65.664  1.00  0.00    -0.312 OA 
ENDROOT
BRANCH   2   3
HETATM    3  C   UNL     1     -10.695  12.819  64.917  1.00  0.00    -0.305 C  
HETATM    4  N   UNL     1     -11.149  11.565  64.568  1.00  0.00    -0.304 N  
HETATM    5  O   UNL     1      -9.606  13.291  64.620  1.00  0.00     0.104 OA 
HETATM    6  H   UNL     1     -12.079  11.278  64.875  1.00  0.00     0.000 HD 
BRANCH   4   7
HETATM    7  C   UNL     1     -10.345  10.621  63.769  1.00  0.00    -0.113 C  
HETATM    8  C   UNL     1      -9.445  11.455  62.802  1.00  0.00    -0.314 C  
BRANCH   7   9
HETATM    9  C   UNL     1      -9.383   9.643  64.566  1.00  0.00    -0.182 C  
BRANCH   9  10
HETATM   10  N   UNL     1      -8.217  10.107  65.390  1.00  0.00    -0.145 NA 
HETATM   11  H   UNL     1      -7.296  10.129  64.951  1.00  0.00     0.000 HD 
BRANCH  10  12
HETATM   12  C   UNL     1      -8.323  10.513  66.734  1.00  0.00    -0.128 A  
HETATM   13  N   UNL     1      -7.236  11.056  67.286  1.00  0.00    -0.096 NA 
HETATM   14  C   UNL     1      -7.313  11.318  68.595  1.00  0.00    -0.109 A  
HETATM   15  C   UNL     1      -8.441  11.163  69.378  1.00  0.00     0.249 A  
HETATM   16  C   UNL     1      -9.572  10.630  68.785  1.00  0.00    -0.186 A  
HETATM   17  N   UNL     1      -9.483  10.243  67.451  1.00  0.00    -0.152 NA 
BRANCH  16  18
HETATM   18  C   UNL     1     -10.831  10.500  69.666  1.00  0.00    -0.320 A  
HETATM   19  C   UNL     1     -11.277   9.235  70.092  1.00  0.00    -0.208 A  
HETATM   20  N   UNL     1     -12.332   9.394  70.947  1.00  0.00    -0.241 NA 
HETATM   21  C   UNL     1     -11.762  11.377  70.398  1.00  0.00    -0.268 A  
HETATM   22  N   UNL     1     -12.661  10.665  71.113  1.00  0.00    -0.388 NA 
BRANCH  20  23
HETATM   23  C   UNL     1     -13.069   8.369  71.709  1.00  0.00    -0.351 C  
HETATM   24  C   UNL     1     -12.245   7.098  71.955  1.00  0.00    -0.314 C  
HETATM   25  C   UNL     1     -14.393   7.975  71.035  1.00  0.00    -0.132 C  
ENDBRANCH  20  23
BRANCH  21  26
HETATM   26  C   UNL     1     -11.945  12.827  70.471  1.00  0.00    -0.277 A  
HETATM   27  C   UNL     1     -12.667  13.469  71.508  1.00  0.00    -0.412 A  
HETATM   28  C   UNL     1     -12.964  14.834  71.432  1.00  0.00    -0.342 A  
HETATM   29 CL   UNL     1     -13.705  15.657  72.746  1.00  0.00    -0.654 Cl 
HETATM   30  C   UNL     1     -12.661  15.555  70.269  1.00  0.00    -0.362 A  
HETATM   31  C   UNL     1     -11.953  14.898  69.280  1.00  0.00    -0.291 A  
HETATM   32  C   UNL     1     -11.470  13.617  69.464  1.00  0.00    -0.263 A  
HETATM   33  F   UNL     1     -10.491  13.210  68.659  1.00  0.00    -0.240 F  
BRANCH  31  34
HETATM   34  N   UNL     1     -11.641  15.507  68.028  1.00  0.00    -0.317 N  
HETATM   35  H   UNL     1     -12.076  15.215  67.153  1.00  0.00     0.000 HD 
BRANCH  34  36
HETATM   36  S   UNL     1     -10.498  16.748  68.101  1.00  0.00    -0.346 S  
HETATM   37  O   UNL     1     -11.092  17.998  67.689  1.00  0.00    -0.209 OA 
HETATM   38  O   UNL     1      -9.859  16.587  69.390  1.00  0.00    -0.234 OA 
HETATM   39  C   UNL     1      -9.408  16.161  66.831  1.00  0.00    -0.227 C  
ENDBRANCH  34  36
ENDBRANCH  31  34
ENDBRANCH  21  26
ENDBRANCH  16  18
ENDBRANCH  10  12
ENDBRANCH   9  10
ENDBRANCH   7   9
ENDBRANCH   4   7
ENDBRANCH   2   3
TORSDOF 10
ENDMDL
MODEL      142
REMARK 921   NORMALIZED FREE ENERGY PREDICTED BY IDOCK:   -4.88 KCAL/MOL
REMARK 922        TOTAL FREE ENERGY PREDICTED BY IDOCK:   -9.69 KCAL/MOL
REMARK 923 INTER-LIGAND FREE ENERGY PREDICTED BY IDOCK:   -8.57 KCAL/MOL
REMARK 924 INTRA-LIGAND FREE ENERGY PREDICTED BY IDOCK:   -1.11 KCAL/MOL
REMARK 927      BINDING AFFINITY PREDICTED BY RF-SCORE:    0.00 PKD
ROOT
HETATM    1  C   UNL     1     -10.315  18.994  68.384  1.00  0.00    -0.308 C  
HETATM    2  O   UNL     1     -10.194  18.953  66.951  1.00  0.00    -0.339 OA 
ENDROOT
BRANCH   2   3
HETATM    3  C   UNL     1      -9.346  17.984  66.500  1.00  0.00    -0.285 C  
HETATM    4  N   UNL     1      -9.880  16.730  66.703  1.00  0.00    -0.264 N  
HETATM    5  O   UNL     1      -8.256  18.222  65.997  1.00  0.00    -0.479 OA 
HETATM    6  H   UNL     1     -10.802  16.654  67.134  1.00  0.00     0.000 HD 
BRANCH   4   7
HETATM    7  C   UNL     1      -9.173  15.493  66.323  1.00  0.00    -0.329 C  
HETATM    8  C   UNL     1      -7.975  15.302  67.307  1.00  0.00    -0.231 C  
BRANCH   7   9
HETATM    9  C   UNL     1     -10.014  14.147  66.354  1.00  0.00    -0.293 C  
BRANCH   9  10
HETATM   10  N   UNL     1     -11.405  14.045  66.906  1.00  0.00    -0.316 NA 
HETATM   11  H   UNL     1     -12.174  14.410  66.345  1.00  0.00     0.000 HD 
BRANCH  10  12
HETATM   12  C   UNL     1     -11.709  13.473  68.158  1.00  0.00    -0.361 A  
HETATM   13  N   UNL     1     -12.320  14.259  69.045  1.00  0.00    -0.213 NA 
HETATM   14  C   UNL     1     -12.486  13.742  70.268  1.00  0.00    -0.289 A  
HETATM   15  C   UNL     1     -12.167  12.451  70.641  1.00  0.00    -0.368 A  
HETATM   16  C   UNL     1     -11.563  11.635  69.701  1.00  0.00    -0.330 A  
HETATM   17  N   UNL     1     -11.276  12.186  68.455  1.00  0.00    -0.238 NA 
BRANCH  16  18
HETATM   18  C   UNL     1     -11.248  10.187  70.127  1.00  0.00    -0.377 A  
HETATM   19  C   UNL     1     -11.951   9.585  71.187  1.00  0.00    -0.348 A  
HETATM   20  N   UNL     1     -11.572   8.276  71.293  1.00  0.00    -0.275 NA 
HETATM   21  C   UNL     1     -10.443   9.048  69.652  1.00  0.00    -0.222 A  
HETATM   22  N   UNL     1     -10.643   7.945  70.409  1.00  0.00    -0.223 NA 
BRANCH  20  23
HETATM   23  C   UNL     1     -12.093   7.231  72.193  1.00  0.00    -0.250 C  
HETATM   24  C   UNL     1     -11.264   5.940  72.155  1.00  0.00    -0.342 C  
HETATM   25  C   UNL     1     -13.561   6.882  71.900  1.00  0.00    -0.186 C  
ENDBRANCH  20  23
BRANCH  21  26
HETATM   26  C   UNL     1      -9.452   8.877  68.589  1.00  0.00    -0.153 A  
HETATM   27  C   UNL     1      -8.376   9.773  68.377  1.00  0.00    -0.110 A  
HETATM   28  C   UNL     1      -7.567   9.662  67.240  1.00  0.00    -0.091 A  
HETATM   29 CL   UNL     1      -6.170  10.643  67.045  1.00  0.00    -0.064 Cl 
HETATM   30  C   UNL     1      -7.893   8.743  66.234  1.00  0.00    -0.102 A  
HETATM   31  C   UNL     1      -8.947   7.883  66.476  1.00  0.00    -0.161 A  
HETATM   32  C   UNL     1      -9.592   7.852  67.697  1.00  0.00    -0.150 A  
HETATM   33  F   UNL     1     -10.305   6.766  67.987  1.00  0.00    -0.155 F  
BRANCH  31  34
HETATM   34  N   UNL     1      -9.410   6.947  65.504  1.00  0.00    -0.277 N  
HETATM   35  H   UNL     1     -10.242   7.112  64.937  1.00  0.00     0.000 HD 
BRANCH  34  36
HETATM   36  S   UNL     1      -8.480   5.544  65.360  1.00  0.00    -0.148 S  
HETATM   37  O   UNL     1      -7.495   5.704  64.317  1.00  0.00    -0.064 OA 
HETATM   38  O   UNL     1      -8.116   5.201  66.719  1.00  0.00    -0.107 OA 
HETATM   39  C   UNL     1      -9.761   4.450  64.804  1.00  0.00    -0.125 C  
ENDBRANCH  34  36
ENDBRANCH  31  34
ENDBRANCH  21  26
ENDBRANCH  16  18
ENDBRANCH  10  12
ENDBRANCH   9  10
ENDBRANCH   7   9
ENDBRANCH   4   7
ENDBRANCH   2   3
TORSDOF 10
ENDMDL
MODEL      143
REMARK 921   NORMALIZED FREE ENERGY PREDICTED BY IDOCK:   -4.86 KCAL/MOL
REMARK 922        TOTAL FREE ENERGY PREDICTED BY IDOCK:   -9.66 KCAL/MOL
REMARK 923 INTER-LIGAND FREE ENERGY PREDICTED BY IDOCK:   -7.57 KCAL/MOL
REMARK 924 INTRA-LIGAND FREE ENERGY PREDICTED BY IDOCK:   -2.09 KCAL/MOL
REMARK 927      BINDING AFFINITY PREDICTED BY RF-SCORE:    0.00 PKD
ROOT
HETATM    1  C   UNL     1     -10.715  19.807  65.921  1.00  0.00    -0.383 C  
HETATM    2  O   UNL     1     -10.688  18.458  66.419  1.00  0.00    -0.334 OA 
ENDROOT
BRANCH   2   3
HETATM    3  C   UNL     1      -9.580  17.756  66.041  1.00  0.00    -0.093 C  
HETATM    4  N   UNL     1      -8.467  18.569  66.021  1.00  0.00    -0.116 N  
HETATM    5  O   UNL     1      -9.599  16.568  65.751  1.00  0.00    -0.476 OA 
HETATM    6  H   UNL     1      -8.572  19.549  66.283  1.00  0.00     0.000 HD 
BRANCH   4   7
HETATM    7  C   UNL     1      -7.130  18.079  65.636  1.00  0.00    -0.100 C  
HETATM    8  C   UNL     1      -6.349  19.270  64.993  1.00  0.00    -0.297 C  
BRANCH   7   9
HETATM    9  C   UNL     1      -6.216  17.500  66.796  1.00  0.00    -0.183 C  
BRANCH   9  10
HETATM   10  N   UNL     1      -6.730  17.120  68.154  1.00  0.00    -0.159 NA 
HETATM   11  H   UNL     1      -7.144  17.851  68.733  1.00  0.00     0.000 HD 
BRANCH  10  12
HETATM   12  C   UNL     1      -6.673  15.812  68.673  1.00  0.00    -0.117 A  
HETATM   13  N   UNL     1      -6.256  15.683  69.934  1.00  0.00    -0.163 NA 
HETATM   14  C   UNL     1      -6.086  14.431  70.369  1.00  0.00    -0.179 A  
HETATM   15  C   UNL     1      -6.397  13.287  69.658  1.00  0.00    -0.089 A  
HETATM   16  C   UNL     1      -6.860  13.435  68.363  1.00  0.00    -0.102 A  
HETATM   17  N   UNL     1      -6.937  14.726  67.847  1.00  0.00    -0.142 NA 
BRANCH  16  18
HETATM   18  C   UNL     1      -7.235  12.149  67.600  1.00  0.00    -0.123 A  
HETATM   19  C   UNL     1      -6.332  11.071  67.530  1.00  0.00    -0.062 A  
HETATM   20  N   UNL     1      -6.938  10.018  66.904  1.00  0.00    -0.087 NA 
HETATM   21  C   UNL     1      -8.417  11.558  66.947  1.00  0.00    -0.165 A  
HETATM   22  N   UNL     1      -8.171  10.301  66.514  1.00  0.00    -0.124 NA 
BRANCH  20  23
HETATM   23  C   UNL     1      -6.422   8.655  66.676  1.00  0.00    -0.060 C  
HETATM   24  C   UNL     1      -7.045   7.976  65.449  1.00  0.00    -0.060 C  
HETATM   25  C   UNL     1      -6.618   7.742  67.897  1.00  0.00    -0.056 C  
ENDBRANCH  20  23
BRANCH  21  26
HETATM   26  C   UNL     1      -9.756  12.055  66.629  1.00  0.00    -0.221 A  
HETATM   27  C   UNL     1     -10.175  12.375  65.314  1.00  0.00    -0.306 A  
HETATM   28  C   UNL     1     -11.400  13.013  65.091  1.00  0.00    -0.291 A  
HETATM   29 CL   UNL     1     -11.989  13.272  63.497  1.00  0.00    -0.566 Cl 
HETATM   30  C   UNL     1     -12.168  13.458  66.175  1.00  0.00    -0.471 A  
HETATM   31  C   UNL     1     -11.730  13.125  67.443  1.00  0.00    -0.370 A  
HETATM   32  C   UNL     1     -10.640  12.300  67.640  1.00  0.00    -0.215 A  
HETATM   33  F   UNL     1     -10.520  11.716  68.831  1.00  0.00    -0.204 F  
BRANCH  31  34
HETATM   34  N   UNL     1     -12.394  13.574  68.624  1.00  0.00    -0.242 N  
HETATM   35  H   UNL     1     -13.253  13.143  68.967  1.00  0.00     0.000 HD 
BRANCH  34  36
HETATM   36  S   UNL     1     -11.653  14.870  69.413  1.00  0.00    -0.330 S  
HETATM   37  O   UNL     1     -10.248  14.599  69.606  1.00  0.00    -0.102 OA 
HETATM   38  O   UNL     1     -12.122  16.046  68.713  1.00  0.00    -0.255 OA 
HETATM   39  C   UNL     1     -12.502  14.737  70.965  1.00  0.00    -0.330 C  
ENDBRANCH  34  36
ENDBRANCH  31  34
ENDBRANCH  21  26
ENDBRANCH  16  18
ENDBRANCH  10  12
ENDBRANCH   9  10
ENDBRANCH   7   9
ENDBRANCH   4   7
ENDBRANCH   2   3
TORSDOF 10
ENDMDL
MODEL      144
REMARK 921   NORMALIZED FREE ENERGY PREDICTED BY IDOCK:   -4.85 KCAL/MOL
REMARK 922        TOTAL FREE ENERGY PREDICTED BY IDOCK:   -9.64 KCAL/MOL
REMARK 923 INTER-LIGAND FREE ENERGY PREDICTED BY IDOCK:   -8.16 KCAL/MOL
REMARK 924 INTRA-LIGAND FREE ENERGY PREDICTED BY IDOCK:   -1.48 KCAL/MOL
REMARK 927      BINDING AFFINITY PREDICTED BY RF-SCORE:    0.00 PKD
ROOT
HETATM    1  C   UNL     1     -10.528  17.479  67.842  1.00  0.00    -0.384 C  
HETATM    2  O   UNL     1     -10.495  16.682  66.645  1.00  0.00    -0.298 OA 
ENDROOT
BRANCH   2   3
HETATM    3  C   UNL     1     -10.534  15.338  66.880  1.00  0.00    -0.289 C  
HETATM    4  N   UNL     1     -11.822  14.921  67.137  1.00  0.00    -0.338 N  
HETATM    5  O   UNL     1      -9.542  14.622  66.870  1.00  0.00    -0.227 OA 
HETATM    6  H   UNL     1     -12.573  15.611  67.118  1.00  0.00     0.000 HD 
BRANCH   4   7
HETATM    7  C   UNL     1     -12.159  13.517  67.438  1.00  0.00    -0.318 C  
HETATM    8  C   UNL     1     -11.945  12.681  66.136  1.00  0.00    -0.458 C  
BRANCH   7   9
HETATM    9  C   UNL     1     -11.323  12.808  68.585  1.00  0.00    -0.294 C  
BRANCH   9  10
HETATM   10  N   UNL     1     -11.827  12.608  69.984  1.00  0.00    -0.481 NA 
HETATM   11  H   UNL     1     -12.042  13.436  70.541  1.00  0.00     0.000 HD 
BRANCH  10  12
HETATM   12  C   UNL     1     -12.020  11.343  70.572  1.00  0.00    -0.356 A  
HETATM   13  N   UNL     1     -13.117  11.185  71.314  1.00  0.00    -0.327 NA 
HETATM   14  C   UNL     1     -13.221  10.023  71.966  1.00  0.00    -0.443 A  
HETATM   15  C   UNL     1     -12.344   8.961  71.854  1.00  0.00    -0.445 A  
HETATM   16  C   UNL     1     -11.226   9.125  71.055  1.00  0.00    -0.312 A  
HETATM   17  N   UNL     1     -11.037  10.367  70.455  1.00  0.00    -0.311 NA 
BRANCH  16  18
HETATM   18  C   UNL     1     -10.280   7.917  70.914  1.00  0.00    -0.213 A  
HETATM   19  C   UNL     1     -10.709   6.627  71.281  1.00  0.00    -0.231 A  
HETATM   20  N   UNL     1      -9.738   5.721  70.956  1.00  0.00    -0.167 NA 
HETATM   21  C   UNL     1      -8.958   7.611  70.339  1.00  0.00    -0.152 A  
HETATM   22  N   UNL     1      -8.667   6.293  70.427  1.00  0.00    -0.145 NA 
BRANCH  20  23
HETATM   23  C   UNL     1      -9.768   4.251  71.070  1.00  0.00    -0.190 C  
HETATM   24  C   UNL     1      -8.731   3.706  72.061  1.00  0.00    -0.116 C  
HETATM   25  C   UNL     1      -9.569   3.553  69.715  1.00  0.00    -0.206 C  
ENDBRANCH  20  23
BRANCH  21  26
HETATM   26  C   UNL     1      -7.893   8.425  69.751  1.00  0.00    -0.099 A  
HETATM   27  C   UNL     1      -7.115   9.343  70.496  1.00  0.00    -0.113 A  
HETATM   28  C   UNL     1      -6.236  10.222  69.852  1.00  0.00    -0.070 A  
HETATM   29 CL   UNL     1      -5.177  11.235  70.750  1.00  0.00    -0.108 Cl 
HETATM   30  C   UNL     1      -6.212  10.291  68.453  1.00  0.00    -0.047 A  
HETATM   31  C   UNL     1      -6.983   9.378  67.758  1.00  0.00    -0.080 A  
HETATM   32  C   UNL     1      -7.669   8.368  68.405  1.00  0.00    -0.105 A  
HETATM   33  F   UNL     1      -8.051   7.322  67.675  1.00  0.00    -0.108 F  
BRANCH  31  34
HETATM   34  N   UNL     1      -7.087   9.390  66.335  1.00  0.00    -0.087 N  
HETATM   35  H   UNL     1      -6.379   8.974  65.730  1.00  0.00     0.000 HD 
BRANCH  34  36
HETATM   36  S   UNL     1      -8.470  10.143  65.725  1.00  0.00    -0.153 S  
HETATM   37  O   UNL     1      -9.568   9.206  65.675  1.00  0.00    -0.262 OA 
HETATM   38  O   UNL     1      -8.557  11.395  66.446  1.00  0.00    -0.175 OA 
HETATM   39  C   UNL     1      -7.881  10.455  64.081  1.00  0.00    -0.052 C  
ENDBRANCH  34  36
ENDBRANCH  31  34
ENDBRANCH  21  26
ENDBRANCH  16  18
ENDBRANCH  10  12
ENDBRANCH   9  10
ENDBRANCH   7   9
ENDBRANCH   4   7
ENDBRANCH   2   3
TORSDOF 10
ENDMDL
MODEL      145
REMARK 921   NORMALIZED FREE ENERGY PREDICTED BY IDOCK:   -4.82 KCAL/MOL
REMARK 922        TOTAL FREE ENERGY PREDICTED BY IDOCK:   -9.60 KCAL/MOL
REMARK 923 INTER-LIGAND FREE ENERGY PREDICTED BY IDOCK:   -8.06 KCAL/MOL
REMARK 924 INTRA-LIGAND FREE ENERGY PREDICTED BY IDOCK:   -1.54 KCAL/MOL
REMARK 927      BINDING AFFINITY PREDICTED BY RF-SCORE:    0.00 PKD
ROOT
HETATM    1  C   UNL     1     -12.000  14.418  69.348  1.00  0.00    -0.328 C  
HETATM    2  O   UNL     1     -11.869  13.011  69.614  1.00  0.00    -0.305 OA 
ENDROOT
BRANCH   2   3
HETATM    3  C   UNL     1     -11.893  12.236  68.491  1.00  0.00    -0.307 C  
HETATM    4  N   UNL     1     -11.609  12.986  67.370  1.00  0.00    -0.335 N  
HETATM    5  O   UNL     1     -12.149  11.039  68.502  1.00  0.00    -0.573 OA 
HETATM    6  H   UNL     1     -11.412  13.980  67.484  1.00  0.00     0.000 HD 
BRANCH   4   7
HETATM    7  C   UNL     1     -11.579  12.410  66.013  1.00  0.00    -0.401 C  
HETATM    8  C   UNL     1     -12.347  13.382  65.061  1.00  0.00    -0.481 C  
BRANCH   7   9
HETATM    9  C   UNL     1     -10.151  12.165  65.368  1.00  0.00    -0.255 C  
BRANCH   9  10
HETATM   10  N   UNL     1      -8.893  11.991  66.167  1.00  0.00    -0.391 NA 
HETATM   11  H   UNL     1      -8.134  12.659  66.023  1.00  0.00     0.000 HD 
BRANCH  10  12
HETATM   12  C   UNL     1      -8.699  10.958  67.105  1.00  0.00    -0.132 A  
HETATM   13  N   UNL     1      -8.139  11.298  68.267  1.00  0.00    -0.130 NA 
HETATM   14  C   UNL     1      -7.846  10.288  69.094  1.00  0.00    -0.127 A  
HETATM   15  C   UNL     1      -8.165   8.961  68.879  1.00  0.00    -0.117 A  
HETATM   16  C   UNL     1      -8.777   8.626  67.684  1.00  0.00    -0.136 A  
HETATM   17  N   UNL     1      -8.988   9.644  66.758  1.00  0.00    -0.137 NA 
BRANCH  16  18
HETATM   18  C   UNL     1      -9.156   7.146  67.481  1.00  0.00    -0.123 A  
HETATM   19  C   UNL     1      -8.711   6.444  66.344  1.00  0.00    -0.138 A  
HETATM   20  N   UNL     1      -9.080   5.132  66.453  1.00  0.00    -0.127 NA 
HETATM   21  C   UNL     1      -9.807   6.059  68.234  1.00  0.00    -0.132 A  
HETATM   22  N   UNL     1      -9.769   4.890  67.557  1.00  0.00    -0.155 NA 
BRANCH  20  23
HETATM   23  C   UNL     1      -8.766   4.005  65.556  1.00  0.00    -0.119 C  
HETATM   24  C   UNL     1      -9.296   2.661  66.074  1.00  0.00     0.005 C  
HETATM   25  C   UNL     1      -7.259   3.869  65.288  1.00  0.00    -0.068 C  
ENDBRANCH  20  23
BRANCH  21  26
HETATM   26  C   UNL     1     -10.516   5.993  69.512  1.00  0.00    -0.330 A  
HETATM   27  C   UNL     1     -11.736   6.670  69.761  1.00  0.00    -0.279 A  
HETATM   28  C   UNL     1     -12.276   6.718  71.051  1.00  0.00    -0.352 A  
HETATM   29 CL   UNL     1     -13.825   7.403  71.340  1.00  0.00    -0.471 Cl 
HETATM   30  C   UNL     1     -11.550   6.207  72.135  1.00  0.00    -0.369 A  
HETATM   31  C   UNL     1     -10.366   5.551  71.855  1.00  0.00    -0.216 A  
HETATM   32  C   UNL     1      -9.960   5.312  70.557  1.00  0.00    -0.229 A  
HETATM   33  F   UNL     1      -9.049   4.361  70.365  1.00  0.00    -0.120 F  
BRANCH  31  34
HETATM   34  N   UNL     1      -9.512   5.043  72.879  1.00  0.00    -0.137 N  
HETATM   35  H   UNL     1      -9.494   4.057  73.139  1.00  0.00     0.000 HD 
BRANCH  34  36
HETATM   36  S   UNL     1      -8.531   6.195  73.630  1.00  0.00    -0.120 S  
HETATM   37  O   UNL     1      -9.344   7.223  74.235  1.00  0.00    -0.238 OA 
HETATM   38  O   UNL     1      -7.571   5.423  74.390  1.00  0.00    -0.091 OA 
HETATM   39  C   UNL     1      -7.743   6.839  72.177  1.00  0.00    -0.095 C  
ENDBRANCH  34  36
ENDBRANCH  31  34
ENDBRANCH  21  26
ENDBRANCH  16  18
ENDBRANCH  10  12
ENDBRANCH   9  10
ENDBRANCH   7   9
ENDBRANCH   4   7
ENDBRANCH   2   3
TORSDOF 10
ENDMDL
MODEL      146
REMARK 921   NORMALIZED FREE ENERGY PREDICTED BY IDOCK:   -4.81 KCAL/MOL
REMARK 922        TOTAL FREE ENERGY PREDICTED BY IDOCK:   -9.57 KCAL/MOL
REMARK 923 INTER-LIGAND FREE ENERGY PREDICTED BY IDOCK:   -8.76 KCAL/MOL
REMARK 924 INTRA-LIGAND FREE ENERGY PREDICTED BY IDOCK:   -0.81 KCAL/MOL
REMARK 927      BINDING AFFINITY PREDICTED BY RF-SCORE:    0.00 PKD
ROOT
HETATM    1  C   UNL     1      -6.344  10.318  65.377  1.00  0.00    -0.124 C  
HETATM    2  O   UNL     1      -6.335   9.118  66.171  1.00  0.00    -0.062 OA 
ENDROOT
BRANCH   2   3
HETATM    3  C   UNL     1      -5.937   9.318  67.461  1.00  0.00    -0.049 C  
HETATM    4  N   UNL     1      -6.541   8.412  68.306  1.00  0.00    -0.059 N  
HETATM    5  O   UNL     1      -5.157  10.197  67.799  1.00  0.00    -0.032 OA 
HETATM    6  H   UNL     1      -7.178   7.720  67.909  1.00  0.00     0.000 HD 
BRANCH   4   7
HETATM    7  C   UNL     1      -6.305   8.402  69.762  1.00  0.00    -0.035 C  
HETATM    8  C   UNL     1      -6.336   9.881  70.264  1.00  0.00    -0.094 C  
BRANCH   7   9
HETATM    9  C   UNL     1      -7.339   7.592  70.652  1.00  0.00    -0.068 C  
BRANCH   9  10
HETATM   10  N   UNL     1      -8.694   7.160  70.173  1.00  0.00    -0.140 NA 
HETATM   11  H   UNL     1      -9.254   6.566  70.784  1.00  0.00     0.000 HD 
BRANCH  10  12
HETATM   12  C   UNL     1      -9.236   7.530  68.926  1.00  0.00    -0.142 A  
HETATM   13  N   UNL     1      -9.248   6.595  67.974  1.00  0.00    -0.114 NA 
HETATM   14  C   UNL     1      -9.648   6.998  66.763  1.00  0.00    -0.171 A  
HETATM   15  C   UNL     1     -10.130   8.256  66.457  1.00  0.00    -0.303 A  
HETATM   16  C   UNL     1     -10.143   9.207  67.461  1.00  0.00    -0.228 A  
HETATM   17  N   UNL     1      -9.626   8.845  68.702  1.00  0.00    -0.152 NA 
BRANCH  16  18
HETATM   18  C   UNL     1     -10.718  10.593  67.108  1.00  0.00    -0.327 A  
HETATM   19  C   UNL     1     -10.712  11.051  65.777  1.00  0.00    -0.148 A  
HETATM   20  N   UNL     1     -11.374  12.245  65.708  1.00  0.00    -0.341 NA 
HETATM   21  C   UNL     1     -11.474  11.674  67.764  1.00  0.00    -0.302 A  
HETATM   22  N   UNL     1     -11.805  12.653  66.892  1.00  0.00    -0.463 NA 
BRANCH  20  23
HETATM   23  C   UNL     1     -11.697  13.058  64.522  1.00  0.00    -0.369 C  
HETATM   24  C   UNL     1     -12.598  14.257  64.845  1.00  0.00    -0.339 C  
HETATM   25  C   UNL     1     -12.356  12.233  63.405  1.00  0.00    -0.624 C  
ENDBRANCH  20  23
BRANCH  21  26
HETATM   26  C   UNL     1     -11.888  11.931  69.144  1.00  0.00    -0.371 A  
HETATM   27  C   UNL     1     -12.272  10.907  70.044  1.00  0.00    -0.422 A  
HETATM   28  C   UNL     1     -12.829  11.222  71.289  1.00  0.00    -0.389 A  
HETATM   29 CL   UNL     1     -13.158   9.998  72.450  1.00  0.00    -0.358 Cl 
HETATM   30  C   UNL     1     -13.132  12.553  71.606  1.00  0.00    -0.414 A  
HETATM   31  C   UNL     1     -12.741  13.525  70.705  1.00  0.00    -0.245 A  
HETATM   32  C   UNL     1     -11.989  13.218  69.588  1.00  0.00    -0.314 A  
HETATM   33  F   UNL     1     -11.330  14.215  68.999  1.00  0.00    -0.241 F  
BRANCH  31  34
HETATM   34  N   UNL     1     -13.048  14.907  70.889  1.00  0.00    -0.434 N  
HETATM   35  H   UNL     1     -13.726  15.399  70.308  1.00  0.00     0.000 HD 
BRANCH  34  36
HETATM   36  S   UNL     1     -12.205  15.667  72.139  1.00  0.00    -0.493 S  
HETATM   37  O   UNL     1     -11.441  14.697  72.888  1.00  0.00     0.096 OA 
HETATM   38  O   UNL     1     -11.589  16.822  71.521  1.00  0.00    -0.176 OA 
HETATM   39  C   UNL     1     -13.600  16.193  73.100  1.00  0.00    -0.315 C  
ENDBRANCH  34  36
ENDBRANCH  31  34
ENDBRANCH  21  26
ENDBRANCH  16  18
ENDBRANCH  10  12
ENDBRANCH   9  10
ENDBRANCH   7   9
ENDBRANCH   4   7
ENDBRANCH   2   3
TORSDOF 10
ENDMDL
MODEL      147
REMARK 921   NORMALIZED FREE ENERGY PREDICTED BY IDOCK:   -4.80 KCAL/MOL
REMARK 922        TOTAL FREE ENERGY PREDICTED BY IDOCK:   -9.56 KCAL/MOL
REMARK 923 INTER-LIGAND FREE ENERGY PREDICTED BY IDOCK:   -7.88 KCAL/MOL
REMARK 924 INTRA-LIGAND FREE ENERGY PREDICTED BY IDOCK:   -1.68 KCAL/MOL
REMARK 927      BINDING AFFINITY PREDICTED BY RF-SCORE:    0.00 PKD
ROOT
HETATM    1  C   UNL     1     -13.091  10.566  70.913  1.00  0.00    -0.306 C  
HETATM    2  O   UNL     1     -12.288  10.506  69.720  1.00  0.00    -0.250 OA 
ENDROOT
BRANCH   2   3
HETATM    3  C   UNL     1     -10.977  10.212  69.957  1.00  0.00    -0.307 C  
HETATM    4  N   UNL     1     -10.834   9.520  71.140  1.00  0.00    -0.340 N  
HETATM    5  O   UNL     1     -10.066  10.540  69.209  1.00  0.00    -0.213 OA 
HETATM    6  H   UNL     1     -11.670   9.302  71.684  1.00  0.00     0.000 HD 
BRANCH   4   7
HETATM    7  C   UNL     1      -9.522   9.083  71.654  1.00  0.00    -0.223 C  
HETATM    8  C   UNL     1      -9.740   7.771  72.474  1.00  0.00    -0.262 C  
BRANCH   7   9
HETATM    9  C   UNL     1      -8.397   8.774  70.580  1.00  0.00    -0.148 C  
BRANCH   9  10
HETATM   10  N   UNL     1      -7.106   9.534  70.481  1.00  0.00    -0.114 NA 
HETATM   11  H   UNL     1      -6.494   9.550  71.296  1.00  0.00     0.000 HD 
BRANCH  10  12
HETATM   12  C   UNL     1      -6.694  10.226  69.325  1.00  0.00    -0.063 A  
HETATM   13  N   UNL     1      -5.955   9.545  68.447  1.00  0.00    -0.044 NA 
HETATM   14  C   UNL     1      -5.467  10.250  67.422  1.00  0.00    -0.041 A  
HETATM   15  C   UNL     1      -5.745  11.577  67.158  1.00  0.00    -0.108 A  
HETATM   16  C   UNL     1      -6.539  12.264  68.059  1.00  0.00    -0.076 A  
HETATM   17  N   UNL     1      -6.967  11.582  69.195  1.00  0.00    -0.112 NA 
BRANCH  16  18
HETATM   18  C   UNL     1      -6.867  13.733  67.727  1.00  0.00    -0.182 A  
HETATM   19  C   UNL     1      -5.843  14.696  67.660  1.00  0.00    -0.003 A  
HETATM   20  N   UNL     1      -6.371  15.886  67.241  1.00  0.00    -0.284 NA 
HETATM   21  C   UNL     1      -8.023  14.533  67.284  1.00  0.00    -0.191 A  
HETATM   22  N   UNL     1      -7.679  15.819  67.047  1.00  0.00    -0.222 NA 
BRANCH  20  23
HETATM   23  C   UNL     1      -5.677  17.152  66.941  1.00  0.00    -0.186 C  
HETATM   24  C   UNL     1      -5.625  18.106  68.142  1.00  0.00    -0.161 C  
HETATM   25  C   UNL     1      -6.300  17.895  65.748  1.00  0.00    -0.258 C  
ENDBRANCH  20  23
BRANCH  21  26
HETATM   26  C   UNL     1      -9.446  14.246  67.100  1.00  0.00    -0.229 A  
HETATM   27  C   UNL     1     -10.111  14.376  65.856  1.00  0.00    -0.344 A  
HETATM   28  C   UNL     1     -11.504  14.263  65.776  1.00  0.00    -0.335 A  
HETATM   29 CL   UNL     1     -12.309  14.266  64.258  1.00  0.00    -0.458 Cl 
HETATM   30  C   UNL     1     -12.267  14.148  66.946  1.00  0.00    -0.400 A  
HETATM   31  C   UNL     1     -11.585  14.022  68.140  1.00  0.00    -0.334 A  
HETATM   32  C   UNL     1     -10.209  13.906  68.180  1.00  0.00    -0.249 A  
HETATM   33  F   UNL     1      -9.668  13.403  69.288  1.00  0.00     0.086 F  
BRANCH  31  34
HETATM   34  N   UNL     1     -12.252  13.960  69.400  1.00  0.00    -0.372 N  
HETATM   35  H   UNL     1     -12.684  13.105  69.750  1.00  0.00     0.000 HD 
BRANCH  34  36
HETATM   36  S   UNL     1     -12.274  15.407  70.270  1.00  0.00    -0.382 S  
HETATM   37  O   UNL     1     -11.388  16.370  69.659  1.00  0.00    -0.295 OA 
HETATM   38  O   UNL     1     -13.677  15.683  70.494  1.00  0.00    -0.299 OA 
HETATM   39  C   UNL     1     -11.550  14.807  71.775  1.00  0.00    -0.172 C  
ENDBRANCH  34  36
ENDBRANCH  31  34
ENDBRANCH  21  26
ENDBRANCH  16  18
ENDBRANCH  10  12
ENDBRANCH   9  10
ENDBRANCH   7   9
ENDBRANCH   4   7
ENDBRANCH   2   3
TORSDOF 10
ENDMDL
MODEL      148
REMARK 921   NORMALIZED FREE ENERGY PREDICTED BY IDOCK:   -4.79 KCAL/MOL
REMARK 922        TOTAL FREE ENERGY PREDICTED BY IDOCK:   -9.54 KCAL/MOL
REMARK 923 INTER-LIGAND FREE ENERGY PREDICTED BY IDOCK:   -8.42 KCAL/MOL
REMARK 924 INTRA-LIGAND FREE ENERGY PREDICTED BY IDOCK:   -1.12 KCAL/MOL
REMARK 927      BINDING AFFINITY PREDICTED BY RF-SCORE:    0.00 PKD
ROOT
HETATM    1  C   UNL     1     -12.331  12.328  63.412  1.00  0.00    -0.517 C  
HETATM    2  O   UNL     1     -12.616  13.693  63.765  1.00  0.00    -0.705 OA 
ENDROOT
BRANCH   2   3
HETATM    3  C   UNL     1     -11.921  14.133  64.854  1.00  0.00    -0.417 C  
HETATM    4  N   UNL     1     -10.691  14.632  64.483  1.00  0.00    -0.610 N  
HETATM    5  O   UNL     1     -12.349  14.071  65.999  1.00  0.00    -0.445 OA 
HETATM    6  H   UNL     1     -10.441  14.632  63.494  1.00  0.00     0.000 HD 
BRANCH   4   7
HETATM    7  C   UNL     1      -9.721  15.166  65.458  1.00  0.00    -0.268 C  
HETATM    8  C   UNL     1     -10.249  16.551  65.951  1.00  0.00    -0.368 C  
BRANCH   7   9
HETATM    9  C   UNL     1      -9.446  14.290  66.751  1.00  0.00    -0.275 C  
BRANCH   9  10
HETATM   10  N   UNL     1      -9.436  12.789  66.756  1.00  0.00    -0.237 NA 
HETATM   11  H   UNL     1      -9.823  12.303  65.947  1.00  0.00     0.000 HD 
BRANCH  10  12
HETATM   12  C   UNL     1      -8.924  12.015  67.816  1.00  0.00    -0.176 A  
HETATM   13  N   UNL     1      -7.626  12.154  68.090  1.00  0.00    -0.116 NA 
HETATM   14  C   UNL     1      -7.130  11.322  69.012  1.00  0.00    -0.116 A  
HETATM   15  C   UNL     1      -7.866  10.417  69.752  1.00  0.00    -0.108 A  
HETATM   16  C   UNL     1      -9.218  10.305  69.481  1.00  0.00    -0.170 A  
HETATM   17  N   UNL     1      -9.737  11.080  68.447  1.00  0.00    -0.173 NA 
BRANCH  16  18
HETATM   18  C   UNL     1     -10.028   9.316  70.343  1.00  0.00    -0.287 A  
HETATM   19  C   UNL     1     -11.281   9.685  70.866  1.00  0.00    -0.352 A  
HETATM   20  N   UNL     1     -11.843   8.607  71.491  1.00  0.00    -0.289 NA 
HETATM   21  C   UNL     1      -9.971   7.900  70.745  1.00  0.00    -0.184 A  
HETATM   22  N   UNL     1     -11.059   7.540  71.462  1.00  0.00    -0.234 NA 
BRANCH  20  23
HETATM   23  C   UNL     1     -13.175   8.486  72.110  1.00  0.00    -0.352 C  
HETATM   24  C   UNL     1     -14.044   7.403  71.455  1.00  0.00    -0.541 C  
HETATM   25  C   UNL     1     -13.951   9.812  72.099  1.00  0.00    -0.146 C  
ENDBRANCH  20  23
BRANCH  21  26
HETATM   26  C   UNL     1      -8.980   6.836  70.579  1.00  0.00    -0.152 A  
HETATM   27  C   UNL     1      -8.476   6.432  69.318  1.00  0.00    -0.126 A  
HETATM   28  C   UNL     1      -7.669   5.294  69.203  1.00  0.00    -0.081 A  
HETATM   29 CL   UNL     1      -6.928   4.879  67.709  1.00  0.00    -0.060 Cl 
HETATM   30  C   UNL     1      -7.456   4.469  70.315  1.00  0.00    -0.050 A  
HETATM   31  C   UNL     1      -7.960   4.896  71.529  1.00  0.00    -0.110 A  
HETATM   32  C   UNL     1      -8.558   6.133  71.671  1.00  0.00    -0.134 A  
HETATM   33  F   UNL     1      -8.656   6.629  72.903  1.00  0.00    -0.118 F  
BRANCH  31  34
HETATM   34  N   UNL     1      -7.859   4.113  72.718  1.00  0.00    -0.079 N  
HETATM   35  H   UNL     1      -7.001   4.057  73.266  1.00  0.00     0.000 HD 
BRANCH  34  36
HETATM   36  S   UNL     1      -9.266   3.284  73.150  1.00  0.00    -0.090 S  
HETATM   37  O   UNL     1      -9.910   3.941  74.262  1.00  0.00    -0.111 OA 
HETATM   38  O   UNL     1      -9.949   3.038  71.898  1.00  0.00    -0.170 OA 
HETATM   39  C   UNL     1      -8.509   1.779  73.707  1.00  0.00    -0.057 C  
ENDBRANCH  34  36
ENDBRANCH  31  34
ENDBRANCH  21  26
ENDBRANCH  16  18
ENDBRANCH  10  12
ENDBRANCH   9  10
ENDBRANCH   7   9
ENDBRANCH   4   7
ENDBRANCH   2   3
TORSDOF 10
ENDMDL
MODEL      149
REMARK 921   NORMALIZED FREE ENERGY PREDICTED BY IDOCK:   -4.76 KCAL/MOL
REMARK 922        TOTAL FREE ENERGY PREDICTED BY IDOCK:   -9.49 KCAL/MOL
REMARK 923 INTER-LIGAND FREE ENERGY PREDICTED BY IDOCK:   -8.19 KCAL/MOL
REMARK 924 INTRA-LIGAND FREE ENERGY PREDICTED BY IDOCK:   -1.30 KCAL/MOL
REMARK 927      BINDING AFFINITY PREDICTED BY RF-SCORE:    0.00 PKD
ROOT
HETATM    1  C   UNL     1      -7.170   8.226  71.141  1.00  0.00    -0.065 C  
HETATM    2  O   UNL     1      -7.475   8.875  69.894  1.00  0.00    -0.053 OA 
ENDROOT
BRANCH   2   3
HETATM    3  C   UNL     1      -6.815  10.056  69.715  1.00  0.00    -0.094 C  
HETATM    4  N   UNL     1      -6.390  10.188  68.410  1.00  0.00    -0.049 N  
HETATM    5  O   UNL     1      -6.627  10.868  70.611  1.00  0.00    -0.319 OA 
HETATM    6  H   UNL     1      -6.605   9.443  67.747  1.00  0.00     0.000 HD 
BRANCH   4   7
HETATM    7  C   UNL     1      -5.637  11.363  67.933  1.00  0.00    -0.044 C  
HETATM    8  C   UNL     1      -5.200  11.087  66.458  1.00  0.00    -0.099 C  
BRANCH   7   9
HETATM    9  C   UNL     1      -6.398  12.754  67.937  1.00  0.00    -0.118 C  
BRANCH   9  10
HETATM   10  N   UNL     1      -7.338  13.194  66.853  1.00  0.00    -0.297 NA 
HETATM   11  H   UNL     1      -6.987  13.230  65.896  1.00  0.00     0.000 HD 
BRANCH  10  12
HETATM   12  C   UNL     1      -8.679  13.560  67.083  1.00  0.00    -0.215 A  
HETATM   13  N   UNL     1      -9.290  14.247  66.117  1.00  0.00    -0.215 NA 
HETATM   14  C   UNL     1     -10.517  14.695  66.402  1.00  0.00    -0.295 A  
HETATM   15  C   UNL     1     -11.219  14.422  67.560  1.00  0.00    -0.329 A  
HETATM   16  C   UNL     1     -10.587  13.680  68.542  1.00  0.00    -0.250 A  
HETATM   17  N   UNL     1      -9.268  13.298  68.315  1.00  0.00    -0.209 NA 
BRANCH  16  18
HETATM   18  C   UNL     1     -11.401  13.354  69.810  1.00  0.00    -0.150 A  
HETATM   19  C   UNL     1     -11.986  14.387  70.568  1.00  0.00    -0.325 A  
HETATM   20  N   UNL     1     -12.743  13.839  71.566  1.00  0.00    -0.353 NA 
HETATM   21  C   UNL     1     -11.937  12.170  70.505  1.00  0.00    -0.216 A  
HETATM   22  N   UNL     1     -12.696  12.516  71.568  1.00  0.00    -0.282 NA 
BRANCH  20  23
HETATM   23  C   UNL     1     -13.605  14.516  72.551  1.00  0.00    -0.487 C  
HETATM   24  C   UNL     1     -14.403  15.680  71.950  1.00  0.00    -0.445 C  
HETATM   25  C   UNL     1     -12.816  15.034  73.764  1.00  0.00    -0.501 C  
ENDBRANCH  20  23
BRANCH  21  26
HETATM   26  C   UNL     1     -11.779  10.727  70.320  1.00  0.00    -0.442 A  
HETATM   27  C   UNL     1     -11.630   9.816  71.395  1.00  0.00    -0.452 A  
HETATM   28  C   UNL     1     -11.305   8.477  71.155  1.00  0.00    -0.270 A  
HETATM   29 CL   UNL     1     -11.270   7.329  72.435  1.00  0.00    -0.297 Cl 
HETATM   30  C   UNL     1     -10.995   8.050  69.857  1.00  0.00    -0.172 A  
HETATM   31  C   UNL     1     -11.154   8.965  68.833  1.00  0.00     0.199 A  
HETATM   32  C   UNL     1     -11.695  10.216  69.056  1.00  0.00     0.072 A  
HETATM   33  F   UNL     1     -12.174  10.874  68.002  1.00  0.00    -0.202 F  
BRANCH  31  34
HETATM   34  N   UNL     1     -10.813   8.666  67.480  1.00  0.00    -0.486 N  
HETATM   35  H   UNL     1     -11.193   7.859  66.985  1.00  0.00     0.000 HD 
BRANCH  34  36
HETATM   36  S   UNL     1      -9.733   9.746  66.759  1.00  0.00    -0.206 S  
HETATM   37  O   UNL     1     -10.376  10.439  65.667  1.00  0.00    -0.255 OA 
HETATM   38  O   UNL     1      -9.120  10.449  67.865  1.00  0.00    -0.131 OA 
HETATM   39  C   UNL     1      -8.584   8.558  66.113  1.00  0.00    -0.138 C  
ENDBRANCH  34  36
ENDBRANCH  31  34
ENDBRANCH  21  26
ENDBRANCH  16  18
ENDBRANCH  10  12
ENDBRANCH   9  10
ENDBRANCH   7   9
ENDBRANCH   4   7
ENDBRANCH   2   3
TORSDOF 10
ENDMDL
MODEL      150
REMARK 921   NORMALIZED FREE ENERGY PREDICTED BY IDOCK:   -4.72 KCAL/MOL
REMARK 922        TOTAL FREE ENERGY PREDICTED BY IDOCK:   -9.43 KCAL/MOL
REMARK 923 INTER-LIGAND FREE ENERGY PREDICTED BY IDOCK:   -8.15 KCAL/MOL
REMARK 924 INTRA-LIGAND FREE ENERGY PREDICTED BY IDOCK:   -1.28 KCAL/MOL
REMARK 927      BINDING AFFINITY PREDICTED BY RF-SCORE:    0.00 PKD
ROOT
HETATM    1  C   UNL     1     -12.341  12.327  63.410  1.00  0.00    -0.517 C  
HETATM    2  O   UNL     1     -12.630  13.693  63.757  1.00  0.00    -0.705 OA 
ENDROOT
BRANCH   2   3
HETATM    3  C   UNL     1     -11.945  14.137  64.851  1.00  0.00    -0.417 C  
HETATM    4  N   UNL     1     -10.771  14.755  64.477  1.00  0.00    -0.605 N  
HETATM    5  O   UNL     1     -12.335  13.984  66.000  1.00  0.00    -0.445 OA 
HETATM    6  H   UNL     1     -10.549  14.824  63.484  1.00  0.00     0.000 HD 
BRANCH   4   7
HETATM    7  C   UNL     1      -9.823  15.321  65.455  1.00  0.00    -0.326 C  
HETATM    8  C   UNL     1     -10.436  16.649  66.005  1.00  0.00    -0.306 C  
BRANCH   7   9
HETATM    9  C   UNL     1      -9.466  14.422  66.712  1.00  0.00    -0.267 C  
BRANCH   9  10
HETATM   10  N   UNL     1      -9.388  12.924  66.672  1.00  0.00    -0.245 NA 
HETATM   11  H   UNL     1      -9.776  12.444  65.860  1.00  0.00     0.000 HD 
BRANCH  10  12
HETATM   12  C   UNL     1      -8.809  12.144  67.693  1.00  0.00    -0.172 A  
HETATM   13  N   UNL     1      -7.504  12.313  67.913  1.00  0.00    -0.109 NA 
HETATM   14  C   UNL     1      -6.946  11.477  68.795  1.00  0.00    -0.096 A  
HETATM   15  C   UNL     1      -7.625  10.539  69.549  1.00  0.00    -0.148 A  
HETATM   16  C   UNL     1      -8.984  10.396  69.335  1.00  0.00    -0.151 A  
HETATM   17  N   UNL     1      -9.568  11.176  68.340  1.00  0.00    -0.185 NA 
BRANCH  16  18
HETATM   18  C   UNL     1      -9.729   9.370  70.212  1.00  0.00    -0.292 A  
HETATM   19  C   UNL     1     -10.959   9.701  70.810  1.00  0.00    -0.327 A  
HETATM   20  N   UNL     1     -11.467   8.596  71.435  1.00  0.00    -0.271 NA 
HETATM   21  C   UNL     1      -9.625   7.945  70.573  1.00  0.00    -0.170 A  
HETATM   22  N   UNL     1     -10.666   7.546  71.336  1.00  0.00    -0.222 NA 
BRANCH  20  23
HETATM   23  C   UNL     1     -12.762   8.433  72.119  1.00  0.00    -0.356 C  
HETATM   24  C   UNL     1     -13.645   7.352  71.482  1.00  0.00    -0.454 C  
HETATM   25  C   UNL     1     -13.561   9.745  72.185  1.00  0.00    -0.432 C  
ENDBRANCH  20  23
BRANCH  21  26
HETATM   26  C   UNL     1      -8.625   6.905  70.326  1.00  0.00    -0.140 A  
HETATM   27  C   UNL     1      -7.710   6.457  71.311  1.00  0.00    -0.095 A  
HETATM   28  C   UNL     1      -6.663   5.593  70.972  1.00  0.00    -0.052 A  
HETATM   29 CL   UNL     1      -5.639   4.922  72.178  1.00  0.00    -0.008 Cl 
HETATM   30  C   UNL     1      -6.430   5.265  69.629  1.00  0.00    -0.034 A  
HETATM   31  C   UNL     1      -7.344   5.718  68.697  1.00  0.00    -0.084 A  
HETATM   32  C   UNL     1      -8.497   6.378  69.073  1.00  0.00    -0.124 A  
HETATM   33  F   UNL     1      -9.491   6.429  68.189  1.00  0.00    -0.119 F  
BRANCH  31  34
HETATM   34  N   UNL     1      -7.180   5.500  67.296  1.00  0.00    -0.074 N  
HETATM   35  H   UNL     1      -7.397   4.608  66.851  1.00  0.00     0.000 HD 
BRANCH  34  36
HETATM   36  S   UNL     1      -6.600   6.827  66.428  1.00  0.00    -0.049 S  
HETATM   37  O   UNL     1      -7.579   7.256  65.458  1.00  0.00    -0.087 OA 
HETATM   38  O   UNL     1      -6.067   7.722  67.433  1.00  0.00    -0.046 OA 
HETATM   39  C   UNL     1      -5.257   6.016  65.598  1.00  0.00    -0.013 C  
ENDBRANCH  34  36
ENDBRANCH  31  34
ENDBRANCH  21  26
ENDBRANCH  16  18
ENDBRANCH  10  12
ENDBRANCH   9  10
ENDBRANCH   7   9
ENDBRANCH   4   7
ENDBRANCH   2   3
TORSDOF 10
ENDMDL
MODEL      151
REMARK 921   NORMALIZED FREE ENERGY PREDICTED BY IDOCK:   -4.71 KCAL/MOL
REMARK 922        TOTAL FREE ENERGY PREDICTED BY IDOCK:   -9.42 KCAL/MOL
REMARK 923 INTER-LIGAND FREE ENERGY PREDICTED BY IDOCK:   -9.34 KCAL/MOL
REMARK 924 INTRA-LIGAND FREE ENERGY PREDICTED BY IDOCK:   -0.08 KCAL/MOL
REMARK 927      BINDING AFFINITY PREDICTED BY RF-SCORE:    0.00 PKD
ROOT
HETATM    1  C   UNL     1      -9.717   4.307  66.522  1.00  0.00    -0.219 C  
HETATM    2  O   UNL     1     -10.587   5.439  66.696  1.00  0.00    -0.280 OA 
ENDROOT
BRANCH   2   3
HETATM    3  C   UNL     1     -10.184   6.293  67.681  1.00  0.00    -0.169 C  
HETATM    4  N   UNL     1     -11.188   7.181  68.003  1.00  0.00    -0.504 N  
HETATM    5  O   UNL     1      -9.071   6.263  68.187  1.00  0.00    -0.115 OA 
HETATM    6  H   UNL     1     -12.080   7.111  67.511  1.00  0.00     0.000 HD 
BRANCH   4   7
HETATM    7  C   UNL     1     -11.026   8.229  69.028  1.00  0.00     0.124 C  
HETATM    8  C   UNL     1      -9.826   7.824  69.943  1.00  0.00    -0.177 C  
BRANCH   7   9
HETATM    9  C   UNL     1     -10.737   9.701  68.512  1.00  0.00    -0.200 C  
BRANCH   9  10
HETATM   10  N   UNL     1     -11.285  10.259  67.231  1.00  0.00    -0.332 NA 
HETATM   11  H   UNL     1     -11.418   9.622  66.446  1.00  0.00     0.000 HD 
BRANCH  10  12
HETATM   12  C   UNL     1     -11.627  11.614  67.053  1.00  0.00    -0.189 A  
HETATM   13  N   UNL     1     -11.970  11.991  65.820  1.00  0.00    -0.498 NA 
HETATM   14  C   UNL     1     -12.167  13.301  65.641  1.00  0.00    -0.462 A  
HETATM   15  C   UNL     1     -12.138  14.258  66.638  1.00  0.00    -0.448 A  
HETATM   16  C   UNL     1     -11.812  13.850  67.919  1.00  0.00    -0.378 A  
HETATM   17  N   UNL     1     -11.491  12.508  68.108  1.00  0.00    -0.295 NA 
BRANCH  16  18
HETATM   18  C   UNL     1     -11.820  14.926  69.022  1.00  0.00    -0.333 A  
HETATM   19  C   UNL     1     -12.416  14.665  70.271  1.00  0.00    -0.346 A  
HETATM   20  N   UNL     1     -12.192  15.724  71.106  1.00  0.00    -0.402 NA 
HETATM   21  C   UNL     1     -11.231  16.254  69.273  1.00  0.00    -0.312 A  
HETATM   22  N   UNL     1     -11.519  16.700  70.517  1.00  0.00    -0.001 NA 
BRANCH  20  23
HETATM   23  C   UNL     1     -12.547  15.872  72.529  1.00  0.00    -0.457 C  
HETATM   24  C   UNL     1     -11.707  14.978  73.452  1.00  0.00    -0.229 C  
HETATM   25  C   UNL     1     -14.035  15.594  72.796  1.00  0.00    -0.563 C  
ENDBRANCH  20  23
BRANCH  21  26
HETATM   26  C   UNL     1     -10.461  17.193  68.458  1.00  0.00    -0.377 A  
HETATM   27  C   UNL     1     -11.017  17.928  67.383  1.00  0.00    -0.089 A  
HETATM   28  C   UNL     1     -10.198  18.673  66.528  1.00  0.00    -0.412 A  
HETATM   29 CL   UNL     1     -10.870  19.688  65.314  1.00  0.00    -0.201 Cl 
HETATM   30  C   UNL     1      -8.803  18.597  66.648  1.00  0.00    -0.305 A  
HETATM   31  C   UNL     1      -8.296  17.874  67.711  1.00  0.00    -0.241 A  
HETATM   32  C   UNL     1      -9.120  17.333  68.678  1.00  0.00    -0.260 A  
HETATM   33  F   UNL     1      -8.565  17.005  69.843  1.00  0.00     0.433 F  
BRANCH  31  34
HETATM   34  N   UNL     1      -6.896  17.674  67.902  1.00  0.00    -0.186 N  
HETATM   35  H   UNL     1      -6.402  16.863  67.529  1.00  0.00     0.000 HD 
BRANCH  34  36
HETATM   36  S   UNL     1      -6.116  18.879  68.791  1.00  0.00    -0.229 S  
HETATM   37  O   UNL     1      -5.162  19.574  67.960  1.00  0.00    -0.169 OA 
HETATM   38  O   UNL     1      -7.180  19.571  69.488  1.00  0.00    -0.309 OA 
HETATM   39  C   UNL     1      -5.255  17.830  69.934  1.00  0.00    -0.208 C  
ENDBRANCH  34  36
ENDBRANCH  31  34
ENDBRANCH  21  26
ENDBRANCH  16  18
ENDBRANCH  10  12
ENDBRANCH   9  10
ENDBRANCH   7   9
ENDBRANCH   4   7
ENDBRANCH   2   3
TORSDOF 10
ENDMDL
MODEL      152
REMARK 921   NORMALIZED FREE ENERGY PREDICTED BY IDOCK:   -4.71 KCAL/MOL
REMARK 922        TOTAL FREE ENERGY PREDICTED BY IDOCK:   -9.42 KCAL/MOL
REMARK 923 INTER-LIGAND FREE ENERGY PREDICTED BY IDOCK:   -7.11 KCAL/MOL
REMARK 924 INTRA-LIGAND FREE ENERGY PREDICTED BY IDOCK:   -2.31 KCAL/MOL
REMARK 927      BINDING AFFINITY PREDICTED BY RF-SCORE:    0.00 PKD
ROOT
HETATM    1  C   UNL     1     -10.894   7.425  67.088  1.00  0.00    -0.270 C  
HETATM    2  O   UNL     1     -11.062   6.041  67.443  1.00  0.00    -0.302 OA 
ENDROOT
BRANCH   2   3
HETATM    3  C   UNL     1     -10.144   5.211  66.868  1.00  0.00    -0.226 C  
HETATM    4  N   UNL     1     -10.029   5.466  65.518  1.00  0.00    -0.377 N  
HETATM    5  O   UNL     1      -9.527   4.355  67.486  1.00  0.00    -0.144 OA 
HETATM    6  H   UNL     1     -10.598   6.209  65.110  1.00  0.00     0.000 HD 
BRANCH   4   7
HETATM    7  C   UNL     1      -9.118   4.710  64.639  1.00  0.00    -0.141 C  
HETATM    8  C   UNL     1      -9.876   3.438  64.141  1.00  0.00    -0.172 C  
BRANCH   7   9
HETATM    9  C   UNL     1      -8.577   5.460  63.350  1.00  0.00    -0.001 C  
BRANCH   9  10
HETATM   10  N   UNL     1      -7.728   6.697  63.398  1.00  0.00    -0.105 NA 
HETATM   11  H   UNL     1      -6.871   6.714  62.846  1.00  0.00     0.000 HD 
BRANCH  10  12
HETATM   12  C   UNL     1      -8.050   7.835  64.163  1.00  0.00    -0.068 A  
HETATM   13  N   UNL     1      -8.630   8.849  63.518  1.00  0.00    -0.143 NA 
HETATM   14  C   UNL     1      -8.812   9.967  64.228  1.00  0.00    -0.220 A  
HETATM   15  C   UNL     1      -8.540  10.113  65.575  1.00  0.00    -0.162 A  
HETATM   16  C   UNL     1      -7.969   9.043  66.240  1.00  0.00    -0.103 A  
HETATM   17  N   UNL     1      -7.665   7.906  65.496  1.00  0.00    -0.095 NA 
BRANCH  16  18
HETATM   18  C   UNL     1      -7.707   9.213  67.750  1.00  0.00    -0.093 A  
HETATM   19  C   UNL     1      -6.543   8.682  68.338  1.00  0.00    -0.060 A  
HETATM   20  N   UNL     1      -6.488   9.063  69.650  1.00  0.00    -0.042 NA 
HETATM   21  C   UNL     1      -8.282   9.942  68.895  1.00  0.00    -0.118 A  
HETATM   22  N   UNL     1      -7.538   9.785  70.012  1.00  0.00    -0.147 NA 
BRANCH  20  23
HETATM   23  C   UNL     1      -5.423   8.822  70.639  1.00  0.00    -0.027 C  
HETATM   24  C   UNL     1      -5.666   7.568  71.489  1.00  0.00    -0.036 C  
HETATM   25  C   UNL     1      -5.211  10.020  71.578  1.00  0.00    -0.077 C  
ENDBRANCH  20  23
BRANCH  21  26
HETATM   26  C   UNL     1      -9.493  10.741  69.085  1.00  0.00    -0.151 A  
HETATM   27  C   UNL     1     -10.543  10.367  69.958  1.00  0.00    -0.282 A  
HETATM   28  C   UNL     1     -11.751  11.073  69.966  1.00  0.00    -0.355 A  
HETATM   29 CL   UNL     1     -12.975  10.726  71.122  1.00  0.00    -0.477 Cl 
HETATM   30  C   UNL     1     -11.983  12.079  69.019  1.00  0.00    -0.321 A  
HETATM   31  C   UNL     1     -10.935  12.420  68.184  1.00  0.00    -0.228 A  
HETATM   32  C   UNL     1      -9.677  11.871  68.340  1.00  0.00    -0.201 A  
HETATM   33  F   UNL     1      -8.654  12.516  67.783  1.00  0.00    -0.143 F  
BRANCH  31  34
HETATM   34  N   UNL     1     -11.070  13.384  67.141  1.00  0.00    -0.280 N  
HETATM   35  H   UNL     1     -10.772  14.354  67.250  1.00  0.00     0.000 HD 
BRANCH  34  36
HETATM   36  S   UNL     1     -11.758  12.803  65.713  1.00  0.00    -0.423 S  
HETATM   37  O   UNL     1     -11.723  11.359  65.694  1.00  0.00    -0.113 OA 
HETATM   38  O   UNL     1     -12.992  13.546  65.568  1.00  0.00    -0.586 OA 
HETATM   39  C   UNL     1     -10.555  13.441  64.577  1.00  0.00    -0.425 C  
ENDBRANCH  34  36
ENDBRANCH  31  34
ENDBRANCH  21  26
ENDBRANCH  16  18
ENDBRANCH  10  12
ENDBRANCH   9  10
ENDBRANCH   7   9
ENDBRANCH   4   7
ENDBRANCH   2   3
TORSDOF 10
ENDMDL
MODEL      153
REMARK 921   NORMALIZED FREE ENERGY PREDICTED BY IDOCK:   -4.69 KCAL/MOL
REMARK 922        TOTAL FREE ENERGY PREDICTED BY IDOCK:   -9.38 KCAL/MOL
REMARK 923 INTER-LIGAND FREE ENERGY PREDICTED BY IDOCK:   -8.05 KCAL/MOL
REMARK 924 INTRA-LIGAND FREE ENERGY PREDICTED BY IDOCK:   -1.34 KCAL/MOL
REMARK 927      BINDING AFFINITY PREDICTED BY RF-SCORE:    0.00 PKD
ROOT
HETATM    1  C   UNL     1     -12.405  14.736  64.309  1.00  0.00    -0.320 C  
HETATM    2  O   UNL     1     -12.309  13.838  65.430  1.00  0.00    -0.417 OA 
ENDROOT
BRANCH   2   3
HETATM    3  C   UNL     1     -11.336  12.891  65.290  1.00  0.00    -0.300 C  
HETATM    4  N   UNL     1     -11.574  12.102  64.185  1.00  0.00    -0.365 N  
HETATM    5  O   UNL     1     -10.396  12.769  66.064  1.00  0.00    -0.265 OA 
HETATM    6  H   UNL     1     -12.395  12.298  63.611  1.00  0.00     0.000 HD 
BRANCH   4   7
HETATM    7  C   UNL     1     -10.690  10.987  63.798  1.00  0.00    -0.224 C  
HETATM    8  C   UNL     1      -9.453  11.589  63.058  1.00  0.00    -0.346 C  
BRANCH   7   9
HETATM    9  C   UNL     1     -10.128  10.076  64.969  1.00  0.00    -0.157 C  
BRANCH   9  10
HETATM   10  N   UNL     1      -8.744  10.204  65.535  1.00  0.00    -0.151 NA 
HETATM   11  H   UNL     1      -8.161  10.976  65.211  1.00  0.00     0.000 HD 
BRANCH  10  12
HETATM   12  C   UNL     1      -8.204   9.316  66.486  1.00  0.00    -0.107 A  
HETATM   13  N   UNL     1      -7.153   9.750  67.185  1.00  0.00    -0.085 NA 
HETATM   14  C   UNL     1      -6.576   8.853  67.991  1.00  0.00    -0.061 A  
HETATM   15  C   UNL     1      -7.035   7.570  68.221  1.00  0.00    -0.068 A  
HETATM   16  C   UNL     1      -8.145   7.143  67.513  1.00  0.00    -0.113 A  
HETATM   17  N   UNL     1      -8.697   8.020  66.584  1.00  0.00    -0.134 NA 
BRANCH  16  18
HETATM   18  C   UNL     1      -8.662   5.722  67.811  1.00  0.00    -0.107 A  
HETATM   19  C   UNL     1      -8.303   4.643  66.981  1.00  0.00    -0.105 A  
HETATM   20  N   UNL     1      -8.790   3.482  67.516  1.00  0.00    -0.115 NA 
HETATM   21  C   UNL     1      -9.397   5.015  68.875  1.00  0.00    -0.127 A  
HETATM   22  N   UNL     1      -9.479   3.688  68.628  1.00  0.00    -0.160 NA 
BRANCH  20  23
HETATM   23  C   UNL     1      -8.597   2.097  67.053  1.00  0.00    -0.108 C  
HETATM   24  C   UNL     1      -7.223   1.525  67.428  1.00  0.00    -0.042 C  
HETATM   25  C   UNL     1      -8.792   1.952  65.535  1.00  0.00    -0.121 C  
ENDBRANCH  20  23
BRANCH  21  26
HETATM   26  C   UNL     1     -10.088   5.446  70.091  1.00  0.00    -0.322 A  
HETATM   27  C   UNL     1      -9.995   4.755  71.324  1.00  0.00    -0.270 A  
HETATM   28  C   UNL     1     -10.814   5.107  72.403  1.00  0.00    -0.203 A  
HETATM   29 CL   UNL     1     -10.609   4.382  73.948  1.00  0.00    -0.294 Cl 
HETATM   30  C   UNL     1     -11.826   6.061  72.234  1.00  0.00    -0.305 A  
HETATM   31  C   UNL     1     -11.885   6.716  71.018  1.00  0.00    -0.372 A  
HETATM   32  C   UNL     1     -10.927   6.521  70.042  1.00  0.00    -0.332 A  
HETATM   33  F   UNL     1     -10.824   7.447  69.091  1.00  0.00    -0.219 F  
BRANCH  31  34
HETATM   34  N   UNL     1     -12.907   7.662  70.707  1.00  0.00    -0.546 N  
HETATM   35  H   UNL     1     -13.694   7.439  70.097  1.00  0.00     0.000 HD 
BRANCH  34  36
HETATM   36  S   UNL     1     -12.720   9.180  71.423  1.00  0.00    -0.301 S  
HETATM   37  O   UNL     1     -11.429   9.274  72.063  1.00  0.00    -0.355 OA 
HETATM   38  O   UNL     1     -13.149  10.122  70.410  1.00  0.00    -0.225 OA 
HETATM   39  C   UNL     1     -13.985   9.034  72.658  1.00  0.00    -0.308 C  
ENDBRANCH  34  36
ENDBRANCH  31  34
ENDBRANCH  21  26
ENDBRANCH  16  18
ENDBRANCH  10  12
ENDBRANCH   9  10
ENDBRANCH   7   9
ENDBRANCH   4   7
ENDBRANCH   2   3
TORSDOF 10
ENDMDL
MODEL      154
REMARK 921   NORMALIZED FREE ENERGY PREDICTED BY IDOCK:   -4.64 KCAL/MOL
REMARK 922        TOTAL FREE ENERGY PREDICTED BY IDOCK:   -9.31 KCAL/MOL
REMARK 923 INTER-LIGAND FREE ENERGY PREDICTED BY IDOCK:   -8.01 KCAL/MOL
REMARK 924 INTRA-LIGAND FREE ENERGY PREDICTED BY IDOCK:   -1.31 KCAL/MOL
REMARK 927      BINDING AFFINITY PREDICTED BY RF-SCORE:    0.00 PKD
ROOT
HETATM    1  C   UNL     1     -10.323  10.936  64.414  1.00  0.00    -0.361 C  
HETATM    2  O   UNL     1     -10.768  10.544  65.725  1.00  0.00    -0.122 OA 
ENDROOT
BRANCH   2   3
HETATM    3  C   UNL     1     -10.208   9.381  66.168  1.00  0.00    -0.194 C  
HETATM    4  N   UNL     1     -10.762   8.996  67.370  1.00  0.00    -0.411 N  
HETATM    5  O   UNL     1      -9.324   8.785  65.568  1.00  0.00    -0.192 OA 
HETATM    6  H   UNL     1     -11.495   9.576  67.779  1.00  0.00     0.000 HD 
BRANCH   4   7
HETATM    7  C   UNL     1     -10.337   7.781  68.090  1.00  0.00    -0.200 C  
HETATM    8  C   UNL     1     -10.935   6.546  67.342  1.00  0.00    -0.458 C  
BRANCH   7   9
HETATM    9  C   UNL     1      -8.776   7.530  68.218  1.00  0.00    -0.123 C  
BRANCH   9  10
HETATM   10  N   UNL     1      -7.797   8.575  68.668  1.00  0.00    -0.106 NA 
HETATM   11  H   UNL     1      -7.108   8.317  69.374  1.00  0.00     0.000 HD 
BRANCH  10  12
HETATM   12  C   UNL     1      -7.778   9.893  68.170  1.00  0.00    -0.082 A  
HETATM   13  N   UNL     1      -6.851  10.176  67.253  1.00  0.00    -0.077 NA 
HETATM   14  C   UNL     1      -6.764  11.459  66.886  1.00  0.00    -0.145 A  
HETATM   15  C   UNL     1      -7.607  12.470  67.304  1.00  0.00    -0.131 A  
HETATM   16  C   UNL     1      -8.586  12.157  68.230  1.00  0.00    -0.175 A  
HETATM   17  N   UNL     1      -8.624  10.852  68.714  1.00  0.00    -0.159 NA 
BRANCH  16  18
HETATM   18  C   UNL     1      -9.539  13.291  68.655  1.00  0.00    -0.053 A  
HETATM   19  C   UNL     1     -10.823  12.997  69.152  1.00  0.00    -0.086 A  
HETATM   20  N   UNL     1     -11.423  14.155  69.563  1.00  0.00    -0.270 NA 
HETATM   21  C   UNL     1      -9.499  14.751  68.852  1.00  0.00    -0.191 A  
HETATM   22  N   UNL     1     -10.663  15.219  69.357  1.00  0.00    -0.251 NA 
BRANCH  20  23
HETATM   23  C   UNL     1     -12.726  14.337  70.226  1.00  0.00    -0.249 C  
HETATM   24  C   UNL     1     -12.869  15.708  70.900  1.00  0.00    -0.498 C  
HETATM   25  C   UNL     1     -13.013  13.244  71.268  1.00  0.00    -0.353 C  
ENDBRANCH  20  23
BRANCH  21  26
HETATM   26  C   UNL     1      -8.504  15.787  68.572  1.00  0.00    -0.181 A  
HETATM   27  C   UNL     1      -7.388  16.040  69.408  1.00  0.00    -0.212 A  
HETATM   28  C   UNL     1      -6.571  17.155  69.190  1.00  0.00    -0.231 A  
HETATM   29 CL   UNL     1      -5.132  17.392  70.099  1.00  0.00    -0.189 Cl 
HETATM   30  C   UNL     1      -6.922  18.104  68.221  1.00  0.00    -0.233 A  
HETATM   31  C   UNL     1      -8.015  17.823  67.422  1.00  0.00    -0.211 A  
HETATM   32  C   UNL     1      -8.675  16.612  67.497  1.00  0.00    -0.190 A  
HETATM   33  F   UNL     1      -9.436  16.263  66.462  1.00  0.00    -0.223 F  
BRANCH  31  34
HETATM   34  N   UNL     1      -8.504  18.739  66.444  1.00  0.00    -0.297 N  
HETATM   35  H   UNL     1      -8.213  18.705  65.467  1.00  0.00     0.000 HD 
BRANCH  34  36
HETATM   36  S   UNL     1      -9.601  19.885  67.022  1.00  0.00    -0.418 S  
HETATM   37  O   UNL     1     -10.359  19.339  68.124  1.00  0.00    -0.396 OA 
HETATM   38  O   UNL     1      -8.831  21.105  67.145  1.00  0.00    -0.060 OA 
HETATM   39  C   UNL     1     -10.636  19.990  65.585  1.00  0.00    -0.275 C  
ENDBRANCH  34  36
ENDBRANCH  31  34
ENDBRANCH  21  26
ENDBRANCH  16  18
ENDBRANCH  10  12
ENDBRANCH   9  10
ENDBRANCH   7   9
ENDBRANCH   4   7
ENDBRANCH   2   3
TORSDOF 10
ENDMDL
MODEL      155
REMARK 921   NORMALIZED FREE ENERGY PREDICTED BY IDOCK:   -4.64 KCAL/MOL
REMARK 922        TOTAL FREE ENERGY PREDICTED BY IDOCK:   -9.30 KCAL/MOL
REMARK 923 INTER-LIGAND FREE ENERGY PREDICTED BY IDOCK:   -8.06 KCAL/MOL
REMARK 924 INTRA-LIGAND FREE ENERGY PREDICTED BY IDOCK:   -1.24 KCAL/MOL
REMARK 927      BINDING AFFINITY PREDICTED BY RF-SCORE:    0.00 PKD
ROOT
HETATM    1  C   UNL     1     -13.255  10.045  71.904  1.00  0.00    -0.452 C  
HETATM    2  O   UNL     1     -11.853   9.773  71.725  1.00  0.00    -0.383 OA 
ENDROOT
BRANCH   2   3
HETATM    3  C   UNL     1     -11.510   8.476  71.975  1.00  0.00    -0.361 C  
HETATM    4  N   UNL     1     -11.035   7.866  70.834  1.00  0.00    -0.239 N  
HETATM    5  O   UNL     1     -11.630   7.945  73.070  1.00  0.00    -0.351 OA 
HETATM    6  H   UNL     1     -10.980   8.412  69.973  1.00  0.00     0.000 HD 
BRANCH   4   7
HETATM    7  C   UNL     1     -10.601   6.457  70.806  1.00  0.00    -0.238 C  
HETATM    8  C   UNL     1     -10.929   5.881  69.391  1.00  0.00    -0.421 C  
BRANCH   7   9
HETATM    9  C   UNL     1      -9.064   6.173  71.075  1.00  0.00    -0.147 C  
BRANCH   9  10
HETATM   10  N   UNL     1      -7.962   6.599  70.148  1.00  0.00    -0.110 NA 
HETATM   11  H   UNL     1      -7.398   5.873  69.706  1.00  0.00     0.000 HD 
BRANCH  10  12
HETATM   12  C   UNL     1      -7.664   7.944  69.856  1.00  0.00    -0.098 A  
HETATM   13  N   UNL     1      -6.860   8.581  70.708  1.00  0.00    -0.040 NA 
HETATM   14  C   UNL     1      -6.689   9.888  70.486  1.00  0.00    -0.123 A  
HETATM   15  C   UNL     1      -7.194  10.590  69.409  1.00  0.00    -0.117 A  
HETATM   16  C   UNL     1      -8.000   9.910  68.513  1.00  0.00    -0.086 A  
HETATM   17  N   UNL     1      -8.286   8.575  68.784  1.00  0.00    -0.120 NA 
BRANCH  16  18
HETATM   18  C   UNL     1      -8.523  10.702  67.298  1.00  0.00    -0.126 A  
HETATM   19  C   UNL     1      -8.344  10.207  65.992  1.00  0.00    -0.130 A  
HETATM   20  N   UNL     1      -8.991  11.026  65.109  1.00  0.00    -0.180 NA 
HETATM   21  C   UNL     1      -9.357  11.887  67.029  1.00  0.00    -0.188 A  
HETATM   22  N   UNL     1      -9.571  12.056  65.705  1.00  0.00    -0.224 NA 
BRANCH  20  23
HETATM   23  C   UNL     1      -9.157  10.869  63.652  1.00  0.00    -0.186 C  
HETATM   24  C   UNL     1     -10.506  11.394  63.143  1.00  0.00    -0.323 C  
HETATM   25  C   UNL     1      -8.992   9.411  63.196  1.00  0.00    -0.166 C  
ENDBRANCH  20  23
BRANCH  21  26
HETATM   26  C   UNL     1      -9.946  12.927  67.873  1.00  0.00    -0.233 A  
HETATM   27  C   UNL     1     -10.876  12.656  68.907  1.00  0.00    -0.238 A  
HETATM   28  C   UNL     1     -11.541  13.699  69.561  1.00  0.00    -0.301 A  
HETATM   29 CL   UNL     1     -12.554  13.395  70.915  1.00  0.00    -0.424 Cl 
HETATM   30  C   UNL     1     -11.390  15.018  69.112  1.00  0.00    -0.311 A  
HETATM   31  C   UNL     1     -10.473  15.245  68.103  1.00  0.00    -0.246 A  
HETATM   32  C   UNL     1      -9.659  14.238  67.624  1.00  0.00    -0.219 A  
HETATM   33  F   UNL     1      -8.562  14.600  66.961  1.00  0.00    -0.197 F  
BRANCH  31  34
HETATM   34  N   UNL     1     -10.278  16.534  67.523  1.00  0.00    -0.276 N  
HETATM   35  H   UNL     1     -10.524  16.742  66.555  1.00  0.00     0.000 HD 
BRANCH  34  36
HETATM   36  S   UNL     1      -9.608  17.690  68.555  1.00  0.00    -0.322 S  
HETATM   37  O   UNL     1      -9.307  18.898  67.823  1.00  0.00    -0.287 OA 
HETATM   38  O   UNL     1     -10.468  17.688  69.720  1.00  0.00     0.031 OA 
HETATM   39  C   UNL     1      -8.100  16.839  68.941  1.00  0.00    -0.230 C  
ENDBRANCH  34  36
ENDBRANCH  31  34
ENDBRANCH  21  26
ENDBRANCH  16  18
ENDBRANCH  10  12
ENDBRANCH   9  10
ENDBRANCH   7   9
ENDBRANCH   4   7
ENDBRANCH   2   3
TORSDOF 10
ENDMDL
MODEL      156
REMARK 921   NORMALIZED FREE ENERGY PREDICTED BY IDOCK:   -4.63 KCAL/MOL
REMARK 922        TOTAL FREE ENERGY PREDICTED BY IDOCK:   -9.29 KCAL/MOL
REMARK 923 INTER-LIGAND FREE ENERGY PREDICTED BY IDOCK:   -7.94 KCAL/MOL
REMARK 924 INTRA-LIGAND FREE ENERGY PREDICTED BY IDOCK:   -1.35 KCAL/MOL
REMARK 927      BINDING AFFINITY PREDICTED BY RF-SCORE:    0.00 PKD
ROOT
HETATM    1  C   UNL     1      -5.223   9.942  71.685  1.00  0.00    -0.076 C  
HETATM    2  O   UNL     1      -5.656   8.603  71.985  1.00  0.00    -0.042 OA 
ENDROOT
BRANCH   2   3
HETATM    3  C   UNL     1      -6.994   8.502  72.232  1.00  0.00    -0.072 C  
HETATM    4  N   UNL     1      -7.666   8.047  71.118  1.00  0.00    -0.083 N  
HETATM    5  O   UNL     1      -7.507   8.795  73.303  1.00  0.00    -0.367 OA 
HETATM    6  H   UNL     1      -7.131   7.834  70.276  1.00  0.00     0.000 HD 
BRANCH   4   7
HETATM    7  C   UNL     1      -9.128   7.854  71.093  1.00  0.00    -0.143 C  
HETATM    8  C   UNL     1      -9.798   9.265  71.043  1.00  0.00    -0.355 C  
BRANCH   7   9
HETATM    9  C   UNL     1      -9.722   7.018  69.883  1.00  0.00    -0.163 C  
BRANCH   9  10
HETATM   10  N   UNL     1      -9.148   7.032  68.497  1.00  0.00    -0.132 NA 
HETATM   11  H   UNL     1      -9.202   6.176  67.945  1.00  0.00     0.000 HD 
BRANCH  10  12
HETATM   12  C   UNL     1      -8.538   8.161  67.916  1.00  0.00    -0.132 A  
HETATM   13  N   UNL     1      -7.206   8.153  67.839  1.00  0.00    -0.089 NA 
HETATM   14  C   UNL     1      -6.638   9.282  67.403  1.00  0.00    -0.064 A  
HETATM   15  C   UNL     1      -7.316  10.395  66.945  1.00  0.00    -0.106 A  
HETATM   16  C   UNL     1      -8.699  10.379  66.999  1.00  0.00    -0.130 A  
HETATM   17  N   UNL     1      -9.311   9.259  67.555  1.00  0.00    -0.127 NA 
BRANCH  16  18
HETATM   18  C   UNL     1      -9.438  11.615  66.450  1.00  0.00    -0.232 A  
HETATM   19  C   UNL     1     -10.579  11.464  65.640  1.00  0.00    -0.258 A  
HETATM   20  N   UNL     1     -11.112  12.696  65.380  1.00  0.00    -0.285 NA 
HETATM   21  C   UNL     1      -9.412  13.080  66.615  1.00  0.00    -0.256 A  
HETATM   22  N   UNL     1     -10.407  13.677  65.922  1.00  0.00    -0.294 NA 
BRANCH  20  23
HETATM   23  C   UNL     1     -12.348  13.034  64.651  1.00  0.00    -0.422 C  
HETATM   24  C   UNL     1     -12.644  12.071  63.493  1.00  0.00    -0.625 C  
HETATM   25  C   UNL     1     -12.334  14.471  64.105  1.00  0.00    -0.317 C  
ENDBRANCH  20  23
BRANCH  21  26
HETATM   26  C   UNL     1      -8.523  14.008  67.314  1.00  0.00    -0.220 A  
HETATM   27  C   UNL     1      -7.769  13.650  68.459  1.00  0.00    -0.129 A  
HETATM   28  C   UNL     1      -7.077  14.621  69.191  1.00  0.00    -0.135 A  
HETATM   29 CL   UNL     1      -6.040  14.183  70.489  1.00  0.00    -0.184 Cl 
HETATM   30  C   UNL     1      -7.226  15.978  68.873  1.00  0.00    -0.168 A  
HETATM   31  C   UNL     1      -7.966  16.290  67.748  1.00  0.00    -0.142 A  
HETATM   32  C   UNL     1      -8.453  15.309  66.906  1.00  0.00    -0.252 A  
HETATM   33  F   UNL     1      -8.799  15.675  65.674  1.00  0.00    -0.306 F  
BRANCH  31  34
HETATM   34  N   UNL     1      -8.238  17.635  67.360  1.00  0.00    -0.210 N  
HETATM   35  H   UNL     1      -7.640  18.151  66.713  1.00  0.00     0.000 HD 
BRANCH  34  36
HETATM   36  S   UNL     1      -9.623  18.313  68.048  1.00  0.00    -0.318 S  
HETATM   37  O   UNL     1     -10.361  17.308  68.777  1.00  0.00    -0.326 OA 
HETATM   38  O   UNL     1      -9.164  19.537  68.672  1.00  0.00    -0.359 OA 
HETATM   39  C   UNL     1     -10.482  18.709  66.548  1.00  0.00    -0.420 C  
ENDBRANCH  34  36
ENDBRANCH  31  34
ENDBRANCH  21  26
ENDBRANCH  16  18
ENDBRANCH  10  12
ENDBRANCH   9  10
ENDBRANCH   7   9
ENDBRANCH   4   7
ENDBRANCH   2   3
TORSDOF 10
ENDMDL
MODEL      157
REMARK 921   NORMALIZED FREE ENERGY PREDICTED BY IDOCK:   -4.63 KCAL/MOL
REMARK 922        TOTAL FREE ENERGY PREDICTED BY IDOCK:   -9.29 KCAL/MOL
REMARK 923 INTER-LIGAND FREE ENERGY PREDICTED BY IDOCK:   -8.64 KCAL/MOL
REMARK 924 INTRA-LIGAND FREE ENERGY PREDICTED BY IDOCK:   -0.64 KCAL/MOL
REMARK 927      BINDING AFFINITY PREDICTED BY RF-SCORE:    0.00 PKD
ROOT
HETATM    1  C   UNL     1      -6.865   5.804  70.448  1.00  0.00    -0.049 C  
HETATM    2  O   UNL     1      -8.220   5.505  70.828  1.00  0.00    -0.112 OA 
ENDROOT
BRANCH   2   3
HETATM    3  C   UNL     1      -8.807   4.544  70.055  1.00  0.00    -0.082 C  
HETATM    4  N   UNL     1      -7.899   4.006  69.168  1.00  0.00    -0.057 N  
HETATM    5  O   UNL     1      -9.985   4.230  70.148  1.00  0.00    -0.220 OA 
HETATM    6  H   UNL     1      -6.938   4.349  69.182  1.00  0.00     0.000 HD 
BRANCH   4   7
HETATM    7  C   UNL     1      -8.261   2.954  68.200  1.00  0.00    -0.072 C  
HETATM    8  C   UNL     1      -8.322   1.595  68.967  1.00  0.00    -0.071 C  
BRANCH   7   9
HETATM    9  C   UNL     1      -9.645   3.120  67.443  1.00  0.00    -0.027 C  
BRANCH   9  10
HETATM   10  N   UNL     1      -9.838   3.990  66.236  1.00  0.00    -0.338 NA 
HETATM   11  H   UNL     1     -10.252   3.572  65.402  1.00  0.00     0.000 HD 
BRANCH  10  12
HETATM   12  C   UNL     1      -9.480   5.351  66.189  1.00  0.00    -0.157 A  
HETATM   13  N   UNL     1      -8.478   5.682  65.373  1.00  0.00    -0.144 NA 
HETATM   14  C   UNL     1      -8.067   6.953  65.435  1.00  0.00    -0.133 A  
HETATM   15  C   UNL     1      -8.655   7.948  66.192  1.00  0.00    -0.164 A  
HETATM   16  C   UNL     1      -9.714   7.599  67.011  1.00  0.00    -0.195 A  
HETATM   17  N   UNL     1     -10.088   6.258  67.049  1.00  0.00    -0.159 NA 
BRANCH  16  18
HETATM   18  C   UNL     1     -10.378   8.731  67.820  1.00  0.00    -0.297 A  
HETATM   19  C   UNL     1     -10.648   8.564  69.192  1.00  0.00    -0.173 A  
HETATM   20  N   UNL     1     -11.128   9.739  69.701  1.00  0.00    -0.235 NA 
HETATM   21  C   UNL     1     -10.757  10.143  67.637  1.00  0.00    -0.285 A  
HETATM   22  N   UNL     1     -11.236  10.684  68.780  1.00  0.00    -0.262 NA 
BRANCH  20  23
HETATM   23  C   UNL     1     -11.465  10.073  71.097  1.00  0.00    -0.354 C  
HETATM   24  C   UNL     1     -11.269   8.894  72.059  1.00  0.00    -0.422 C  
HETATM   25  C   UNL     1     -12.903  10.595  71.244  1.00  0.00    -0.535 C  
ENDBRANCH  20  23
BRANCH  21  26
HETATM   26  C   UNL     1     -10.772  11.050  66.489  1.00  0.00    -0.298 A  
HETATM   27  C   UNL     1     -10.171  10.739  65.244  1.00  0.00    -0.351 A  
HETATM   28  C   UNL     1     -10.060  11.710  64.243  1.00  0.00    -0.287 A  
HETATM   29 CL   UNL     1      -9.472  11.309  62.678  1.00  0.00    -0.339 Cl 
HETATM   30  C   UNL     1     -10.425  13.037  64.508  1.00  0.00    -0.413 A  
HETATM   31  C   UNL     1     -11.011  13.303  65.731  1.00  0.00    -0.270 A  
HETATM   32  C   UNL     1     -11.323  12.293  66.620  1.00  0.00    -0.343 A  
HETATM   33  F   UNL     1     -12.216  12.565  67.569  1.00  0.00    -0.387 F  
BRANCH  31  34
HETATM   34  N   UNL     1     -11.369  14.623  66.137  1.00  0.00    -0.349 N  
HETATM   35  H   UNL     1     -12.272  15.040  65.911  1.00  0.00     0.000 HD 
BRANCH  34  36
HETATM   36  S   UNL     1     -10.187  15.445  67.021  1.00  0.00    -0.267 S  
HETATM   37  O   UNL     1      -9.387  14.509  67.775  1.00  0.00    -0.192 OA 
HETATM   38  O   UNL     1      -9.603  16.376  66.079  1.00  0.00    -0.307 OA 
HETATM   39  C   UNL     1     -11.264  16.326  68.121  1.00  0.00    -0.298 C  
ENDBRANCH  34  36
ENDBRANCH  31  34
ENDBRANCH  21  26
ENDBRANCH  16  18
ENDBRANCH  10  12
ENDBRANCH   9  10
ENDBRANCH   7   9
ENDBRANCH   4   7
ENDBRANCH   2   3
TORSDOF 10
ENDMDL
MODEL      158
REMARK 921   NORMALIZED FREE ENERGY PREDICTED BY IDOCK:   -4.62 KCAL/MOL
REMARK 922        TOTAL FREE ENERGY PREDICTED BY IDOCK:   -9.27 KCAL/MOL
REMARK 923 INTER-LIGAND FREE ENERGY PREDICTED BY IDOCK:   -8.31 KCAL/MOL
REMARK 924 INTRA-LIGAND FREE ENERGY PREDICTED BY IDOCK:   -0.96 KCAL/MOL
REMARK 927      BINDING AFFINITY PREDICTED BY RF-SCORE:    0.00 PKD
ROOT
HETATM    1  C   UNL     1     -12.965  15.878  73.737  1.00  0.00    -0.515 C  
HETATM    2  O   UNL     1     -11.936  15.560  72.783  1.00  0.00    -0.397 OA 
ENDROOT
BRANCH   2   3
HETATM    3  C   UNL     1     -12.321  15.729  71.485  1.00  0.00    -0.455 C  
HETATM    4  N   UNL     1     -11.227  15.912  70.667  1.00  0.00    -0.363 N  
HETATM    5  O   UNL     1     -13.490  15.726  71.122  1.00  0.00    -0.575 OA 
HETATM    6  H   UNL     1     -10.296  15.895  71.085  1.00  0.00     0.000 HD 
BRANCH   4   7
HETATM    7  C   UNL     1     -11.347  16.132  69.214  1.00  0.00    -0.328 C  
HETATM    8  C   UNL     1      -9.971  16.657  68.693  1.00  0.00    -0.261 C  
BRANCH   7   9
HETATM    9  C   UNL     1     -11.727  14.873  68.326  1.00  0.00    -0.315 C  
BRANCH   9  10
HETATM   10  N   UNL     1     -10.894  14.378  67.180  1.00  0.00    -0.288 NA 
HETATM   11  H   UNL     1     -10.451  15.069  66.574  1.00  0.00     0.000 HD 
BRANCH  10  12
HETATM   12  C   UNL     1     -10.691  13.014  66.894  1.00  0.00    -0.262 A  
HETATM   13  N   UNL     1     -10.472  12.693  65.618  1.00  0.00    -0.270 NA 
HETATM   14  C   UNL     1     -10.409  11.385  65.346  1.00  0.00    -0.279 A  
HETATM   15  C   UNL     1     -10.453  10.370  66.282  1.00  0.00    -0.229 A  
HETATM   16  C   UNL     1     -10.647  10.718  67.607  1.00  0.00    -0.231 A  
HETATM   17  N   UNL     1     -10.831  12.066  67.902  1.00  0.00    -0.206 NA 
BRANCH  16  18
HETATM   18  C   UNL     1     -10.657   9.573  68.640  1.00  0.00    -0.239 A  
HETATM   19  C   UNL     1     -11.493   9.639  69.771  1.00  0.00    -0.052 A  
HETATM   20  N   UNL     1     -11.405   8.464  70.464  1.00  0.00    -0.249 NA 
HETATM   21  C   UNL     1     -10.106   8.215  68.787  1.00  0.00    -0.199 A  
HETATM   22  N   UNL     1     -10.552   7.614  69.913  1.00  0.00    -0.232 NA 
BRANCH  20  23
HETATM   23  C   UNL     1     -12.154   8.035  71.659  1.00  0.00    -0.303 C  
HETATM   24  C   UNL     1     -11.340   8.161  72.953  1.00  0.00    -0.301 C  
HETATM   25  C   UNL     1     -12.674   6.593  71.541  1.00  0.00    -0.248 C  
ENDBRANCH  20  23
BRANCH  21  26
HETATM   26  C   UNL     1      -9.155   7.416  68.014  1.00  0.00    -0.130 A  
HETATM   27  C   UNL     1      -7.957   6.889  68.558  1.00  0.00    -0.120 A  
HETATM   28  C   UNL     1      -7.002   6.288  67.731  1.00  0.00    -0.075 A  
HETATM   29 CL   UNL     1      -5.618   5.512  68.393  1.00  0.00    -0.011 Cl 
HETATM   30  C   UNL     1      -7.160   6.315  66.339  1.00  0.00    -0.068 A  
HETATM   31  C   UNL     1      -8.341   6.834  65.844  1.00  0.00    -0.137 A  
HETATM   32  C   UNL     1      -9.372   7.215  66.680  1.00  0.00    -0.166 A  
HETATM   33  F   UNL     1     -10.587   7.325  66.146  1.00  0.00    -0.048 F  
BRANCH  31  34
HETATM   34  N   UNL     1      -8.591   6.970  64.446  1.00  0.00    -0.323 N  
HETATM   35  H   UNL     1      -9.391   6.534  63.987  1.00  0.00     0.000 HD 
BRANCH  34  36
HETATM   36  S   UNL     1      -7.464   7.906  63.606  1.00  0.00    -0.126 S  
HETATM   37  O   UNL     1      -6.235   7.169  63.429  1.00  0.00    -0.043 OA 
HETATM   38  O   UNL     1      -8.201   8.456  62.488  1.00  0.00    -0.171 OA 
HETATM   39  C   UNL     1      -7.227   9.170  64.827  1.00  0.00    -0.097 C  
ENDBRANCH  34  36
ENDBRANCH  31  34
ENDBRANCH  21  26
ENDBRANCH  16  18
ENDBRANCH  10  12
ENDBRANCH   9  10
ENDBRANCH   7   9
ENDBRANCH   4   7
ENDBRANCH   2   3
TORSDOF 10
ENDMDL
MODEL      159
REMARK 921   NORMALIZED FREE ENERGY PREDICTED BY IDOCK:   -4.62 KCAL/MOL
REMARK 922        TOTAL FREE ENERGY PREDICTED BY IDOCK:   -9.27 KCAL/MOL
REMARK 923 INTER-LIGAND FREE ENERGY PREDICTED BY IDOCK:   -7.60 KCAL/MOL
REMARK 924 INTRA-LIGAND FREE ENERGY PREDICTED BY IDOCK:   -1.68 KCAL/MOL
REMARK 927      BINDING AFFINITY PREDICTED BY RF-SCORE:    0.00 PKD
ROOT
HETATM    1  C   UNL     1     -11.481  15.867  64.513  1.00  0.00    -0.283 C  
HETATM    2  O   UNL     1     -11.391  15.317  65.840  1.00  0.00    -0.292 OA 
ENDROOT
BRANCH   2   3
HETATM    3  C   UNL     1     -11.924  14.066  65.952  1.00  0.00    -0.408 C  
HETATM    4  N   UNL     1     -11.242  13.325  66.894  1.00  0.00    -0.296 N  
HETATM    5  O   UNL     1     -12.872  13.674  65.287  1.00  0.00    -0.672 OA 
HETATM    6  H   UNL     1     -10.463  13.759  67.389  1.00  0.00     0.000 HD 
BRANCH   4   7
HETATM    7  C   UNL     1     -11.593  11.929  67.214  1.00  0.00    -0.293 C  
HETATM    8  C   UNL     1     -10.548  10.998  66.520  1.00  0.00    -0.310 C  
BRANCH   7   9
HETATM    9  C   UNL     1     -11.618  11.529  68.750  1.00  0.00    -0.316 C  
BRANCH   9  10
HETATM   10  N   UNL     1     -11.727  10.116  69.242  1.00  0.00    -0.490 NA 
HETATM   11  H   UNL     1     -12.650   9.681  69.259  1.00  0.00     0.000 HD 
BRANCH  10  12
HETATM   12  C   UNL     1     -10.626   9.356  69.684  1.00  0.00    -0.225 A  
HETATM   13  N   UNL     1      -9.506  10.025  69.965  1.00  0.00    -0.198 NA 
HETATM   14  C   UNL     1      -8.437   9.279  70.259  1.00  0.00    -0.203 A  
HETATM   15  C   UNL     1      -8.431   7.904  70.387  1.00  0.00    -0.131 A  
HETATM   16  C   UNL     1      -9.607   7.223  70.125  1.00  0.00    -0.168 A  
HETATM   17  N   UNL     1     -10.705   7.968  69.706  1.00  0.00    -0.245 NA 
BRANCH  16  18
HETATM   18  C   UNL     1      -9.588   5.693  70.309  1.00  0.00    -0.216 A  
HETATM   19  C   UNL     1      -9.947   5.117  71.542  1.00  0.00    -0.187 A  
HETATM   20  N   UNL     1      -9.961   3.756  71.416  1.00  0.00    -0.151 NA 
HETATM   21  C   UNL     1      -9.417   4.484  69.483  1.00  0.00    -0.174 A  
HETATM   22  N   UNL     1      -9.610   3.356  70.203  1.00  0.00    -0.173 NA 
BRANCH  20  23
HETATM   23  C   UNL     1     -10.357   2.738  72.407  1.00  0.00    -0.092 C  
HETATM   24  C   UNL     1     -10.828   3.346  73.735  1.00  0.00    -0.314 C  
HETATM   25  C   UNL     1      -9.231   1.732  72.698  1.00  0.00    -0.106 C  
ENDBRANCH  20  23
BRANCH  21  26
HETATM   26  C   UNL     1      -9.038   4.252  68.089  1.00  0.00    -0.168 A  
HETATM   27  C   UNL     1      -8.273   3.137  67.666  1.00  0.00    -0.086 A  
HETATM   28  C   UNL     1      -7.790   3.059  66.355  1.00  0.00    -0.077 A  
HETATM   29 CL   UNL     1      -6.991   1.648  65.786  1.00  0.00    -0.041 Cl 
HETATM   30  C   UNL     1      -7.948   4.145  65.483  1.00  0.00    -0.097 A  
HETATM   31  C   UNL     1      -8.702   5.214  65.928  1.00  0.00    -0.135 A  
HETATM   32  C   UNL     1      -9.364   5.178  67.140  1.00  0.00    -0.124 A  
HETATM   33  F   UNL     1     -10.359   6.044  67.321  1.00  0.00    -0.153 F  
BRANCH  31  34
HETATM   34  N   UNL     1      -8.881   6.399  65.155  1.00  0.00    -0.365 N  
HETATM   35  H   UNL     1      -9.607   6.485  64.443  1.00  0.00     0.000 HD 
BRANCH  34  36
HETATM   36  S   UNL     1      -7.803   7.651  65.503  1.00  0.00    -0.120 S  
HETATM   37  O   UNL     1      -8.076   8.194  66.814  1.00  0.00    -0.101 OA 
HETATM   38  O   UNL     1      -6.502   7.131  65.139  1.00  0.00    -0.039 OA 
HETATM   39  C   UNL     1      -8.342   8.799  64.262  1.00  0.00    -0.151 C  
ENDBRANCH  34  36
ENDBRANCH  31  34
ENDBRANCH  21  26
ENDBRANCH  16  18
ENDBRANCH  10  12
ENDBRANCH   9  10
ENDBRANCH   7   9
ENDBRANCH   4   7
ENDBRANCH   2   3
TORSDOF 10
ENDMDL
MODEL      160
REMARK 921   NORMALIZED FREE ENERGY PREDICTED BY IDOCK:   -4.59 KCAL/MOL
REMARK 922        TOTAL FREE ENERGY PREDICTED BY IDOCK:   -9.22 KCAL/MOL
REMARK 923 INTER-LIGAND FREE ENERGY PREDICTED BY IDOCK:   -7.27 KCAL/MOL
REMARK 924 INTRA-LIGAND FREE ENERGY PREDICTED BY IDOCK:   -1.96 KCAL/MOL
REMARK 927      BINDING AFFINITY PREDICTED BY RF-SCORE:    0.00 PKD
ROOT
HETATM    1  C   UNL     1      -6.380  17.122  69.255  1.00  0.00    -0.231 C  
HETATM    2  O   UNL     1      -7.719  16.746  68.889  1.00  0.00    -0.232 OA 
ENDROOT
BRANCH   2   3
HETATM    3  C   UNL     1      -7.777  15.655  68.071  1.00  0.00    -0.126 C  
HETATM    4  N   UNL     1      -8.963  14.974  68.245  1.00  0.00    -0.169 N  
HETATM    5  O   UNL     1      -6.879  15.338  67.303  1.00  0.00    -0.214 OA 
HETATM    6  H   UNL     1      -9.640  15.334  68.918  1.00  0.00     0.000 HD 
BRANCH   4   7
HETATM    7  C   UNL     1      -9.291  13.745  67.499  1.00  0.00    -0.222 C  
HETATM    8  C   UNL     1      -8.771  12.526  68.327  1.00  0.00    -0.171 C  
BRANCH   7   9
HETATM    9  C   UNL     1     -10.826  13.476  67.197  1.00  0.00    -0.284 C  
BRANCH   9  10
HETATM   10  N   UNL     1     -11.340  12.951  65.889  1.00  0.00    -0.301 NA 
HETATM   11  H   UNL     1     -12.258  13.263  65.572  1.00  0.00     0.000 HD 
BRANCH  10  12
HETATM   12  C   UNL     1     -10.626  12.050  65.075  1.00  0.00    -0.289 A  
HETATM   13  N   UNL     1     -10.538  12.351  63.778  1.00  0.00    -0.433 NA 
HETATM   14  C   UNL     1      -9.969  11.425  62.999  1.00  0.00    -0.322 A  
HETATM   15  C   UNL     1      -9.392  10.251  63.443  1.00  0.00    -0.340 A  
HETATM   16  C   UNL     1      -9.461   9.965  64.795  1.00  0.00    -0.291 A  
HETATM   17  N   UNL     1     -10.149  10.859  65.611  1.00  0.00    -0.250 NA 
BRANCH  16  18
HETATM   18  C   UNL     1      -8.780   8.668  65.275  1.00  0.00    -0.200 A  
HETATM   19  C   UNL     1      -8.276   7.740  64.344  1.00  0.00    -0.037 A  
HETATM   20  N   UNL     1      -7.624   6.741  65.013  1.00  0.00    -0.093 NA 
HETATM   21  C   UNL     1      -8.317   8.066  66.538  1.00  0.00    -0.121 A  
HETATM   22  N   UNL     1      -7.670   6.898  66.327  1.00  0.00    -0.092 NA 
BRANCH  20  23
HETATM   23  C   UNL     1      -6.866   5.601  64.465  1.00  0.00    -0.050 C  
HETATM   24  C   UNL     1      -7.613   4.267  64.596  1.00  0.00    -0.077 C  
HETATM   25  C   UNL     1      -5.478   5.454  65.108  1.00  0.00    -0.013 C  
ENDBRANCH  20  23
BRANCH  21  26
HETATM   26  C   UNL     1      -8.454   8.433  67.948  1.00  0.00    -0.131 A  
HETATM   27  C   UNL     1      -7.435   9.084  68.685  1.00  0.00    -0.084 A  
HETATM   28  C   UNL     1      -7.550   9.249  70.070  1.00  0.00    -0.099 A  
HETATM   29 CL   UNL     1      -6.396  10.167  70.953  1.00  0.00    -0.048 Cl 
HETATM   30  C   UNL     1      -8.615   8.658  70.761  1.00  0.00    -0.197 A  
HETATM   31  C   UNL     1      -9.592   8.033  70.010  1.00  0.00    -0.171 A  
HETATM   32  C   UNL     1      -9.583   8.076  68.629  1.00  0.00    -0.148 A  
HETATM   33  F   UNL     1     -10.725   7.809  67.999  1.00  0.00    -0.249 F  
BRANCH  31  34
HETATM   34  N   UNL     1     -10.691   7.344  70.604  1.00  0.00    -0.225 N  
HETATM   35  H   UNL     1     -10.906   6.369  70.392  1.00  0.00     0.000 HD 
BRANCH  34  36
HETATM   36  S   UNL     1     -11.612   8.260  71.684  1.00  0.00    -0.305 S  
HETATM   37  O   UNL     1     -11.122   8.083  73.031  1.00  0.00    -0.382 OA 
HETATM   38  O   UNL     1     -11.716   9.565  71.066  1.00  0.00    -0.295 OA 
HETATM   39  C   UNL     1     -13.151   7.399  71.494  1.00  0.00    -0.374 C  
ENDBRANCH  34  36
ENDBRANCH  31  34
ENDBRANCH  21  26
ENDBRANCH  16  18
ENDBRANCH  10  12
ENDBRANCH   9  10
ENDBRANCH   7   9
ENDBRANCH   4   7
ENDBRANCH   2   3
TORSDOF 10
ENDMDL
MODEL      161
REMARK 921   NORMALIZED FREE ENERGY PREDICTED BY IDOCK:   -4.58 KCAL/MOL
REMARK 922        TOTAL FREE ENERGY PREDICTED BY IDOCK:   -9.22 KCAL/MOL
REMARK 923 INTER-LIGAND FREE ENERGY PREDICTED BY IDOCK:   -8.73 KCAL/MOL
REMARK 924 INTRA-LIGAND FREE ENERGY PREDICTED BY IDOCK:   -0.49 KCAL/MOL
REMARK 927      BINDING AFFINITY PREDICTED BY RF-SCORE:    0.00 PKD
ROOT
HETATM    1  C   UNL     1      -6.451  14.508  68.157  1.00  0.00    -0.139 C  
HETATM    2  O   UNL     1      -7.887  14.420  68.182  1.00  0.00    -0.119 OA 
ENDROOT
BRANCH   2   3
HETATM    3  C   UNL     1      -8.503  15.269  67.309  1.00  0.00    -0.193 C  
HETATM    4  N   UNL     1      -9.867  15.269  67.504  1.00  0.00    -0.213 N  
HETATM    5  O   UNL     1      -7.904  15.922  66.466  1.00  0.00    -0.241 OA 
HETATM    6  H   UNL     1     -10.257  14.680  68.241  1.00  0.00     0.000 HD 
BRANCH   4   7
HETATM    7  C   UNL     1     -10.788  16.085  66.691  1.00  0.00    -0.179 C  
HETATM    8  C   UNL     1     -10.512  17.588  67.017  1.00  0.00    -0.293 C  
BRANCH   7   9
HETATM    9  C   UNL     1     -10.687  15.928  65.116  1.00  0.00    -0.429 C  
BRANCH   9  10
HETATM   10  N   UNL     1     -11.228  14.752  64.358  1.00  0.00    -0.640 NA 
HETATM   11  H   UNL     1     -11.841  14.932  63.563  1.00  0.00     0.000 HD 
BRANCH  10  12
HETATM   12  C   UNL     1     -10.937  13.412  64.684  1.00  0.00    -0.377 A  
HETATM   13  N   UNL     1     -10.499  12.634  63.693  1.00  0.00    -0.385 NA 
HETATM   14  C   UNL     1     -10.350  11.338  63.988  1.00  0.00    -0.371 A  
HETATM   15  C   UNL     1     -10.518  10.778  65.240  1.00  0.00    -0.282 A  
HETATM   16  C   UNL     1     -10.941  11.603  66.267  1.00  0.00    -0.289 A  
HETATM   17  N   UNL     1     -11.213  12.933  65.959  1.00  0.00    -0.285 NA 
BRANCH  16  18
HETATM   18  C   UNL     1     -11.087  10.967  67.664  1.00  0.00    -0.376 A  
HETATM   19  C   UNL     1     -11.989  11.503  68.602  1.00  0.00    -0.246 A  
HETATM   20  N   UNL     1     -12.017  10.700  69.709  1.00  0.00    -0.299 NA 
HETATM   21  C   UNL     1     -10.629   9.765  68.383  1.00  0.00    -0.226 A  
HETATM   22  N   UNL     1     -11.183   9.676  69.613  1.00  0.00    -0.189 NA 
BRANCH  20  23
HETATM   23  C   UNL     1     -12.867  10.806  70.908  1.00  0.00    -0.351 C  
HETATM   24  C   UNL     1     -12.852  12.209  71.531  1.00  0.00    -0.394 C  
HETATM   25  C   UNL     1     -12.488   9.783  71.990  1.00  0.00    -0.390 C  
ENDBRANCH  20  23
BRANCH  21  26
HETATM   26  C   UNL     1      -9.679   8.696  68.071  1.00  0.00    -0.184 A  
HETATM   27  C   UNL     1      -8.452   8.917  67.399  1.00  0.00    -0.115 A  
HETATM   28  C   UNL     1      -7.669   7.839  66.969  1.00  0.00    -0.104 A  
HETATM   29 CL   UNL     1      -6.111   8.090  66.288  1.00  0.00    -0.044 Cl 
HETATM   30  C   UNL     1      -8.153   6.529  67.085  1.00  0.00    -0.113 A  
HETATM   31  C   UNL     1      -9.352   6.351  67.749  1.00  0.00    -0.117 A  
HETATM   32  C   UNL     1     -10.001   7.402  68.368  1.00  0.00    -0.164 A  
HETATM   33  F   UNL     1     -10.908   7.102  69.295  1.00  0.00    -0.220 F  
BRANCH  31  34
HETATM   34  N   UNL     1      -9.974   5.073  67.876  1.00  0.00    -0.153 N  
HETATM   35  H   UNL     1     -10.841   4.836  67.395  1.00  0.00     0.000 HD 
BRANCH  34  36
HETATM   36  S   UNL     1      -9.170   3.983  68.884  1.00  0.00    -0.160 S  
HETATM   37  O   UNL     1      -9.459   2.626  68.482  1.00  0.00    -0.195 OA 
HETATM   38  O   UNL     1      -7.817   4.489  68.972  1.00  0.00    -0.069 OA 
HETATM   39  C   UNL     1     -10.030   4.352  70.391  1.00  0.00    -0.183 C  
ENDBRANCH  34  36
ENDBRANCH  31  34
ENDBRANCH  21  26
ENDBRANCH  16  18
ENDBRANCH  10  12
ENDBRANCH   9  10
ENDBRANCH   7   9
ENDBRANCH   4   7
ENDBRANCH   2   3
TORSDOF 10
ENDMDL
MODEL      162
REMARK 921   NORMALIZED FREE ENERGY PREDICTED BY IDOCK:   -4.54 KCAL/MOL
REMARK 922        TOTAL FREE ENERGY PREDICTED BY IDOCK:   -9.15 KCAL/MOL
REMARK 923 INTER-LIGAND FREE ENERGY PREDICTED BY IDOCK:   -7.56 KCAL/MOL
REMARK 924 INTRA-LIGAND FREE ENERGY PREDICTED BY IDOCK:   -1.59 KCAL/MOL
REMARK 927      BINDING AFFINITY PREDICTED BY RF-SCORE:    0.00 PKD
ROOT
HETATM    1  C   UNL     1      -5.889   4.580  66.968  1.00  0.00    -0.023 C  
HETATM    2  O   UNL     1      -6.447   5.839  66.552  1.00  0.00    -0.044 OA 
ENDROOT
BRANCH   2   3
HETATM    3  C   UNL     1      -6.754   5.890  65.223  1.00  0.00    -0.044 C  
HETATM    4  N   UNL     1      -7.633   4.885  64.883  1.00  0.00    -0.076 N  
HETATM    5  O   UNL     1      -6.287   6.719  64.454  1.00  0.00    -0.034 OA 
HETATM    6  H   UNL     1      -7.956   4.249  65.613  1.00  0.00     0.000 HD 
BRANCH   4   7
HETATM    7  C   UNL     1      -8.128   4.692  63.508  1.00  0.00    -0.097 C  
HETATM    8  C   UNL     1      -7.215   3.630  62.814  1.00  0.00    -0.048 C  
BRANCH   7   9
HETATM    9  C   UNL     1      -9.624   4.189  63.346  1.00  0.00    -0.130 C  
BRANCH   9  10
HETATM   10  N   UNL     1     -10.605   4.109  64.480  1.00  0.00    -0.510 NA 
HETATM   11  H   UNL     1     -11.566   3.840  64.267  1.00  0.00     0.000 HD 
BRANCH  10  12
HETATM   12  C   UNL     1     -10.273   4.384  65.821  1.00  0.00    -0.234 A  
HETATM   13  N   UNL     1      -9.689   3.403  66.510  1.00  0.00    -0.050 NA 
HETATM   14  C   UNL     1      -9.497   3.636  67.813  1.00  0.00    -0.179 A  
HETATM   15  C   UNL     1      -9.762   4.827  68.460  1.00  0.00    -0.215 A  
HETATM   16  C   UNL     1     -10.337   5.849  67.726  1.00  0.00    -0.210 A  
HETATM   17  N   UNL     1     -10.652   5.592  66.395  1.00  0.00    -0.232 NA 
BRANCH  16  18
HETATM   18  C   UNL     1     -10.592   7.182  68.458  1.00  0.00    -0.219 A  
HETATM   19  C   UNL     1     -10.823   7.201  69.847  1.00  0.00    -0.254 A  
HETATM   20  N   UNL     1     -10.905   8.498  70.271  1.00  0.00    -0.238 NA 
HETATM   21  C   UNL     1     -10.545   8.626  68.170  1.00  0.00    -0.133 A  
HETATM   22  N   UNL     1     -10.780   9.365  69.278  1.00  0.00    -0.227 NA 
BRANCH  20  23
HETATM   23  C   UNL     1     -11.053   9.016  71.644  1.00  0.00    -0.363 C  
HETATM   24  C   UNL     1     -11.467   7.935  72.650  1.00  0.00    -0.454 C  
HETATM   25  C   UNL     1     -12.054  10.179  71.729  1.00  0.00    -0.259 C  
ENDBRANCH  20  23
BRANCH  21  26
HETATM   26  C   UNL     1     -10.354   9.413  66.951  1.00  0.00    -0.308 A  
HETATM   27  C   UNL     1      -9.525   8.998  65.880  1.00  0.00    -0.317 A  
HETATM   28  C   UNL     1      -9.238   9.867  64.821  1.00  0.00    -0.254 A  
HETATM   29 CL   UNL     1      -8.360   9.331  63.445  1.00  0.00    -0.181 Cl 
HETATM   30  C   UNL     1      -9.664  11.201  64.873  1.00  0.00    -0.297 A  
HETATM   31  C   UNL     1     -10.474  11.570  65.931  1.00  0.00    -0.255 A  
HETATM   32  C   UNL     1     -10.935  10.644  66.846  1.00  0.00    -0.161 A  
HETATM   33  F   UNL     1     -11.995  10.982  67.578  1.00  0.00    -0.256 F  
BRANCH  31  34
HETATM   34  N   UNL     1     -10.918  12.912  66.123  1.00  0.00    -0.277 N  
HETATM   35  H   UNL     1     -11.751  13.284  65.667  1.00  0.00     0.000 HD 
BRANCH  34  36
HETATM   36  S   UNL     1      -9.964  13.840  67.163  1.00  0.00    -0.247 S  
HETATM   37  O   UNL     1      -9.091  12.986  67.934  1.00  0.00    -0.190 OA 
HETATM   38  O   UNL     1      -9.459  14.917  66.338  1.00  0.00    -0.266 OA 
HETATM   39  C   UNL     1     -11.259  14.460  68.205  1.00  0.00    -0.281 C  
ENDBRANCH  34  36
ENDBRANCH  31  34
ENDBRANCH  21  26
ENDBRANCH  16  18
ENDBRANCH  10  12
ENDBRANCH   9  10
ENDBRANCH   7   9
ENDBRANCH   4   7
ENDBRANCH   2   3
TORSDOF 10
ENDMDL
MODEL      163
REMARK 921   NORMALIZED FREE ENERGY PREDICTED BY IDOCK:   -4.53 KCAL/MOL
REMARK 922        TOTAL FREE ENERGY PREDICTED BY IDOCK:   -9.13 KCAL/MOL
REMARK 923 INTER-LIGAND FREE ENERGY PREDICTED BY IDOCK:   -7.63 KCAL/MOL
REMARK 924 INTRA-LIGAND FREE ENERGY PREDICTED BY IDOCK:   -1.50 KCAL/MOL
REMARK 927      BINDING AFFINITY PREDICTED BY RF-SCORE:    0.00 PKD
ROOT
HETATM    1  C   UNL     1     -10.816   6.584  66.960  1.00  0.00    -0.395 C  
HETATM    2  O   UNL     1      -9.554   6.534  67.648  1.00  0.00    -0.123 OA 
ENDROOT
BRANCH   2   3
HETATM    3  C   UNL     1      -8.474   6.634  66.820  1.00  0.00    -0.117 C  
HETATM    4  N   UNL     1      -7.347   7.000  67.524  1.00  0.00    -0.090 N  
HETATM    5  O   UNL     1      -8.526   6.434  65.614  1.00  0.00    -0.143 OA 
HETATM    6  H   UNL     1      -7.423   7.140  68.532  1.00  0.00     0.000 HD 
BRANCH   4   7
HETATM    7  C   UNL     1      -6.034   7.195  66.881  1.00  0.00    -0.034 C  
HETATM    8  C   UNL     1      -5.450   5.786  66.542  1.00  0.00    -0.013 C  
BRANCH   7   9
HETATM    9  C   UNL     1      -6.011   8.039  65.538  1.00  0.00    -0.038 C  
BRANCH   9  10
HETATM   10  N   UNL     1      -5.884   9.534  65.493  1.00  0.00    -0.057 NA 
HETATM   11  H   UNL     1      -5.287   9.945  64.776  1.00  0.00     0.000 HD 
BRANCH  10  12
HETATM   12  C   UNL     1      -6.543  10.401  66.387  1.00  0.00    -0.099 A  
HETATM   13  N   UNL     1      -5.903  10.695  67.520  1.00  0.00    -0.044 NA 
HETATM   14  C   UNL     1      -6.594  11.414  68.412  1.00  0.00    -0.063 A  
HETATM   15  C   UNL     1      -7.853  11.945  68.209  1.00  0.00    -0.141 A  
HETATM   16  C   UNL     1      -8.492  11.660  67.016  1.00  0.00    -0.168 A  
HETATM   17  N   UNL     1      -7.841  10.818  66.118  1.00  0.00    -0.155 NA 
BRANCH  16  18
HETATM   18  C   UNL     1      -9.881  12.291  66.794  1.00  0.00    -0.218 A  
HETATM   19  C   UNL     1     -10.144  13.053  65.640  1.00  0.00    -0.268 A  
HETATM   20  N   UNL     1     -11.465  13.402  65.623  1.00  0.00    -0.311 NA 
HETATM   21  C   UNL     1     -11.221  12.253  67.407  1.00  0.00    -0.301 A  
HETATM   22  N   UNL     1     -12.118  12.966  66.689  1.00  0.00    -0.458 NA 
BRANCH  20  23
HETATM   23  C   UNL     1     -12.219  14.121  64.580  1.00  0.00    -0.445 C  
HETATM   24  C   UNL     1     -12.381  13.308  63.289  1.00  0.00    -0.317 C  
HETATM   25  C   UNL     1     -11.590  15.479  64.231  1.00  0.00    -0.198 C  
ENDBRANCH  20  23
BRANCH  21  26
HETATM   26  C   UNL     1     -11.762  11.662  68.631  1.00  0.00    -0.386 A  
HETATM   27  C   UNL     1     -12.334  12.426  69.677  1.00  0.00    -0.040 A  
HETATM   28  C   UNL     1     -12.670  11.828  70.897  1.00  0.00    -0.235 A  
HETATM   29 CL   UNL     1     -13.502  12.706  72.117  1.00  0.00    -0.628 Cl 
HETATM   30  C   UNL     1     -12.325  10.492  71.143  1.00  0.00    -0.510 A  
HETATM   31  C   UNL     1     -11.770   9.777  70.098  1.00  0.00    -0.130 A  
HETATM   32  C   UNL     1     -11.655  10.315  68.832  1.00  0.00    -0.065 A  
HETATM   33  F   UNL     1     -11.489   9.468  67.818  1.00  0.00    -0.154 F  
BRANCH  31  34
HETATM   34  N   UNL     1     -11.323   8.430  70.246  1.00  0.00    -0.427 N  
HETATM   35  H   UNL     1     -11.750   7.652  69.742  1.00  0.00     0.000 HD 
BRANCH  34  36
HETATM   36  S   UNL     1     -10.033   8.217  71.315  1.00  0.00    -0.204 S  
HETATM   37  O   UNL     1     -10.392   8.695  72.630  1.00  0.00    -0.253 OA 
HETATM   38  O   UNL     1      -9.581   6.862  71.085  1.00  0.00    -0.167 OA 
HETATM   39  C   UNL     1      -8.893   9.349  70.563  1.00  0.00    -0.239 C  
ENDBRANCH  34  36
ENDBRANCH  31  34
ENDBRANCH  21  26
ENDBRANCH  16  18
ENDBRANCH  10  12
ENDBRANCH   9  10
ENDBRANCH   7   9
ENDBRANCH   4   7
ENDBRANCH   2   3
TORSDOF 10
ENDMDL
MODEL      164
REMARK 921   NORMALIZED FREE ENERGY PREDICTED BY IDOCK:   -4.51 KCAL/MOL
REMARK 922        TOTAL FREE ENERGY PREDICTED BY IDOCK:   -9.10 KCAL/MOL
REMARK 923 INTER-LIGAND FREE ENERGY PREDICTED BY IDOCK:   -7.52 KCAL/MOL
REMARK 924 INTRA-LIGAND FREE ENERGY PREDICTED BY IDOCK:   -1.58 KCAL/MOL
REMARK 927      BINDING AFFINITY PREDICTED BY RF-SCORE:    0.00 PKD
ROOT
HETATM    1  C   UNL     1      -9.722   1.907  71.361  1.00  0.00    -0.143 C  
HETATM    2  O   UNL     1      -8.592   2.289  70.556  1.00  0.00    -0.049 OA 
ENDROOT
BRANCH   2   3
HETATM    3  C   UNL     1      -8.909   3.129  69.529  1.00  0.00    -0.091 C  
HETATM    4  N   UNL     1      -7.978   3.041  68.517  1.00  0.00    -0.057 N  
HETATM    5  O   UNL     1      -9.889   3.862  69.534  1.00  0.00    -0.177 OA 
HETATM    6  H   UNL     1      -7.198   2.392  68.624  1.00  0.00     0.000 HD 
BRANCH   4   7
HETATM    7  C   UNL     1      -8.062   3.848  67.285  1.00  0.00    -0.091 C  
HETATM    8  C   UNL     1      -9.320   3.378  66.488  1.00  0.00    -0.173 C  
BRANCH   7   9
HETATM    9  C   UNL     1      -8.189   5.420  67.463  1.00  0.00    -0.100 C  
BRANCH   9  10
HETATM   10  N   UNL     1      -7.098   6.288  68.017  1.00  0.00    -0.080 NA 
HETATM   11  H   UNL     1      -6.248   5.836  68.355  1.00  0.00     0.000 HD 
BRANCH  10  12
HETATM   12  C   UNL     1      -7.182   7.692  68.097  1.00  0.00    -0.093 A  
HETATM   13  N   UNL     1      -6.105   8.334  68.553  1.00  0.00    -0.044 NA 
HETATM   14  C   UNL     1      -6.244   9.650  68.743  1.00  0.00    -0.042 A  
HETATM   15  C   UNL     1      -7.364  10.391  68.416  1.00  0.00    -0.085 A  
HETATM   16  C   UNL     1      -8.463   9.718  67.913  1.00  0.00    -0.125 A  
HETATM   17  N   UNL     1      -8.382   8.332  67.813  1.00  0.00    -0.127 NA 
BRANCH  16  18
HETATM   18  C   UNL     1      -9.688  10.569  67.521  1.00  0.00    -0.190 A  
HETATM   19  C   UNL     1      -9.784  11.133  66.235  1.00  0.00    -0.211 A  
HETATM   20  N   UNL     1     -11.002  11.737  66.099  1.00  0.00    -0.299 NA 
HETATM   21  C   UNL     1     -11.006  10.926  68.075  1.00  0.00    -0.265 A  
HETATM   22  N   UNL     1     -11.733  11.657  67.201  1.00  0.00    -0.598 NA 
BRANCH  20  23
HETATM   23  C   UNL     1     -11.587  12.383  64.910  1.00  0.00    -0.343 C  
HETATM   24  C   UNL     1     -10.620  12.438  63.721  1.00  0.00    -0.486 C  
HETATM   25  C   UNL     1     -12.090  13.806  65.202  1.00  0.00    -0.416 C  
ENDBRANCH  20  23
BRANCH  21  26
HETATM   26  C   UNL     1     -11.660  10.703  69.365  1.00  0.00    -0.352 A  
HETATM   27  C   UNL     1     -12.278  11.736  70.112  1.00  0.00    -0.342 A  
HETATM   28  C   UNL     1     -12.728  11.503  71.416  1.00  0.00    -0.364 A  
HETATM   29 CL   UNL     1     -13.613  12.698  72.277  1.00  0.00    -0.611 Cl 
HETATM   30  C   UNL     1     -12.455  10.280  72.045  1.00  0.00    -0.209 A  
HETATM   31  C   UNL     1     -11.853   9.295  71.285  1.00  0.00    -0.343 A  
HETATM   32  C   UNL     1     -11.622   9.463  69.934  1.00  0.00     0.064 A  
HETATM   33  F   UNL     1     -11.415   8.366  69.207  1.00  0.00     0.077 F  
BRANCH  31  34
HETATM   34  N   UNL     1     -11.472   8.034  71.831  1.00  0.00    -0.274 N  
HETATM   35  H   UNL     1     -12.152   7.315  72.078  1.00  0.00     0.000 HD 
BRANCH  34  36
HETATM   36  S   UNL     1      -9.810   7.816  72.038  1.00  0.00    -0.185 S  
HETATM   37  O   UNL     1      -9.295   6.918  71.032  1.00  0.00    -0.156 OA 
HETATM   38  O   UNL     1      -9.283   9.152  72.222  1.00  0.00    -0.260 OA 
HETATM   39  C   UNL     1      -9.859   6.987  73.606  1.00  0.00    -0.280 C  
ENDBRANCH  34  36
ENDBRANCH  31  34
ENDBRANCH  21  26
ENDBRANCH  16  18
ENDBRANCH  10  12
ENDBRANCH   9  10
ENDBRANCH   7   9
ENDBRANCH   4   7
ENDBRANCH   2   3
TORSDOF 10
ENDMDL
MODEL      165
REMARK 921   NORMALIZED FREE ENERGY PREDICTED BY IDOCK:   -4.46 KCAL/MOL
REMARK 922        TOTAL FREE ENERGY PREDICTED BY IDOCK:   -9.03 KCAL/MOL
REMARK 923 INTER-LIGAND FREE ENERGY PREDICTED BY IDOCK:   -7.92 KCAL/MOL
REMARK 924 INTRA-LIGAND FREE ENERGY PREDICTED BY IDOCK:   -1.10 KCAL/MOL
REMARK 927      BINDING AFFINITY PREDICTED BY RF-SCORE:    0.00 PKD
ROOT
HETATM    1  C   UNL     1     -10.424  19.376  67.096  1.00  0.00    -0.466 C  
HETATM    2  O   UNL     1      -9.759  18.182  66.648  1.00  0.00    -0.305 OA 
ENDROOT
BRANCH   2   3
HETATM    3  C   UNL     1     -10.547  17.368  65.887  1.00  0.00    -0.200 C  
HETATM    4  N   UNL     1     -10.706  16.137  66.488  1.00  0.00    -0.270 N  
HETATM    5  O   UNL     1     -11.026  17.703  64.813  1.00  0.00    -0.917 OA 
HETATM    6  H   UNL     1     -10.256  15.970  67.389  1.00  0.00     0.000 HD 
BRANCH   4   7
HETATM    7  C   UNL     1     -11.500  15.052  65.882  1.00  0.00    -0.224 C  
HETATM    8  C   UNL     1     -10.659  14.432  64.720  1.00  0.00    -0.417 C  
BRANCH   7   9
HETATM    9  C   UNL     1     -11.925  13.856  66.834  1.00  0.00    -0.433 C  
BRANCH   9  10
HETATM   10  N   UNL     1     -12.118  12.444  66.363  1.00  0.00    -0.614 NA 
HETATM   11  H   UNL     1     -13.053  12.157  66.074  1.00  0.00     0.000 HD 
BRANCH  10  12
HETATM   12  C   UNL     1     -11.081  11.493  66.299  1.00  0.00    -0.263 A  
HETATM   13  N   UNL     1     -10.870  10.912  65.117  1.00  0.00    -0.135 NA 
HETATM   14  C   UNL     1      -9.970   9.923  65.103  1.00  0.00    -0.208 A  
HETATM   15  C   UNL     1      -9.190   9.535  66.176  1.00  0.00    -0.226 A  
HETATM   16  C   UNL     1      -9.395  10.169  67.388  1.00  0.00    -0.148 A  
HETATM   17  N   UNL     1     -10.406  11.124  67.457  1.00  0.00    -0.189 NA 
BRANCH  16  18
HETATM   18  C   UNL     1      -8.490   9.747  68.563  1.00  0.00    -0.115 A  
HETATM   19  C   UNL     1      -7.269  10.408  68.797  1.00  0.00    -0.085 A  
HETATM   20  N   UNL     1      -6.714   9.931  69.952  1.00  0.00    -0.074 NA 
HETATM   21  C   UNL     1      -8.547   8.856  69.735  1.00  0.00    -0.134 A  
HETATM   22  N   UNL     1      -7.444   8.976  70.507  1.00  0.00    -0.084 NA 
BRANCH  20  23
HETATM   23  C   UNL     1      -5.490  10.375  70.642  1.00  0.00    -0.081 C  
HETATM   24  C   UNL     1      -5.348   9.783  72.051  1.00  0.00    -0.034 C  
HETATM   25  C   UNL     1      -5.392  11.906  70.740  1.00  0.00    -0.149 C  
ENDBRANCH  20  23
BRANCH  21  26
HETATM   26  C   UNL     1      -9.502   7.851  70.201  1.00  0.00    -0.160 A  
HETATM   27  C   UNL     1     -10.861   8.139  70.479  1.00  0.00    -0.247 A  
HETATM   28  C   UNL     1     -11.683   7.186  71.091  1.00  0.00    -0.313 A  
HETATM   29 CL   UNL     1     -13.366   7.465  71.296  1.00  0.00    -0.384 Cl 
HETATM   30  C   UNL     1     -11.137   5.980  71.552  1.00  0.00    -0.336 A  
HETATM   31  C   UNL     1      -9.809   5.732  71.261  1.00  0.00    -0.179 A  
HETATM   32  C   UNL     1      -9.071   6.581  70.459  1.00  0.00    -0.152 A  
HETATM   33  F   UNL     1      -7.960   6.095  69.910  1.00  0.00    -0.102 F  
BRANCH  31  34
HETATM   34  N   UNL     1      -9.127   4.569  71.730  1.00  0.00    -0.124 N  
HETATM   35  H   UNL     1      -8.611   4.554  72.610  1.00  0.00     0.000 HD 
BRANCH  34  36
HETATM   36  S   UNL     1      -9.236   3.219  70.722  1.00  0.00    -0.151 S  
HETATM   37  O   UNL     1     -10.157   3.478  69.640  1.00  0.00     0.187 OA 
HETATM   38  O   UNL     1      -7.865   2.821  70.488  1.00  0.00    -0.043 OA 
HETATM   39  C   UNL     1      -9.980   2.100  71.880  1.00  0.00    -0.149 C  
ENDBRANCH  34  36
ENDBRANCH  31  34
ENDBRANCH  21  26
ENDBRANCH  16  18
ENDBRANCH  10  12
ENDBRANCH   9  10
ENDBRANCH   7   9
ENDBRANCH   4   7
ENDBRANCH   2   3
TORSDOF 10
ENDMDL
MODEL      166
REMARK 921   NORMALIZED FREE ENERGY PREDICTED BY IDOCK:   -4.42 KCAL/MOL
REMARK 922        TOTAL FREE ENERGY PREDICTED BY IDOCK:   -8.97 KCAL/MOL
REMARK 923 INTER-LIGAND FREE ENERGY PREDICTED BY IDOCK:   -7.43 KCAL/MOL
REMARK 924 INTRA-LIGAND FREE ENERGY PREDICTED BY IDOCK:   -1.53 KCAL/MOL
REMARK 927      BINDING AFFINITY PREDICTED BY RF-SCORE:    0.00 PKD
ROOT
HETATM    1  C   UNL     1     -12.280  13.801  66.941  1.00  0.00    -0.366 C  
HETATM    2  O   UNL     1     -11.866  14.890  67.784  1.00  0.00    -0.345 OA 
ENDROOT
BRANCH   2   3
HETATM    3  C   UNL     1     -10.584  15.301  67.558  1.00  0.00    -0.273 C  
HETATM    4  N   UNL     1      -9.681  14.345  67.970  1.00  0.00    -0.215 N  
HETATM    5  O   UNL     1     -10.300  16.384  67.064  1.00  0.00    -0.286 OA 
HETATM    6  H   UNL     1     -10.037  13.476  68.370  1.00  0.00     0.000 HD 
BRANCH   4   7
HETATM    7  C   UNL     1      -8.222  14.527  67.858  1.00  0.00    -0.153 C  
HETATM    8  C   UNL     1      -7.718  15.195  69.178  1.00  0.00    -0.195 C  
BRANCH   7   9
HETATM    9  C   UNL     1      -7.350  13.219  67.641  1.00  0.00    -0.161 C  
BRANCH   9  10
HETATM   10  N   UNL     1      -7.725  12.113  66.698  1.00  0.00    -0.381 NA 
HETATM   11  H   UNL     1      -8.411  12.313  65.970  1.00  0.00     0.000 HD 
BRANCH  10  12
HETATM   12  C   UNL     1      -7.183  10.815  66.763  1.00  0.00    -0.128 A  
HETATM   13  N   UNL     1      -5.889  10.717  67.071  1.00  0.00    -0.053 NA 
HETATM   14  C   UNL     1      -5.362   9.490  67.004  1.00  0.00    -0.039 A  
HETATM   15  C   UNL     1      -6.065   8.330  66.741  1.00  0.00    -0.054 A  
HETATM   16  C   UNL     1      -7.414   8.441  66.455  1.00  0.00    -0.083 A  
HETATM   17  N   UNL     1      -7.962   9.720  66.407  1.00  0.00    -0.108 NA 
BRANCH  16  18
HETATM   18  C   UNL     1      -8.187   7.132  66.200  1.00  0.00    -0.128 A  
HETATM   19  C   UNL     1      -8.101   6.483  64.954  1.00  0.00    -0.119 A  
HETATM   20  N   UNL     1      -8.778   5.296  65.017  1.00  0.00    -0.150 NA 
HETATM   21  C   UNL     1      -8.985   6.155  66.962  1.00  0.00    -0.114 A  
HETATM   22  N   UNL     1      -9.345   5.100  66.198  1.00  0.00    -0.150 NA 
BRANCH  20  23
HETATM   23  C   UNL     1      -8.894   4.241  63.995  1.00  0.00    -0.138 C  
HETATM   24  C   UNL     1      -8.701   4.767  62.566  1.00  0.00    -0.122 C  
HETATM   25  C   UNL     1     -10.236   3.497  64.068  1.00  0.00    -0.223 C  
ENDBRANCH  20  23
BRANCH  21  26
HETATM   26  C   UNL     1      -9.502   6.113  68.330  1.00  0.00    -0.119 A  
HETATM   27  C   UNL     1      -9.427   4.963  69.155  1.00  0.00    -0.205 A  
HETATM   28  C   UNL     1     -10.095   4.922  70.384  1.00  0.00    -0.245 A  
HETATM   29 CL   UNL     1      -9.892   3.598  71.461  1.00  0.00    -0.245 Cl 
HETATM   30  C   UNL     1     -10.950   5.969  70.755  1.00  0.00    -0.364 A  
HETATM   31  C   UNL     1     -10.995   7.075  69.927  1.00  0.00    -0.263 A  
HETATM   32  C   UNL     1     -10.158   7.198  68.835  1.00  0.00    -0.177 A  
HETATM   33  F   UNL     1      -9.979   8.419  68.334  1.00  0.00    -0.170 F  
BRANCH  31  34
HETATM   34  N   UNL     1     -11.872   8.175  70.167  1.00  0.00    -0.401 N  
HETATM   35  H   UNL     1     -12.736   8.311  69.643  1.00  0.00     0.000 HD 
BRANCH  34  36
HETATM   36  S   UNL     1     -11.373   9.236  71.383  1.00  0.00    -0.389 S  
HETATM   37  O   UNL     1     -10.000   8.973  71.743  1.00  0.00    -0.325 OA 
HETATM   38  O   UNL     1     -11.818  10.540  70.941  1.00  0.00    -0.329 OA 
HETATM   39  C   UNL     1     -12.446   8.660  72.674  1.00  0.00    -0.214 C  
ENDBRANCH  34  36
ENDBRANCH  31  34
ENDBRANCH  21  26
ENDBRANCH  16  18
ENDBRANCH  10  12
ENDBRANCH   9  10
ENDBRANCH   7   9
ENDBRANCH   4   7
ENDBRANCH   2   3
TORSDOF 10
ENDMDL
MODEL      167
REMARK 921   NORMALIZED FREE ENERGY PREDICTED BY IDOCK:   -4.39 KCAL/MOL
REMARK 922        TOTAL FREE ENERGY PREDICTED BY IDOCK:   -8.91 KCAL/MOL
REMARK 923 INTER-LIGAND FREE ENERGY PREDICTED BY IDOCK:   -7.73 KCAL/MOL
REMARK 924 INTRA-LIGAND FREE ENERGY PREDICTED BY IDOCK:   -1.19 KCAL/MOL
REMARK 927      BINDING AFFINITY PREDICTED BY RF-SCORE:    0.00 PKD
ROOT
HETATM    1  C   UNL     1     -13.039  15.844  73.783  1.00  0.00    -0.412 C  
HETATM    2  O   UNL     1     -12.052  15.510  72.791  1.00  0.00    -0.371 OA 
ENDROOT
BRANCH   2   3
HETATM    3  C   UNL     1     -12.510  15.604  71.509  1.00  0.00    -0.437 C  
HETATM    4  N   UNL     1     -11.474  15.855  70.635  1.00  0.00    -0.372 N  
HETATM    5  O   UNL     1     -13.688  15.490  71.203  1.00  0.00    -0.539 OA 
HETATM    6  H   UNL     1     -10.527  15.931  71.007  1.00  0.00     0.000 HD 
BRANCH   4   7
HETATM    7  C   UNL     1     -11.679  16.018  69.184  1.00  0.00    -0.307 C  
HETATM    8  C   UNL     1     -10.379  16.643  68.582  1.00  0.00    -0.304 C  
BRANCH   7   9
HETATM    9  C   UNL     1     -11.988  14.704  68.350  1.00  0.00    -0.254 C  
BRANCH   9  10
HETATM   10  N   UNL     1     -11.138  14.219  67.212  1.00  0.00    -0.297 NA 
HETATM   11  H   UNL     1     -10.751  14.912  66.571  1.00  0.00     0.000 HD 
BRANCH  10  12
HETATM   12  C   UNL     1     -10.846  12.861  66.979  1.00  0.00    -0.260 A  
HETATM   13  N   UNL     1     -10.541  12.517  65.727  1.00  0.00    -0.264 NA 
HETATM   14  C   UNL     1     -10.391  11.208  65.499  1.00  0.00    -0.268 A  
HETATM   15  C   UNL     1     -10.431  10.218  66.462  1.00  0.00    -0.241 A  
HETATM   16  C   UNL     1     -10.715  10.592  67.764  1.00  0.00    -0.272 A  
HETATM   17  N   UNL     1     -10.988  11.935  68.007  1.00  0.00    -0.211 NA 
BRANCH  16  18
HETATM   18  C   UNL     1     -10.719   9.477  68.829  1.00  0.00    -0.218 A  
HETATM   19  C   UNL     1     -11.587   9.550  69.936  1.00  0.00     0.015 A  
HETATM   20  N   UNL     1     -11.482   8.398  70.665  1.00  0.00    -0.253 NA 
HETATM   21  C   UNL     1     -10.131   8.141  69.031  1.00  0.00    -0.205 A  
HETATM   22  N   UNL     1     -10.589   7.560  70.162  1.00  0.00    -0.230 NA 
BRANCH  20  23
HETATM   23  C   UNL     1     -12.250   7.982  71.852  1.00  0.00    -0.319 C  
HETATM   24  C   UNL     1     -11.369   7.378  72.954  1.00  0.00    -0.322 C  
HETATM   25  C   UNL     1     -13.365   6.981  71.510  1.00  0.00    -0.370 C  
ENDBRANCH  20  23
BRANCH  21  26
HETATM   26  C   UNL     1      -9.136   7.350  68.307  1.00  0.00    -0.128 A  
HETATM   27  C   UNL     1      -9.411   6.678  67.091  1.00  0.00    -0.158 A  
HETATM   28  C   UNL     1      -8.480   5.793  66.537  1.00  0.00    -0.116 A  
HETATM   29 CL   UNL     1      -8.735   5.088  64.990  1.00  0.00    -0.149 Cl 
HETATM   30  C   UNL     1      -7.317   5.463  67.246  1.00  0.00    -0.083 A  
HETATM   31  C   UNL     1      -7.079   6.140  68.427  1.00  0.00    -0.082 A  
HETATM   32  C   UNL     1      -7.893   7.174  68.846  1.00  0.00    -0.115 A  
HETATM   33  F   UNL     1      -7.399   8.017  69.751  1.00  0.00    -0.066 F  
BRANCH  31  34
HETATM   34  N   UNL     1      -5.962   5.848  69.266  1.00  0.00    -0.026 N  
HETATM   35  H   UNL     1      -5.164   6.478  69.355  1.00  0.00     0.000 HD 
BRANCH  34  36
HETATM   36  S   UNL     1      -6.057   4.383  70.100  1.00  0.00    -0.019 S  
HETATM   37  O   UNL     1      -5.987   3.277  69.175  1.00  0.00    -0.022 OA 
HETATM   38  O   UNL     1      -5.131   4.525  71.203  1.00  0.00     0.000 OA 
HETATM   39  C   UNL     1      -7.717   4.546  70.705  1.00  0.00    -0.053 C  
ENDBRANCH  34  36
ENDBRANCH  31  34
ENDBRANCH  21  26
ENDBRANCH  16  18
ENDBRANCH  10  12
ENDBRANCH   9  10
ENDBRANCH   7   9
ENDBRANCH   4   7
ENDBRANCH   2   3
TORSDOF 10
ENDMDL
MODEL      168
REMARK 921   NORMALIZED FREE ENERGY PREDICTED BY IDOCK:   -4.37 KCAL/MOL
REMARK 922        TOTAL FREE ENERGY PREDICTED BY IDOCK:   -8.89 KCAL/MOL
REMARK 923 INTER-LIGAND FREE ENERGY PREDICTED BY IDOCK:   -6.91 KCAL/MOL
REMARK 924 INTRA-LIGAND FREE ENERGY PREDICTED BY IDOCK:   -1.98 KCAL/MOL
REMARK 927      BINDING AFFINITY PREDICTED BY RF-SCORE:    0.00 PKD
ROOT
HETATM    1  C   UNL     1     -10.039   5.159  66.338  1.00  0.00    -0.239 C  
HETATM    2  O   UNL     1     -10.685   5.823  67.439  1.00  0.00    -0.255 OA 
ENDROOT
BRANCH   2   3
HETATM    3  C   UNL     1     -10.368   7.146  67.544  1.00  0.00    -0.236 C  
HETATM    4  N   UNL     1      -9.628   7.385  68.682  1.00  0.00    -0.146 N  
HETATM    5  O   UNL     1     -10.717   7.990  66.730  1.00  0.00    -0.289 OA 
HETATM    6  H   UNL     1      -9.397   6.599  69.290  1.00  0.00     0.000 HD 
BRANCH   4   7
HETATM    7  C   UNL     1      -9.157   8.731  69.057  1.00  0.00    -0.141 C  
HETATM    8  C   UNL     1      -9.922   9.166  70.348  1.00  0.00    -0.263 C  
BRANCH   7   9
HETATM    9  C   UNL     1      -7.608   8.891  69.363  1.00  0.00    -0.081 C  
BRANCH   9  10
HETATM   10  N   UNL     1      -7.028  10.017  70.168  1.00  0.00    -0.133 NA 
HETATM   11  H   UNL     1      -6.774   9.834  71.138  1.00  0.00     0.000 HD 
BRANCH  10  12
HETATM   12  C   UNL     1      -6.817  11.313  69.658  1.00  0.00    -0.095 A  
HETATM   13  N   UNL     1      -5.585  11.812  69.774  1.00  0.00    -0.080 NA 
HETATM   14  C   UNL     1      -5.432  13.087  69.403  1.00  0.00    -0.080 A  
HETATM   15  C   UNL     1      -6.410  13.877  68.830  1.00  0.00    -0.091 A  
HETATM   16  C   UNL     1      -7.676  13.337  68.685  1.00  0.00    -0.080 A  
HETATM   17  N   UNL     1      -7.890  12.050  69.168  1.00  0.00     0.152 NA 
BRANCH  16  18
HETATM   18  C   UNL     1      -8.743  14.222  68.010  1.00  0.00    -0.177 A  
HETATM   19  C   UNL     1      -8.954  15.544  68.446  1.00  0.00    -0.189 A  
HETATM   20  N   UNL     1      -9.862  16.149  67.622  1.00  0.00    -0.234 NA 
HETATM   21  C   UNL     1      -9.636  14.175  66.839  1.00  0.00    -0.270 A  
HETATM   22  N   UNL     1     -10.310  15.336  66.678  1.00  0.00    -0.273 NA 
BRANCH  20  23
HETATM   23  C   UNL     1     -10.331  17.547  67.629  1.00  0.00    -0.360 C  
HETATM   24  C   UNL     1     -10.377  18.171  66.228  1.00  0.00    -0.407 C  
HETATM   25  C   UNL     1      -9.482  18.447  68.542  1.00  0.00    -0.355 C  
ENDBRANCH  20  23
BRANCH  21  26
HETATM   26  C   UNL     1      -9.979  13.139  65.864  1.00  0.00    -0.275 A  
HETATM   27  C   UNL     1     -11.171  13.155  65.099  1.00  0.00    -0.317 A  
HETATM   28  C   UNL     1     -11.532  12.052  64.317  1.00  0.00    -0.361 A  
HETATM   29 CL   UNL     1     -12.892  12.113  63.268  1.00  0.00    -0.489 Cl 
HETATM   30  C   UNL     1     -10.783  10.869  64.383  1.00  0.00    -0.250 A  
HETATM   31  C   UNL     1      -9.625  10.891  65.138  1.00  0.00    -0.243 A  
HETATM   32  C   UNL     1      -9.162  12.054  65.720  1.00  0.00    -0.060 A  
HETATM   33  F   UNL     1      -7.881  12.091  66.081  1.00  0.00     0.055 F  
BRANCH  31  34
HETATM   34  N   UNL     1      -8.815   9.732  65.330  1.00  0.00    -0.162 N  
HETATM   35  H   UNL     1      -8.898   9.135  66.153  1.00  0.00     0.000 HD 
BRANCH  34  36
HETATM   36  S   UNL     1      -7.706   9.421  64.095  1.00  0.00    -0.125 S  
HETATM   37  O   UNL     1      -8.163  10.006  62.856  1.00  0.00    -0.136 OA 
HETATM   38  O   UNL     1      -6.415   9.739  64.668  1.00  0.00    -0.097 OA 
HETATM   39  C   UNL     1      -7.896   7.659  64.025  1.00  0.00    -0.127 C  
ENDBRANCH  34  36
ENDBRANCH  31  34
ENDBRANCH  21  26
ENDBRANCH  16  18
ENDBRANCH  10  12
ENDBRANCH   9  10
ENDBRANCH   7   9
ENDBRANCH   4   7
ENDBRANCH   2   3
TORSDOF 10
ENDMDL
MODEL      169
REMARK 921   NORMALIZED FREE ENERGY PREDICTED BY IDOCK:   -4.36 KCAL/MOL
REMARK 922        TOTAL FREE ENERGY PREDICTED BY IDOCK:   -8.87 KCAL/MOL
REMARK 923 INTER-LIGAND FREE ENERGY PREDICTED BY IDOCK:   -8.01 KCAL/MOL
REMARK 924 INTRA-LIGAND FREE ENERGY PREDICTED BY IDOCK:   -0.86 KCAL/MOL
REMARK 927      BINDING AFFINITY PREDICTED BY RF-SCORE:    0.00 PKD
ROOT
HETATM    1  C   UNL     1     -10.816  17.517  68.927  1.00  0.00     0.079 C  
HETATM    2  O   UNL     1     -10.046  18.732  68.932  1.00  0.00    -0.390 OA 
ENDROOT
BRANCH   2   3
HETATM    3  C   UNL     1      -8.816  18.605  68.354  1.00  0.00    -0.339 C  
HETATM    4  N   UNL     1      -8.898  18.751  66.986  1.00  0.00    -0.287 N  
HETATM    5  O   UNL     1      -7.794  18.379  68.987  1.00  0.00    -0.238 OA 
HETATM    6  H   UNL     1      -9.810  18.937  66.568  1.00  0.00     0.000 HD 
BRANCH   4   7
HETATM    7  C   UNL     1      -7.722  18.648  66.103  1.00  0.00    -0.233 C  
HETATM    8  C   UNL     1      -6.692  19.735  66.546  1.00  0.00    -0.212 C  
BRANCH   7   9
HETATM    9  C   UNL     1      -6.953  17.261  66.089  1.00  0.00    -0.216 C  
BRANCH   9  10
HETATM   10  N   UNL     1      -7.348  16.079  66.925  1.00  0.00    -0.221 NA 
HETATM   11  H   UNL     1      -6.679  15.727  67.610  1.00  0.00     0.000 HD 
BRANCH  10  12
HETATM   12  C   UNL     1      -8.592  15.427  66.816  1.00  0.00    -0.273 A  
HETATM   13  N   UNL     1      -9.332  15.716  65.744  1.00  0.00    -0.314 NA 
HETATM   14  C   UNL     1     -10.560  15.188  65.720  1.00  0.00    -0.351 A  
HETATM   15  C   UNL     1     -11.071  14.307  66.654  1.00  0.00    -0.321 A  
HETATM   16  C   UNL     1     -10.281  13.989  67.745  1.00  0.00    -0.240 A  
HETATM   17  N   UNL     1      -9.042  14.615  67.851  1.00  0.00    -0.184 NA 
BRANCH  16  18
HETATM   18  C   UNL     1     -10.855  12.976  68.756  1.00  0.00    -0.277 A  
HETATM   19  C   UNL     1     -11.805  13.382  69.712  1.00  0.00    -0.326 A  
HETATM   20  N   UNL     1     -12.239  12.288  70.407  1.00  0.00    -0.329 NA 
HETATM   21  C   UNL     1     -10.825  11.523  69.001  1.00  0.00    -0.212 A  
HETATM   22  N   UNL     1     -11.637  11.173  70.023  1.00  0.00    -0.321 NA 
BRANCH  20  23
HETATM   23  C   UNL     1     -13.286  12.204  71.442  1.00  0.00    -0.074 C  
HETATM   24  C   UNL     1     -13.107  13.239  72.560  1.00  0.00    -0.385 C  
HETATM   25  C   UNL     1     -13.376  10.806  72.075  1.00  0.00    -0.403 C  
ENDBRANCH  20  23
BRANCH  21  26
HETATM   26  C   UNL     1     -10.077  10.410  68.416  1.00  0.00    -0.181 A  
HETATM   27  C   UNL     1      -9.373   9.455  69.190  1.00  0.00    -0.159 A  
HETATM   28  C   UNL     1      -8.530   8.521  68.576  1.00  0.00    -0.131 A  
HETATM   29 CL   UNL     1      -7.789   7.263  69.483  1.00  0.00    -0.116 Cl 
HETATM   30  C   UNL     1      -8.273   8.603  67.201  1.00  0.00    -0.107 A  
HETATM   31  C   UNL     1      -8.980   9.545  66.478  1.00  0.00    -0.148 A  
HETATM   32  C   UNL     1      -9.976  10.307  67.058  1.00  0.00    -0.201 A  
HETATM   33  F   UNL     1     -10.857  10.887  66.245  1.00  0.00    -0.308 F  
BRANCH  31  34
HETATM   34  N   UNL     1      -8.760   9.764  65.085  1.00  0.00    -0.156 N  
HETATM   35  H   UNL     1      -9.517   9.993  64.440  1.00  0.00     0.000 HD 
BRANCH  34  36
HETATM   36  S   UNL     1      -7.155   9.617  64.582  1.00  0.00    -0.126 S  
HETATM   37  O   UNL     1      -6.688   8.267  64.793  1.00  0.00    -0.066 OA 
HETATM   38  O   UNL     1      -7.116  10.252  63.282  1.00  0.00    -0.138 OA 
HETATM   39  C   UNL     1      -6.416  10.695  65.781  1.00  0.00    -0.107 C  
ENDBRANCH  34  36
ENDBRANCH  31  34
ENDBRANCH  21  26
ENDBRANCH  16  18
ENDBRANCH  10  12
ENDBRANCH   9  10
ENDBRANCH   7   9
ENDBRANCH   4   7
ENDBRANCH   2   3
TORSDOF 10
ENDMDL
MODEL      170
REMARK 921   NORMALIZED FREE ENERGY PREDICTED BY IDOCK:   -4.33 KCAL/MOL
REMARK 922        TOTAL FREE ENERGY PREDICTED BY IDOCK:   -8.82 KCAL/MOL
REMARK 923 INTER-LIGAND FREE ENERGY PREDICTED BY IDOCK:   -7.30 KCAL/MOL
REMARK 924 INTRA-LIGAND FREE ENERGY PREDICTED BY IDOCK:   -1.52 KCAL/MOL
REMARK 927      BINDING AFFINITY PREDICTED BY RF-SCORE:    0.00 PKD
ROOT
HETATM    1  C   UNL     1     -10.307  19.234  67.475  1.00  0.00    -0.439 C  
HETATM    2  O   UNL     1      -9.802  17.949  67.071  1.00  0.00    -0.290 OA 
ENDROOT
BRANCH   2   3
HETATM    3  C   UNL     1      -8.448  17.920  66.903  1.00  0.00    -0.244 C  
HETATM    4  N   UNL     1      -7.806  17.786  68.116  1.00  0.00    -0.254 N  
HETATM    5  O   UNL     1      -7.901  18.016  65.814  1.00  0.00    -0.534 OA 
HETATM    6  H   UNL     1      -8.370  17.715  68.963  1.00  0.00     0.000 HD 
BRANCH   4   7
HETATM    7  C   UNL     1      -6.337  17.739  68.238  1.00  0.00    -0.188 C  
HETATM    8  C   UNL     1      -5.953  18.317  69.638  1.00  0.00    -0.249 C  
BRANCH   7   9
HETATM    9  C   UNL     1      -5.652  16.313  68.123  1.00  0.00    -0.106 C  
BRANCH   9  10
HETATM   10  N   UNL     1      -5.951  15.167  69.045  1.00  0.00    -0.096 NA 
HETATM   11  H   UNL     1      -6.319  15.379  69.972  1.00  0.00     0.000 HD 
BRANCH  10  12
HETATM   12  C   UNL     1      -5.751  13.815  68.701  1.00  0.00    -0.084 A  
HETATM   13  N   UNL     1      -5.196  13.572  67.513  1.00  0.00    -0.332 NA 
HETATM   14  C   UNL     1      -5.130  12.287  67.149  1.00  0.00    -0.041 A  
HETATM   15  C   UNL     1      -5.496  11.213  67.937  1.00  0.00    -0.043 A  
HETATM   16  C   UNL     1      -6.040  11.477  69.181  1.00  0.00    -0.064 A  
HETATM   17  N   UNL     1      -6.224  12.810  69.537  1.00  0.00    -0.116 NA 
BRANCH  16  18
HETATM   18  C   UNL     1      -6.408  10.264  70.058  1.00  0.00    -0.101 A  
HETATM   19  C   UNL     1      -5.722  10.020  71.264  1.00  0.00    -0.037 A  
HETATM   20  N   UNL     1      -6.305   8.964  71.907  1.00  0.00    -0.127 NA 
HETATM   21  C   UNL     1      -7.447   9.221  70.120  1.00  0.00    -0.098 A  
HETATM   22  N   UNL     1      -7.314   8.448  71.221  1.00  0.00    -0.078 NA 
BRANCH  20  23
HETATM   23  C   UNL     1      -5.992   8.400  73.232  1.00  0.00    -0.089 C  
HETATM   24  C   UNL     1      -7.232   7.873  73.967  1.00  0.00    -0.173 C  
HETATM   25  C   UNL     1      -5.270   9.406  74.143  1.00  0.00    -0.127 C  
ENDBRANCH  20  23
BRANCH  21  26
HETATM   26  C   UNL     1      -8.538   8.821  69.231  1.00  0.00    -0.130 A  
HETATM   27  C   UNL     1      -8.479   7.682  68.391  1.00  0.00    -0.125 A  
HETATM   28  C   UNL     1      -9.473   7.449  67.434  1.00  0.00    -0.141 A  
HETATM   29 CL   UNL     1      -9.497   5.998  66.513  1.00  0.00    -0.168 Cl 
HETATM   30  C   UNL     1     -10.470   8.408  67.208  1.00  0.00    -0.373 A  
HETATM   31  C   UNL     1     -10.498   9.505  68.049  1.00  0.00    -0.230 A  
HETATM   32  C   UNL     1      -9.649   9.608  69.134  1.00  0.00    -0.174 A  
HETATM   33  F   UNL     1      -9.987  10.463  70.097  1.00  0.00    -0.258 F  
BRANCH  31  34
HETATM   34  N   UNL     1     -11.426  10.575  67.879  1.00  0.00    -0.431 N  
HETATM   35  H   UNL     1     -12.304  10.626  68.395  1.00  0.00     0.000 HD 
BRANCH  34  36
HETATM   36  S   UNL     1     -10.964  11.753  66.760  1.00  0.00    -0.301 S  
HETATM   37  O   UNL     1     -10.018  11.202  65.818  1.00  0.00    -0.224 OA 
HETATM   38  O   UNL     1     -12.204  12.369  66.338  1.00  0.00    -0.604 OA 
HETATM   39  C   UNL     1     -10.121  12.843  67.878  1.00  0.00    -0.232 C  
ENDBRANCH  34  36
ENDBRANCH  31  34
ENDBRANCH  21  26
ENDBRANCH  16  18
ENDBRANCH  10  12
ENDBRANCH   9  10
ENDBRANCH   7   9
ENDBRANCH   4   7
ENDBRANCH   2   3
TORSDOF 10
ENDMDL
MODEL      171
REMARK 921   NORMALIZED FREE ENERGY PREDICTED BY IDOCK:   -4.30 KCAL/MOL
REMARK 922        TOTAL FREE ENERGY PREDICTED BY IDOCK:   -8.78 KCAL/MOL
REMARK 923 INTER-LIGAND FREE ENERGY PREDICTED BY IDOCK:   -8.06 KCAL/MOL
REMARK 924 INTRA-LIGAND FREE ENERGY PREDICTED BY IDOCK:   -0.71 KCAL/MOL
REMARK 927      BINDING AFFINITY PREDICTED BY RF-SCORE:    0.00 PKD
ROOT
HETATM    1  C   UNL     1      -8.551   3.309  65.816  1.00  0.00    -0.116 C  
HETATM    2  O   UNL     1      -7.457   3.789  66.618  1.00  0.00    -0.077 OA 
ENDROOT
BRANCH   2   3
HETATM    3  C   UNL     1      -7.853   4.448  67.746  1.00  0.00    -0.084 C  
HETATM    4  N   UNL     1      -8.670   5.513  67.432  1.00  0.00    -0.108 N  
HETATM    5  O   UNL     1      -7.505   4.125  68.873  1.00  0.00    -0.055 OA 
HETATM    6  H   UNL     1      -8.892   5.686  66.451  1.00  0.00     0.000 HD 
BRANCH   4   7
HETATM    7  C   UNL     1      -9.236   6.411  68.455  1.00  0.00    -0.120 C  
HETATM    8  C   UNL     1     -10.357   5.630  69.213  1.00  0.00    -0.340 C  
BRANCH   7   9
HETATM    9  C   UNL     1      -8.237   6.967  69.555  1.00  0.00    -0.132 C  
BRANCH   9  10
HETATM   10  N   UNL     1      -7.201   8.018  69.286  1.00  0.00    -0.074 NA 
HETATM   11  H   UNL     1      -6.477   8.172  69.988  1.00  0.00     0.000 HD 
BRANCH  10  12
HETATM   12  C   UNL     1      -7.171   8.806  68.118  1.00  0.00    -0.083 A  
HETATM   13  N   UNL     1      -6.172   8.578  67.263  1.00  0.00    -0.055 NA 
HETATM   14  C   UNL     1      -6.087   9.417  66.226  1.00  0.00    -0.060 A  
HETATM   15  C   UNL     1      -6.992  10.417  65.928  1.00  0.00    -0.131 A  
HETATM   16  C   UNL     1      -8.043  10.622  66.805  1.00  0.00    -0.131 A  
HETATM   17  N   UNL     1      -8.090   9.836  67.953  1.00  0.00    -0.112 NA 
BRANCH  16  18
HETATM   18  C   UNL     1      -9.062  11.718  66.435  1.00  0.00    -0.215 A  
HETATM   19  C   UNL     1     -10.246  11.390  65.748  1.00  0.00    -0.248 A  
HETATM   20  N   UNL     1     -11.028  12.506  65.641  1.00  0.00    -0.279 NA 
HETATM   21  C   UNL     1      -9.290  13.148  66.705  1.00  0.00    -0.239 A  
HETATM   22  N   UNL     1     -10.458  13.577  66.174  1.00  0.00    -0.291 NA 
BRANCH  20  23
HETATM   23  C   UNL     1     -12.385  12.636  65.082  1.00  0.00    -0.484 C  
HETATM   24  C   UNL     1     -12.496  12.101  63.648  1.00  0.00    -0.658 C  
HETATM   25  C   UNL     1     -12.896  14.085  65.108  1.00  0.00    -0.368 C  
ENDBRANCH  20  23
BRANCH  21  26
HETATM   26  C   UNL     1      -8.511  14.194  67.368  1.00  0.00    -0.214 A  
HETATM   27  C   UNL     1      -7.794  13.984  68.572  1.00  0.00    -0.140 A  
HETATM   28  C   UNL     1      -7.216  15.060  69.255  1.00  0.00    -0.179 A  
HETATM   29 CL   UNL     1      -6.218  14.805  70.631  1.00  0.00    -0.127 Cl 
HETATM   30  C   UNL     1      -7.449  16.373  68.824  1.00  0.00    -0.207 A  
HETATM   31  C   UNL     1      -8.150  16.539  67.644  1.00  0.00    -0.163 A  
HETATM   32  C   UNL     1      -8.517  15.462  66.862  1.00  0.00    -0.252 A  
HETATM   33  F   UNL     1      -8.824  15.705  65.589  1.00  0.00    -0.306 F  
BRANCH  31  34
HETATM   34  N   UNL     1      -8.501  17.826  67.138  1.00  0.00    -0.224 N  
HETATM   35  H   UNL     1      -7.802  18.516  66.862  1.00  0.00     0.000 HD 
BRANCH  34  36
HETATM   36  S   UNL     1     -10.160  18.124  67.027  1.00  0.00    -0.370 S  
HETATM   37  O   UNL     1     -10.532  18.373  65.654  1.00  0.00    -0.624 OA 
HETATM   38  O   UNL     1     -10.776  17.078  67.816  1.00  0.00    -0.347 OA 
HETATM   39  C   UNL     1     -10.203  19.645  67.939  1.00  0.00    -0.448 C  
ENDBRANCH  34  36
ENDBRANCH  31  34
ENDBRANCH  21  26
ENDBRANCH  16  18
ENDBRANCH  10  12
ENDBRANCH   9  10
ENDBRANCH   7   9
ENDBRANCH   4   7
ENDBRANCH   2   3
TORSDOF 10
ENDMDL
MODEL      172
REMARK 921   NORMALIZED FREE ENERGY PREDICTED BY IDOCK:   -4.29 KCAL/MOL
REMARK 922        TOTAL FREE ENERGY PREDICTED BY IDOCK:   -8.75 KCAL/MOL
REMARK 923 INTER-LIGAND FREE ENERGY PREDICTED BY IDOCK:   -7.60 KCAL/MOL
REMARK 924 INTRA-LIGAND FREE ENERGY PREDICTED BY IDOCK:   -1.15 KCAL/MOL
REMARK 927      BINDING AFFINITY PREDICTED BY RF-SCORE:    0.00 PKD
ROOT
HETATM    1  C   UNL     1      -9.625  18.968  68.381  1.00  0.00    -0.373 C  
HETATM    2  O   UNL     1     -10.657  18.188  67.751  1.00  0.00    -0.400 OA 
ENDROOT
BRANCH   2   3
HETATM    3  C   UNL     1     -10.747  16.912  68.228  1.00  0.00    -0.377 C  
HETATM    4  N   UNL     1     -10.981  16.021  67.203  1.00  0.00    -0.244 N  
HETATM    5  O   UNL     1     -10.643  16.625  69.412  1.00  0.00    -0.312 OA 
HETATM    6  H   UNL     1     -11.049  16.378  66.249  1.00  0.00     0.000 HD 
BRANCH   4   7
HETATM    7  C   UNL     1     -11.136  14.572  67.428  1.00  0.00    -0.314 C  
HETATM    8  C   UNL     1     -12.051  14.004  66.296  1.00  0.00    -0.482 C  
BRANCH   7   9
HETATM    9  C   UNL     1      -9.811  13.699  67.432  1.00  0.00    -0.234 C  
BRANCH   9  10
HETATM   10  N   UNL     1      -9.795  12.206  67.578  1.00  0.00    -0.189 NA 
HETATM   11  H   UNL     1     -10.020  11.810  68.491  1.00  0.00     0.000 HD 
BRANCH  10  12
HETATM   12  C   UNL     1      -9.487  11.321  66.527  1.00  0.00    -0.193 A  
HETATM   13  N   UNL     1      -9.477  11.831  65.294  1.00  0.00    -0.170 NA 
HETATM   14  C   UNL     1      -9.309  10.954  64.299  1.00  0.00    -0.228 A  
HETATM   15  C   UNL     1      -9.052   9.605  64.455  1.00  0.00    -0.287 A  
HETATM   16  C   UNL     1      -9.031   9.094  65.741  1.00  0.00    -0.193 A  
HETATM   17  N   UNL     1      -9.317   9.966  66.788  1.00  0.00    -0.147 NA 
BRANCH  16  18
HETATM   18  C   UNL     1      -8.707   7.595  65.896  1.00  0.00    -0.176 A  
HETATM   19  C   UNL     1      -8.332   6.826  64.777  1.00  0.00     0.012 A  
HETATM   20  N   UNL     1      -7.989   5.569  65.191  1.00  0.00    -0.104 NA 
HETATM   21  C   UNL     1      -8.517   6.613  66.977  1.00  0.00    -0.113 A  
HETATM   22  N   UNL     1      -8.129   5.410  66.498  1.00  0.00    -0.105 NA 
BRANCH  20  23
HETATM   23  C   UNL     1      -7.454   4.448  64.397  1.00  0.00    -0.071 C  
HETATM   24  C   UNL     1      -5.920   4.424  64.352  1.00  0.00    -0.018 C  
HETATM   25  C   UNL     1      -7.990   4.439  62.957  1.00  0.00    -0.077 C  
ENDBRANCH  20  23
BRANCH  21  26
HETATM   26  C   UNL     1      -8.708   6.650  68.428  1.00  0.00    -0.122 A  
HETATM   27  C   UNL     1      -7.677   6.362  69.356  1.00  0.00    -0.101 A  
HETATM   28  C   UNL     1      -7.960   6.237  70.721  1.00  0.00    -0.112 A  
HETATM   29 CL   UNL     1      -6.701   6.038  71.874  1.00  0.00    -0.062 Cl 
HETATM   30  C   UNL     1      -9.287   6.269  71.169  1.00  0.00    -0.169 A  
HETATM   31  C   UNL     1     -10.266   6.556  70.236  1.00  0.00    -0.192 A  
HETATM   32  C   UNL     1      -9.950   6.901  68.937  1.00  0.00    -0.157 A  
HETATM   33  F   UNL     1     -10.883   7.532  68.226  1.00  0.00    -0.224 F  
BRANCH  31  34
HETATM   34  N   UNL     1     -11.656   6.555  70.561  1.00  0.00    -0.384 N  
HETATM   35  H   UNL     1     -12.273   5.777  70.328  1.00  0.00     0.000 HD 
BRANCH  34  36
HETATM   36  S   UNL     1     -12.205   7.939  71.357  1.00  0.00    -0.307 S  
HETATM   37  O   UNL     1     -11.661   9.123  70.733  1.00  0.00    -0.280 OA 
HETATM   38  O   UNL     1     -13.630   7.735  71.512  1.00  0.00    -0.354 OA 
HETATM   39  C   UNL     1     -11.403   7.668  72.916  1.00  0.00    -0.341 C  
ENDBRANCH  34  36
ENDBRANCH  31  34
ENDBRANCH  21  26
ENDBRANCH  16  18
ENDBRANCH  10  12
ENDBRANCH   9  10
ENDBRANCH   7   9
ENDBRANCH   4   7
ENDBRANCH   2   3
TORSDOF 10
ENDMDL
MODEL      173
REMARK 921   NORMALIZED FREE ENERGY PREDICTED BY IDOCK:   -4.27 KCAL/MOL
REMARK 922        TOTAL FREE ENERGY PREDICTED BY IDOCK:   -8.72 KCAL/MOL
REMARK 923 INTER-LIGAND FREE ENERGY PREDICTED BY IDOCK:   -7.80 KCAL/MOL
REMARK 924 INTRA-LIGAND FREE ENERGY PREDICTED BY IDOCK:   -0.91 KCAL/MOL
REMARK 927      BINDING AFFINITY PREDICTED BY RF-SCORE:    0.00 PKD
ROOT
HETATM    1  C   UNL     1     -12.269  16.332  73.363  1.00  0.00    -0.516 C  
HETATM    2  O   UNL     1     -11.490  15.665  72.353  1.00  0.00    -0.423 OA 
ENDROOT
BRANCH   2   3
HETATM    3  C   UNL     1     -12.220  15.269  71.271  1.00  0.00    -0.347 C  
HETATM    4  N   UNL     1     -11.598  14.231  70.611  1.00  0.00    -0.491 N  
HETATM    5  O   UNL     1     -13.278  15.789  70.942  1.00  0.00    -0.560 OA 
HETATM    6  H   UNL     1     -10.714  13.877  70.979  1.00  0.00     0.000 HD 
BRANCH   4   7
HETATM    7  C   UNL     1     -12.157  13.610  69.396  1.00  0.00    -0.314 C  
HETATM    8  C   UNL     1     -11.417  14.219  68.162  1.00  0.00    -0.336 C  
BRANCH   7   9
HETATM    9  C   UNL     1     -12.036  12.033  69.274  1.00  0.00    -0.270 C  
BRANCH   9  10
HETATM   10  N   UNL     1     -11.893  11.305  67.970  1.00  0.00    -0.624 NA 
HETATM   11  H   UNL     1     -12.504  11.575  67.198  1.00  0.00     0.000 HD 
BRANCH  10  12
HETATM   12  C   UNL     1     -10.963  10.270  67.750  1.00  0.00    -0.300 A  
HETATM   13  N   UNL     1     -10.434  10.185  66.528  1.00  0.00    -0.199 NA 
HETATM   14  C   UNL     1      -9.653   9.124  66.301  1.00  0.00    -0.255 A  
HETATM   15  C   UNL     1      -9.282   8.186  67.245  1.00  0.00    -0.165 A  
HETATM   16  C   UNL     1      -9.811   8.304  68.518  1.00  0.00    -0.176 A  
HETATM   17  N   UNL     1     -10.717   9.335  68.749  1.00  0.00    -0.194 NA 
BRANCH  16  18
HETATM   18  C   UNL     1      -9.357   7.269  69.566  1.00  0.00    -0.152 A  
HETATM   19  C   UNL     1      -9.268   7.620  70.926  1.00  0.00    -0.149 A  
HETATM   20  N   UNL     1      -8.958   6.509  71.659  1.00  0.00    -0.143 NA 
HETATM   21  C   UNL     1      -9.068   5.825  69.639  1.00  0.00    -0.135 A  
HETATM   22  N   UNL     1      -8.797   5.433  70.903  1.00  0.00    -0.136 NA 
BRANCH  20  23
HETATM   23  C   UNL     1      -8.845   6.366  73.122  1.00  0.00    -0.129 C  
HETATM   24  C   UNL     1      -8.843   4.902  73.583  1.00  0.00    -0.108 C  
HETATM   25  C   UNL     1      -9.956   7.117  73.873  1.00  0.00    -0.360 C  
ENDBRANCH  20  23
BRANCH  21  26
HETATM   26  C   UNL     1      -8.964   4.759  68.641  1.00  0.00    -0.136 A  
HETATM   27  C   UNL     1      -7.937   3.784  68.650  1.00  0.00    -0.068 A  
HETATM   28  C   UNL     1      -7.782   2.901  67.575  1.00  0.00    -0.068 A  
HETATM   29 CL   UNL     1      -6.640   1.618  67.638  1.00  0.00    -0.028 Cl 
HETATM   30  C   UNL     1      -8.562   3.056  66.421  1.00  0.00    -0.118 A  
HETATM   31  C   UNL     1      -9.556   4.015  66.450  1.00  0.00    -0.202 A  
HETATM   32  C   UNL     1      -9.845   4.725  67.599  1.00  0.00    -0.152 A  
HETATM   33  F   UNL     1     -11.033   5.323  67.668  1.00  0.00    -0.197 F  
BRANCH  31  34
HETATM   34  N   UNL     1     -10.371   4.307  65.316  1.00  0.00    -0.423 N  
HETATM   35  H   UNL     1     -11.190   4.913  65.371  1.00  0.00     0.000 HD 
BRANCH  34  36
HETATM   36  S   UNL     1      -9.882   3.574  63.875  1.00  0.00    -0.186 S  
HETATM   37  O   UNL     1      -8.636   4.147  63.422  1.00  0.00    -0.095 OA 
HETATM   38  O   UNL     1     -10.038   2.155  64.111  1.00  0.00    -0.102 OA 
HETATM   39  C   UNL     1     -11.207   4.143  62.842  1.00  0.00     0.453 C  
ENDBRANCH  34  36
ENDBRANCH  31  34
ENDBRANCH  21  26
ENDBRANCH  16  18
ENDBRANCH  10  12
ENDBRANCH   9  10
ENDBRANCH   7   9
ENDBRANCH   4   7
ENDBRANCH   2   3
TORSDOF 10
ENDMDL
MODEL      174
REMARK 921   NORMALIZED FREE ENERGY PREDICTED BY IDOCK:   -4.26 KCAL/MOL
REMARK 922        TOTAL FREE ENERGY PREDICTED BY IDOCK:   -8.71 KCAL/MOL
REMARK 923 INTER-LIGAND FREE ENERGY PREDICTED BY IDOCK:   -6.65 KCAL/MOL
REMARK 924 INTRA-LIGAND FREE ENERGY PREDICTED BY IDOCK:   -2.06 KCAL/MOL
REMARK 927      BINDING AFFINITY PREDICTED BY RF-SCORE:    0.00 PKD
ROOT
HETATM    1  C   UNL     1     -10.036   4.993  66.330  1.00  0.00    -0.247 C  
HETATM    2  O   UNL     1      -9.025   5.286  67.311  1.00  0.00    -0.113 OA 
ENDROOT
BRANCH   2   3
HETATM    3  C   UNL     1      -8.077   6.166  66.875  1.00  0.00    -0.109 C  
HETATM    4  N   UNL     1      -8.013   6.176  65.498  1.00  0.00    -0.110 N  
HETATM    5  O   UNL     1      -7.381   6.835  67.626  1.00  0.00    -0.091 OA 
HETATM    6  H   UNL     1      -8.646   5.572  64.974  1.00  0.00     0.000 HD 
BRANCH   4   7
HETATM    7  C   UNL     1      -7.066   7.026  64.752  1.00  0.00    -0.060 C  
HETATM    8  C   UNL     1      -6.198   6.096  63.844  1.00  0.00    -0.029 C  
BRANCH   7   9
HETATM    9  C   UNL     1      -7.689   8.139  63.809  1.00  0.00    -0.142 C  
BRANCH   9  10
HETATM   10  N   UNL     1      -8.998   8.823  64.077  1.00  0.00    -0.384 NA 
HETATM   11  H   UNL     1      -9.818   8.515  63.554  1.00  0.00     0.000 HD 
BRANCH  10  12
HETATM   12  C   UNL     1      -9.157   9.866  65.010  1.00  0.00    -0.218 A  
HETATM   13  N   UNL     1     -10.106  10.767  64.749  1.00  0.00    -0.308 NA 
HETATM   14  C   UNL     1     -10.159  11.818  65.575  1.00  0.00    -0.249 A  
HETATM   15  C   UNL     1      -9.387  11.985  66.708  1.00  0.00    -0.206 A  
HETATM   16  C   UNL     1      -8.428  11.026  66.986  1.00  0.00    -0.141 A  
HETATM   17  N   UNL     1      -8.276   9.981  66.079  1.00  0.00    -0.123 NA 
BRANCH  16  18
HETATM   18  C   UNL     1      -7.602  11.213  68.274  1.00  0.00    -0.111 A  
HETATM   19  C   UNL     1      -6.735  12.313  68.414  1.00  0.00    -0.064 A  
HETATM   20  N   UNL     1      -6.211  12.315  69.677  1.00  0.00    -0.128 NA 
HETATM   21  C   UNL     1      -7.501  10.614  69.617  1.00  0.00    -0.115 A  
HETATM   22  N   UNL     1      -6.627  11.286  70.399  1.00  0.00    -0.202 NA 
BRANCH  20  23
HETATM   23  C   UNL     1      -5.328  13.311  70.311  1.00  0.00    -0.115 C  
HETATM   24  C   UNL     1      -5.763  13.676  71.736  1.00  0.00    -0.049 C  
HETATM   25  C   UNL     1      -5.211  14.602  69.486  1.00  0.00    -0.087 C  
ENDBRANCH  20  23
BRANCH  21  26
HETATM   26  C   UNL     1      -8.096   9.438  70.252  1.00  0.00    -0.180 A  
HETATM   27  C   UNL     1      -7.335   8.343  70.731  1.00  0.00    -0.060 A  
HETATM   28  C   UNL     1      -7.965   7.171  71.164  1.00  0.00    -0.102 A  
HETATM   29 CL   UNL     1      -7.067   5.896  71.888  1.00  0.00    -0.081 Cl 
HETATM   30  C   UNL     1      -9.349   7.018  71.007  1.00  0.00    -0.159 A  
HETATM   31  C   UNL     1     -10.059   8.107  70.539  1.00  0.00    -0.192 A  
HETATM   32  C   UNL     1      -9.456   9.332  70.331  1.00  0.00    -0.246 A  
HETATM   33  F   UNL     1     -10.245  10.402  70.267  1.00  0.00    -0.286 F  
BRANCH  31  34
HETATM   34  N   UNL     1     -11.462   8.052  70.280  1.00  0.00    -0.456 N  
HETATM   35  H   UNL     1     -11.843   8.005  69.335  1.00  0.00     0.000 HD 
BRANCH  34  36
HETATM   36  S   UNL     1     -12.444   8.070  71.654  1.00  0.00    -0.328 S  
HETATM   37  O   UNL     1     -13.423   7.011  71.581  1.00  0.00    -0.365 OA 
HETATM   38  O   UNL     1     -11.524   8.195  72.764  1.00  0.00    -0.408 OA 
HETATM   39  C   UNL     1     -13.237   9.632  71.374  1.00  0.00    -0.389 C  
ENDBRANCH  34  36
ENDBRANCH  31  34
ENDBRANCH  21  26
ENDBRANCH  16  18
ENDBRANCH  10  12
ENDBRANCH   9  10
ENDBRANCH   7   9
ENDBRANCH   4   7
ENDBRANCH   2   3
TORSDOF 10
ENDMDL
MODEL      175
REMARK 921   NORMALIZED FREE ENERGY PREDICTED BY IDOCK:   -4.23 KCAL/MOL
REMARK 922        TOTAL FREE ENERGY PREDICTED BY IDOCK:   -8.66 KCAL/MOL
REMARK 923 INTER-LIGAND FREE ENERGY PREDICTED BY IDOCK:   -8.24 KCAL/MOL
REMARK 924 INTRA-LIGAND FREE ENERGY PREDICTED BY IDOCK:   -0.42 KCAL/MOL
REMARK 927      BINDING AFFINITY PREDICTED BY RF-SCORE:    0.00 PKD
ROOT
HETATM    1  C   UNL     1      -9.638   3.994  68.830  1.00  0.00    -0.143 C  
HETATM    2  O   UNL     1      -9.085   3.933  70.157  1.00  0.00    -0.096 OA 
ENDROOT
BRANCH   2   3
HETATM    3  C   UNL     1      -8.636   5.136  70.620  1.00  0.00    -0.119 C  
HETATM    4  N   UNL     1      -9.523   5.675  71.526  1.00  0.00    -0.150 N  
HETATM    5  O   UNL     1      -7.590   5.653  70.253  1.00  0.00    -0.077 OA 
HETATM    6  H   UNL     1     -10.369   5.151  71.756  1.00  0.00     0.000 HD 
BRANCH   4   7
HETATM    7  C   UNL     1      -9.301   6.978  72.179  1.00  0.00    -0.134 C  
HETATM    8  C   UNL     1      -9.181   6.731  73.718  1.00  0.00    -0.190 C  
BRANCH   7   9
HETATM    9  C   UNL     1      -8.010   7.791  71.741  1.00  0.00    -0.094 C  
BRANCH   9  10
HETATM   10  N   UNL     1      -7.927   8.612  70.488  1.00  0.00    -0.096 NA 
HETATM   11  H   UNL     1      -7.002   8.841  70.124  1.00  0.00     0.000 HD 
BRANCH  10  12
HETATM   12  C   UNL     1      -9.053   9.084  69.787  1.00  0.00    -0.159 A  
HETATM   13  N   UNL     1      -9.494   8.330  68.779  1.00  0.00    -0.147 NA 
HETATM   14  C   UNL     1     -10.482   8.853  68.045  1.00  0.00    -0.208 A  
HETATM   15  C   UNL     1     -11.130  10.045  68.309  1.00  0.00    -0.247 A  
HETATM   16  C   UNL     1     -10.685  10.802  69.377  1.00  0.00    -0.233 A  
HETATM   17  N   UNL     1      -9.583  10.334  70.088  1.00  0.00     0.021 NA 
BRANCH  16  18
HETATM   18  C   UNL     1     -11.444  12.110  69.676  1.00  0.00    -0.308 A  
HETATM   19  C   UNL     1     -12.314  12.195  70.780  1.00  0.00    -0.297 A  
HETATM   20  N   UNL     1     -12.771  13.479  70.894  1.00  0.00    -0.318 NA 
HETATM   21  C   UNL     1     -11.469  13.505  69.201  1.00  0.00    -0.295 A  
HETATM   22  N   UNL     1     -12.308  14.268  69.937  1.00  0.00    -0.340 NA 
BRANCH  20  23
HETATM   23  C   UNL     1     -13.630  14.066  71.939  1.00  0.00    -0.435 C  
HETATM   24  C   UNL     1     -14.315  15.364  71.491  1.00  0.00    -0.572 C  
HETATM   25  C   UNL     1     -12.865  14.337  73.244  1.00  0.00    -0.291 C  
ENDBRANCH  20  23
BRANCH  21  26
HETATM   26  C   UNL     1     -10.830  14.211  68.091  1.00  0.00    -0.258 A  
HETATM   27  C   UNL     1     -10.996  15.598  67.851  1.00  0.00    -0.319 A  
HETATM   28  C   UNL     1     -10.509  16.183  66.677  1.00  0.00    -0.300 A  
HETATM   29 CL   UNL     1     -10.568  17.885  66.443  1.00  0.00    -0.291 Cl 
HETATM   30  C   UNL     1      -9.965  15.380  65.666  1.00  0.00    -0.396 A  
HETATM   31  C   UNL     1      -9.816  14.033  65.935  1.00  0.00    -0.281 A  
HETATM   32  C   UNL     1     -10.090  13.508  67.183  1.00  0.00    -0.245 A  
HETATM   33  F   UNL     1      -9.563  12.322  67.479  1.00  0.00    -0.175 F  
BRANCH  31  34
HETATM   34  N   UNL     1      -9.332  13.107  64.963  1.00  0.00    -0.103 N  
HETATM   35  H   UNL     1      -8.338  12.988  64.766  1.00  0.00     0.000 HD 
BRANCH  34  36
HETATM   36  S   UNL     1     -10.526  12.223  64.160  1.00  0.00    -0.406 S  
HETATM   37  O   UNL     1     -10.860  11.037  64.914  1.00  0.00    -0.250 OA 
HETATM   38  O   UNL     1     -11.522  13.203  63.783  1.00  0.00    -0.408 OA 
HETATM   39  C   UNL     1      -9.582  11.769  62.728  1.00  0.00     0.117 C  
ENDBRANCH  34  36
ENDBRANCH  31  34
ENDBRANCH  21  26
ENDBRANCH  16  18
ENDBRANCH  10  12
ENDBRANCH   9  10
ENDBRANCH   7   9
ENDBRANCH   4   7
ENDBRANCH   2   3
TORSDOF 10
ENDMDL
MODEL      176
REMARK 921   NORMALIZED FREE ENERGY PREDICTED BY IDOCK:   -4.20 KCAL/MOL
REMARK 922        TOTAL FREE ENERGY PREDICTED BY IDOCK:   -8.60 KCAL/MOL
REMARK 923 INTER-LIGAND FREE ENERGY PREDICTED BY IDOCK:   -7.04 KCAL/MOL
REMARK 924 INTRA-LIGAND FREE ENERGY PREDICTED BY IDOCK:   -1.56 KCAL/MOL
REMARK 927      BINDING AFFINITY PREDICTED BY RF-SCORE:    0.00 PKD
ROOT
HETATM    1  C   UNL     1     -10.650  18.136  67.374  1.00  0.00    -0.388 C  
HETATM    2  O   UNL     1      -9.989  16.860  67.440  1.00  0.00    -0.256 OA 
ENDROOT
BRANCH   2   3
HETATM    3  C   UNL     1     -10.841  15.810  67.626  1.00  0.00    -0.310 C  
HETATM    4  N   UNL     1     -10.562  14.788  66.744  1.00  0.00    -0.296 N  
HETATM    5  O   UNL     1     -11.733  15.805  68.463  1.00  0.00    -0.383 OA 
HETATM    6  H   UNL     1      -9.790  14.906  66.087  1.00  0.00     0.000 HD 
BRANCH   4   7
HETATM    7  C   UNL     1     -11.334  13.533  66.710  1.00  0.00    -0.328 C  
HETATM    8  C   UNL     1     -10.872  12.718  65.459  1.00  0.00    -0.301 C  
BRANCH   7   9
HETATM    9  C   UNL     1     -11.197  12.571  67.964  1.00  0.00    -0.270 C  
BRANCH   9  10
HETATM   10  N   UNL     1     -12.267  11.616  68.405  1.00  0.00    -0.434 NA 
HETATM   11  H   UNL     1     -13.149  11.611  67.891  1.00  0.00     0.000 HD 
BRANCH  10  12
HETATM   12  C   UNL     1     -12.124  10.727  69.488  1.00  0.00    -0.272 A  
HETATM   13  N   UNL     1     -12.810  11.013  70.596  1.00  0.00    -0.264 NA 
HETATM   14  C   UNL     1     -12.565  10.234  71.654  1.00  0.00    -0.432 A  
HETATM   15  C   UNL     1     -11.747   9.121  71.656  1.00  0.00    -0.448 A  
HETATM   16  C   UNL     1     -11.065   8.815  70.491  1.00  0.00    -0.246 A  
HETATM   17  N   UNL     1     -11.216   9.678  69.409  1.00  0.00    -0.139 NA 
BRANCH  16  18
HETATM   18  C   UNL     1     -10.186   7.549  70.504  1.00  0.00    -0.201 A  
HETATM   19  C   UNL     1     -10.750   6.285  70.249  1.00  0.00    -0.280 A  
HETATM   20  N   UNL     1      -9.754   5.349  70.203  1.00  0.00    -0.175 NA 
HETATM   21  C   UNL     1      -8.757   7.199  70.582  1.00  0.00    -0.148 A  
HETATM   22  N   UNL     1      -8.559   5.869  70.438  1.00  0.00    -0.133 NA 
BRANCH  20  23
HETATM   23  C   UNL     1      -9.848   3.913  69.883  1.00  0.00    -0.066 C  
HETATM   24  C   UNL     1      -9.084   3.027  70.876  1.00  0.00    -0.184 C  
HETATM   25  C   UNL     1      -9.358   3.595  68.461  1.00  0.00    -0.226 C  
ENDBRANCH  20  23
BRANCH  21  26
HETATM   26  C   UNL     1      -7.535   7.966  70.831  1.00  0.00    -0.073 A  
HETATM   27  C   UNL     1      -7.051   8.258  72.130  1.00  0.00    -0.103 A  
HETATM   28  C   UNL     1      -5.983   9.144  72.311  1.00  0.00     0.001 A  
HETATM   29 CL   UNL     1      -5.288   9.391  73.863  1.00  0.00    -0.111 Cl 
HETATM   30  C   UNL     1      -5.463   9.850  71.218  1.00  0.00    -0.075 A  
HETATM   31  C   UNL     1      -5.957   9.537  69.966  1.00  0.00    -0.041 A  
HETATM   32  C   UNL     1      -6.850   8.500  69.777  1.00  0.00    -0.043 A  
HETATM   33  F   UNL     1      -6.971   8.012  68.545  1.00  0.00    -0.063 F  
BRANCH  31  34
HETATM   34  N   UNL     1      -5.551  10.230  68.787  1.00  0.00    -0.038 N  
HETATM   35  H   UNL     1      -4.868   9.847  68.133  1.00  0.00     0.000 HD 
BRANCH  34  36
HETATM   36  S   UNL     1      -6.282  11.735  68.553  1.00  0.00    -0.054 S  
HETATM   37  O   UNL     1      -7.703  11.573  68.355  1.00  0.00    -0.114 OA 
HETATM   38  O   UNL     1      -5.740  12.576  69.598  1.00  0.00    -0.084 OA 
HETATM   39  C   UNL     1      -5.512  12.151  67.010  1.00  0.00    -0.066 C  
ENDBRANCH  34  36
ENDBRANCH  31  34
ENDBRANCH  21  26
ENDBRANCH  16  18
ENDBRANCH  10  12
ENDBRANCH   9  10
ENDBRANCH   7   9
ENDBRANCH   4   7
ENDBRANCH   2   3
TORSDOF 10
ENDMDL
MODEL      177
REMARK 921   NORMALIZED FREE ENERGY PREDICTED BY IDOCK:   -4.17 KCAL/MOL
REMARK 922        TOTAL FREE ENERGY PREDICTED BY IDOCK:   -8.57 KCAL/MOL
REMARK 923 INTER-LIGAND FREE ENERGY PREDICTED BY IDOCK:   -8.28 KCAL/MOL
REMARK 924 INTRA-LIGAND FREE ENERGY PREDICTED BY IDOCK:   -0.29 KCAL/MOL
REMARK 927      BINDING AFFINITY PREDICTED BY RF-SCORE:    0.00 PKD
ROOT
HETATM    1  C   UNL     1     -14.327   9.183  72.351  1.00  0.00    -0.153 C  
HETATM    2  O   UNL     1     -12.901   9.207  72.158  1.00  0.00    -0.371 OA 
ENDROOT
BRANCH   2   3
HETATM    3  C   UNL     1     -12.351   7.970  71.986  1.00  0.00    -0.326 C  
HETATM    4  N   UNL     1     -11.023   7.968  72.354  1.00  0.00    -0.310 N  
HETATM    5  O   UNL     1     -12.971   7.010  71.549  1.00  0.00    -0.382 OA 
HETATM    6  H   UNL     1     -10.611   8.833  72.706  1.00  0.00     0.000 HD 
BRANCH   4   7
HETATM    7  C   UNL     1     -10.172   6.767  72.260  1.00  0.00    -0.189 C  
HETATM    8  C   UNL     1     -10.049   6.152  73.692  1.00  0.00    -0.227 C  
BRANCH   7   9
HETATM    9  C   UNL     1     -10.672   5.606  71.302  1.00  0.00    -0.244 C  
BRANCH   9  10
HETATM   10  N   UNL     1     -10.410   5.573  69.824  1.00  0.00    -0.270 NA 
HETATM   11  H   UNL     1     -10.238   4.668  69.386  1.00  0.00     0.000 HD 
BRANCH  10  12
HETATM   12  C   UNL     1     -10.388   6.722  69.009  1.00  0.00    -0.195 A  
HETATM   13  N   UNL     1     -11.123   6.684  67.896  1.00  0.00    -0.254 NA 
HETATM   14  C   UNL     1     -10.991   7.728  67.072  1.00  0.00     0.086 A  
HETATM   15  C   UNL     1     -10.244   8.862  67.329  1.00  0.00    -0.326 A  
HETATM   16  C   UNL     1      -9.513   8.903  68.503  1.00  0.00    -0.147 A  
HETATM   17  N   UNL     1      -9.543   7.779  69.324  1.00  0.00    -0.159 NA 
BRANCH  16  18
HETATM   18  C   UNL     1      -8.715  10.191  68.788  1.00  0.00    -0.138 A  
HETATM   19  C   UNL     1      -7.422  10.123  69.341  1.00  0.00    -0.119 A  
HETATM   20  N   UNL     1      -6.886  11.380  69.389  1.00  0.00    -0.118 NA 
HETATM   21  C   UNL     1      -8.823  11.637  68.527  1.00  0.00    -0.131 A  
HETATM   22  N   UNL     1      -7.723  12.304  68.943  1.00  0.00    -0.009 NA 
BRANCH  20  23
HETATM   23  C   UNL     1      -5.535  11.794  69.807  1.00  0.00    -0.082 C  
HETATM   24  C   UNL     1      -5.140  11.249  71.186  1.00  0.00    -0.112 C  
HETATM   25  C   UNL     1      -5.365  13.322  69.814  1.00  0.00    -0.092 C  
ENDBRANCH  20  23
BRANCH  21  26
HETATM   26  C   UNL     1      -9.872  12.493  67.971  1.00  0.00    -0.214 A  
HETATM   27  C   UNL     1     -10.416  13.605  68.661  1.00  0.00    -0.242 A  
HETATM   28  C   UNL     1     -11.537  14.276  68.160  1.00  0.00    -0.332 A  
HETATM   29 CL   UNL     1     -12.115  15.715  68.903  1.00  0.00    -0.283 Cl 
HETATM   30  C   UNL     1     -12.212  13.777  67.038  1.00  0.00    -0.381 A  
HETATM   31  C   UNL     1     -11.651  12.693  66.390  1.00  0.00    -0.384 A  
HETATM   32  C   UNL     1     -10.423  12.182  66.761  1.00  0.00    -0.218 A  
HETATM   33  F   UNL     1      -9.780  11.425  65.874  1.00  0.00    -0.215 F  
BRANCH  31  34
HETATM   34  N   UNL     1     -12.278  12.060  65.275  1.00  0.00    -0.109 N  
HETATM   35  H   UNL     1     -12.868  11.234  65.374  1.00  0.00     0.000 HD 
BRANCH  34  36
HETATM   36  S   UNL     1     -11.971  12.779  63.778  1.00  0.00    -0.547 S  
HETATM   37  O   UNL     1     -13.017  12.445  62.840  1.00  0.00    -0.312 OA 
HETATM   38  O   UNL     1     -11.623  14.149  64.090  1.00  0.00    -0.332 OA 
HETATM   39  C   UNL     1     -10.497  11.881  63.366  1.00  0.00    -0.441 C  
ENDBRANCH  34  36
ENDBRANCH  31  34
ENDBRANCH  21  26
ENDBRANCH  16  18
ENDBRANCH  10  12
ENDBRANCH   9  10
ENDBRANCH   7   9
ENDBRANCH   4   7
ENDBRANCH   2   3
TORSDOF 10
ENDMDL
MODEL      178
REMARK 921   NORMALIZED FREE ENERGY PREDICTED BY IDOCK:   -4.17 KCAL/MOL
REMARK 922        TOTAL FREE ENERGY PREDICTED BY IDOCK:   -8.56 KCAL/MOL
REMARK 923 INTER-LIGAND FREE ENERGY PREDICTED BY IDOCK:   -6.68 KCAL/MOL
REMARK 924 INTRA-LIGAND FREE ENERGY PREDICTED BY IDOCK:   -1.88 KCAL/MOL
REMARK 927      BINDING AFFINITY PREDICTED BY RF-SCORE:    0.00 PKD
ROOT
HETATM    1  C   UNL     1     -10.717   7.511  67.198  1.00  0.00    -0.309 C  
HETATM    2  O   UNL     1     -11.085   6.129  67.357  1.00  0.00    -0.331 OA 
ENDROOT
BRANCH   2   3
HETATM    3  C   UNL     1     -10.179   5.256  66.826  1.00  0.00    -0.249 C  
HETATM    4  N   UNL     1      -9.571   5.796  65.713  1.00  0.00    -0.364 N  
HETATM    5  O   UNL     1      -9.963   4.144  67.287  1.00  0.00    -0.168 OA 
HETATM    6  H   UNL     1      -9.834   6.738  65.420  1.00  0.00     0.000 HD 
BRANCH   4   7
HETATM    7  C   UNL     1      -8.557   5.069  64.928  1.00  0.00    -0.150 C  
HETATM    8  C   UNL     1      -9.293   4.303  63.783  1.00  0.00    -0.132 C  
BRANCH   7   9
HETATM    9  C   UNL     1      -7.419   5.937  64.244  1.00  0.00    -0.074 C  
BRANCH   9  10
HETATM   10  N   UNL     1      -6.304   6.598  65.002  1.00  0.00    -0.041 NA 
HETATM   11  H   UNL     1      -5.352   6.488  64.651  1.00  0.00     0.000 HD 
BRANCH  10  12
HETATM   12  C   UNL     1      -6.498   7.360  66.171  1.00  0.00    -0.045 A  
HETATM   13  N   UNL     1      -6.090   8.629  66.136  1.00  0.00    -0.048 NA 
HETATM   14  C   UNL     1      -6.164   9.300  67.290  1.00  0.00    -0.058 A  
HETATM   15  C   UNL     1      -6.711   8.816  68.463  1.00  0.00    -0.060 A  
HETATM   16  C   UNL     1      -7.162   7.508  68.477  1.00  0.00    -0.090 A  
HETATM   17  N   UNL     1      -6.991   6.753  67.320  1.00  0.00    -0.072 NA 
BRANCH  16  18
HETATM   18  C   UNL     1      -7.802   7.000  69.784  1.00  0.00    -0.115 A  
HETATM   19  C   UNL     1      -7.234   5.919  70.484  1.00  0.00    -0.083 A  
HETATM   20  N   UNL     1      -7.912   5.737  71.657  1.00  0.00    -0.115 NA 
HETATM   21  C   UNL     1      -8.869   7.399  70.719  1.00  0.00    -0.149 A  
HETATM   22  N   UNL     1      -8.917   6.587  71.799  1.00  0.00    -0.139 NA 
BRANCH  20  23
HETATM   23  C   UNL     1      -7.631   4.789  72.751  1.00  0.00    -0.091 C  
HETATM   24  C   UNL     1      -8.766   3.781  72.976  1.00  0.00    -0.096 C  
HETATM   25  C   UNL     1      -7.332   5.499  74.081  1.00  0.00    -0.089 C  
ENDBRANCH  20  23
BRANCH  21  26
HETATM   26  C   UNL     1      -9.900   8.437  70.699  1.00  0.00    -0.208 A  
HETATM   27  C   UNL     1     -11.256   8.194  71.033  1.00  0.00    -0.284 A  
HETATM   28  C   UNL     1     -12.230   9.176  70.824  1.00  0.00    -0.100 A  
HETATM   29 CL   UNL     1     -13.847   8.952  71.362  1.00  0.00    -0.368 Cl 
HETATM   30  C   UNL     1     -11.897  10.366  70.163  1.00  0.00    -0.379 A  
HETATM   31  C   UNL     1     -10.565  10.571  69.855  1.00  0.00    -0.211 A  
HETATM   32  C   UNL     1      -9.582   9.694  70.270  1.00  0.00    -0.254 A  
HETATM   33  F   UNL     1      -8.328  10.141  70.286  1.00  0.00    -0.198 F  
BRANCH  31  34
HETATM   34  N   UNL     1     -10.114  11.713  69.129  1.00  0.00    -0.419 N  
HETATM   35  H   UNL     1      -9.459  12.389  69.522  1.00  0.00     0.000 HD 
BRANCH  34  36
HETATM   36  S   UNL     1     -10.745  11.866  67.569  1.00  0.00    -0.236 S  
HETATM   37  O   UNL     1     -11.772  10.875  67.348  1.00  0.00    -0.510 OA 
HETATM   38  O   UNL     1     -10.992  13.283  67.408  1.00  0.00    -0.263 OA 
HETATM   39  C   UNL     1      -9.285  11.420  66.664  1.00  0.00    -0.181 C  
ENDBRANCH  34  36
ENDBRANCH  31  34
ENDBRANCH  21  26
ENDBRANCH  16  18
ENDBRANCH  10  12
ENDBRANCH   9  10
ENDBRANCH   7   9
ENDBRANCH   4   7
ENDBRANCH   2   3
TORSDOF 10
ENDMDL
MODEL      179
REMARK 921   NORMALIZED FREE ENERGY PREDICTED BY IDOCK:   -4.14 KCAL/MOL
REMARK 922        TOTAL FREE ENERGY PREDICTED BY IDOCK:   -8.52 KCAL/MOL
REMARK 923 INTER-LIGAND FREE ENERGY PREDICTED BY IDOCK:   -8.05 KCAL/MOL
REMARK 924 INTRA-LIGAND FREE ENERGY PREDICTED BY IDOCK:   -0.47 KCAL/MOL
REMARK 927      BINDING AFFINITY PREDICTED BY RF-SCORE:    0.00 PKD
ROOT
HETATM    1  C   UNL     1     -10.480   4.176  64.642  1.00  0.00    -0.168 C  
HETATM    2  O   UNL     1     -10.042   4.710  65.905  1.00  0.00    -0.216 OA 
ENDROOT
BRANCH   2   3
HETATM    3  C   UNL     1      -8.994   5.579  65.798  1.00  0.00    -0.154 C  
HETATM    4  N   UNL     1      -8.892   6.069  64.514  1.00  0.00    -0.339 N  
HETATM    5  O   UNL     1      -8.252   5.859  66.729  1.00  0.00    -0.105 OA 
HETATM    6  H   UNL     1      -9.571   5.763  63.817  1.00  0.00     0.000 HD 
BRANCH   4   7
HETATM    7  C   UNL     1      -7.840   7.020  64.107  1.00  0.00    -0.106 C  
HETATM    8  C   UNL     1      -7.513   6.759  62.601  1.00  0.00    -0.080 C  
BRANCH   7   9
HETATM    9  C   UNL     1      -8.176   8.564  64.245  1.00  0.00    -0.145 C  
BRANCH   9  10
HETATM   10  N   UNL     1      -7.228   9.576  64.819  1.00  0.00    -0.107 NA 
HETATM   11  H   UNL     1      -6.385   9.801  64.289  1.00  0.00     0.000 HD 
BRANCH  10  12
HETATM   12  C   UNL     1      -7.435  10.232  66.048  1.00  0.00    -0.128 A  
HETATM   13  N   UNL     1      -6.447  11.014  66.487  1.00  0.00    -0.123 NA 
HETATM   14  C   UNL     1      -6.607  11.527  67.711  1.00  0.00    -0.068 A  
HETATM   15  C   UNL     1      -7.736  11.390  68.496  1.00  0.00    -0.133 A  
HETATM   16  C   UNL     1      -8.768  10.603  68.015  1.00  0.00    -0.126 A  
HETATM   17  N   UNL     1      -8.579   9.965  66.792  1.00  0.00    -0.128 NA 
BRANCH  16  18
HETATM   18  C   UNL     1     -10.033  10.493  68.889  1.00  0.00    -0.213 A  
HETATM   19  C   UNL     1     -10.376   9.271  69.498  1.00  0.00    -0.216 A  
HETATM   20  N   UNL     1     -11.463   9.460  70.304  1.00  0.00    -0.221 NA 
HETATM   21  C   UNL     1     -11.057  11.382  69.466  1.00  0.00    -0.211 A  
HETATM   22  N   UNL     1     -11.909  10.706  70.269  1.00  0.00    -0.312 NA 
BRANCH  20  23
HETATM   23  C   UNL     1     -12.126   8.499  71.204  1.00  0.00    -0.252 C  
HETATM   24  C   UNL     1     -12.740   9.164  72.444  1.00  0.00    -0.410 C  
HETATM   25  C   UNL     1     -11.182   7.377  71.664  1.00  0.00    -0.276 C  
ENDBRANCH  20  23
BRANCH  21  26
HETATM   26  C   UNL     1     -11.371  12.803  69.313  1.00  0.00    -0.307 A  
HETATM   27  C   UNL     1     -10.557  13.705  68.585  1.00  0.00    -0.260 A  
HETATM   28  C   UNL     1     -10.807  15.081  68.622  1.00  0.00    -0.249 A  
HETATM   29 CL   UNL     1      -9.926  16.171  67.627  1.00  0.00    -0.238 Cl 
HETATM   30  C   UNL     1     -11.787  15.594  69.483  1.00  0.00    -0.387 A  
HETATM   31  C   UNL     1     -12.563  14.684  70.176  1.00  0.00    -0.283 A  
HETATM   32  C   UNL     1     -12.456  13.325  69.956  1.00  0.00    -0.100 A  
HETATM   33  F   UNL     1     -13.473  12.559  70.347  1.00  0.00     0.424 F  
BRANCH  31  34
HETATM   34  N   UNL     1     -13.549  15.086  71.126  1.00  0.00    -0.541 N  
HETATM   35  H   UNL     1     -14.491  15.368  70.853  1.00  0.00     0.000 HD 
BRANCH  34  36
HETATM   36  S   UNL     1     -13.042  15.063  72.737  1.00  0.00    -0.497 S  
HETATM   37  O   UNL     1     -13.543  16.224  73.434  1.00  0.00    -0.612 OA 
HETATM   38  O   UNL     1     -13.313  13.715  73.189  1.00  0.00    -0.518 OA 
HETATM   39  C   UNL     1     -11.300  15.245  72.454  1.00  0.00    -0.250 C  
ENDBRANCH  34  36
ENDBRANCH  31  34
ENDBRANCH  21  26
ENDBRANCH  16  18
ENDBRANCH  10  12
ENDBRANCH   9  10
ENDBRANCH   7   9
ENDBRANCH   4   7
ENDBRANCH   2   3
TORSDOF 10
ENDMDL
MODEL      180
REMARK 921   NORMALIZED FREE ENERGY PREDICTED BY IDOCK:   -4.13 KCAL/MOL
REMARK 922        TOTAL FREE ENERGY PREDICTED BY IDOCK:   -8.50 KCAL/MOL
REMARK 923 INTER-LIGAND FREE ENERGY PREDICTED BY IDOCK:   -7.80 KCAL/MOL
REMARK 924 INTRA-LIGAND FREE ENERGY PREDICTED BY IDOCK:   -0.70 KCAL/MOL
REMARK 927      BINDING AFFINITY PREDICTED BY RF-SCORE:    0.00 PKD
ROOT
HETATM    1  C   UNL     1      -5.468  14.496  67.851  1.00  0.00    -0.084 C  
HETATM    2  O   UNL     1      -6.896  14.485  67.671  1.00  0.00    -0.168 OA 
ENDROOT
BRANCH   2   3
HETATM    3  C   UNL     1      -7.422  15.713  67.392  1.00  0.00    -0.205 C  
HETATM    4  N   UNL     1      -8.565  15.937  68.128  1.00  0.00    -0.167 N  
HETATM    5  O   UNL     1      -6.933  16.489  66.582  1.00  0.00    -0.216 OA 
HETATM    6  H   UNL     1      -8.880  15.213  68.775  1.00  0.00     0.000 HD 
BRANCH   4   7
HETATM    7  C   UNL     1      -9.352  17.179  68.019  1.00  0.00    -0.254 C  
HETATM    8  C   UNL     1      -8.467  18.356  68.542  1.00  0.00    -0.346 C  
BRANCH   7   9
HETATM    9  C   UNL     1      -9.854  17.587  66.571  1.00  0.00    -0.310 C  
BRANCH   9  10
HETATM   10  N   UNL     1     -10.723  16.716  65.712  1.00  0.00    -0.261 NA 
HETATM   11  H   UNL     1     -11.385  17.169  65.082  1.00  0.00     0.000 HD 
BRANCH  10  12
HETATM   12  C   UNL     1     -10.676  15.308  65.728  1.00  0.00    -0.348 A  
HETATM   13  N   UNL     1     -10.570  14.696  64.548  1.00  0.00    -0.216 NA 
HETATM   14  C   UNL     1     -10.656  13.362  64.570  1.00  0.00    -0.425 A  
HETATM   15  C   UNL     1     -10.744  12.585  65.709  1.00  0.00    -0.299 A  
HETATM   16  C   UNL     1     -10.820  13.231  66.930  1.00  0.00    -0.276 A  
HETATM   17  N   UNL     1     -10.848  14.623  66.925  1.00  0.00    -0.299 NA 
BRANCH  16  18
HETATM   18  C   UNL     1     -10.882  12.345  68.191  1.00  0.00    -0.250 A  
HETATM   19  C   UNL     1     -12.034  12.334  69.000  1.00  0.00    -0.248 A  
HETATM   20  N   UNL     1     -11.886  11.392  69.980  1.00  0.00    -0.333 NA 
HETATM   21  C   UNL     1     -10.085  11.287  68.836  1.00  0.00    -0.170 A  
HETATM   22  N   UNL     1     -10.712  10.782  69.922  1.00  0.00    -0.202 NA 
BRANCH  20  23
HETATM   23  C   UNL     1     -12.855  10.961  71.004  1.00  0.00    -0.376 C  
HETATM   24  C   UNL     1     -13.114  12.032  72.072  1.00  0.00    -0.456 C  
HETATM   25  C   UNL     1     -12.431   9.660  71.704  1.00  0.00    -0.494 C  
ENDBRANCH  20  23
BRANCH  21  26
HETATM   26  C   UNL     1      -8.761  10.716  68.585  1.00  0.00    -0.148 A  
HETATM   27  C   UNL     1      -7.906  11.163  67.548  1.00  0.00    -0.117 A  
HETATM   28  C   UNL     1      -6.732  10.466  67.240  1.00  0.00    -0.076 A  
HETATM   29 CL   UNL     1      -5.611  11.077  66.090  1.00  0.00    -0.137 Cl 
HETATM   30  C   UNL     1      -6.456   9.244  67.869  1.00  0.00    -0.059 A  
HETATM   31  C   UNL     1      -7.310   8.841  68.878  1.00  0.00    -0.078 A  
HETATM   32  C   UNL     1      -8.336   9.651  69.326  1.00  0.00    -0.137 A  
HETATM   33  F   UNL     1      -8.850   9.383  70.524  1.00  0.00    -0.201 F  
BRANCH  31  34
HETATM   34  N   UNL     1      -7.167   7.590  69.548  1.00  0.00    -0.079 N  
HETATM   35  H   UNL     1      -6.643   7.491  70.418  1.00  0.00     0.000 HD 
BRANCH  34  36
HETATM   36  S   UNL     1      -7.928   6.283  68.796  1.00  0.00    -0.102 S  
HETATM   37  O   UNL     1      -8.540   5.426  69.784  1.00  0.00    -0.098 OA 
HETATM   38  O   UNL     1      -8.684   6.871  67.710  1.00  0.00    -0.121 OA 
HETATM   39  C   UNL     1      -6.481   5.493  68.140  1.00  0.00    -0.044 C  
ENDBRANCH  34  36
ENDBRANCH  31  34
ENDBRANCH  21  26
ENDBRANCH  16  18
ENDBRANCH  10  12
ENDBRANCH   9  10
ENDBRANCH   7   9
ENDBRANCH   4   7
ENDBRANCH   2   3
TORSDOF 10
ENDMDL
MODEL      181
REMARK 921   NORMALIZED FREE ENERGY PREDICTED BY IDOCK:   -4.11 KCAL/MOL
REMARK 922        TOTAL FREE ENERGY PREDICTED BY IDOCK:   -8.47 KCAL/MOL
REMARK 923 INTER-LIGAND FREE ENERGY PREDICTED BY IDOCK:   -6.58 KCAL/MOL
REMARK 924 INTRA-LIGAND FREE ENERGY PREDICTED BY IDOCK:   -1.88 KCAL/MOL
REMARK 927      BINDING AFFINITY PREDICTED BY RF-SCORE:    0.00 PKD
ROOT
HETATM    1  C   UNL     1     -12.743  13.864  65.596  1.00  0.00    -0.495 C  
HETATM    2  O   UNL     1     -11.557  13.823  64.782  1.00  0.00    -0.335 OA 
ENDROOT
BRANCH   2   3
HETATM    3  C   UNL     1     -10.629  14.766  65.117  1.00  0.00    -0.417 C  
HETATM    4  N   UNL     1     -10.619  14.983  66.478  1.00  0.00    -0.298 N  
HETATM    5  O   UNL     1      -9.922  15.338  64.299  1.00  0.00     0.488 OA 
HETATM    6  H   UNL     1     -11.257  14.445  67.065  1.00  0.00     0.000 HD 
BRANCH   4   7
HETATM    7  C   UNL     1      -9.722  15.961  67.121  1.00  0.00    -0.224 C  
HETATM    8  C   UNL     1     -10.530  17.280  67.343  1.00  0.00    -0.338 C  
BRANCH   7   9
HETATM    9  C   UNL     1      -9.106  15.556  68.526  1.00  0.00    -0.196 C  
BRANCH   9  10
HETATM   10  N   UNL     1      -9.008  14.141  69.018  1.00  0.00    -0.385 NA 
HETATM   11  H   UNL     1      -8.350  13.938  69.770  1.00  0.00     0.000 HD 
BRANCH  10  12
HETATM   12  C   UNL     1      -9.772  13.079  68.498  1.00  0.00    -0.130 A  
HETATM   13  N   UNL     1     -11.026  12.966  68.941  1.00  0.00    -0.244 NA 
HETATM   14  C   UNL     1     -11.694  11.881  68.536  1.00  0.00    -0.330 A  
HETATM   15  C   UNL     1     -11.228  10.943  67.635  1.00  0.00    -0.379 A  
HETATM   16  C   UNL     1      -9.938  11.090  67.157  1.00  0.00    -0.187 A  
HETATM   17  N   UNL     1      -9.181  12.148  67.652  1.00  0.00    -0.175 NA 
BRANCH  16  18
HETATM   18  C   UNL     1      -9.449  10.053  66.126  1.00  0.00    -0.242 A  
HETATM   19  C   UNL     1      -9.241  10.424  64.784  1.00  0.00    -0.230 A  
HETATM   20  N   UNL     1      -8.703   9.367  64.103  1.00  0.00    -0.206 NA 
HETATM   21  C   UNL     1      -8.952   8.666  66.105  1.00  0.00    -0.180 A  
HETATM   22  N   UNL     1      -8.558   8.294  64.867  1.00  0.00    -0.105 NA 
BRANCH  20  23
HETATM   23  C   UNL     1      -8.239   9.305  62.706  1.00  0.00    -0.172 C  
HETATM   24  C   UNL     1      -7.632   7.945  62.335  1.00  0.00    -0.114 C  
HETATM   25  C   UNL     1      -7.217  10.406  62.377  1.00  0.00    -0.161 C  
ENDBRANCH  20  23
BRANCH  21  26
HETATM   26  C   UNL     1      -8.845   7.611  67.114  1.00  0.00    -0.129 A  
HETATM   27  C   UNL     1      -9.115   6.246  66.844  1.00  0.00    -0.132 A  
HETATM   28  C   UNL     1      -9.172   5.311  67.882  1.00  0.00    -0.112 A  
HETATM   29 CL   UNL     1      -9.348   3.632  67.557  1.00  0.00    -0.226 Cl 
HETATM   30  C   UNL     1      -9.090   5.735  69.215  1.00  0.00    -0.128 A  
HETATM   31  C   UNL     1      -8.823   7.072  69.441  1.00  0.00    -0.136 A  
HETATM   32  C   UNL     1      -8.543   7.941  68.404  1.00  0.00    -0.128 A  
HETATM   33  F   UNL     1      -7.924   9.080  68.708  1.00  0.00    -0.094 F  
BRANCH  31  34
HETATM   34  N   UNL     1      -8.777   7.633  70.752  1.00  0.00    -0.138 N  
HETATM   35  H   UNL     1      -9.554   8.160  71.151  1.00  0.00     0.000 HD 
BRANCH  34  36
HETATM   36  S   UNL     1      -7.341   7.360  71.598  1.00  0.00    -0.077 S  
HETATM   37  O   UNL     1      -6.642   6.226  71.041  1.00  0.00    -0.047 OA 
HETATM   38  O   UNL     1      -6.725   8.665  71.712  1.00  0.00    -0.075 OA 
HETATM   39  C   UNL     1      -8.051   6.911  73.160  1.00  0.00    -0.105 C  
ENDBRANCH  34  36
ENDBRANCH  31  34
ENDBRANCH  21  26
ENDBRANCH  16  18
ENDBRANCH  10  12
ENDBRANCH   9  10
ENDBRANCH   7   9
ENDBRANCH   4   7
ENDBRANCH   2   3
TORSDOF 10
ENDMDL
MODEL      182
REMARK 921   NORMALIZED FREE ENERGY PREDICTED BY IDOCK:   -4.08 KCAL/MOL
REMARK 922        TOTAL FREE ENERGY PREDICTED BY IDOCK:   -8.42 KCAL/MOL
REMARK 923 INTER-LIGAND FREE ENERGY PREDICTED BY IDOCK:   -6.80 KCAL/MOL
REMARK 924 INTRA-LIGAND FREE ENERGY PREDICTED BY IDOCK:   -1.61 KCAL/MOL
REMARK 927      BINDING AFFINITY PREDICTED BY RF-SCORE:    0.00 PKD
ROOT
HETATM    1  C   UNL     1      -6.089   5.614  66.928  1.00  0.00    -0.026 C  
HETATM    2  O   UNL     1      -6.869   6.755  66.529  1.00  0.00    -0.058 OA 
ENDROOT
BRANCH   2   3
HETATM    3  C   UNL     1      -7.143   6.790  65.192  1.00  0.00    -0.067 C  
HETATM    4  N   UNL     1      -7.591   5.564  64.750  1.00  0.00    -0.075 N  
HETATM    5  O   UNL     1      -6.991   7.786  64.498  1.00  0.00    -0.057 OA 
HETATM    6  H   UNL     1      -7.677   4.802  65.423  1.00  0.00     0.000 HD 
BRANCH   4   7
HETATM    7  C   UNL     1      -7.950   5.308  63.343  1.00  0.00    -0.097 C  
HETATM    8  C   UNL     1      -6.911   4.300  62.757  1.00  0.00    -0.035 C  
BRANCH   7   9
HETATM    9  C   UNL     1      -9.389   4.698  63.069  1.00  0.00    -0.018 C  
BRANCH   9  10
HETATM   10  N   UNL     1     -10.340   4.282  64.153  1.00  0.00    -0.423 NA 
HETATM   11  H   UNL     1     -11.271   3.965  63.881  1.00  0.00     0.000 HD 
BRANCH  10  12
HETATM   12  C   UNL     1     -10.019   4.306  65.525  1.00  0.00    -0.225 A  
HETATM   13  N   UNL     1      -9.293   3.288  65.990  1.00  0.00    -0.145 NA 
HETATM   14  C   UNL     1      -9.106   3.260  67.314  1.00  0.00    -0.174 A  
HETATM   15  C   UNL     1      -9.516   4.236  68.201  1.00  0.00    -0.213 A  
HETATM   16  C   UNL     1     -10.240   5.303  67.701  1.00  0.00    -0.170 A  
HETATM   17  N   UNL     1     -10.546   5.298  66.343  1.00  0.00    -0.304 NA 
BRANCH  16  18
HETATM   18  C   UNL     1     -10.657   6.399  68.702  1.00  0.00    -0.300 A  
HETATM   19  C   UNL     1     -11.245   6.056  69.934  1.00  0.00    -0.368 A  
HETATM   20  N   UNL     1     -11.415   7.187  70.682  1.00  0.00    -0.298 NA 
HETATM   21  C   UNL     1     -10.514   7.857  68.866  1.00  0.00    -0.190 A  
HETATM   22  N   UNL     1     -11.019   8.279  70.046  1.00  0.00    -0.232 NA 
BRANCH  20  23
HETATM   23  C   UNL     1     -11.909   7.317  72.065  1.00  0.00    -0.296 C  
HETATM   24  C   UNL     1     -12.708   8.606  72.297  1.00  0.00    -0.450 C  
HETATM   25  C   UNL     1     -10.778   7.245  73.103  1.00  0.00    -0.411 C  
ENDBRANCH  20  23
BRANCH  21  26
HETATM   26  C   UNL     1      -9.998   8.929  68.013  1.00  0.00    -0.215 A  
HETATM   27  C   UNL     1     -10.007   8.870  66.598  1.00  0.00    -0.346 A  
HETATM   28  C   UNL     1      -9.341   9.838  65.839  1.00  0.00    -0.205 A  
HETATM   29 CL   UNL     1      -9.469   9.867  64.125  1.00  0.00    -0.313 Cl 
HETATM   30  C   UNL     1      -8.548  10.804  66.473  1.00  0.00    -0.150 A  
HETATM   31  C   UNL     1      -8.564  10.833  67.854  1.00  0.00    -0.125 A  
HETATM   32  C   UNL     1      -9.405  10.018  68.586  1.00  0.00    -0.156 A  
HETATM   33  F   UNL     1      -9.653  10.366  69.847  1.00  0.00    -0.225 F  
BRANCH  31  34
HETATM   34  N   UNL     1      -7.752  11.730  68.611  1.00  0.00    -0.156 N  
HETATM   35  H   UNL     1      -8.145  12.501  69.152  1.00  0.00     0.000 HD 
BRANCH  34  36
HETATM   36  S   UNL     1      -6.093  11.422  68.545  1.00  0.00    -0.046 S  
HETATM   37  O   UNL     1      -5.842  10.191  67.832  1.00  0.00    -0.042 OA 
HETATM   38  O   UNL     1      -5.499  12.680  68.146  1.00  0.00    -0.059 OA 
HETATM   39  C   UNL     1      -5.816  11.170  70.279  1.00  0.00    -0.137 C  
ENDBRANCH  34  36
ENDBRANCH  31  34
ENDBRANCH  21  26
ENDBRANCH  16  18
ENDBRANCH  10  12
ENDBRANCH   9  10
ENDBRANCH   7   9
ENDBRANCH   4   7
ENDBRANCH   2   3
TORSDOF 10
ENDMDL
MODEL      183
REMARK 921   NORMALIZED FREE ENERGY PREDICTED BY IDOCK:   -4.03 KCAL/MOL
REMARK 922        TOTAL FREE ENERGY PREDICTED BY IDOCK:   -8.35 KCAL/MOL
REMARK 923 INTER-LIGAND FREE ENERGY PREDICTED BY IDOCK:   -7.32 KCAL/MOL
REMARK 924 INTRA-LIGAND FREE ENERGY PREDICTED BY IDOCK:   -1.02 KCAL/MOL
REMARK 927      BINDING AFFINITY PREDICTED BY RF-SCORE:    0.00 PKD
ROOT
HETATM    1  C   UNL     1      -5.800   7.289  69.106  1.00  0.00    -0.019 C  
HETATM    2  O   UNL     1      -7.147   6.898  69.426  1.00  0.00    -0.074 OA 
ENDROOT
BRANCH   2   3
HETATM    3  C   UNL     1      -8.004   6.965  68.366  1.00  0.00    -0.122 C  
HETATM    4  N   UNL     1      -7.412   6.466  67.225  1.00  0.00    -0.086 N  
HETATM    5  O   UNL     1      -9.136   7.422  68.440  1.00  0.00    -0.134 OA 
HETATM    6  H   UNL     1      -6.458   6.110  67.284  1.00  0.00     0.000 HD 
BRANCH   4   7
HETATM    7  C   UNL     1      -8.103   6.425  65.923  1.00  0.00    -0.124 C  
HETATM    8  C   UNL     1      -9.255   5.374  66.023  1.00  0.00    -0.166 C  
BRANCH   7   9
HETATM    9  C   UNL     1      -8.756   7.778  65.413  1.00  0.00    -0.020 C  
BRANCH   9  10
HETATM   10  N   UNL     1      -8.009   9.075  65.300  1.00  0.00    -0.109 NA 
HETATM   11  H   UNL     1      -7.494   9.260  64.439  1.00  0.00     0.000 HD 
BRANCH  10  12
HETATM   12  C   UNL     1      -7.978  10.050  66.316  1.00  0.00    -0.111 A  
HETATM   13  N   UNL     1      -6.774  10.449  66.730  1.00  0.00    -0.082 NA 
HETATM   14  C   UNL     1      -6.760  11.278  67.779  1.00  0.00    -0.069 A  
HETATM   15  C   UNL     1      -7.878  11.815  68.389  1.00  0.00    -0.141 A  
HETATM   16  C   UNL     1      -9.121  11.418  67.929  1.00  0.00    -0.164 A  
HETATM   17  N   UNL     1      -9.162  10.468  66.912  1.00  0.00    -0.154 NA 
BRANCH  16  18
HETATM   18  C   UNL     1     -10.354  12.057  68.599  1.00  0.00    -0.211 A  
HETATM   19  C   UNL     1     -11.141  11.316  69.500  1.00  0.00    -0.238 A  
HETATM   20  N   UNL     1     -12.096  12.132  70.039  1.00  0.00    -0.304 NA 
HETATM   21  C   UNL     1     -10.984  13.384  68.714  1.00  0.00    -0.257 A  
HETATM   22  N   UNL     1     -12.043  13.363  69.554  1.00  0.00    -0.304 NA 
BRANCH  20  23
HETATM   23  C   UNL     1     -13.089  11.829  71.086  1.00  0.00    -0.053 C  
HETATM   24  C   UNL     1     -13.132  12.889  72.196  1.00  0.00    -0.466 C  
HETATM   25  C   UNL     1     -12.864  10.452  71.729  1.00  0.00    -0.561 C  
ENDBRANCH  20  23
BRANCH  21  26
HETATM   26  C   UNL     1     -10.741  14.682  68.083  1.00  0.00    -0.242 A  
HETATM   27  C   UNL     1     -11.154  14.996  66.765  1.00  0.00    -0.326 A  
HETATM   28  C   UNL     1     -10.740  16.183  66.150  1.00  0.00    -0.221 A  
HETATM   29 CL   UNL     1     -11.353  16.648  64.614  1.00  0.00    -0.185 Cl 
HETATM   30  C   UNL     1      -9.806  17.013  66.785  1.00  0.00    -0.283 A  
HETATM   31  C   UNL     1      -9.427  16.677  68.070  1.00  0.00    -0.224 A  
HETATM   32  C   UNL     1     -10.017  15.629  68.749  1.00  0.00    -0.213 A  
HETATM   33  F   UNL     1      -9.896  15.612  70.075  1.00  0.00    -0.276 F  
BRANCH  31  34
HETATM   34  N   UNL     1      -8.439  17.410  68.793  1.00  0.00    -0.259 N  
HETATM   35  H   UNL     1      -7.861  16.984  69.518  1.00  0.00     0.000 HD 
BRANCH  34  36
HETATM   36  S   UNL     1      -8.295  19.036  68.362  1.00  0.00    -0.358 S  
HETATM   37  O   UNL     1      -7.687  19.155  67.058  1.00  0.00    -0.238 OA 
HETATM   38  O   UNL     1      -9.587  19.615  68.665  1.00  0.00    -0.372 OA 
HETATM   39  C   UNL     1      -7.130  19.525  69.607  1.00  0.00    -0.156 C  
ENDBRANCH  34  36
ENDBRANCH  31  34
ENDBRANCH  21  26
ENDBRANCH  16  18
ENDBRANCH  10  12
ENDBRANCH   9  10
ENDBRANCH   7   9
ENDBRANCH   4   7
ENDBRANCH   2   3
TORSDOF 10
ENDMDL
MODEL      184
REMARK 921   NORMALIZED FREE ENERGY PREDICTED BY IDOCK:   -4.03 KCAL/MOL
REMARK 922        TOTAL FREE ENERGY PREDICTED BY IDOCK:   -8.34 KCAL/MOL
REMARK 923 INTER-LIGAND FREE ENERGY PREDICTED BY IDOCK:   -7.32 KCAL/MOL
REMARK 924 INTRA-LIGAND FREE ENERGY PREDICTED BY IDOCK:   -1.01 KCAL/MOL
REMARK 927      BINDING AFFINITY PREDICTED BY RF-SCORE:    0.00 PKD
ROOT
HETATM    1  C   UNL     1      -6.262  17.812  68.009  1.00  0.00    -0.167 C  
HETATM    2  O   UNL     1      -6.936  17.288  66.851  1.00  0.00    -0.158 OA 
ENDROOT
BRANCH   2   3
HETATM    3  C   UNL     1      -8.270  17.072  67.043  1.00  0.00    -0.204 C  
HETATM    4  N   UNL     1      -8.831  16.454  65.947  1.00  0.00    -0.238 N  
HETATM    5  O   UNL     1      -8.868  17.404  68.058  1.00  0.00    -0.239 OA 
HETATM    6  H   UNL     1      -8.231  16.224  65.154  1.00  0.00     0.000 HD 
BRANCH   4   7
HETATM    7  C   UNL     1     -10.263  16.110  65.872  1.00  0.00    -0.360 C  
HETATM    8  C   UNL     1     -11.020  17.335  65.265  1.00  0.00     0.089 C  
BRANCH   7   9
HETATM    9  C   UNL     1     -10.654  14.846  64.997  1.00  0.00    -0.422 C  
BRANCH   9  10
HETATM   10  N   UNL     1      -9.856  13.576  64.963  1.00  0.00    -0.590 NA 
HETATM   11  H   UNL     1      -9.636  13.170  64.053  1.00  0.00     0.000 HD 
BRANCH  10  12
HETATM   12  C   UNL     1      -9.394  12.912  66.116  1.00  0.00    -0.092 A  
HETATM   13  N   UNL     1      -8.973  13.678  67.124  1.00  0.00    -0.223 NA 
HETATM   14  C   UNL     1      -8.421  13.035  68.158  1.00  0.00    -0.176 A  
HETATM   15  C   UNL     1      -8.345  11.662  68.299  1.00  0.00    -0.159 A  
HETATM   16  C   UNL     1      -8.816  10.878  67.261  1.00  0.00    -0.134 A  
HETATM   17  N   UNL     1      -9.291  11.525  66.124  1.00  0.00    -0.211 NA 
BRANCH  16  18
HETATM   18  C   UNL     1      -8.756   9.349  67.453  1.00  0.00    -0.128 A  
HETATM   19  C   UNL     1      -8.535   8.499  66.353  1.00  0.00    -0.117 A  
HETATM   20  N   UNL     1      -8.411   7.212  66.798  1.00  0.00    -0.118 NA 
HETATM   21  C   UNL     1      -8.728   8.376  68.560  1.00  0.00    -0.136 A  
HETATM   22  N   UNL     1      -8.561   7.113  68.110  1.00  0.00    -0.128 NA 
BRANCH  20  23
HETATM   23  C   UNL     1      -8.090   5.995  66.031  1.00  0.00    -0.113 C  
HETATM   24  C   UNL     1      -8.027   6.239  64.517  1.00  0.00    -0.121 C  
HETATM   25  C   UNL     1      -9.079   4.850  66.303  1.00  0.00    -0.127 C  
ENDBRANCH  20  23
BRANCH  21  26
HETATM   26  C   UNL     1      -8.891   8.483  70.010  1.00  0.00    -0.141 A  
HETATM   27  C   UNL     1      -7.818   8.354  70.926  1.00  0.00    -0.099 A  
HETATM   28  C   UNL     1      -8.058   8.286  72.302  1.00  0.00    -0.149 A  
HETATM   29 CL   UNL     1      -6.762   8.282  73.431  1.00  0.00    -0.135 Cl 
HETATM   30  C   UNL     1      -9.372   8.214  72.783  1.00  0.00    -0.344 A  
HETATM   31  C   UNL     1     -10.394   8.346  71.862  1.00  0.00    -0.283 A  
HETATM   32  C   UNL     1     -10.141   8.641  70.537  1.00  0.00    -0.196 A  
HETATM   33  F   UNL     1     -11.147   9.132  69.815  1.00  0.00    -0.235 F  
BRANCH  31  34
HETATM   34  N   UNL     1     -11.770   8.229  72.222  1.00  0.00    -0.364 N  
HETATM   35  H   UNL     1     -12.259   8.946  72.759  1.00  0.00     0.000 HD 
BRANCH  34  36
HETATM   36  S   UNL     1     -12.530   6.815  71.697  1.00  0.00    -0.301 S  
HETATM   37  O   UNL     1     -12.119   6.500  70.349  1.00  0.00    -0.360 OA 
HETATM   38  O   UNL     1     -12.368   5.880  72.790  1.00  0.00    -0.007 OA 
HETATM   39  C   UNL     1     -14.198   7.417  71.684  1.00  0.00    -0.440 C  
ENDBRANCH  34  36
ENDBRANCH  31  34
ENDBRANCH  21  26
ENDBRANCH  16  18
ENDBRANCH  10  12
ENDBRANCH   9  10
ENDBRANCH   7   9
ENDBRANCH   4   7
ENDBRANCH   2   3
TORSDOF 10
ENDMDL
MODEL      185
REMARK 921   NORMALIZED FREE ENERGY PREDICTED BY IDOCK:   -3.98 KCAL/MOL
REMARK 922        TOTAL FREE ENERGY PREDICTED BY IDOCK:   -8.27 KCAL/MOL
REMARK 923 INTER-LIGAND FREE ENERGY PREDICTED BY IDOCK:   -7.00 KCAL/MOL
REMARK 924 INTRA-LIGAND FREE ENERGY PREDICTED BY IDOCK:   -1.27 KCAL/MOL
REMARK 927      BINDING AFFINITY PREDICTED BY RF-SCORE:    0.00 PKD
ROOT
HETATM    1  C   UNL     1      -9.168  10.452  70.054  1.00  0.00     0.290 C  
HETATM    2  O   UNL     1      -8.082   9.606  69.635  1.00  0.00    -0.110 OA 
ENDROOT
BRANCH   2   3
HETATM    3  C   UNL     1      -6.850  10.161  69.824  1.00  0.00    -0.105 C  
HETATM    4  N   UNL     1      -6.568  11.080  68.836  1.00  0.00    -0.053 N  
HETATM    5  O   UNL     1      -6.108   9.858  70.748  1.00  0.00    -0.081 OA 
HETATM    6  H   UNL     1      -7.267  11.251  68.113  1.00  0.00     0.000 HD 
BRANCH   4   7
HETATM    7  C   UNL     1      -5.298  11.827  68.782  1.00  0.00    -0.049 C  
HETATM    8  C   UNL     1      -5.151  12.422  67.345  1.00  0.00    -0.084 C  
BRANCH   7   9
HETATM    9  C   UNL     1      -5.129  13.032  69.800  1.00  0.00    -0.083 C  
BRANCH   9  10
HETATM   10  N   UNL     1      -5.163  14.476  69.396  1.00  0.00    -0.086 NA 
HETATM   11  H   UNL     1      -4.275  14.955  69.243  1.00  0.00     0.000 HD 
BRANCH  10  12
HETATM   12  C   UNL     1      -6.352  15.210  69.217  1.00  0.00    -0.117 A  
HETATM   13  N   UNL     1      -6.224  16.516  68.978  1.00  0.00    -0.152 NA 
HETATM   14  C   UNL     1      -7.361  17.218  68.937  1.00  0.00    -0.243 A  
HETATM   15  C   UNL     1      -8.633  16.687  69.024  1.00  0.00    -0.190 A  
HETATM   16  C   UNL     1      -8.754  15.326  69.240  1.00  0.00    -0.237 A  
HETATM   17  N   UNL     1      -7.583  14.590  69.400  1.00  0.00    -0.084 NA 
BRANCH  16  18
HETATM   18  C   UNL     1     -10.182  14.748  69.298  1.00  0.00    -0.193 A  
HETATM   19  C   UNL     1     -11.023  15.031  70.390  1.00  0.00    -0.190 A  
HETATM   20  N   UNL     1     -12.262  14.504  70.153  1.00  0.00    -0.323 NA 
HETATM   21  C   UNL     1     -11.110  14.009  68.424  1.00  0.00    -0.253 A  
HETATM   22  N   UNL     1     -12.324  13.856  68.999  1.00  0.00    -0.224 NA 
BRANCH  20  23
HETATM   23  C   UNL     1     -13.488  14.617  70.964  1.00  0.00    -0.320 C  
HETATM   24  C   UNL     1     -13.466  15.819  71.917  1.00  0.00    -0.428 C  
HETATM   25  C   UNL     1     -13.771  13.346  71.781  1.00  0.00    -0.335 C  
ENDBRANCH  20  23
BRANCH  21  26
HETATM   26  C   UNL     1     -10.981  13.373  67.112  1.00  0.00    -0.292 A  
HETATM   27  C   UNL     1     -12.080  13.139  66.249  1.00  0.00    -0.460 A  
HETATM   28  C   UNL     1     -11.927  12.370  65.090  1.00  0.00    -0.400 A  
HETATM   29 CL   UNL     1     -13.209  12.203  63.959  1.00  0.00    -0.209 Cl 
HETATM   30  C   UNL     1     -10.714  11.715  64.838  1.00  0.00    -0.352 A  
HETATM   31  C   UNL     1      -9.663  11.968  65.699  1.00  0.00    -0.223 A  
HETATM   32  C   UNL     1      -9.763  12.907  66.707  1.00  0.00    -0.246 A  
HETATM   33  F   UNL     1      -8.628  13.373  67.226  1.00  0.00    -0.176 F  
BRANCH  31  34
HETATM   34  N   UNL     1      -8.401  11.314  65.580  1.00  0.00    -0.373 N  
HETATM   35  H   UNL     1      -7.515  11.803  65.711  1.00  0.00     0.000 HD 
BRANCH  34  36
HETATM   36  S   UNL     1      -8.479   9.669  65.206  1.00  0.00    -0.156 S  
HETATM   37  O   UNL     1      -9.247   8.966  66.207  1.00  0.00    -0.175 OA 
HETATM   38  O   UNL     1      -8.822   9.626  63.800  1.00  0.00    -0.216 OA 
HETATM   39  C   UNL     1      -6.758   9.285  65.400  1.00  0.00    -0.073 C  
ENDBRANCH  34  36
ENDBRANCH  31  34
ENDBRANCH  21  26
ENDBRANCH  16  18
ENDBRANCH  10  12
ENDBRANCH   9  10
ENDBRANCH   7   9
ENDBRANCH   4   7
ENDBRANCH   2   3
TORSDOF 10
ENDMDL
MODEL      186
REMARK 921   NORMALIZED FREE ENERGY PREDICTED BY IDOCK:   -3.96 KCAL/MOL
REMARK 922        TOTAL FREE ENERGY PREDICTED BY IDOCK:   -8.24 KCAL/MOL
REMARK 923 INTER-LIGAND FREE ENERGY PREDICTED BY IDOCK:   -7.74 KCAL/MOL
REMARK 924 INTRA-LIGAND FREE ENERGY PREDICTED BY IDOCK:   -0.50 KCAL/MOL
REMARK 927      BINDING AFFINITY PREDICTED BY RF-SCORE:    0.00 PKD
ROOT
HETATM    1  C   UNL     1     -11.776  17.461  74.004  1.00  0.00     0.419 C  
HETATM    2  O   UNL     1     -12.406  16.259  74.484  1.00  0.00    -0.674 OA 
ENDROOT
BRANCH   2   3
HETATM    3  C   UNL     1     -13.305  15.725  73.608  1.00  0.00    -0.255 C  
HETATM    4  N   UNL     1     -12.804  14.580  73.027  1.00  0.00    -0.466 N  
HETATM    5  O   UNL     1     -14.399  16.221  73.376  1.00  0.00    -0.049 OA 
HETATM    6  H   UNL     1     -11.874  14.259  73.299  1.00  0.00     0.000 HD 
BRANCH   4   7
HETATM    7  C   UNL     1     -13.557  13.798  72.029  1.00  0.00    -0.479 C  
HETATM    8  C   UNL     1     -14.308  14.804  71.098  1.00  0.00    -0.271 C  
BRANCH   7   9
HETATM    9  C   UNL     1     -12.718  12.837  71.086  1.00  0.00    -0.263 C  
BRANCH   9  10
HETATM   10  N   UNL     1     -11.779  13.323  70.021  1.00  0.00    -0.490 NA 
HETATM   11  H   UNL     1     -11.447  14.286  70.075  1.00  0.00     0.000 HD 
BRANCH  10  12
HETATM   12  C   UNL     1     -11.332  12.525  68.950  1.00  0.00    -0.297 A  
HETATM   13  N   UNL     1     -11.263  13.108  67.753  1.00  0.00    -0.264 NA 
HETATM   14  C   UNL     1     -10.960  12.305  66.727  1.00  0.00    -0.276 A  
HETATM   15  C   UNL     1     -10.624  10.969  66.829  1.00  0.00    -0.317 A  
HETATM   16  C   UNL     1     -10.666  10.384  68.082  1.00  0.00    -0.236 A  
HETATM   17  N   UNL     1     -11.090  11.170  69.149  1.00  0.00    -0.229 NA 
BRANCH  16  18
HETATM   18  C   UNL     1     -10.253   8.902  68.179  1.00  0.00    -0.245 A  
HETATM   19  C   UNL     1     -10.187   8.101  67.022  1.00  0.00    -0.308 A  
HETATM   20  N   UNL     1      -9.690   6.872  67.354  1.00  0.00    -0.133 NA 
HETATM   21  C   UNL     1      -9.721   7.968  69.187  1.00  0.00    -0.163 A  
HETATM   22  N   UNL     1      -9.441   6.759  68.650  1.00  0.00    -0.133 NA 
BRANCH  20  23
HETATM   23  C   UNL     1      -9.362   5.737  66.473  1.00  0.00    -0.152 C  
HETATM   24  C   UNL     1      -9.802   4.384  67.049  1.00  0.00    -0.227 C  
HETATM   25  C   UNL     1      -7.864   5.666  66.137  1.00  0.00    -0.100 C  
ENDBRANCH  20  23
BRANCH  21  26
HETATM   26  C   UNL     1      -9.488   8.056  70.629  1.00  0.00    -0.167 A  
HETATM   27  C   UNL     1      -8.247   8.442  71.194  1.00  0.00    -0.154 A  
HETATM   28  C   UNL     1      -8.026   8.336  72.572  1.00  0.00    -0.137 A  
HETATM   29 CL   UNL     1      -6.586   8.941  73.289  1.00  0.00     0.045 Cl 
HETATM   30  C   UNL     1      -8.985   7.725  73.392  1.00  0.00    -0.314 A  
HETATM   31  C   UNL     1     -10.183   7.363  72.807  1.00  0.00    -0.238 A  
HETATM   32  C   UNL     1     -10.475   7.681  71.495  1.00  0.00    -0.204 A  
HETATM   33  F   UNL     1     -11.755   7.659  71.128  1.00  0.00    -0.276 F  
BRANCH  31  34
HETATM   34  N   UNL     1     -11.209   6.679  73.525  1.00  0.00    -0.439 N  
HETATM   35  H   UNL     1     -11.880   7.166  74.120  1.00  0.00     0.000 HD 
BRANCH  34  36
HETATM   36  S   UNL     1     -11.233   5.003  73.318  1.00  0.00    -0.309 S  
HETATM   37  O   UNL     1     -12.520   4.471  73.700  1.00  0.00     0.426 OA 
HETATM   38  O   UNL     1     -10.667   4.785  72.004  1.00  0.00    -0.155 OA 
HETATM   39  C   UNL     1     -10.027   4.582  74.550  1.00  0.00    -0.202 C  
ENDBRANCH  34  36
ENDBRANCH  31  34
ENDBRANCH  21  26
ENDBRANCH  16  18
ENDBRANCH  10  12
ENDBRANCH   9  10
ENDBRANCH   7   9
ENDBRANCH   4   7
ENDBRANCH   2   3
TORSDOF 10
ENDMDL
MODEL      187
REMARK 921   NORMALIZED FREE ENERGY PREDICTED BY IDOCK:   -3.95 KCAL/MOL
REMARK 922        TOTAL FREE ENERGY PREDICTED BY IDOCK:   -8.22 KCAL/MOL
REMARK 923 INTER-LIGAND FREE ENERGY PREDICTED BY IDOCK:   -8.81 KCAL/MOL
REMARK 924 INTRA-LIGAND FREE ENERGY PREDICTED BY IDOCK:    0.60 KCAL/MOL
REMARK 927      BINDING AFFINITY PREDICTED BY RF-SCORE:    0.00 PKD
ROOT
HETATM    1  C   UNL     1      -7.077  11.741  68.683  1.00  0.00    -0.101 C  
HETATM    2  O   UNL     1      -7.962  11.128  69.638  1.00  0.00     0.109 OA 
ENDROOT
BRANCH   2   3
HETATM    3  C   UNL     1      -7.784   9.781  69.764  1.00  0.00    -0.143 C  
HETATM    4  N   UNL     1      -7.528   9.202  68.540  1.00  0.00    -0.081 N  
HETATM    5  O   UNL     1      -7.858   9.188  70.831  1.00  0.00    -0.129 OA 
HETATM    6  H   UNL     1      -7.490   9.800  67.714  1.00  0.00     0.000 HD 
BRANCH   4   7
HETATM    7  C   UNL     1      -7.307   7.754  68.374  1.00  0.00    -0.095 C  
HETATM    8  C   UNL     1      -7.137   7.128  69.796  1.00  0.00    -0.073 C  
BRANCH   7   9
HETATM    9  C   UNL     1      -8.450   6.932  67.642  1.00  0.00    -0.122 C  
BRANCH   9  10
HETATM   10  N   UNL     1      -9.828   6.738  68.203  1.00  0.00    -0.135 NA 
HETATM   11  H   UNL     1     -10.381   5.952  67.860  1.00  0.00     0.000 HD 
BRANCH  10  12
HETATM   12  C   UNL     1     -10.402   7.581  69.174  1.00  0.00    -0.212 A  
HETATM   13  N   UNL     1     -10.643   7.042  70.371  1.00  0.00    -0.217 NA 
HETATM   14  C   UNL     1     -11.302   7.817  71.239  1.00  0.00    -0.264 A  
HETATM   15  C   UNL     1     -11.657   9.135  71.027  1.00  0.00    -0.370 A  
HETATM   16  C   UNL     1     -11.372   9.692  69.793  1.00  0.00    -0.120 A  
HETATM   17  N   UNL     1     -10.788   8.871  68.832  1.00  0.00    -0.093 NA 
BRANCH  16  18
HETATM   18  C   UNL     1     -11.744  11.174  69.589  1.00  0.00    -0.410 A  
HETATM   19  C   UNL     1     -12.145  11.967  70.681  1.00  0.00    -0.294 A  
HETATM   20  N   UNL     1     -12.306  13.259  70.264  1.00  0.00    -0.298 NA 
HETATM   21  C   UNL     1     -11.693  12.188  68.521  1.00  0.00    -0.330 A  
HETATM   22  N   UNL     1     -12.078  13.404  68.968  1.00  0.00    -0.307 NA 
BRANCH  20  23
HETATM   23  C   UNL     1     -12.632  14.455  71.061  1.00  0.00    -0.349 C  
HETATM   24  C   UNL     1     -11.395  15.288  71.425  1.00  0.00    -0.419 C  
HETATM   25  C   UNL     1     -13.392  14.112  72.352  1.00  0.00    -0.591 C  
ENDBRANCH  20  23
BRANCH  21  26
HETATM   26  C   UNL     1     -11.371  12.144  67.094  1.00  0.00    -0.393 A  
HETATM   27  C   UNL     1     -10.546  11.150  66.513  1.00  0.00    -0.314 A  
HETATM   28  C   UNL     1     -10.126  11.259  65.182  1.00  0.00    -0.275 A  
HETATM   29 CL   UNL     1      -9.253   9.989  64.420  1.00  0.00    -0.291 Cl 
HETATM   30  C   UNL     1     -10.411  12.418  64.448  1.00  0.00    -0.371 A  
HETATM   31  C   UNL     1     -11.221  13.365  65.046  1.00  0.00    -0.317 A  
HETATM   32  C   UNL     1     -11.814  13.142  66.273  1.00  0.00    -0.401 A  
HETATM   33  F   UNL     1     -12.862  13.898  66.594  1.00  0.00    -0.355 F  
BRANCH  31  34
HETATM   34  N   UNL     1     -11.529  14.611  64.423  1.00  0.00    -0.623 N  
HETATM   35  H   UNL     1     -12.287  14.713  63.747  1.00  0.00     0.000 HD 
BRANCH  34  36
HETATM   36  S   UNL     1     -10.548  15.906  64.885  1.00  0.00    -0.099 S  
HETATM   37  O   UNL     1      -9.162  15.599  64.624  1.00  0.00     1.078 OA 
HETATM   38  O   UNL     1     -11.196  17.076  64.332  1.00  0.00    -1.167 OA 
HETATM   39  C   UNL     1     -10.852  15.840  66.631  1.00  0.00    -0.241 C  
ENDBRANCH  34  36
ENDBRANCH  31  34
ENDBRANCH  21  26
ENDBRANCH  16  18
ENDBRANCH  10  12
ENDBRANCH   9  10
ENDBRANCH   7   9
ENDBRANCH   4   7
ENDBRANCH   2   3
TORSDOF 10
ENDMDL
MODEL      188
REMARK 921   NORMALIZED FREE ENERGY PREDICTED BY IDOCK:   -3.94 KCAL/MOL
REMARK 922        TOTAL FREE ENERGY PREDICTED BY IDOCK:   -8.20 KCAL/MOL
REMARK 923 INTER-LIGAND FREE ENERGY PREDICTED BY IDOCK:   -6.82 KCAL/MOL
REMARK 924 INTRA-LIGAND FREE ENERGY PREDICTED BY IDOCK:   -1.38 KCAL/MOL
REMARK 927      BINDING AFFINITY PREDICTED BY RF-SCORE:    0.00 PKD
ROOT
HETATM    1  C   UNL     1     -12.624  16.020  73.514  1.00  0.00    -0.575 C  
HETATM    2  O   UNL     1     -11.697  15.363  72.632  1.00  0.00    -0.434 OA 
ENDROOT
BRANCH   2   3
HETATM    3  C   UNL     1     -12.212  15.092  71.398  1.00  0.00    -0.328 C  
HETATM    4  N   UNL     1     -11.649  13.950  70.870  1.00  0.00    -0.476 N  
HETATM    5  O   UNL     1     -13.052  15.791  70.849  1.00  0.00    -0.516 OA 
HETATM    6  H   UNL     1     -10.954  13.447  71.423  1.00  0.00     0.000 HD 
BRANCH   4   7
HETATM    7  C   UNL     1     -12.009  13.425  69.540  1.00  0.00    -0.319 C  
HETATM    8  C   UNL     1     -11.065  14.091  68.489  1.00  0.00    -0.279 C  
BRANCH   7   9
HETATM    9  C   UNL     1     -11.898  11.856  69.332  1.00  0.00    -0.327 C  
BRANCH   9  10
HETATM   10  N   UNL     1     -11.812  11.197  67.987  1.00  0.00    -0.631 NA 
HETATM   11  H   UNL     1     -12.529  11.417  67.296  1.00  0.00     0.000 HD 
BRANCH  10  12
HETATM   12  C   UNL     1     -10.796  10.290  67.626  1.00  0.00    -0.307 A  
HETATM   13  N   UNL     1     -10.518  10.184  66.325  1.00  0.00    -0.167 NA 
HETATM   14  C   UNL     1      -9.644   9.230  65.989  1.00  0.00    -0.270 A  
HETATM   15  C   UNL     1      -8.951   8.430  66.877  1.00  0.00    -0.168 A  
HETATM   16  C   UNL     1      -9.224   8.572  68.226  1.00  0.00    -0.138 A  
HETATM   17  N   UNL     1     -10.213   9.480  68.594  1.00  0.00    -0.188 NA 
BRANCH  16  18
HETATM   18  C   UNL     1      -8.414   7.696  69.202  1.00  0.00    -0.138 A  
HETATM   19  C   UNL     1      -7.991   8.212  70.442  1.00  0.00    -0.099 A  
HETATM   20  N   UNL     1      -7.398   7.215  71.165  1.00  0.00    -0.074 NA 
HETATM   21  C   UNL     1      -7.991   6.291  69.333  1.00  0.00    -0.109 A  
HETATM   22  N   UNL     1      -7.354   6.068  70.504  1.00  0.00    -0.083 NA 
BRANCH  20  23
HETATM   23  C   UNL     1      -6.880   7.254  72.545  1.00  0.00    -0.067 C  
HETATM   24  C   UNL     1      -7.445   8.423  73.363  1.00  0.00    -0.118 C  
HETATM   25  C   UNL     1      -5.345   7.314  72.595  1.00  0.00    -0.037 C  
ENDBRANCH  20  23
BRANCH  21  26
HETATM   26  C   UNL     1      -8.069   5.121  68.457  1.00  0.00    -0.086 A  
HETATM   27  C   UNL     1      -8.840   3.972  68.760  1.00  0.00    -0.147 A  
HETATM   28  C   UNL     1      -8.737   2.816  67.978  1.00  0.00    -0.105 A  
HETATM   29 CL   UNL     1      -9.774   1.471  68.240  1.00  0.00    -0.189 Cl 
HETATM   30  C   UNL     1      -7.772   2.739  66.964  1.00  0.00    -0.071 A  
HETATM   31  C   UNL     1      -7.040   3.879  66.695  1.00  0.00    -0.060 A  
HETATM   32  C   UNL     1      -7.311   5.080  67.322  1.00  0.00    -0.082 A  
HETATM   33  F   UNL     1      -6.852   6.189  66.746  1.00  0.00    -0.054 F  
BRANCH  31  34
HETATM   34  N   UNL     1      -5.990   3.904  65.729  1.00  0.00    -0.023 N  
HETATM   35  H   UNL     1      -5.004   3.933  65.991  1.00  0.00     0.000 HD 
BRANCH  34  36
HETATM   36  S   UNL     1      -6.498   3.884  64.119  1.00  0.00    -0.042 S  
HETATM   37  O   UNL     1      -7.935   4.004  64.047  1.00  0.00    -0.086 OA 
HETATM   38  O   UNL     1      -5.612   4.806  63.440  1.00  0.00    -0.015 OA 
HETATM   39  C   UNL     1      -6.021   2.221  63.726  1.00  0.00    -0.010 C  
ENDBRANCH  34  36
ENDBRANCH  31  34
ENDBRANCH  21  26
ENDBRANCH  16  18
ENDBRANCH  10  12
ENDBRANCH   9  10
ENDBRANCH   7   9
ENDBRANCH   4   7
ENDBRANCH   2   3
TORSDOF 10
ENDMDL
MODEL      189
REMARK 921   NORMALIZED FREE ENERGY PREDICTED BY IDOCK:   -3.90 KCAL/MOL
REMARK 922        TOTAL FREE ENERGY PREDICTED BY IDOCK:   -8.13 KCAL/MOL
REMARK 923 INTER-LIGAND FREE ENERGY PREDICTED BY IDOCK:   -9.19 KCAL/MOL
REMARK 924 INTRA-LIGAND FREE ENERGY PREDICTED BY IDOCK:    1.06 KCAL/MOL
REMARK 927      BINDING AFFINITY PREDICTED BY RF-SCORE:    0.00 PKD
ROOT
HETATM    1  C   UNL     1      -5.829  10.325  69.806  1.00  0.00    -0.047 C  
HETATM    2  O   UNL     1      -6.649  10.268  70.987  1.00  0.00    -0.337 OA 
ENDROOT
BRANCH   2   3
HETATM    3  C   UNL     1      -6.756   9.016  71.519  1.00  0.00    -0.052 C  
HETATM    4  N   UNL     1      -8.071   8.715  71.805  1.00  0.00    -0.137 N  
HETATM    5  O   UNL     1      -5.798   8.283  71.719  1.00  0.00    -0.036 OA 
HETATM    6  H   UNL     1      -8.789   9.409  71.595  1.00  0.00     0.000 HD 
BRANCH   4   7
HETATM    7  C   UNL     1      -8.482   7.431  72.402  1.00  0.00    -0.112 C  
HETATM    8  C   UNL     1      -8.971   7.713  73.859  1.00  0.00    -0.321 C  
BRANCH   7   9
HETATM    9  C   UNL     1      -9.644   6.638  71.670  1.00  0.00    -0.162 C  
BRANCH   9  10
HETATM   10  N   UNL     1     -10.646   7.280  70.756  1.00  0.00    -0.220 NA 
HETATM   11  H   UNL     1     -10.674   6.975  69.783  1.00  0.00     0.000 HD 
BRANCH  10  12
HETATM   12  C   UNL     1     -11.547   8.282  71.165  1.00  0.00    -0.279 A  
HETATM   13  N   UNL     1     -12.570   7.896  71.928  1.00  0.00    -0.317 NA 
HETATM   14  C   UNL     1     -13.484   8.833  72.202  1.00  0.00    -0.427 A  
HETATM   15  C   UNL     1     -13.398  10.164  71.842  1.00  0.00    -0.505 A  
HETATM   16  C   UNL     1     -12.314  10.559  71.077  1.00  0.00    -0.399 A  
HETATM   17  N   UNL     1     -11.408   9.579  70.683  1.00  0.00    -0.281 NA 
BRANCH  16  18
HETATM   18  C   UNL     1     -12.218  12.055  70.717  1.00  0.00    -0.382 A  
HETATM   19  C   UNL     1     -12.819  13.028  71.538  1.00  0.00    -0.290 A  
HETATM   20  N   UNL     1     -12.496  14.272  71.072  1.00  0.00    -0.338 NA 
HETATM   21  C   UNL     1     -11.516  12.914  69.747  1.00  0.00    -0.132 A  
HETATM   22  N   UNL     1     -11.749  14.225  69.979  1.00  0.00    -0.288 NA 
BRANCH  20  23
HETATM   23  C   UNL     1     -12.820  15.589  71.648  1.00  0.00    -0.446 C  
HETATM   24  C   UNL     1     -11.626  16.244  72.355  1.00  0.00    -0.350 C  
HETATM   25  C   UNL     1     -14.000  15.527  72.631  1.00  0.00    -0.617 C  
ENDBRANCH  20  23
BRANCH  21  26
HETATM   26  C   UNL     1     -10.678  12.649  68.576  1.00  0.00    -0.271 A  
HETATM   27  C   UNL     1      -9.401  12.041  68.655  1.00  0.00    -0.056 A  
HETATM   28  C   UNL     1      -8.571  11.976  67.531  1.00  0.00    -0.167 A  
HETATM   29 CL   UNL     1      -7.087  11.110  67.572  1.00  0.00    -0.088 Cl 
HETATM   30  C   UNL     1      -8.940  12.626  66.346  1.00  0.00    -0.056 A  
HETATM   31  C   UNL     1     -10.194  13.206  66.304  1.00  0.00    -0.293 A  
HETATM   32  C   UNL     1     -11.092  13.066  67.344  1.00  0.00    -0.272 A  
HETATM   33  F   UNL     1     -12.376  13.301  67.080  1.00  0.00    -0.392 F  
BRANCH  31  34
HETATM   34  N   UNL     1     -10.657  13.948  65.177  1.00  0.00    -0.355 N  
HETATM   35  H   UNL     1     -10.322  14.888  64.964  1.00  0.00     0.000 HD 
BRANCH  34  36
HETATM   36  S   UNL     1     -11.800  13.156  64.219  1.00  0.00    -0.433 S  
HETATM   37  O   UNL     1     -13.026  13.917  64.173  1.00  0.00    -0.381 OA 
HETATM   38  O   UNL     1     -11.081  12.780  63.020  1.00  0.00    -0.081 OA 
HETATM   39  C   UNL     1     -12.029  11.721  65.237  1.00  0.00     0.138 C  
ENDBRANCH  34  36
ENDBRANCH  31  34
ENDBRANCH  21  26
ENDBRANCH  16  18
ENDBRANCH  10  12
ENDBRANCH   9  10
ENDBRANCH   7   9
ENDBRANCH   4   7
ENDBRANCH   2   3
TORSDOF 10
ENDMDL
MODEL      190
REMARK 921   NORMALIZED FREE ENERGY PREDICTED BY IDOCK:   -3.89 KCAL/MOL
REMARK 922        TOTAL FREE ENERGY PREDICTED BY IDOCK:   -8.12 KCAL/MOL
REMARK 923 INTER-LIGAND FREE ENERGY PREDICTED BY IDOCK:   -6.30 KCAL/MOL
REMARK 924 INTRA-LIGAND FREE ENERGY PREDICTED BY IDOCK:   -1.82 KCAL/MOL
REMARK 927      BINDING AFFINITY PREDICTED BY RF-SCORE:    0.00 PKD
ROOT
HETATM    1  C   UNL     1     -12.352  14.114  64.488  1.00  0.00    -0.392 C  
HETATM    2  O   UNL     1     -11.701  12.882  64.847  1.00  0.00    -0.319 OA 
ENDROOT
BRANCH   2   3
HETATM    3  C   UNL     1     -10.489  13.057  65.448  1.00  0.00    -0.296 C  
HETATM    4  N   UNL     1     -10.404  14.304  66.029  1.00  0.00    -0.298 N  
HETATM    5  O   UNL     1      -9.606  12.211  65.446  1.00  0.00    -0.203 OA 
HETATM    6  H   UNL     1     -11.208  14.930  65.966  1.00  0.00     0.000 HD 
BRANCH   4   7
HETATM    7  C   UNL     1      -9.199  14.771  66.740  1.00  0.00    -0.260 C  
HETATM    8  C   UNL     1      -8.725  16.097  66.061  1.00  0.00    -0.282 C  
BRANCH   7   9
HETATM    9  C   UNL     1      -9.352  15.076  68.289  1.00  0.00    -0.192 C  
BRANCH   9  10
HETATM   10  N   UNL     1      -9.841  14.073  69.292  1.00  0.00    -0.407 NA 
HETATM   11  H   UNL     1      -9.803  14.323  70.281  1.00  0.00     0.000 HD 
BRANCH  10  12
HETATM   12  C   UNL     1     -10.349  12.806  68.946  1.00  0.00    -0.031 A  
HETATM   13  N   UNL     1     -11.667  12.716  68.759  1.00  0.00    -0.308 NA 
HETATM   14  C   UNL     1     -12.148  11.485  68.557  1.00  0.00    -0.088 A  
HETATM   15  C   UNL     1     -11.386  10.339  68.433  1.00  0.00    -0.244 A  
HETATM   16  C   UNL     1     -10.017  10.450  68.596  1.00  0.00    -0.177 A  
HETATM   17  N   UNL     1      -9.503  11.703  68.920  1.00  0.00    -0.049 NA 
BRANCH  16  18
HETATM   18  C   UNL     1      -9.182   9.167  68.417  1.00  0.00    -0.132 A  
HETATM   19  C   UNL     1      -8.557   8.886  67.187  1.00  0.00    -0.110 A  
HETATM   20  N   UNL     1      -7.791   7.762  67.318  1.00  0.00    -0.115 NA 
HETATM   21  C   UNL     1      -8.658   8.066  69.245  1.00  0.00    -0.137 A  
HETATM   22  N   UNL     1      -7.868   7.235  68.530  1.00  0.00    -0.120 NA 
BRANCH  20  23
HETATM   23  C   UNL     1      -6.891   7.135  66.332  1.00  0.00    -0.061 C  
HETATM   24  C   UNL     1      -5.408   7.268  66.705  1.00  0.00    -0.023 C  
HETATM   25  C   UNL     1      -7.094   7.691  64.914  1.00  0.00    -0.063 C  
ENDBRANCH  20  23
BRANCH  21  26
HETATM   26  C   UNL     1      -8.853   7.662  70.638  1.00  0.00    -0.145 A  
HETATM   27  C   UNL     1      -8.148   8.242  71.722  1.00  0.00    -0.179 A  
HETATM   28  C   UNL     1      -8.241   7.697  73.007  1.00  0.00    -0.127 A  
HETATM   29 CL   UNL     1      -7.514   8.475  74.357  1.00  0.00    -0.237 Cl 
HETATM   30  C   UNL     1      -8.931   6.494  73.212  1.00  0.00    -0.138 A  
HETATM   31  C   UNL     1      -9.609   5.959  72.133  1.00  0.00    -0.148 A  
HETATM   32  C   UNL     1      -9.696   6.628  70.928  1.00  0.00    -0.179 A  
HETATM   33  F   UNL     1     -10.664   6.260  70.091  1.00  0.00    -0.249 F  
BRANCH  31  34
HETATM   34  N   UNL     1     -10.295   4.710  72.204  1.00  0.00    -0.192 N  
HETATM   35  H   UNL     1     -11.306   4.646  72.330  1.00  0.00     0.000 HD 
BRANCH  34  36
HETATM   36  S   UNL     1      -9.312   3.344  72.063  1.00  0.00    -0.133 S  
HETATM   37  O   UNL     1     -10.073   2.234  71.541  1.00  0.00    -0.126 OA 
HETATM   38  O   UNL     1      -8.106   3.822  71.421  1.00  0.00    -0.066 OA 
HETATM   39  C   UNL     1      -8.993   3.086  73.789  1.00  0.00    -0.075 C  
ENDBRANCH  34  36
ENDBRANCH  31  34
ENDBRANCH  21  26
ENDBRANCH  16  18
ENDBRANCH  10  12
ENDBRANCH   9  10
ENDBRANCH   7   9
ENDBRANCH   4   7
ENDBRANCH   2   3
TORSDOF 10
ENDMDL
MODEL      191
REMARK 921   NORMALIZED FREE ENERGY PREDICTED BY IDOCK:   -3.88 KCAL/MOL
REMARK 922        TOTAL FREE ENERGY PREDICTED BY IDOCK:   -8.10 KCAL/MOL
REMARK 923 INTER-LIGAND FREE ENERGY PREDICTED BY IDOCK:   -7.45 KCAL/MOL
REMARK 924 INTRA-LIGAND FREE ENERGY PREDICTED BY IDOCK:   -0.65 KCAL/MOL
REMARK 927      BINDING AFFINITY PREDICTED BY RF-SCORE:    0.00 PKD
ROOT
HETATM    1  C   UNL     1     -11.761  16.078  64.241  1.00  0.00    -0.081 C  
HETATM    2  O   UNL     1     -10.944  15.373  65.193  1.00  0.00    -0.374 OA 
ENDROOT
BRANCH   2   3
HETATM    3  C   UNL     1     -11.462  14.170  65.574  1.00  0.00    -0.324 C  
HETATM    4  N   UNL     1     -10.679  13.131  65.117  1.00  0.00    -0.304 N  
HETATM    5  O   UNL     1     -12.492  14.053  66.223  1.00  0.00    -0.465 OA 
HETATM    6  H   UNL     1      -9.838  13.350  64.582  1.00  0.00     0.000 HD 
BRANCH   4   7
HETATM    7  C   UNL     1     -11.007  11.716  65.371  1.00  0.00    -0.270 C  
HETATM    8  C   UNL     1     -10.160  10.843  64.390  1.00  0.00    -0.402 C  
BRANCH   7   9
HETATM    9  C   UNL     1     -10.732  11.166  66.833  1.00  0.00    -0.274 C  
BRANCH   9  10
HETATM   10  N   UNL     1     -11.233   9.843  67.335  1.00  0.00    -0.365 NA 
HETATM   11  H   UNL     1     -11.750   9.247  66.688  1.00  0.00     0.000 HD 
BRANCH  10  12
HETATM   12  C   UNL     1     -11.031   9.379  68.650  1.00  0.00    -0.032 A  
HETATM   13  N   UNL     1     -11.175  10.271  69.631  1.00  0.00    -0.255 NA 
HETATM   14  C   UNL     1     -10.857   9.847  70.859  1.00  0.00    -0.286 A  
HETATM   15  C   UNL     1     -10.493   8.556  71.190  1.00  0.00    -0.278 A  
HETATM   16  C   UNL     1     -10.379   7.632  70.167  1.00  0.00    -0.217 A  
HETATM   17  N   UNL     1     -10.595   8.077  68.866  1.00  0.00    -0.183 NA 
BRANCH  16  18
HETATM   18  C   UNL     1     -10.007   6.189  70.563  1.00  0.00    -0.223 A  
HETATM   19  C   UNL     1     -10.433   5.653  71.793  1.00  0.00    -0.228 A  
HETATM   20  N   UNL     1     -10.077   4.335  71.857  1.00  0.00    -0.182 NA 
HETATM   21  C   UNL     1      -9.383   5.003  69.951  1.00  0.00    -0.139 A  
HETATM   22  N   UNL     1      -9.415   3.937  70.781  1.00  0.00    -0.149 NA 
BRANCH  20  23
HETATM   23  C   UNL     1     -10.380   3.344  72.905  1.00  0.00    -0.166 C  
HETATM   24  C   UNL     1     -10.446   3.959  74.310  1.00  0.00    -0.274 C  
HETATM   25  C   UNL     1      -9.375   2.182  72.923  1.00  0.00    -0.108 C  
ENDBRANCH  20  23
BRANCH  21  26
HETATM   26  C   UNL     1      -8.703   4.756  68.679  1.00  0.00    -0.111 A  
HETATM   27  C   UNL     1      -7.671   5.586  68.174  1.00  0.00    -0.085 A  
HETATM   28  C   UNL     1      -7.182   5.406  66.875  1.00  0.00    -0.078 A  
HETATM   29 CL   UNL     1      -5.832   6.303  66.303  1.00  0.00    -0.023 Cl 
HETATM   30  C   UNL     1      -7.797   4.488  66.014  1.00  0.00    -0.095 A  
HETATM   31  C   UNL     1      -8.797   3.693  66.541  1.00  0.00    -0.129 A  
HETATM   32  C   UNL     1      -9.114   3.723  67.885  1.00  0.00    -0.152 A  
HETATM   33  F   UNL     1      -9.784   2.685  68.381  1.00  0.00    -0.255 F  
BRANCH  31  34
HETATM   34  N   UNL     1      -9.537   2.766  65.748  1.00  0.00    -0.373 N  
HETATM   35  H   UNL     1      -9.746   1.819  66.064  1.00  0.00     0.000 HD 
BRANCH  34  36
HETATM   36  S   UNL     1     -10.041   3.352  64.246  1.00  0.00    -0.157 S  
HETATM   37  O   UNL     1     -11.135   4.280  64.414  1.00  0.00    -0.205 OA 
HETATM   38  O   UNL     1      -8.819   3.716  63.562  1.00  0.00    -0.094 OA 
HETATM   39  C   UNL     1     -10.654   1.828  63.576  1.00  0.00    -0.115 C  
ENDBRANCH  34  36
ENDBRANCH  31  34
ENDBRANCH  21  26
ENDBRANCH  16  18
ENDBRANCH  10  12
ENDBRANCH   9  10
ENDBRANCH   7   9
ENDBRANCH   4   7
ENDBRANCH   2   3
TORSDOF 10
ENDMDL
MODEL      192
REMARK 921   NORMALIZED FREE ENERGY PREDICTED BY IDOCK:   -3.79 KCAL/MOL
REMARK 922        TOTAL FREE ENERGY PREDICTED BY IDOCK:   -7.97 KCAL/MOL
REMARK 923 INTER-LIGAND FREE ENERGY PREDICTED BY IDOCK:   -6.92 KCAL/MOL
REMARK 924 INTRA-LIGAND FREE ENERGY PREDICTED BY IDOCK:   -1.04 KCAL/MOL
REMARK 927      BINDING AFFINITY PREDICTED BY RF-SCORE:    0.00 PKD
ROOT
HETATM    1  C   UNL     1      -7.062   8.848  71.269  1.00  0.00    -0.094 C  
HETATM    2  O   UNL     1      -7.245   9.452  69.976  1.00  0.00    -0.068 OA 
ENDROOT
BRANCH   2   3
HETATM    3  C   UNL     1      -6.280  10.361  69.654  1.00  0.00    -0.058 C  
HETATM    4  N   UNL     1      -6.149  10.475  68.286  1.00  0.00    -0.047 N  
HETATM    5  O   UNL     1      -5.622  10.971  70.486  1.00  0.00    -0.099 OA 
HETATM    6  H   UNL     1      -6.755   9.913  67.688  1.00  0.00     0.000 HD 
BRANCH   4   7
HETATM    7  C   UNL     1      -5.170  11.378  67.653  1.00  0.00    -0.046 C  
HETATM    8  C   UNL     1      -5.304  11.221  66.104  1.00  0.00    -0.116 C  
BRANCH   7   9
HETATM    9  C   UNL     1      -5.307  12.925  67.973  1.00  0.00    -0.099 C  
BRANCH   9  10
HETATM   10  N   UNL     1      -6.075  13.890  67.118  1.00  0.00    -0.311 NA 
HETATM   11  H   UNL     1      -5.726  14.083  66.179  1.00  0.00     0.000 HD 
BRANCH  10  12
HETATM   12  C   UNL     1      -7.249  14.544  67.540  1.00  0.00    -0.187 A  
HETATM   13  N   UNL     1      -7.322  15.857  67.311  1.00  0.00    -0.195 NA 
HETATM   14  C   UNL     1      -8.383  16.483  67.829  1.00  0.00    -0.170 A  
HETATM   15  C   UNL     1      -9.434  15.870  68.483  1.00  0.00    -0.209 A  
HETATM   16  C   UNL     1      -9.362  14.503  68.686  1.00  0.00    -0.199 A  
HETATM   17  N   UNL     1      -8.213  13.845  68.256  1.00  0.00    -0.152 NA 
BRANCH  16  18
HETATM   18  C   UNL     1     -10.562  13.833  69.385  1.00  0.00     0.062 A  
HETATM   19  C   UNL     1     -11.488  14.605  70.111  1.00  0.00    -0.259 A  
HETATM   20  N   UNL     1     -12.510  13.802  70.534  1.00  0.00    -0.347 NA 
HETATM   21  C   UNL     1     -11.202  12.507  69.450  1.00  0.00    -0.149 A  
HETATM   22  N   UNL     1     -12.339  12.537  70.181  1.00  0.00    -0.196 NA 
BRANCH  20  23
HETATM   23  C   UNL     1     -13.744  14.173  71.251  1.00  0.00    -0.211 C  
HETATM   24  C   UNL     1     -13.743  15.631  71.729  1.00  0.00    -0.482 C  
HETATM   25  C   UNL     1     -14.022  13.260  72.455  1.00  0.00    -0.557 C  
ENDBRANCH  20  23
BRANCH  21  26
HETATM   26  C   UNL     1     -10.846  11.182  68.942  1.00  0.00    -0.261 A  
HETATM   27  C   UNL     1     -10.343  10.958  67.637  1.00  0.00    -0.232 A  
HETATM   28  C   UNL     1     -10.190   9.657  67.145  1.00  0.00    -0.243 A  
HETATM   29 CL   UNL     1      -9.442   9.365  65.625  1.00  0.00    -0.313 Cl 
HETATM   30  C   UNL     1     -10.654   8.565  67.890  1.00  0.00    -0.219 A  
HETATM   31  C   UNL     1     -11.136   8.821  69.160  1.00  0.00     0.164 A  
HETATM   32  C   UNL     1     -11.070  10.081  69.720  1.00  0.00    -0.274 A  
HETATM   33  F   UNL     1     -11.179  10.171  71.044  1.00  0.00    -0.376 F  
BRANCH  31  34
HETATM   34  N   UNL     1     -11.691   7.800  69.988  1.00  0.00    -0.456 N  
HETATM   35  H   UNL     1     -12.685   7.568  69.980  1.00  0.00     0.000 HD 
BRANCH  34  36
HETATM   36  S   UNL     1     -10.583   7.003  70.982  1.00  0.00    -0.220 S  
HETATM   37  O   UNL     1      -9.234   7.274  70.544  1.00  0.00    -0.157 OA 
HETATM   38  O   UNL     1     -11.027   7.284  72.331  1.00  0.00    -0.239 OA 
HETATM   39  C   UNL     1     -11.020   5.336  70.559  1.00  0.00     0.093 C  
ENDBRANCH  34  36
ENDBRANCH  31  34
ENDBRANCH  21  26
ENDBRANCH  16  18
ENDBRANCH  10  12
ENDBRANCH   9  10
ENDBRANCH   7   9
ENDBRANCH   4   7
ENDBRANCH   2   3
TORSDOF 10
ENDMDL
MODEL      193
REMARK 921   NORMALIZED FREE ENERGY PREDICTED BY IDOCK:   -3.71 KCAL/MOL
REMARK 922        TOTAL FREE ENERGY PREDICTED BY IDOCK:   -7.83 KCAL/MOL
REMARK 923 INTER-LIGAND FREE ENERGY PREDICTED BY IDOCK:   -7.06 KCAL/MOL
REMARK 924 INTRA-LIGAND FREE ENERGY PREDICTED BY IDOCK:   -0.77 KCAL/MOL
REMARK 927      BINDING AFFINITY PREDICTED BY RF-SCORE:    0.00 PKD
ROOT
HETATM    1  C   UNL     1      -9.655   9.365  65.992  1.00  0.00    -0.261 C  
HETATM    2  O   UNL     1      -9.260   9.145  64.625  1.00  0.00    -0.148 OA 
ENDROOT
BRANCH   2   3
HETATM    3  C   UNL     1      -9.694  10.114  63.768  1.00  0.00    -0.137 C  
HETATM    4  N   UNL     1     -10.725  10.839  64.326  1.00  0.00    -0.359 N  
HETATM    5  O   UNL     1      -9.224  10.288  62.652  1.00  0.00    -0.248 OA 
HETATM    6  H   UNL     1     -11.035  10.602  65.269  1.00  0.00     0.000 HD 
BRANCH   4   7
HETATM    7  C   UNL     1     -11.397  11.944  63.617  1.00  0.00    -0.450 C  
HETATM    8  C   UNL     1     -12.939  11.758  63.789  1.00  0.00    -0.192 C  
BRANCH   7   9
HETATM    9  C   UNL     1     -11.054  13.417  64.093  1.00  0.00    -0.327 C  
BRANCH   9  10
HETATM   10  N   UNL     1      -9.854  13.768  64.922  1.00  0.00    -0.605 NA 
HETATM   11  H   UNL     1      -8.933  13.702  64.488  1.00  0.00     0.000 HD 
BRANCH  10  12
HETATM   12  C   UNL     1      -9.927  14.183  66.267  1.00  0.00    -0.303 A  
HETATM   13  N   UNL     1     -11.144  14.422  66.757  1.00  0.00    -0.315 NA 
HETATM   14  C   UNL     1     -11.188  14.935  67.991  1.00  0.00    -0.308 A  
HETATM   15  C   UNL     1     -10.095  15.140  68.812  1.00  0.00    -0.226 A  
HETATM   16  C   UNL     1      -8.840  14.857  68.303  1.00  0.00    -0.172 A  
HETATM   17  N   UNL     1      -8.760  14.429  66.981  1.00  0.00    -0.227 NA 
BRANCH  16  18
HETATM   18  C   UNL     1      -7.638  15.058  69.247  1.00  0.00    -0.187 A  
HETATM   19  C   UNL     1      -7.159  13.990  70.030  1.00  0.00     0.314 A  
HETATM   20  N   UNL     1      -6.028  14.387  70.688  1.00  0.00    -0.186 NA 
HETATM   21  C   UNL     1      -6.627  16.088  69.544  1.00  0.00    -0.201 A  
HETATM   22  N   UNL     1      -5.715  15.650  70.440  1.00  0.00    -0.148 NA 
BRANCH  20  23
HETATM   23  C   UNL     1      -5.132  13.595  71.550  1.00  0.00    -0.163 C  
HETATM   24  C   UNL     1      -5.294  12.082  71.352  1.00  0.00     0.019 C  
HETATM   25  C   UNL     1      -5.315  13.918  73.041  1.00  0.00    -0.186 C  
ENDBRANCH  20  23
BRANCH  21  26
HETATM   26  C   UNL     1      -6.438  17.476  69.121  1.00  0.00    -0.240 A  
HETATM   27  C   UNL     1      -6.197  18.539  70.026  1.00  0.00    -0.096 A  
HETATM   28  C   UNL     1      -6.203  19.867  69.585  1.00  0.00    -0.342 A  
HETATM   29 CL   UNL     1      -5.765  21.154  70.636  1.00  0.00     0.359 Cl 
HETATM   30  C   UNL     1      -6.574  20.168  68.267  1.00  0.00    -0.329 A  
HETATM   31  C   UNL     1      -6.799  19.106  67.412  1.00  0.00    -0.202 A  
HETATM   32  C   UNL     1      -6.568  17.801  67.801  1.00  0.00    -0.187 A  
HETATM   33  F   UNL     1      -6.425  16.891  66.840  1.00  0.00    -0.172 F  
BRANCH  31  34
HETATM   34  N   UNL     1      -7.241  19.286  66.067  1.00  0.00    -0.264 N  
HETATM   35  H   UNL     1      -8.211  19.144  65.786  1.00  0.00     0.000 HD 
BRANCH  34  36
HETATM   36  S   UNL     1      -6.040  19.751  64.975  1.00  0.00    -0.264 S  
HETATM   37  O   UNL     1      -6.635  20.176  63.730  1.00  0.00    -0.150 OA 
HETATM   38  O   UNL     1      -5.157  20.607  65.739  1.00  0.00    -0.169 OA 
HETATM   39  C   UNL     1      -5.273  18.167  64.756  1.00  0.00     0.015 C  
ENDBRANCH  34  36
ENDBRANCH  31  34
ENDBRANCH  21  26
ENDBRANCH  16  18
ENDBRANCH  10  12
ENDBRANCH   9  10
ENDBRANCH   7   9
ENDBRANCH   4   7
ENDBRANCH   2   3
TORSDOF 10
ENDMDL
MODEL      194
REMARK 921   NORMALIZED FREE ENERGY PREDICTED BY IDOCK:   -3.70 KCAL/MOL
REMARK 922        TOTAL FREE ENERGY PREDICTED BY IDOCK:   -7.83 KCAL/MOL
REMARK 923 INTER-LIGAND FREE ENERGY PREDICTED BY IDOCK:   -6.78 KCAL/MOL
REMARK 924 INTRA-LIGAND FREE ENERGY PREDICTED BY IDOCK:   -1.05 KCAL/MOL
REMARK 927      BINDING AFFINITY PREDICTED BY RF-SCORE:    0.00 PKD
ROOT
HETATM    1  C   UNL     1      -9.667  19.029  67.823  1.00  0.00    -0.325 C  
HETATM    2  O   UNL     1     -10.762  18.191  67.414  1.00  0.00    -0.403 OA 
ENDROOT
BRANCH   2   3
HETATM    3  C   UNL     1     -10.604  16.878  67.752  1.00  0.00    -0.340 C  
HETATM    4  N   UNL     1     -11.283  16.060  66.875  1.00  0.00    -0.037 N  
HETATM    5  O   UNL     1      -9.951  16.503  68.716  1.00  0.00    -0.232 OA 
HETATM    6  H   UNL     1     -11.797  16.488  66.104  1.00  0.00     0.000 HD 
BRANCH   4   7
HETATM    7  C   UNL     1     -11.299  14.592  67.006  1.00  0.00    -0.349 C  
HETATM    8  C   UNL     1     -12.488  14.046  66.153  1.00  0.00    -0.467 C  
BRANCH   7   9
HETATM    9  C   UNL     1      -9.998  13.815  66.534  1.00  0.00    -0.288 C  
BRANCH   9  10
HETATM   10  N   UNL     1      -9.569  12.490  67.092  1.00  0.00    -0.203 NA 
HETATM   11  H   UNL     1      -9.387  12.426  68.094  1.00  0.00     0.000 HD 
BRANCH  10  12
HETATM   12  C   UNL     1      -9.402  11.330  66.311  1.00  0.00    -0.207 A  
HETATM   13  N   UNL     1      -9.375  11.495  64.987  1.00  0.00    -0.148 NA 
HETATM   14  C   UNL     1      -9.344  10.374  64.258  1.00  0.00    -0.277 A  
HETATM   15  C   UNL     1      -9.240   9.093  64.764  1.00  0.00    -0.085 A  
HETATM   16  C   UNL     1      -9.236   8.937  66.139  1.00  0.00    -0.217 A  
HETATM   17  N   UNL     1      -9.382  10.081  66.920  1.00  0.00    -0.156 NA 
BRANCH  16  18
HETATM   18  C   UNL     1      -9.083   7.503  66.683  1.00  0.00    -0.189 A  
HETATM   19  C   UNL     1      -9.016   6.408  65.801  1.00  0.00    -0.052 A  
HETATM   20  N   UNL     1      -8.768   5.269  66.515  1.00  0.00    -0.115 NA 
HETATM   21  C   UNL     1      -8.830   6.832  67.970  1.00  0.00    -0.119 A  
HETATM   22  N   UNL     1      -8.691   5.496  67.818  1.00  0.00    -0.108 NA 
BRANCH  20  23
HETATM   23  C   UNL     1      -8.531   3.900  66.023  1.00  0.00    -0.110 C  
HETATM   24  C   UNL     1      -9.503   3.488  64.909  1.00  0.00    -0.158 C  
HETATM   25  C   UNL     1      -8.595   2.852  67.145  1.00  0.00    -0.116 C  
ENDBRANCH  20  23
BRANCH  21  26
HETATM   26  C   UNL     1      -8.752   7.292  69.357  1.00  0.00    -0.137 A  
HETATM   27  C   UNL     1      -7.581   7.849  69.927  1.00  0.00    -0.089 A  
HETATM   28  C   UNL     1      -7.507   8.104  71.301  1.00  0.00    -0.074 A  
HETATM   29 CL   UNL     1      -6.155   8.917  71.982  1.00  0.00    -0.076 Cl 
HETATM   30  C   UNL     1      -8.545   7.693  72.148  1.00  0.00    -0.148 A  
HETATM   31  C   UNL     1      -9.673   7.156  71.557  1.00  0.00    -0.164 A  
HETATM   32  C   UNL     1      -9.824   7.119  70.185  1.00  0.00    -0.179 A  
HETATM   33  F   UNL     1     -11.058   6.964  69.708  1.00  0.00    -0.257 F  
BRANCH  31  34
HETATM   34  N   UNL     1     -10.767   6.646  72.318  1.00  0.00    -0.215 N  
HETATM   35  H   UNL     1     -11.617   7.184  72.484  1.00  0.00     0.000 HD 
BRANCH  34  36
HETATM   36  S   UNL     1     -10.551   5.085  72.925  1.00  0.00    -0.245 S  
HETATM   37  O   UNL     1      -9.428   5.053  73.832  1.00  0.00    -0.127 OA 
HETATM   38  O   UNL     1     -11.875   4.656  73.322  1.00  0.00    -0.249 OA 
HETATM   39  C   UNL     1     -10.108   4.284  71.405  1.00  0.00    -0.117 C  
ENDBRANCH  34  36
ENDBRANCH  31  34
ENDBRANCH  21  26
ENDBRANCH  16  18
ENDBRANCH  10  12
ENDBRANCH   9  10
ENDBRANCH   7   9
ENDBRANCH   4   7
ENDBRANCH   2   3
TORSDOF 10
ENDMDL
MODEL      195
REMARK 921   NORMALIZED FREE ENERGY PREDICTED BY IDOCK:   -3.66 KCAL/MOL
REMARK 922        TOTAL FREE ENERGY PREDICTED BY IDOCK:   -7.76 KCAL/MOL
REMARK 923 INTER-LIGAND FREE ENERGY PREDICTED BY IDOCK:   -6.10 KCAL/MOL
REMARK 924 INTRA-LIGAND FREE ENERGY PREDICTED BY IDOCK:   -1.66 KCAL/MOL
REMARK 927      BINDING AFFINITY PREDICTED BY RF-SCORE:    0.00 PKD
ROOT
HETATM    1  C   UNL     1     -12.261  14.845  64.233  1.00  0.00    -0.344 C  
HETATM    2  O   UNL     1     -12.021  14.935  65.648  1.00  0.00    -0.221 OA 
ENDROOT
BRANCH   2   3
HETATM    3  C   UNL     1     -10.704  15.087  65.972  1.00  0.00    -0.326 C  
HETATM    4  N   UNL     1     -10.408  14.425  67.145  1.00  0.00    -0.261 N  
HETATM    5  O   UNL     1      -9.915  15.738  65.303  1.00  0.00    -0.383 OA 
HETATM    6  H   UNL     1     -11.152  13.912  67.619  1.00  0.00     0.000 HD 
BRANCH   4   7
HETATM    7  C   UNL     1      -9.059  14.428  67.741  1.00  0.00    -0.192 C  
HETATM    8  C   UNL     1      -8.948  15.679  68.671  1.00  0.00    -0.202 C  
BRANCH   7   9
HETATM    9  C   UNL     1      -8.658  13.166  68.615  1.00  0.00     0.036 C  
BRANCH   9  10
HETATM   10  N   UNL     1      -7.243  12.813  68.970  1.00  0.00    -0.267 NA 
HETATM   11  H   UNL     1      -6.496  13.416  68.626  1.00  0.00     0.000 HD 
BRANCH  10  12
HETATM   12  C   UNL     1      -6.889  11.695  69.751  1.00  0.00     0.053 A  
HETATM   13  N   UNL     1      -5.734  11.766  70.414  1.00  0.00    -0.151 NA 
HETATM   14  C   UNL     1      -5.353  10.651  71.046  1.00  0.00    -0.096 A  
HETATM   15  C   UNL     1      -6.097   9.491  71.142  1.00  0.00    -0.074 A  
HETATM   16  C   UNL     1      -7.309   9.441  70.476  1.00  0.00    -0.133 A  
HETATM   17  N   UNL     1      -7.675  10.549  69.717  1.00  0.00    -0.120 NA 
BRANCH  16  18
HETATM   18  C   UNL     1      -8.139   8.151  70.625  1.00  0.00    -0.105 A  
HETATM   19  C   UNL     1      -8.902   7.923  71.786  1.00  0.00    -0.126 A  
HETATM   20  N   UNL     1      -9.631   6.777  71.628  1.00  0.00    -0.162 NA 
HETATM   21  C   UNL     1      -8.544   6.998  69.803  1.00  0.00    -0.141 A  
HETATM   22  N   UNL     1      -9.402   6.189  70.464  1.00  0.00    -0.160 NA 
BRANCH  20  23
HETATM   23  C   UNL     1     -10.632   6.184  72.533  1.00  0.00    -0.213 C  
HETATM   24  C   UNL     1     -12.074   6.532  72.142  1.00  0.00    -0.309 C  
HETATM   25  C   UNL     1     -10.409   6.586  74.000  1.00  0.00    -0.362 C  
ENDBRANCH  20  23
BRANCH  21  26
HETATM   26  C   UNL     1      -8.179   6.525  68.467  1.00  0.00    -0.121 A  
HETATM   27  C   UNL     1      -7.104   5.635  68.223  1.00  0.00    -0.074 A  
HETATM   28  C   UNL     1      -6.688   5.359  66.916  1.00  0.00    -0.062 A  
HETATM   29 CL   UNL     1      -5.489   4.169  66.598  1.00  0.00    -0.013 Cl 
HETATM   30  C   UNL     1      -7.246   6.060  65.838  1.00  0.00    -0.075 A  
HETATM   31  C   UNL     1      -8.294   6.918  66.113  1.00  0.00    -0.130 A  
HETATM   32  C   UNL     1      -8.844   7.009  67.377  1.00  0.00    -0.119 A  
HETATM   33  F   UNL     1     -10.063   7.535  67.479  1.00  0.00    -0.183 F  
BRANCH  31  34
HETATM   34  N   UNL     1      -8.901   7.731  65.110  1.00  0.00    -0.379 N  
HETATM   35  H   UNL     1      -9.629   7.380  64.487  1.00  0.00     0.000 HD 
BRANCH  34  36
HETATM   36  S   UNL     1      -8.327   9.317  65.028  1.00  0.00    -0.164 S  
HETATM   37  O   UNL     1      -7.796   9.722  66.308  1.00  0.00    -0.104 OA 
HETATM   38  O   UNL     1      -7.535   9.361  63.816  1.00  0.00    -0.106 OA 
HETATM   39  C   UNL     1      -9.877  10.131  64.743  1.00  0.00    -0.312 C  
ENDBRANCH  34  36
ENDBRANCH  31  34
ENDBRANCH  21  26
ENDBRANCH  16  18
ENDBRANCH  10  12
ENDBRANCH   9  10
ENDBRANCH   7   9
ENDBRANCH   4   7
ENDBRANCH   2   3
TORSDOF 10
ENDMDL
MODEL      196
REMARK 921   NORMALIZED FREE ENERGY PREDICTED BY IDOCK:   -3.65 KCAL/MOL
REMARK 922        TOTAL FREE ENERGY PREDICTED BY IDOCK:   -7.75 KCAL/MOL
REMARK 923 INTER-LIGAND FREE ENERGY PREDICTED BY IDOCK:   -7.99 KCAL/MOL
REMARK 924 INTRA-LIGAND FREE ENERGY PREDICTED BY IDOCK:    0.25 KCAL/MOL
REMARK 927      BINDING AFFINITY PREDICTED BY RF-SCORE:    0.00 PKD
ROOT
HETATM    1  C   UNL     1      -9.910  18.569  70.025  1.00  0.00     1.099 C  
HETATM    2  O   UNL     1      -9.654  19.690  69.160  1.00  0.00    -0.377 OA 
ENDROOT
BRANCH   2   3
HETATM    3  C   UNL     1      -8.354  19.783  68.754  1.00  0.00    -0.157 C  
HETATM    4  N   UNL     1      -8.251  20.537  67.605  1.00  0.00    -0.244 N  
HETATM    5  O   UNL     1      -7.423  19.249  69.342  1.00  0.00    -0.266 OA 
HETATM    6  H   UNL     1      -9.100  20.934  67.202  1.00  0.00     0.000 HD 
BRANCH   4   7
HETATM    7  C   UNL     1      -6.963  20.793  66.934  1.00  0.00    -0.298 C  
HETATM    8  C   UNL     1      -5.922  21.191  68.028  1.00  0.00    -0.393 C  
BRANCH   7   9
HETATM    9  C   UNL     1      -6.331  19.594  66.110  1.00  0.00    -0.183 C  
BRANCH   9  10
HETATM   10  N   UNL     1      -7.008  18.269  65.913  1.00  0.00    -0.352 NA 
HETATM   11  H   UNL     1      -6.437  17.476  65.619  1.00  0.00     0.000 HD 
BRANCH  10  12
HETATM   12  C   UNL     1      -8.386  18.058  66.111  1.00  0.00    -0.123 A  
HETATM   13  N   UNL     1      -9.211  19.001  65.651  1.00  0.00    -0.167 NA 
HETATM   14  C   UNL     1     -10.503  18.848  65.959  1.00  0.00    -0.446 A  
HETATM   15  C   UNL     1     -11.047  17.762  66.617  1.00  0.00     0.431 A  
HETATM   16  C   UNL     1     -10.185  16.775  67.059  1.00  0.00    -0.292 A  
HETATM   17  N   UNL     1      -8.821  16.965  66.852  1.00  0.00    -0.215 NA 
BRANCH  16  18
HETATM   18  C   UNL     1     -10.815  15.554  67.759  1.00  0.00    -0.309 A  
HETATM   19  C   UNL     1     -11.298  15.657  69.077  1.00  0.00    -0.330 A  
HETATM   20  N   UNL     1     -11.907  14.483  69.425  1.00  0.00    -0.307 NA 
HETATM   21  C   UNL     1     -11.241  14.185  67.418  1.00  0.00    -0.318 A  
HETATM   22  N   UNL     1     -11.850  13.577  68.461  1.00  0.00    -0.348 NA 
BRANCH  20  23
HETATM   23  C   UNL     1     -12.632  14.149  70.665  1.00  0.00    -0.351 C  
HETATM   24  C   UNL     1     -12.137  14.943  71.881  1.00  0.00    -0.435 C  
HETATM   25  C   UNL     1     -12.568  12.649  70.997  1.00  0.00    -0.354 C  
ENDBRANCH  20  23
BRANCH  21  26
HETATM   26  C   UNL     1     -11.099  13.343  66.230  1.00  0.00    -0.305 A  
HETATM   27  C   UNL     1     -12.170  13.055  65.348  1.00  0.00    -0.520 A  
HETATM   28  C   UNL     1     -12.023  12.104  64.332  1.00  0.00    -0.361 A  
HETATM   29 CL   UNL     1     -13.258  11.854  63.164  1.00  0.00    -0.019 Cl 
HETATM   30  C   UNL     1     -10.855  11.333  64.257  1.00  0.00    -0.398 A  
HETATM   31  C   UNL     1      -9.831  11.643  65.131  1.00  0.00    -0.249 A  
HETATM   32  C   UNL     1      -9.904  12.734  65.975  1.00  0.00    -0.255 A  
HETATM   33  F   UNL     1      -8.763  13.193  66.484  1.00  0.00    -0.175 F  
BRANCH  31  34
HETATM   34  N   UNL     1      -8.620  10.890  65.190  1.00  0.00    -0.331 N  
HETATM   35  H   UNL     1      -7.746  11.226  64.786  1.00  0.00     0.000 HD 
BRANCH  34  36
HETATM   36  S   UNL     1      -8.741   9.401  65.977  1.00  0.00    -0.158 S  
HETATM   37  O   UNL     1     -10.048   9.258  66.575  1.00  0.00    -0.258 OA 
HETATM   38  O   UNL     1      -8.216   8.439  65.032  1.00  0.00    -0.139 OA 
HETATM   39  C   UNL     1      -7.536   9.690  67.247  1.00  0.00    -0.091 C  
ENDBRANCH  34  36
ENDBRANCH  31  34
ENDBRANCH  21  26
ENDBRANCH  16  18
ENDBRANCH  10  12
ENDBRANCH   9  10
ENDBRANCH   7   9
ENDBRANCH   4   7
ENDBRANCH   2   3
TORSDOF 10
ENDMDL
MODEL      197
REMARK 921   NORMALIZED FREE ENERGY PREDICTED BY IDOCK:   -3.63 KCAL/MOL
REMARK 922        TOTAL FREE ENERGY PREDICTED BY IDOCK:   -7.71 KCAL/MOL
REMARK 923 INTER-LIGAND FREE ENERGY PREDICTED BY IDOCK:   -7.49 KCAL/MOL
REMARK 924 INTRA-LIGAND FREE ENERGY PREDICTED BY IDOCK:   -0.22 KCAL/MOL
REMARK 927      BINDING AFFINITY PREDICTED BY RF-SCORE:    0.00 PKD
ROOT
HETATM    1  C   UNL     1      -5.850  10.332  67.977  1.00  0.00    -0.041 C  
HETATM    2  O   UNL     1      -5.156   9.106  67.688  1.00  0.00    -0.033 OA 
ENDROOT
BRANCH   2   3
HETATM    3  C   UNL     1      -5.574   8.048  68.442  1.00  0.00    -0.033 C  
HETATM    4  N   UNL     1      -6.435   7.244  67.727  1.00  0.00    -0.050 N  
HETATM    5  O   UNL     1      -5.227   7.867  69.601  1.00  0.00    -0.022 OA 
HETATM    6  H   UNL     1      -6.653   7.496  66.762  1.00  0.00     0.000 HD 
BRANCH   4   7
HETATM    7  C   UNL     1      -7.053   6.033  68.298  1.00  0.00    -0.082 C  
HETATM    8  C   UNL     1      -5.906   5.047  68.689  1.00  0.00    -0.021 C  
BRANCH   7   9
HETATM    9  C   UNL     1      -7.954   6.228  69.589  1.00  0.00    -0.112 C  
BRANCH   9  10
HETATM   10  N   UNL     1      -9.434   6.470  69.545  1.00  0.00    -0.147 NA 
HETATM   11  H   UNL     1      -9.980   5.989  68.829  1.00  0.00     0.000 HD 
BRANCH  10  12
HETATM   12  C   UNL     1     -10.113   7.325  70.435  1.00  0.00    -0.192 A  
HETATM   13  N   UNL     1     -10.360   6.849  71.656  1.00  0.00    -0.199 NA 
HETATM   14  C   UNL     1     -11.114   7.622  72.445  1.00  0.00    -0.310 A  
HETATM   15  C   UNL     1     -11.562   8.891  72.129  1.00  0.00    -0.400 A  
HETATM   16  C   UNL     1     -11.271   9.387  70.871  1.00  0.00    -0.325 A  
HETATM   17  N   UNL     1     -10.585   8.555  69.991  1.00  0.00    -0.225 NA 
BRANCH  16  18
HETATM   18  C   UNL     1     -11.750  10.817  70.553  1.00  0.00    -0.449 A  
HETATM   19  C   UNL     1     -12.591  11.505  71.448  1.00  0.00    -0.314 A  
HETATM   20  N   UNL     1     -12.777  12.783  70.998  1.00  0.00    -0.302 NA 
HETATM   21  C   UNL     1     -11.486  11.874  69.560  1.00  0.00    -0.288 A  
HETATM   22  N   UNL     1     -12.156  13.011  69.851  1.00  0.00    -0.304 NA 
BRANCH  20  23
HETATM   23  C   UNL     1     -13.505  13.893  71.639  1.00  0.00    -0.352 C  
HETATM   24  C   UNL     1     -13.151  15.263  71.046  1.00  0.00    -0.544 C  
HETATM   25  C   UNL     1     -13.281  13.942  73.159  1.00  0.00     0.006 C  
ENDBRANCH  20  23
BRANCH  21  26
HETATM   26  C   UNL     1     -10.709  11.933  68.322  1.00  0.00    -0.253 A  
HETATM   27  C   UNL     1     -10.412  10.793  67.534  1.00  0.00    -0.260 A  
HETATM   28  C   UNL     1      -9.517  10.879  66.462  1.00  0.00    -0.185 A  
HETATM   29 CL   UNL     1      -9.263   9.545  65.408  1.00  0.00    -0.284 Cl 
HETATM   30  C   UNL     1      -8.806  12.065  66.234  1.00  0.00    -0.075 A  
HETATM   31  C   UNL     1      -9.124  13.157  67.019  1.00  0.00    -0.231 A  
HETATM   32  C   UNL     1     -10.169  13.121  67.922  1.00  0.00    -0.233 A  
HETATM   33  F   UNL     1     -10.658  14.287  68.339  1.00  0.00    -0.228 F  
BRANCH  31  34
HETATM   34  N   UNL     1      -8.427  14.398  66.922  1.00  0.00    -0.377 N  
HETATM   35  H   UNL     1      -8.856  15.239  66.535  1.00  0.00     0.000 HD 
BRANCH  34  36
HETATM   36  S   UNL     1      -6.838  14.374  67.494  1.00  0.00    -0.042 S  
HETATM   37  O   UNL     1      -6.176  13.160  67.076  1.00  0.00    -0.192 OA 
HETATM   38  O   UNL     1      -6.312  15.686  67.181  1.00  0.00    -0.308 OA 
HETATM   39  C   UNL     1      -7.197  14.287  69.229  1.00  0.00    -0.083 C  
ENDBRANCH  34  36
ENDBRANCH  31  34
ENDBRANCH  21  26
ENDBRANCH  16  18
ENDBRANCH  10  12
ENDBRANCH   9  10
ENDBRANCH   7   9
ENDBRANCH   4   7
ENDBRANCH   2   3
TORSDOF 10
ENDMDL
MODEL      198
REMARK 921   NORMALIZED FREE ENERGY PREDICTED BY IDOCK:   -3.61 KCAL/MOL
REMARK 922        TOTAL FREE ENERGY PREDICTED BY IDOCK:   -7.67 KCAL/MOL
REMARK 923 INTER-LIGAND FREE ENERGY PREDICTED BY IDOCK:   -7.34 KCAL/MOL
REMARK 924 INTRA-LIGAND FREE ENERGY PREDICTED BY IDOCK:   -0.34 KCAL/MOL
REMARK 927      BINDING AFFINITY PREDICTED BY RF-SCORE:    0.00 PKD
ROOT
HETATM    1  C   UNL     1     -11.134   6.368  66.896  1.00  0.00    -0.272 C  
HETATM    2  O   UNL     1      -9.699   6.275  66.870  1.00  0.00    -0.139 OA 
ENDROOT
BRANCH   2   3
HETATM    3  C   UNL     1      -9.222   5.414  65.924  1.00  0.00    -0.156 C  
HETATM    4  N   UNL     1      -7.851   5.510  65.819  1.00  0.00    -0.102 N  
HETATM    5  O   UNL     1      -9.938   4.676  65.262  1.00  0.00    -0.170 OA 
HETATM    6  H   UNL     1      -7.358   6.165  66.426  1.00  0.00     0.000 HD 
BRANCH   4   7
HETATM    7  C   UNL     1      -7.068   4.704  64.865  1.00  0.00    -0.062 C  
HETATM    8  C   UNL     1      -7.288   3.197  65.215  1.00  0.00    -0.071 C  
BRANCH   7   9
HETATM    9  C   UNL     1      -7.414   4.875  63.326  1.00  0.00    -0.054 C  
BRANCH   9  10
HETATM   10  N   UNL     1      -7.181   6.140  62.554  1.00  0.00    -0.049 NA 
HETATM   11  H   UNL     1      -7.207   6.094  61.535  1.00  0.00     0.000 HD 
BRANCH  10  12
HETATM   12  C   UNL     1      -6.927   7.388  63.156  1.00  0.00    -0.063 A  
HETATM   13  N   UNL     1      -5.648   7.705  63.368  1.00  0.00    -0.045 NA 
HETATM   14  C   UNL     1      -5.431   8.832  64.054  1.00  0.00    -0.057 A  
HETATM   15  C   UNL     1      -6.406   9.720  64.464  1.00  0.00    -0.111 A  
HETATM   16  C   UNL     1      -7.726   9.396  64.210  1.00  0.00    -0.117 A  
HETATM   17  N   UNL     1      -7.986   8.173  63.598  1.00  0.00    -0.150 NA 
BRANCH  16  18
HETATM   18  C   UNL     1      -8.796  10.417  64.644  1.00  0.00    -0.216 A  
HETATM   19  C   UNL     1      -9.512  11.154  63.682  1.00  0.00    -0.257 A  
HETATM   20  N   UNL     1     -10.472  11.899  64.308  1.00  0.00    -0.299 NA 
HETATM   21  C   UNL     1      -9.485  10.838  65.877  1.00  0.00    -0.197 A  
HETATM   22  N   UNL     1     -10.447  11.753  65.624  1.00  0.00    -0.255 NA 
BRANCH  20  23
HETATM   23  C   UNL     1     -11.514  12.756  63.714  1.00  0.00    -0.470 C  
HETATM   24  C   UNL     1     -11.908  13.934  64.615  1.00  0.00    -0.428 C  
HETATM   25  C   UNL     1     -12.783  11.970  63.347  1.00  0.00    -0.527 C  
ENDBRANCH  20  23
BRANCH  21  26
HETATM   26  C   UNL     1      -9.314  10.519  67.295  1.00  0.00    -0.164 A  
HETATM   27  C   UNL     1      -8.064  10.573  67.960  1.00  0.00    -0.111 A  
HETATM   28  C   UNL     1      -7.928  10.087  69.265  1.00  0.00    -0.130 A  
HETATM   29 CL   UNL     1      -6.460  10.282  70.136  1.00  0.00    -0.112 Cl 
HETATM   30  C   UNL     1      -8.997   9.423  69.882  1.00  0.00    -0.215 A  
HETATM   31  C   UNL     1     -10.201   9.392  69.205  1.00  0.00    -0.202 A  
HETATM   32  C   UNL     1     -10.384  10.074  68.018  1.00  0.00    -0.198 A  
HETATM   33  F   UNL     1     -11.636  10.323  67.640  1.00  0.00    -0.351 F  
BRANCH  31  34
HETATM   34  N   UNL     1     -11.342   8.694  69.704  1.00  0.00    -0.434 N  
HETATM   35  H   UNL     1     -12.289   8.892  69.383  1.00  0.00     0.000 HD 
BRANCH  34  36
HETATM   36  S   UNL     1     -11.008   7.514  70.866  1.00  0.00    -0.258 S  
HETATM   37  O   UNL     1     -11.925   6.407  70.731  1.00  0.00    -0.338 OA 
HETATM   38  O   UNL     1      -9.572   7.338  70.811  1.00  0.00    -0.171 OA 
HETATM   39  C   UNL     1     -11.425   8.458  72.309  1.00  0.00    -0.384 C  
ENDBRANCH  34  36
ENDBRANCH  31  34
ENDBRANCH  21  26
ENDBRANCH  16  18
ENDBRANCH  10  12
ENDBRANCH   9  10
ENDBRANCH   7   9
ENDBRANCH   4   7
ENDBRANCH   2   3
TORSDOF 10
ENDMDL
MODEL      199
REMARK 921   NORMALIZED FREE ENERGY PREDICTED BY IDOCK:   -3.61 KCAL/MOL
REMARK 922        TOTAL FREE ENERGY PREDICTED BY IDOCK:   -7.67 KCAL/MOL
REMARK 923 INTER-LIGAND FREE ENERGY PREDICTED BY IDOCK:   -7.32 KCAL/MOL
REMARK 924 INTRA-LIGAND FREE ENERGY PREDICTED BY IDOCK:   -0.35 KCAL/MOL
REMARK 927      BINDING AFFINITY PREDICTED BY RF-SCORE:    0.00 PKD
ROOT
HETATM    1  C   UNL     1     -11.158  14.949  64.744  1.00  0.00    -0.383 C  
HETATM    2  O   UNL     1     -10.603  15.235  66.041  1.00  0.00    -0.295 OA 
ENDROOT
BRANCH   2   3
HETATM    3  C   UNL     1     -11.331  14.720  67.074  1.00  0.00    -0.353 C  
HETATM    4  N   UNL     1     -10.714  14.967  68.281  1.00  0.00    -0.248 N  
HETATM    5  O   UNL     1     -12.382  14.113  66.922  1.00  0.00    -0.419 OA 
HETATM    6  H   UNL     1      -9.835  15.486  68.284  1.00  0.00     0.000 HD 
BRANCH   4   7
HETATM    7  C   UNL     1     -11.271  14.513  69.568  1.00  0.00    -0.264 C  
HETATM    8  C   UNL     1     -12.121  15.682  70.163  1.00  0.00    -0.400 C  
BRANCH   7   9
HETATM    9  C   UNL     1     -12.208  13.233  69.534  1.00  0.00    -0.178 C  
BRANCH   9  10
HETATM   10  N   UNL     1     -12.828  12.620  70.755  1.00  0.00    -0.099 NA 
HETATM   11  H   UNL     1     -13.427  13.206  71.337  1.00  0.00     0.000 HD 
BRANCH  10  12
HETATM   12  C   UNL     1     -12.631  11.280  71.142  1.00  0.00    -0.397 A  
HETATM   13  N   UNL     1     -13.631  10.690  71.799  1.00  0.00    -0.175 NA 
HETATM   14  C   UNL     1     -13.379   9.464  72.270  1.00  0.00    -0.461 A  
HETATM   15  C   UNL     1     -12.222   8.743  72.047  1.00  0.00    -0.447 A  
HETATM   16  C   UNL     1     -11.204   9.354  71.336  1.00  0.00    -0.381 A  
HETATM   17  N   UNL     1     -11.398  10.672  70.933  1.00  0.00    -0.145 NA 
BRANCH  16  18
HETATM   18  C   UNL     1      -9.936   8.520  71.068  1.00  0.00    -0.255 A  
HETATM   19  C   UNL     1      -9.397   7.695  72.073  1.00  0.00    -0.142 A  
HETATM   20  N   UNL     1      -8.353   6.979  71.557  1.00  0.00    -0.112 NA 
HETATM   21  C   UNL     1      -9.069   8.164  69.930  1.00  0.00    -0.151 A  
HETATM   22  N   UNL     1      -8.117   7.273  70.287  1.00  0.00    -0.119 NA 
BRANCH  20  23
HETATM   23  C   UNL     1      -7.541   5.932  72.201  1.00  0.00    -0.101 C  
HETATM   24  C   UNL     1      -6.219   5.664  71.468  1.00  0.00    -0.038 C  
HETATM   25  C   UNL     1      -8.301   4.604  72.346  1.00  0.00    -0.115 C  
ENDBRANCH  20  23
BRANCH  21  26
HETATM   26  C   UNL     1      -8.992   8.603  68.537  1.00  0.00    -0.139 A  
HETATM   27  C   UNL     1      -9.941   9.468  67.939  1.00  0.00    -0.209 A  
HETATM   28  C   UNL     1      -9.919   9.711  66.562  1.00  0.00    -0.246 A  
HETATM   29 CL   UNL     1     -10.966  10.871  65.847  1.00  0.00    -0.133 Cl 
HETATM   30  C   UNL     1      -9.036   9.000  65.738  1.00  0.00    -0.272 A  
HETATM   31  C   UNL     1      -8.122   8.167  66.355  1.00  0.00    -0.106 A  
HETATM   32  C   UNL     1      -8.006   8.111  67.730  1.00  0.00    -0.127 A  
HETATM   33  F   UNL     1      -6.878   7.610  68.230  1.00  0.00    -0.058 F  
BRANCH  31  34
HETATM   34  N   UNL     1      -7.216   7.347  65.619  1.00  0.00    -0.064 N  
HETATM   35  H   UNL     1      -6.237   7.600  65.480  1.00  0.00     0.000 HD 
BRANCH  34  36
HETATM   36  S   UNL     1      -7.881   5.925  64.995  1.00  0.00    -0.112 S  
HETATM   37  O   UNL     1      -7.019   4.803  65.284  1.00  0.00    -0.059 OA 
HETATM   38  O   UNL     1      -9.269   5.956  65.404  1.00  0.00    -0.021 OA 
HETATM   39  C   UNL     1      -7.770   6.331  63.272  1.00  0.00    -0.098 C  
ENDBRANCH  34  36
ENDBRANCH  31  34
ENDBRANCH  21  26
ENDBRANCH  16  18
ENDBRANCH  10  12
ENDBRANCH   9  10
ENDBRANCH   7   9
ENDBRANCH   4   7
ENDBRANCH   2   3
TORSDOF 10
ENDMDL
MODEL      200
REMARK 921   NORMALIZED FREE ENERGY PREDICTED BY IDOCK:   -3.58 KCAL/MOL
REMARK 922        TOTAL FREE ENERGY PREDICTED BY IDOCK:   -7.64 KCAL/MOL
REMARK 923 INTER-LIGAND FREE ENERGY PREDICTED BY IDOCK:   -5.47 KCAL/MOL
REMARK 924 INTRA-LIGAND FREE ENERGY PREDICTED BY IDOCK:   -2.16 KCAL/MOL
REMARK 927      BINDING AFFINITY PREDICTED BY RF-SCORE:    0.00 PKD
ROOT
HETATM    1  C   UNL     1     -10.450   4.982  66.300  1.00  0.00    -0.303 C  
HETATM    2  O   UNL     1      -9.483   5.061  67.363  1.00  0.00    -0.125 OA 
ENDROOT
BRANCH   2   3
HETATM    3  C   UNL     1      -8.329   5.697  67.008  1.00  0.00    -0.107 C  
HETATM    4  N   UNL     1      -8.024   5.460  65.685  1.00  0.00    -0.104 N  
HETATM    5  O   UNL     1      -7.665   6.373  67.782  1.00  0.00    -0.100 OA 
HETATM    6  H   UNL     1      -8.655   4.877  65.134  1.00  0.00     0.000 HD 
BRANCH   4   7
HETATM    7  C   UNL     1      -6.823   6.014  65.033  1.00  0.00    -0.051 C  
HETATM    8  C   UNL     1      -5.978   4.818  64.487  1.00  0.00    -0.018 C  
BRANCH   7   9
HETATM    9  C   UNL     1      -7.058   7.005  63.817  1.00  0.00    -0.061 C  
BRANCH   9  10
HETATM   10  N   UNL     1      -8.351   7.723  63.563  1.00  0.00    -0.369 NA 
HETATM   11  H   UNL     1      -9.006   7.313  62.896  1.00  0.00     0.000 HD 
BRANCH  10  12
HETATM   12  C   UNL     1      -8.712   8.930  64.193  1.00  0.00    -0.047 A  
HETATM   13  N   UNL     1      -9.635   9.675  63.583  1.00  0.00     0.156 NA 
HETATM   14  C   UNL     1      -9.872  10.874  64.126  1.00  0.00    -0.314 A  
HETATM   15  C   UNL     1      -9.317  11.345  65.300  1.00  0.00    -0.192 A  
HETATM   16  C   UNL     1      -8.386  10.548  65.942  1.00  0.00    -0.161 A  
HETATM   17  N   UNL     1      -8.037   9.344  65.336  1.00  0.00    -0.114 NA 
BRANCH  16  18
HETATM   18  C   UNL     1      -7.806  11.076  67.269  1.00  0.00    -0.122 A  
HETATM   19  C   UNL     1      -6.762  12.020  67.267  1.00  0.00    -0.144 A  
HETATM   20  N   UNL     1      -6.506  12.411  68.552  1.00  0.00    -0.064 NA 
HETATM   21  C   UNL     1      -8.103  11.001  68.711  1.00  0.00    -0.145 A  
HETATM   22  N   UNL     1      -7.271  11.785  69.433  1.00  0.00     0.004 NA 
BRANCH  20  23
HETATM   23  C   UNL     1      -5.565  13.436  69.038  1.00  0.00    -0.074 C  
HETATM   24  C   UNL     1      -6.057  14.149  70.305  1.00  0.00    -0.164 C  
HETATM   25  C   UNL     1      -5.246  14.495  67.970  1.00  0.00    -0.105 C  
ENDBRANCH  20  23
BRANCH  21  26
HETATM   26  C   UNL     1      -9.055  10.233  69.513  1.00  0.00    -0.187 A  
HETATM   27  C   UNL     1     -10.415  10.600  69.669  1.00  0.00    -0.219 A  
HETATM   28  C   UNL     1     -11.233   9.932  70.587  1.00  0.00    -0.344 A  
HETATM   29 CL   UNL     1     -12.917  10.263  70.680  1.00  0.00    -0.392 Cl 
HETATM   30  C   UNL     1     -10.683   8.980  71.455  1.00  0.00    -0.421 A  
HETATM   31  C   UNL     1      -9.355   8.645  71.272  1.00  0.00    -0.224 A  
HETATM   32  C   UNL     1      -8.621   9.145  70.215  1.00  0.00    -0.198 A  
HETATM   33  F   UNL     1      -7.508   8.495  69.878  1.00  0.00    -0.058 F  
BRANCH  31  34
HETATM   34  N   UNL     1      -8.669   7.735  72.131  1.00  0.00    -0.121 N  
HETATM   35  H   UNL     1      -7.893   8.023  72.727  1.00  0.00     0.000 HD 
BRANCH  34  36
HETATM   36  S   UNL     1      -9.237   6.145  72.089  1.00  0.00    -0.140 S  
HETATM   37  O   UNL     1     -10.419   6.016  72.909  1.00  0.00    -0.199 OA 
HETATM   38  O   UNL     1      -9.228   5.786  70.687  1.00  0.00    -0.148 OA 
HETATM   39  C   UNL     1      -7.865   5.367  72.900  1.00  0.00    -0.098 C  
ENDBRANCH  34  36
ENDBRANCH  31  34
ENDBRANCH  21  26
ENDBRANCH  16  18
ENDBRANCH  10  12
ENDBRANCH   9  10
ENDBRANCH   7   9
ENDBRANCH   4   7
ENDBRANCH   2   3
TORSDOF 10
ENDMDL
MODEL      201
REMARK 921   NORMALIZED FREE ENERGY PREDICTED BY IDOCK:   -3.54 KCAL/MOL
REMARK 922        TOTAL FREE ENERGY PREDICTED BY IDOCK:   -7.57 KCAL/MOL
REMARK 923 INTER-LIGAND FREE ENERGY PREDICTED BY IDOCK:   -6.39 KCAL/MOL
REMARK 924 INTRA-LIGAND FREE ENERGY PREDICTED BY IDOCK:   -1.18 KCAL/MOL
REMARK 927      BINDING AFFINITY PREDICTED BY RF-SCORE:    0.00 PKD
ROOT
HETATM    1  C   UNL     1     -11.031   6.447  67.536  1.00  0.00    -0.364 C  
HETATM    2  O   UNL     1      -9.594   6.453  67.605  1.00  0.00    -0.122 OA 
ENDROOT
BRANCH   2   3
HETATM    3  C   UNL     1      -8.998   5.676  66.654  1.00  0.00    -0.120 C  
HETATM    4  N   UNL     1      -7.625   5.737  66.761  1.00  0.00    -0.094 N  
HETATM    5  O   UNL     1      -9.619   5.031  65.821  1.00  0.00    -0.159 OA 
HETATM    6  H   UNL     1      -7.216   6.311  67.499  1.00  0.00     0.000 HD 
BRANCH   4   7
HETATM    7  C   UNL     1      -6.722   5.005  65.853  1.00  0.00    -0.053 C  
HETATM    8  C   UNL     1      -6.719   3.504  66.286  1.00  0.00    -0.049 C  
BRANCH   7   9
HETATM    9  C   UNL     1      -7.077   5.038  64.307  1.00  0.00    -0.050 C  
BRANCH   9  10
HETATM   10  N   UNL     1      -7.047   6.284  63.471  1.00  0.00    -0.050 NA 
HETATM   11  H   UNL     1      -7.058   6.183  62.456  1.00  0.00     0.000 HD 
BRANCH  10  12
HETATM   12  C   UNL     1      -7.005   7.585  64.009  1.00  0.00    -0.058 A  
HETATM   13  N   UNL     1      -5.803   8.154  64.113  1.00  0.00    -0.056 NA 
HETATM   14  C   UNL     1      -5.766   9.334  64.741  1.00  0.00    -0.063 A  
HETATM   15  C   UNL     1      -6.868  10.036  65.191  1.00  0.00    -0.130 A  
HETATM   16  C   UNL     1      -8.113   9.450  65.048  1.00  0.00    -0.129 A  
HETATM   17  N   UNL     1      -8.166   8.171  64.500  1.00  0.00    -0.144 NA 
BRANCH  16  18
HETATM   18  C   UNL     1      -9.332  10.265  65.523  1.00  0.00    -0.250 A  
HETATM   19  C   UNL     1     -10.058  11.059  64.616  1.00  0.00    -0.311 A  
HETATM   20  N   UNL     1     -11.149  11.584  65.251  1.00  0.00    -0.237 NA 
HETATM   21  C   UNL     1     -10.160  10.407  66.734  1.00  0.00    -0.214 A  
HETATM   22  N   UNL     1     -11.207  11.237  66.528  1.00  0.00    -0.289 NA 
BRANCH  20  23
HETATM   23  C   UNL     1     -12.241  12.402  64.693  1.00  0.00    -0.425 C  
HETATM   24  C   UNL     1     -11.872  13.063  63.357  1.00  0.00    -0.543 C  
HETATM   25  C   UNL     1     -12.715  13.493  65.666  1.00  0.00    -0.478 C  
ENDBRANCH  20  23
BRANCH  21  26
HETATM   26  C   UNL     1     -10.060   9.890  68.099  1.00  0.00    -0.193 A  
HETATM   27  C   UNL     1     -11.165   9.806  68.982  1.00  0.00    -0.080 A  
HETATM   28  C   UNL     1     -10.979   9.474  70.329  1.00  0.00    -0.269 A  
HETATM   29 CL   UNL     1     -12.319   9.221  71.374  1.00  0.00    -0.394 Cl 
HETATM   30  C   UNL     1      -9.684   9.347  70.848  1.00  0.00    -0.320 A  
HETATM   31  C   UNL     1      -8.631   9.432  69.957  1.00  0.00    -0.203 A  
HETATM   32  C   UNL     1      -8.839   9.533  68.596  1.00  0.00    -0.132 A  
HETATM   33  F   UNL     1      -7.824   9.218  67.794  1.00  0.00    -0.090 F  
BRANCH  31  34
HETATM   34  N   UNL     1      -7.268   9.379  70.376  1.00  0.00    -0.095 N  
HETATM   35  H   UNL     1      -6.674  10.208  70.415  1.00  0.00     0.000 HD 
BRANCH  34  36
HETATM   36  S   UNL     1      -6.709   7.844  70.803  1.00  0.00    -0.038 S  
HETATM   37  O   UNL     1      -7.174   6.861  69.853  1.00  0.00    -0.072 OA 
HETATM   38  O   UNL     1      -5.303   8.030  71.093  1.00  0.00    -0.030 OA 
HETATM   39  C   UNL     1      -7.601   7.667  72.326  1.00  0.00    -0.082 C  
ENDBRANCH  34  36
ENDBRANCH  31  34
ENDBRANCH  21  26
ENDBRANCH  16  18
ENDBRANCH  10  12
ENDBRANCH   9  10
ENDBRANCH   7   9
ENDBRANCH   4   7
ENDBRANCH   2   3
TORSDOF 10
ENDMDL
MODEL      202
REMARK 921   NORMALIZED FREE ENERGY PREDICTED BY IDOCK:   -3.54 KCAL/MOL
REMARK 922        TOTAL FREE ENERGY PREDICTED BY IDOCK:   -7.57 KCAL/MOL
REMARK 923 INTER-LIGAND FREE ENERGY PREDICTED BY IDOCK:   -7.22 KCAL/MOL
REMARK 924 INTRA-LIGAND FREE ENERGY PREDICTED BY IDOCK:   -0.35 KCAL/MOL
REMARK 927      BINDING AFFINITY PREDICTED BY RF-SCORE:    0.00 PKD
ROOT
HETATM    1  C   UNL     1     -11.438  16.727  72.218  1.00  0.00     0.331 C  
HETATM    2  O   UNL     1     -12.483  16.299  73.109  1.00  0.00    -0.470 OA 
ENDROOT
BRANCH   2   3
HETATM    3  C   UNL     1     -12.995  15.071  72.804  1.00  0.00    -0.433 C  
HETATM    4  N   UNL     1     -12.051  14.288  72.175  1.00  0.00    -0.127 N  
HETATM    5  O   UNL     1     -14.145  14.738  73.054  1.00  0.00    -0.377 OA 
HETATM    6  H   UNL     1     -11.119  14.675  72.019  1.00  0.00     0.000 HD 
BRANCH   4   7
HETATM    7  C   UNL     1     -12.331  12.914  71.719  1.00  0.00     0.344 C  
HETATM    8  C   UNL     1     -13.840  12.615  71.996  1.00  0.00    -0.146 C  
BRANCH   7   9
HETATM    9  C   UNL     1     -12.072  12.598  70.186  1.00  0.00    -0.294 C  
BRANCH   9  10
HETATM   10  N   UNL     1     -12.269  13.597  69.084  1.00  0.00    -0.307 NA 
HETATM   11  H   UNL     1     -12.693  14.495  69.318  1.00  0.00     0.000 HD 
BRANCH  10  12
HETATM   12  C   UNL     1     -11.902  13.364  67.744  1.00  0.00    -0.358 A  
HETATM   13  N   UNL     1     -12.326  14.249  66.841  1.00  0.00    -0.333 NA 
HETATM   14  C   UNL     1     -12.078  13.946  65.562  1.00  0.00    -0.407 A  
HETATM   15  C   UNL     1     -11.347  12.859  65.125  1.00  0.00    -0.331 A  
HETATM   16  C   UNL     1     -10.884  11.965  66.074  1.00  0.00    -0.299 A  
HETATM   17  N   UNL     1     -11.226  12.198  67.403  1.00  0.00    -0.282 NA 
BRANCH  16  18
HETATM   18  C   UNL     1     -10.039  10.779  65.568  1.00  0.00    -0.335 A  
HETATM   19  C   UNL     1      -9.453  10.814  64.289  1.00  0.00    -0.264 A  
HETATM   20  N   UNL     1      -8.668   9.706  64.123  1.00  0.00    -0.202 NA 
HETATM   21  C   UNL     1      -9.475   9.523  66.092  1.00  0.00    -0.221 A  
HETATM   22  N   UNL     1      -8.698   8.903  65.176  1.00  0.00    -0.186 NA 
BRANCH  20  23
HETATM   23  C   UNL     1      -7.794   9.351  62.990  1.00  0.00    -0.131 C  
HETATM   24  C   UNL     1      -6.780   8.253  63.337  1.00  0.00    -0.084 C  
HETATM   25  C   UNL     1      -7.034  10.565  62.432  1.00  0.00    -0.153 C  
ENDBRANCH  20  23
BRANCH  21  26
HETATM   26  C   UNL     1      -9.617   8.794  67.353  1.00  0.00    -0.206 A  
HETATM   27  C   UNL     1      -9.137   9.283  68.593  1.00  0.00    -0.132 A  
HETATM   28  C   UNL     1      -9.140   8.469  69.731  1.00  0.00    -0.153 A  
HETATM   29 CL   UNL     1      -8.703   9.094  71.271  1.00  0.00    -0.229 Cl 
HETATM   30  C   UNL     1      -9.498   7.118  69.627  1.00  0.00    -0.152 A  
HETATM   31  C   UNL     1      -9.964   6.676  68.404  1.00  0.00    -0.145 A  
HETATM   32  C   UNL     1     -10.171   7.546  67.350  1.00  0.00    -0.249 A  
HETATM   33  F   UNL     1     -10.970   7.138  66.367  1.00  0.00    -0.213 F  
BRANCH  31  34
HETATM   34  N   UNL     1     -10.301   5.311  68.160  1.00  0.00    -0.148 N  
HETATM   35  H   UNL     1     -11.257   4.963  68.225  1.00  0.00     0.000 HD 
BRANCH  34  36
HETATM   36  S   UNL     1      -8.999   4.314  67.756  1.00  0.00    -0.126 S  
HETATM   37  O   UNL     1      -7.761   5.053  67.837  1.00  0.00    -0.083 OA 
HETATM   38  O   UNL     1      -9.220   3.096  68.505  1.00  0.00    -0.141 OA 
HETATM   39  C   UNL     1      -9.414   4.037  66.054  1.00  0.00    -0.183 C  
ENDBRANCH  34  36
ENDBRANCH  31  34
ENDBRANCH  21  26
ENDBRANCH  16  18
ENDBRANCH  10  12
ENDBRANCH   9  10
ENDBRANCH   7   9
ENDBRANCH   4   7
ENDBRANCH   2   3
TORSDOF 10
ENDMDL
MODEL      203
REMARK 921   NORMALIZED FREE ENERGY PREDICTED BY IDOCK:   -3.52 KCAL/MOL
REMARK 922        TOTAL FREE ENERGY PREDICTED BY IDOCK:   -7.54 KCAL/MOL
REMARK 923 INTER-LIGAND FREE ENERGY PREDICTED BY IDOCK:   -6.42 KCAL/MOL
REMARK 924 INTRA-LIGAND FREE ENERGY PREDICTED BY IDOCK:   -1.12 KCAL/MOL
REMARK 927      BINDING AFFINITY PREDICTED BY RF-SCORE:    0.00 PKD
ROOT
HETATM    1  C   UNL     1     -12.337  15.806  73.779  1.00  0.00    -0.597 C  
HETATM    2  O   UNL     1     -13.146  14.796  73.151  1.00  0.00    -0.485 OA 
ENDROOT
BRANCH   2   3
HETATM    3  C   UNL     1     -12.944  14.689  71.806  1.00  0.00    -0.335 C  
HETATM    4  N   UNL     1     -12.574  13.406  71.466  1.00  0.00    -0.286 N  
HETATM    5  O   UNL     1     -13.068  15.625  71.028  1.00  0.00    -0.500 OA 
HETATM    6  H   UNL     1     -12.502  12.705  72.204  1.00  0.00     0.000 HD 
BRANCH   4   7
HETATM    7  C   UNL     1     -12.277  13.004  70.078  1.00  0.00    -0.236 C  
HETATM    8  C   UNL     1     -10.914  13.651  69.671  1.00  0.00     0.016 C  
BRANCH   7   9
HETATM    9  C   UNL     1     -12.154  11.449  69.791  1.00  0.00    -0.320 C  
BRANCH   9  10
HETATM   10  N   UNL     1     -11.303  10.516  70.602  1.00  0.00    -0.380 NA 
HETATM   11  H   UNL     1     -11.504  10.424  71.598  1.00  0.00     0.000 HD 
BRANCH  10  12
HETATM   12  C   UNL     1     -10.243   9.760  70.065  1.00  0.00    -0.263 A  
HETATM   13  N   UNL     1      -9.399   9.204  70.935  1.00  0.00    -0.259 NA 
HETATM   14  C   UNL     1      -8.329   8.598  70.409  1.00  0.00    -0.130 A  
HETATM   15  C   UNL     1      -8.091   8.425  69.059  1.00  0.00    -0.116 A  
HETATM   16  C   UNL     1      -8.992   8.978  68.166  1.00  0.00    -0.133 A  
HETATM   17  N   UNL     1     -10.053   9.711  68.688  1.00  0.00    -0.172 NA 
BRANCH  16  18
HETATM   18  C   UNL     1      -8.727   8.742  66.666  1.00  0.00    -0.138 A  
HETATM   19  C   UNL     1      -8.481   9.828  65.804  1.00  0.00    -0.133 A  
HETATM   20  N   UNL     1      -8.165   9.353  64.561  1.00  0.00    -0.137 NA 
HETATM   21  C   UNL     1      -8.499   7.610  65.749  1.00  0.00    -0.144 A  
HETATM   22  N   UNL     1      -8.208   8.031  64.498  1.00  0.00    -0.130 NA 
BRANCH  20  23
HETATM   23  C   UNL     1      -7.749  10.103  63.363  1.00  0.00    -0.153 C  
HETATM   24  C   UNL     1      -8.907  10.370  62.391  1.00  0.00    -0.279 C  
HETATM   25  C   UNL     1      -6.615   9.404  62.596  1.00  0.00    -0.096 C  
ENDBRANCH  20  23
BRANCH  21  26
HETATM   26  C   UNL     1      -8.571   6.156  65.895  1.00  0.00    -0.147 A  
HETATM   27  C   UNL     1      -9.285   5.319  65.002  1.00  0.00     0.028 A  
HETATM   28  C   UNL     1      -9.469   3.962  65.288  1.00  0.00    -0.170 A  
HETATM   29 CL   UNL     1     -10.200   2.905  64.146  1.00  0.00    -0.117 Cl 
HETATM   30  C   UNL     1      -9.060   3.443  66.524  1.00  0.00    -0.172 A  
HETATM   31  C   UNL     1      -8.364   4.287  67.368  1.00  0.00    -0.099 A  
HETATM   32  C   UNL     1      -7.991   5.558  66.977  1.00  0.00    -0.102 A  
HETATM   33  F   UNL     1      -7.013   6.148  67.661  1.00  0.00    -0.059 F  
BRANCH  31  34
HETATM   34  N   UNL     1      -7.951   3.891  68.675  1.00  0.00    -0.067 N  
HETATM   35  H   UNL     1      -8.533   4.034  69.501  1.00  0.00     0.000 HD 
BRANCH  34  36
HETATM   36  S   UNL     1      -6.426   3.170  68.756  1.00  0.00    -0.030 S  
HETATM   37  O   UNL     1      -6.043   2.666  67.458  1.00  0.00    -0.026 OA 
HETATM   38  O   UNL     1      -5.609   4.114  69.488  1.00  0.00    -0.015 OA 
HETATM   39  C   UNL     1      -6.846   1.813  69.819  1.00  0.00    -0.033 C  
ENDBRANCH  34  36
ENDBRANCH  31  34
ENDBRANCH  21  26
ENDBRANCH  16  18
ENDBRANCH  10  12
ENDBRANCH   9  10
ENDBRANCH   7   9
ENDBRANCH   4   7
ENDBRANCH   2   3
TORSDOF 10
ENDMDL
MODEL      204
REMARK 921   NORMALIZED FREE ENERGY PREDICTED BY IDOCK:   -3.51 KCAL/MOL
REMARK 922        TOTAL FREE ENERGY PREDICTED BY IDOCK:   -7.51 KCAL/MOL
REMARK 923 INTER-LIGAND FREE ENERGY PREDICTED BY IDOCK:   -6.89 KCAL/MOL
REMARK 924 INTRA-LIGAND FREE ENERGY PREDICTED BY IDOCK:   -0.63 KCAL/MOL
REMARK 927      BINDING AFFINITY PREDICTED BY RF-SCORE:    0.00 PKD
ROOT
HETATM    1  C   UNL     1     -10.030   2.202  63.903  1.00  0.00    -0.121 C  
HETATM    2  O   UNL     1      -8.688   2.249  64.419  1.00  0.00    -0.094 OA 
ENDROOT
BRANCH   2   3
HETATM    3  C   UNL     1      -8.483   3.251  65.323  1.00  0.00    -0.100 C  
HETATM    4  N   UNL     1      -9.681   3.704  65.834  1.00  0.00    -0.361 N  
HETATM    5  O   UNL     1      -7.376   3.681  65.616  1.00  0.00    -0.073 OA 
HETATM    6  H   UNL     1     -10.546   3.268  65.514  1.00  0.00     0.000 HD 
BRANCH   4   7
HETATM    7  C   UNL     1      -9.763   4.794  66.824  1.00  0.00    -0.189 C  
HETATM    8  C   UNL     1     -10.978   5.700  66.442  1.00  0.00    -0.083 C  
BRANCH   7   9
HETATM    9  C   UNL     1      -9.960   4.373  68.341  1.00  0.00     0.000 C  
BRANCH   9  10
HETATM   10  N   UNL     1      -9.572   5.238  69.504  1.00  0.00    -0.140 NA 
HETATM   11  H   UNL     1      -9.724   4.875  70.445  1.00  0.00     0.000 HD 
BRANCH  10  12
HETATM   12  C   UNL     1      -9.012   6.523  69.369  1.00  0.00    -0.132 A  
HETATM   13  N   UNL     1      -8.219   6.941  70.358  1.00  0.00    -0.123 NA 
HETATM   14  C   UNL     1      -7.799   8.208  70.276  1.00  0.00    -0.093 A  
HETATM   15  C   UNL     1      -8.039   9.064  69.218  1.00  0.00    -0.105 A  
HETATM   16  C   UNL     1      -8.835   8.608  68.183  1.00  0.00    -0.142 A  
HETATM   17  N   UNL     1      -9.379   7.331  68.299  1.00  0.00    -0.136 NA 
BRANCH  16  18
HETATM   18  C   UNL     1      -9.061   9.565  66.997  1.00  0.00    -0.154 A  
HETATM   19  C   UNL     1      -9.011   9.087  65.673  1.00  0.00    -0.202 A  
HETATM   20  N   UNL     1      -9.354  10.097  64.817  1.00  0.00    -0.244 NA 
HETATM   21  C   UNL     1      -9.484  10.958  66.767  1.00  0.00    -0.177 A  
HETATM   22  N   UNL     1      -9.604  11.233  65.449  1.00  0.00    -0.223 NA 
BRANCH  20  23
HETATM   23  C   UNL     1      -9.524  10.051  63.354  1.00  0.00    -0.188 C  
HETATM   24  C   UNL     1      -8.773   8.885  62.699  1.00  0.00    -0.140 C  
HETATM   25  C   UNL     1      -9.094  11.359  62.671  1.00  0.00    -0.242 C  
ENDBRANCH  20  23
BRANCH  21  26
HETATM   26  C   UNL     1      -9.746  12.098  67.647  1.00  0.00    -0.188 A  
HETATM   27  C   UNL     1     -10.832  12.146  68.556  1.00  0.00    -0.267 A  
HETATM   28  C   UNL     1     -11.139  13.327  69.240  1.00  0.00    -0.153 A  
HETATM   29 CL   UNL     1     -12.355  13.360  70.454  1.00  0.00    -0.403 Cl 
HETATM   30  C   UNL     1     -10.454  14.512  68.938  1.00  0.00    -0.246 A  
HETATM   31  C   UNL     1      -9.399  14.427  68.049  1.00  0.00    -0.200 A  
HETATM   32  C   UNL     1      -8.963  13.213  67.555  1.00  0.00    -0.197 A  
HETATM   33  F   UNL     1      -7.737  13.165  67.040  1.00  0.00    -0.148 F  
BRANCH  31  34
HETATM   34  N   UNL     1      -8.668  15.574  67.618  1.00  0.00    -0.172 N  
HETATM   35  H   UNL     1      -7.801  15.871  68.066  1.00  0.00     0.000 HD 
BRANCH  34  36
HETATM   36  S   UNL     1      -9.342  16.403  66.310  1.00  0.00    -0.330 S  
HETATM   37  O   UNL     1      -8.340  17.221  65.668  1.00  0.00    -0.475 OA 
HETATM   38  O   UNL     1     -10.099  15.402  65.589  1.00  0.00    -0.324 OA 
HETATM   39  C   UNL     1     -10.460  17.438  67.219  1.00  0.00    -0.321 C  
ENDBRANCH  34  36
ENDBRANCH  31  34
ENDBRANCH  21  26
ENDBRANCH  16  18
ENDBRANCH  10  12
ENDBRANCH   9  10
ENDBRANCH   7   9
ENDBRANCH   4   7
ENDBRANCH   2   3
TORSDOF 10
ENDMDL
MODEL      205
REMARK 921   NORMALIZED FREE ENERGY PREDICTED BY IDOCK:   -3.47 KCAL/MOL
REMARK 922        TOTAL FREE ENERGY PREDICTED BY IDOCK:   -7.45 KCAL/MOL
REMARK 923 INTER-LIGAND FREE ENERGY PREDICTED BY IDOCK:   -5.47 KCAL/MOL
REMARK 924 INTRA-LIGAND FREE ENERGY PREDICTED BY IDOCK:   -1.98 KCAL/MOL
REMARK 927      BINDING AFFINITY PREDICTED BY RF-SCORE:    0.00 PKD
ROOT
HETATM    1  C   UNL     1     -10.780   7.658  66.838  1.00  0.00    -0.201 C  
HETATM    2  O   UNL     1     -11.119   6.389  67.426  1.00  0.00    -0.363 OA 
ENDROOT
BRANCH   2   3
HETATM    3  C   UNL     1     -10.272   5.379  67.075  1.00  0.00    -0.233 C  
HETATM    4  N   UNL     1      -9.630   5.665  65.888  1.00  0.00    -0.328 N  
HETATM    5  O   UNL     1     -10.127   4.359  67.734  1.00  0.00    -0.084 OA 
HETATM    6  H   UNL     1      -9.832   6.551  65.425  1.00  0.00     0.000 HD 
BRANCH   4   7
HETATM    7  C   UNL     1      -8.665   4.743  65.263  1.00  0.00    -0.142 C  
HETATM    8  C   UNL     1      -9.255   4.288  63.889  1.00  0.00    -0.143 C  
BRANCH   7   9
HETATM    9  C   UNL     1      -7.212   5.312  64.974  1.00  0.00    -0.066 C  
BRANCH   9  10
HETATM   10  N   UNL     1      -6.100   5.312  65.982  1.00  0.00    -0.029 NA 
HETATM   11  H   UNL     1      -5.202   4.912  65.709  1.00  0.00     0.000 HD 
BRANCH  10  12
HETATM   12  C   UNL     1      -6.227   5.832  67.285  1.00  0.00    -0.034 A  
HETATM   13  N   UNL     1      -5.524   6.930  67.565  1.00  0.00    -0.012 NA 
HETATM   14  C   UNL     1      -5.556   7.337  68.839  1.00  0.00    -0.019 A  
HETATM   15  C   UNL     1      -6.324   6.774  69.840  1.00  0.00    -0.039 A  
HETATM   16  C   UNL     1      -7.075   5.655  69.528  1.00  0.00    -0.064 A  
HETATM   17  N   UNL     1      -6.970   5.144  68.237  1.00  0.00    -0.060 NA 
BRANCH  16  18
HETATM   18  C   UNL     1      -7.953   5.064  70.649  1.00  0.00    -0.083 A  
HETATM   19  C   UNL     1      -7.585   3.863  71.286  1.00  0.00    -0.052 A  
HETATM   20  N   UNL     1      -8.455   3.614  72.311  1.00  0.00    -0.084 NA 
HETATM   21  C   UNL     1      -9.124   5.452  71.454  1.00  0.00    -0.145 A  
HETATM   22  N   UNL     1      -9.405   4.532  72.404  1.00  0.00    -0.124 NA 
BRANCH  20  23
HETATM   23  C   UNL     1      -8.424   2.528  73.307  1.00  0.00    -0.070 C  
HETATM   24  C   UNL     1      -9.615   2.568  74.275  1.00  0.00    -0.116 C  
HETATM   25  C   UNL     1      -7.124   2.519  74.127  1.00  0.00    -0.036 C  
ENDBRANCH  20  23
BRANCH  21  26
HETATM   26  C   UNL     1     -10.061   6.575  71.409  1.00  0.00    -0.213 A  
HETATM   27  C   UNL     1     -11.467   6.415  71.352  1.00  0.00    -0.363 A  
HETATM   28  C   UNL     1     -12.303   7.515  71.129  1.00  0.00    -0.291 A  
HETATM   29 CL   UNL     1     -14.013   7.361  71.208  1.00  0.00    -0.438 Cl 
HETATM   30  C   UNL     1     -11.751   8.768  70.832  1.00  0.00    -0.299 A  
HETATM   31  C   UNL     1     -10.375   8.888  70.899  1.00  0.00    -0.240 A  
HETATM   32  C   UNL     1      -9.578   7.851  71.343  1.00  0.00    -0.153 A  
HETATM   33  F   UNL     1      -8.347   8.155  71.750  1.00  0.00    -0.113 F  
BRANCH  31  34
HETATM   34  N   UNL     1      -9.695  10.095  70.559  1.00  0.00    -0.283 N  
HETATM   35  H   UNL     1      -9.652  10.897  71.189  1.00  0.00     0.000 HD 
BRANCH  34  36
HETATM   36  S   UNL     1      -8.966  10.101  69.036  1.00  0.00    -0.176 S  
HETATM   37  O   UNL     1      -8.704   8.748  68.603  1.00  0.00    -0.132 OA 
HETATM   38  O   UNL     1      -9.759  11.022  68.249  1.00  0.00    -0.164 OA 
HETATM   39  C   UNL     1      -7.441  10.884  69.491  1.00  0.00    -0.077 C  
ENDBRANCH  34  36
ENDBRANCH  31  34
ENDBRANCH  21  26
ENDBRANCH  16  18
ENDBRANCH  10  12
ENDBRANCH   9  10
ENDBRANCH   7   9
ENDBRANCH   4   7
ENDBRANCH   2   3
TORSDOF 10
ENDMDL
MODEL      206
REMARK 921   NORMALIZED FREE ENERGY PREDICTED BY IDOCK:   -3.40 KCAL/MOL
REMARK 922        TOTAL FREE ENERGY PREDICTED BY IDOCK:   -7.35 KCAL/MOL
REMARK 923 INTER-LIGAND FREE ENERGY PREDICTED BY IDOCK:   -6.79 KCAL/MOL
REMARK 924 INTRA-LIGAND FREE ENERGY PREDICTED BY IDOCK:   -0.56 KCAL/MOL
REMARK 927      BINDING AFFINITY PREDICTED BY RF-SCORE:    0.00 PKD
ROOT
HETATM    1  C   UNL     1      -9.632  18.971  68.386  1.00  0.00    -0.373 C  
HETATM    2  O   UNL     1     -10.697  18.201  67.801  1.00  0.00    -0.412 OA 
ENDROOT
BRANCH   2   3
HETATM    3  C   UNL     1     -10.825  16.950  68.333  1.00  0.00    -0.347 C  
HETATM    4  N   UNL     1     -11.114  16.026  67.352  1.00  0.00    -0.230 N  
HETATM    5  O   UNL     1     -10.707  16.709  69.526  1.00  0.00    -0.316 OA 
HETATM    6  H   UNL     1     -11.189  16.346  66.385  1.00  0.00     0.000 HD 
BRANCH   4   7
HETATM    7  C   UNL     1     -11.318  14.595  67.641  1.00  0.00    -0.336 C  
HETATM    8  C   UNL     1     -12.279  14.017  66.553  1.00  0.00    -0.485 C  
BRANCH   7   9
HETATM    9  C   UNL     1     -10.028  13.673  67.654  1.00  0.00    -0.239 C  
BRANCH   9  10
HETATM   10  N   UNL     1     -10.063  12.191  67.890  1.00  0.00    -0.192 NA 
HETATM   11  H   UNL     1     -10.270  11.859  68.832  1.00  0.00     0.000 HD 
BRANCH  10  12
HETATM   12  C   UNL     1      -9.824  11.234  66.884  1.00  0.00    -0.193 A  
HETATM   13  N   UNL     1      -9.841  11.670  65.623  1.00  0.00    -0.234 NA 
HETATM   14  C   UNL     1      -9.740  10.729  64.678  1.00  0.00    -0.289 A  
HETATM   15  C   UNL     1      -9.526   9.384  64.907  1.00  0.00    -0.150 A  
HETATM   16  C   UNL     1      -9.478   8.950  66.220  1.00  0.00    -0.239 A  
HETATM   17  N   UNL     1      -9.694   9.892  67.221  1.00  0.00    -0.166 NA 
BRANCH  16  18
HETATM   18  C   UNL     1      -9.202   7.451  66.454  1.00  0.00    -0.203 A  
HETATM   19  C   UNL     1      -8.777   6.629  65.393  1.00  0.00     0.007 A  
HETATM   20  N   UNL     1      -8.493   5.382  65.877  1.00  0.00    -0.122 NA 
HETATM   21  C   UNL     1      -9.108   6.509  67.583  1.00  0.00    -0.112 A  
HETATM   22  N   UNL     1      -8.720   5.280  67.178  1.00  0.00    -0.108 NA 
BRANCH  20  23
HETATM   23  C   UNL     1      -7.937   4.217  65.165  1.00  0.00    -0.097 C  
HETATM   24  C   UNL     1      -6.404   4.157  65.220  1.00  0.00    -0.028 C  
HETATM   25  C   UNL     1      -8.379   4.162  63.694  1.00  0.00    -0.097 C  
ENDBRANCH  20  23
BRANCH  21  26
HETATM   26  C   UNL     1      -9.390   6.610  69.016  1.00  0.00    -0.133 A  
HETATM   27  C   UNL     1     -10.463   7.368  69.546  1.00  0.00    -0.236 A  
HETATM   28  C   UNL     1     -10.578   7.575  70.925  1.00  0.00    -0.220 A  
HETATM   29 CL   UNL     1     -11.953   8.361  71.593  1.00  0.00    -0.333 Cl 
HETATM   30  C   UNL     1      -9.562   7.143  71.787  1.00  0.00    -0.161 A  
HETATM   31  C   UNL     1      -8.532   6.404  71.236  1.00  0.00    -0.123 A  
HETATM   32  C   UNL     1      -8.549   6.014  69.911  1.00  0.00    -0.131 A  
HETATM   33  F   UNL     1      -7.756   5.004  69.559  1.00  0.00    -0.064 F  
BRANCH  31  34
HETATM   34  N   UNL     1      -7.411   5.963  72.001  1.00  0.00    -0.094 N  
HETATM   35  H   UNL     1      -6.506   6.433  71.969  1.00  0.00     0.000 HD 
BRANCH  34  36
HETATM   36  S   UNL     1      -7.693   4.605  72.964  1.00  0.00    -0.089 S  
HETATM   37  O   UNL     1      -8.438   3.614  72.224  1.00  0.00    -0.083 OA 
HETATM   38  O   UNL     1      -6.412   4.311  73.572  1.00  0.00    -0.045 OA 
HETATM   39  C   UNL     1      -8.749   5.366  74.169  1.00  0.00    -0.119 C  
ENDBRANCH  34  36
ENDBRANCH  31  34
ENDBRANCH  21  26
ENDBRANCH  16  18
ENDBRANCH  10  12
ENDBRANCH   9  10
ENDBRANCH   7   9
ENDBRANCH   4   7
ENDBRANCH   2   3
TORSDOF 10
ENDMDL
MODEL      207
REMARK 921   NORMALIZED FREE ENERGY PREDICTED BY IDOCK:   -3.40 KCAL/MOL
REMARK 922        TOTAL FREE ENERGY PREDICTED BY IDOCK:   -7.34 KCAL/MOL
REMARK 923 INTER-LIGAND FREE ENERGY PREDICTED BY IDOCK:   -5.77 KCAL/MOL
REMARK 924 INTRA-LIGAND FREE ENERGY PREDICTED BY IDOCK:   -1.57 KCAL/MOL
REMARK 927      BINDING AFFINITY PREDICTED BY RF-SCORE:    0.00 PKD
ROOT
HETATM    1  C   UNL     1      -8.872   2.984  66.359  1.00  0.00    -0.145 C  
HETATM    2  O   UNL     1      -8.365   3.464  67.617  1.00  0.00    -0.084 OA 
ENDROOT
BRANCH   2   3
HETATM    3  C   UNL     1      -7.465   4.483  67.492  1.00  0.00    -0.074 C  
HETATM    4  N   UNL     1      -7.666   5.174  66.317  1.00  0.00    -0.088 N  
HETATM    5  O   UNL     1      -6.598   4.723  68.321  1.00  0.00    -0.040 OA 
HETATM    6  H   UNL     1      -8.424   4.881  65.700  1.00  0.00     0.000 HD 
BRANCH   4   7
HETATM    7  C   UNL     1      -6.829   6.320  65.914  1.00  0.00    -0.057 C  
HETATM    8  C   UNL     1      -7.280   6.766  64.486  1.00  0.00    -0.072 C  
BRANCH   7   9
HETATM    9  C   UNL     1      -6.882   7.608  66.838  1.00  0.00    -0.068 C  
BRANCH   9  10
HETATM   10  N   UNL     1      -6.335   7.656  68.235  1.00  0.00    -0.040 NA 
HETATM   11  H   UNL     1      -5.368   7.367  68.384  1.00  0.00     0.000 HD 
BRANCH  10  12
HETATM   12  C   UNL     1      -7.082   8.078  69.352  1.00  0.00    -0.063 A  
HETATM   13  N   UNL     1      -6.441   8.127  70.521  1.00  0.00    -0.036 NA 
HETATM   14  C   UNL     1      -7.194   8.406  71.590  1.00  0.00    -0.091 A  
HETATM   15  C   UNL     1      -8.535   8.736  71.561  1.00  0.00    -0.230 A  
HETATM   16  C   UNL     1      -9.181   8.714  70.338  1.00  0.00    -0.170 A  
HETATM   17  N   UNL     1      -8.446   8.316  69.225  1.00  0.00    -0.125 NA 
BRANCH  16  18
HETATM   18  C   UNL     1     -10.668   9.120  70.322  1.00  0.00    -0.268 A  
HETATM   19  C   UNL     1     -11.616   8.393  71.067  1.00  0.00    -0.275 A  
HETATM   20  N   UNL     1     -12.830   9.015  70.980  1.00  0.00    -0.144 NA 
HETATM   21  C   UNL     1     -11.506  10.225  69.821  1.00  0.00    -0.256 A  
HETATM   22  N   UNL     1     -12.794  10.091  70.208  1.00  0.00    -0.036 NA 
BRANCH  20  23
HETATM   23  C   UNL     1     -14.095   8.675  71.656  1.00  0.00    -0.400 C  
HETATM   24  C   UNL     1     -14.164   9.201  73.097  1.00  0.00     0.565 C  
HETATM   25  C   UNL     1     -14.366   7.162  71.671  1.00  0.00    -0.528 C  
ENDBRANCH  20  23
BRANCH  21  26
HETATM   26  C   UNL     1     -11.251  11.385  68.966  1.00  0.00    -0.319 A  
HETATM   27  C   UNL     1     -11.148  11.304  67.555  1.00  0.00    -0.346 A  
HETATM   28  C   UNL     1     -10.727  12.408  66.806  1.00  0.00    -0.234 A  
HETATM   29 CL   UNL     1     -10.743  12.374  65.088  1.00  0.00    -0.315 Cl 
HETATM   30  C   UNL     1     -10.279  13.567  67.454  1.00  0.00    -0.237 A  
HETATM   31  C   UNL     1     -10.396  13.611  68.830  1.00  0.00    -0.114 A  
HETATM   32  C   UNL     1     -11.024  12.604  69.537  1.00  0.00     0.109 A  
HETATM   33  F   UNL     1     -11.443  12.889  70.768  1.00  0.00    -0.063 F  
BRANCH  31  34
HETATM   34  N   UNL     1      -9.918  14.711  69.604  1.00  0.00    -0.429 N  
HETATM   35  H   UNL     1      -9.013  14.697  70.076  1.00  0.00     0.000 HD 
BRANCH  34  36
HETATM   36  S   UNL     1     -10.960  16.037  69.684  1.00  0.00    -0.352 S  
HETATM   37  O   UNL     1     -10.261  17.243  69.307  1.00  0.00    -0.296 OA 
HETATM   38  O   UNL     1     -12.165  15.601  69.011  1.00  0.00    -0.277 OA 
HETATM   39  C   UNL     1     -11.236  16.035  71.436  1.00  0.00    -0.170 C  
ENDBRANCH  34  36
ENDBRANCH  31  34
ENDBRANCH  21  26
ENDBRANCH  16  18
ENDBRANCH  10  12
ENDBRANCH   9  10
ENDBRANCH   7   9
ENDBRANCH   4   7
ENDBRANCH   2   3
TORSDOF 10
ENDMDL
MODEL      208
REMARK 921   NORMALIZED FREE ENERGY PREDICTED BY IDOCK:   -3.36 KCAL/MOL
REMARK 922        TOTAL FREE ENERGY PREDICTED BY IDOCK:   -7.28 KCAL/MOL
REMARK 923 INTER-LIGAND FREE ENERGY PREDICTED BY IDOCK:   -6.40 KCAL/MOL
REMARK 924 INTRA-LIGAND FREE ENERGY PREDICTED BY IDOCK:   -0.88 KCAL/MOL
REMARK 927      BINDING AFFINITY PREDICTED BY RF-SCORE:    0.00 PKD
ROOT
HETATM    1  C   UNL     1     -12.094  14.631  68.736  1.00  0.00    -0.202 C  
HETATM    2  O   UNL     1     -11.976  13.289  69.239  1.00  0.00    -0.312 OA 
ENDROOT
BRANCH   2   3
HETATM    3  C   UNL     1     -11.474  12.404  68.329  1.00  0.00    -0.310 C  
HETATM    4  N   UNL     1     -10.181  12.735  67.983  1.00  0.00    -0.222 N  
HETATM    5  O   UNL     1     -12.110  11.458  67.885  1.00  0.00    -0.646 OA 
HETATM    6  H   UNL     1      -9.751  13.551  68.421  1.00  0.00     0.000 HD 
BRANCH   4   7
HETATM    7  C   UNL     1      -9.395  11.959  67.007  1.00  0.00    -0.188 C  
HETATM    8  C   UNL     1      -9.796  12.440  65.576  1.00  0.00    -0.215 C  
BRANCH   7   9
HETATM    9  C   UNL     1      -7.815  12.072  67.106  1.00  0.00    -0.168 C  
BRANCH   9  10
HETATM   10  N   UNL     1      -7.010  11.539  68.254  1.00  0.00    -0.069 NA 
HETATM   11  H   UNL     1      -6.623  12.206  68.922  1.00  0.00     0.000 HD 
BRANCH  10  12
HETATM   12  C   UNL     1      -6.759  10.168  68.462  1.00  0.00    -0.057 A  
HETATM   13  N   UNL     1      -5.644   9.855  69.124  1.00  0.00    -0.035 NA 
HETATM   14  C   UNL     1      -5.356   8.551  69.202  1.00  0.00    -0.035 A  
HETATM   15  C   UNL     1      -6.159   7.525  68.743  1.00  0.00    -0.031 A  
HETATM   16  C   UNL     1      -7.329   7.863  68.086  1.00  0.00    -0.099 A  
HETATM   17  N   UNL     1      -7.596   9.215  67.892  1.00  0.00    -0.085 NA 
BRANCH  16  18
HETATM   18  C   UNL     1      -8.229   6.703  67.614  1.00  0.00    -0.122 A  
HETATM   19  C   UNL     1      -8.058   6.142  66.334  1.00  0.00    -0.111 A  
HETATM   20  N   UNL     1      -8.890   5.066  66.200  1.00  0.00    -0.122 NA 
HETATM   21  C   UNL     1      -9.250   5.800  68.174  1.00  0.00    -0.109 A  
HETATM   22  N   UNL     1      -9.639   4.868  67.275  1.00  0.00    -0.145 NA 
BRANCH  20  23
HETATM   23  C   UNL     1      -9.003   4.117  65.078  1.00  0.00    -0.137 C  
HETATM   24  C   UNL     1      -8.643   2.678  65.471  1.00  0.00    -0.108 C  
HETATM   25  C   UNL     1      -8.143   4.528  63.872  1.00  0.00    -0.098 C  
ENDBRANCH  20  23
BRANCH  21  26
HETATM   26  C   UNL     1      -9.954   5.733  69.454  1.00  0.00    -0.244 A  
HETATM   27  C   UNL     1     -11.119   6.487  69.742  1.00  0.00    -0.430 A  
HETATM   28  C   UNL     1     -11.645   6.521  71.038  1.00  0.00    -0.348 A  
HETATM   29 CL   UNL     1     -13.137   7.306  71.370  1.00  0.00    -0.432 Cl 
HETATM   30  C   UNL     1     -10.953   5.912  72.093  1.00  0.00    -0.317 A  
HETATM   31  C   UNL     1      -9.823   5.182  71.775  1.00  0.00    -0.174 A  
HETATM   32  C   UNL     1      -9.444   4.969  70.464  1.00  0.00    -0.173 A  
HETATM   33  F   UNL     1      -8.607   3.961  70.224  1.00  0.00    -0.076 F  
BRANCH  31  34
HETATM   34  N   UNL     1      -9.003   4.569  72.769  1.00  0.00    -0.118 N  
HETATM   35  H   UNL     1      -8.200   5.043  73.185  1.00  0.00     0.000 HD 
BRANCH  34  36
HETATM   36  S   UNL     1      -9.456   3.002  73.205  1.00  0.00    -0.094 S  
HETATM   37  O   UNL     1      -9.670   2.198  72.025  1.00  0.00    -0.108 OA 
HETATM   38  O   UNL     1      -8.518   2.620  74.239  1.00  0.00    -0.067 OA 
HETATM   39  C   UNL     1     -11.019   3.392  73.950  1.00  0.00    -0.191 C  
ENDBRANCH  34  36
ENDBRANCH  31  34
ENDBRANCH  21  26
ENDBRANCH  16  18
ENDBRANCH  10  12
ENDBRANCH   9  10
ENDBRANCH   7   9
ENDBRANCH   4   7
ENDBRANCH   2   3
TORSDOF 10
ENDMDL
MODEL      209
REMARK 921   NORMALIZED FREE ENERGY PREDICTED BY IDOCK:   -3.34 KCAL/MOL
REMARK 922        TOTAL FREE ENERGY PREDICTED BY IDOCK:   -7.25 KCAL/MOL
REMARK 923 INTER-LIGAND FREE ENERGY PREDICTED BY IDOCK:   -4.90 KCAL/MOL
REMARK 924 INTRA-LIGAND FREE ENERGY PREDICTED BY IDOCK:   -2.35 KCAL/MOL
REMARK 927      BINDING AFFINITY PREDICTED BY RF-SCORE:    0.00 PKD
ROOT
HETATM    1  C   UNL     1     -10.055   8.329  66.415  1.00  0.00    -0.151 C  
HETATM    2  O   UNL     1     -10.874   7.497  67.255  1.00  0.00    -0.299 OA 
ENDROOT
BRANCH   2   3
HETATM    3  C   UNL     1     -10.620   6.163  67.120  1.00  0.00    -0.305 C  
HETATM    4  N   UNL     1     -10.057   5.892  65.891  1.00  0.00    -0.387 N  
HETATM    5  O   UNL     1     -10.877   5.336  67.984  1.00  0.00    -0.023 OA 
HETATM    6  H   UNL     1      -9.888   6.666  65.249  1.00  0.00     0.000 HD 
BRANCH   4   7
HETATM    7  C   UNL     1      -9.689   4.528  65.468  1.00  0.00    -0.195 C  
HETATM    8  C   UNL     1     -10.731   4.058  64.402  1.00  0.00    -0.191 C  
BRANCH   7   9
HETATM    9  C   UNL     1      -8.252   4.340  64.822  1.00  0.00    -0.103 C  
BRANCH   9  10
HETATM   10  N   UNL     1      -6.979   4.301  65.616  1.00  0.00    -0.061 NA 
HETATM   11  H   UNL     1      -6.263   3.627  65.344  1.00  0.00     0.000 HD 
BRANCH  10  12
HETATM   12  C   UNL     1      -6.718   5.141  66.716  1.00  0.00    -0.061 A  
HETATM   13  N   UNL     1      -5.580   5.836  66.685  1.00  0.00    -0.012 NA 
HETATM   14  C   UNL     1      -5.287   6.529  67.791  1.00  0.00    -0.005 A  
HETATM   15  C   UNL     1      -6.105   6.653  68.898  1.00  0.00    -0.026 A  
HETATM   16  C   UNL     1      -7.298   5.953  68.903  1.00  0.00    -0.084 A  
HETATM   17  N   UNL     1      -7.573   5.134  67.812  1.00  0.00    -0.086 NA 
BRANCH  16  18
HETATM   18  C   UNL     1      -8.212   6.134  70.132  1.00  0.00    -0.120 A  
HETATM   19  C   UNL     1      -8.310   5.122  71.105  1.00  0.00    -0.121 A  
HETATM   20  N   UNL     1      -9.086   5.565  72.139  1.00  0.00    -0.143 NA 
HETATM   21  C   UNL     1      -9.019   7.195  70.760  1.00  0.00    -0.152 A  
HETATM   22  N   UNL     1      -9.550   6.789  71.935  1.00  0.00    -0.150 NA 
BRANCH  20  23
HETATM   23  C   UNL     1      -9.400   4.896  73.414  1.00  0.00    -0.126 C  
HETATM   24  C   UNL     1      -8.642   3.574  73.599  1.00  0.00    -0.082 C  
HETATM   25  C   UNL     1     -10.904   4.629  73.583  1.00  0.00    -0.375 C  
ENDBRANCH  20  23
BRANCH  21  26
HETATM   26  C   UNL     1      -9.402   8.550  70.363  1.00  0.00    -0.179 A  
HETATM   27  C   UNL     1     -10.731   8.922  70.044  1.00  0.00    -0.241 A  
HETATM   28  C   UNL     1     -11.010  10.180  69.499  1.00  0.00    -0.256 A  
HETATM   29 CL   UNL     1     -12.628  10.701  69.249  1.00  0.00     0.128 Cl 
HETATM   30  C   UNL     1      -9.961  11.039  69.143  1.00  0.00    -0.142 A  
HETATM   31  C   UNL     1      -8.678  10.645  69.471  1.00  0.00     0.051 A  
HETATM   32  C   UNL     1      -8.437   9.505  70.213  1.00  0.00    -0.207 A  
HETATM   33  F   UNL     1      -7.253   9.403  70.814  1.00  0.00    -0.087 F  
BRANCH  31  34
HETATM   34  N   UNL     1      -7.527  11.405  69.106  1.00  0.00    -0.263 N  
HETATM   35  H   UNL     1      -7.109  12.099  69.726  1.00  0.00     0.000 HD 
BRANCH  34  36
HETATM   36  S   UNL     1      -6.906  11.072  67.571  1.00  0.00    -0.089 S  
HETATM   37  O   UNL     1      -6.136   9.851  67.598  1.00  0.00    -0.053 OA 
HETATM   38  O   UNL     1      -8.025  11.258  66.672  1.00  0.00    -0.153 OA 
HETATM   39  C   UNL     1      -5.812  12.462  67.436  1.00  0.00    -0.149 C  
ENDBRANCH  34  36
ENDBRANCH  31  34
ENDBRANCH  21  26
ENDBRANCH  16  18
ENDBRANCH  10  12
ENDBRANCH   9  10
ENDBRANCH   7   9
ENDBRANCH   4   7
ENDBRANCH   2   3
TORSDOF 10
ENDMDL
MODEL      210
REMARK 921   NORMALIZED FREE ENERGY PREDICTED BY IDOCK:   -3.34 KCAL/MOL
REMARK 922        TOTAL FREE ENERGY PREDICTED BY IDOCK:   -7.25 KCAL/MOL
REMARK 923 INTER-LIGAND FREE ENERGY PREDICTED BY IDOCK:   -5.87 KCAL/MOL
REMARK 924 INTRA-LIGAND FREE ENERGY PREDICTED BY IDOCK:   -1.38 KCAL/MOL
REMARK 927      BINDING AFFINITY PREDICTED BY RF-SCORE:    0.00 PKD
ROOT
HETATM    1  C   UNL     1     -12.904  12.519  64.002  1.00  0.00    -0.222 C  
HETATM    2  O   UNL     1     -13.294  13.432  65.043  1.00  0.00    -0.599 OA 
ENDROOT
BRANCH   2   3
HETATM    3  C   UNL     1     -12.291  14.266  65.445  1.00  0.00    -0.415 C  
HETATM    4  N   UNL     1     -11.926  14.003  66.748  1.00  0.00    -0.425 N  
HETATM    5  O   UNL     1     -11.806  15.132  64.730  1.00  0.00    -0.362 OA 
HETATM    6  H   UNL     1     -12.404  13.252  67.248  1.00  0.00     0.000 HD 
BRANCH   4   7
HETATM    7  C   UNL     1     -10.873  14.761  67.448  1.00  0.00    -0.300 C  
HETATM    8  C   UNL     1     -11.557  15.617  68.562  1.00  0.00    -0.378 C  
BRANCH   7   9
HETATM    9  C   UNL     1      -9.728  13.918  68.151  1.00  0.00    -0.222 C  
BRANCH   9  10
HETATM   10  N   UNL     1      -8.274  14.027  67.796  1.00  0.00    -0.153 NA 
HETATM   11  H   UNL     1      -7.918  14.934  67.495  1.00  0.00     0.000 HD 
BRANCH  10  12
HETATM   12  C   UNL     1      -7.373  12.945  67.854  1.00  0.00    -0.127 A  
HETATM   13  N   UNL     1      -6.101  13.205  67.545  1.00  0.00    -0.266 NA 
HETATM   14  C   UNL     1      -5.287  12.146  67.481  1.00  0.00    -0.103 A  
HETATM   15  C   UNL     1      -5.635  10.848  67.800  1.00  0.00    -0.042 A  
HETATM   16  C   UNL     1      -6.949  10.597  68.151  1.00  0.00    -0.073 A  
HETATM   17  N   UNL     1      -7.844  11.664  68.114  1.00  0.00    -0.125 NA 
BRANCH  16  18
HETATM   18  C   UNL     1      -7.309   9.149  68.538  1.00  0.00    -0.077 A  
HETATM   19  C   UNL     1      -7.318   8.752  69.889  1.00  0.00    -0.052 A  
HETATM   20  N   UNL     1      -7.776   7.466  69.976  1.00  0.00    -0.093 NA 
HETATM   21  C   UNL     1      -7.828   7.930  67.892  1.00  0.00    -0.127 A  
HETATM   22  N   UNL     1      -8.050   6.945  68.790  1.00  0.00    -0.119 NA 
BRANCH  20  23
HETATM   23  C   UNL     1      -8.039   6.658  71.180  1.00  0.00    -0.112 C  
HETATM   24  C   UNL     1      -9.386   5.924  71.126  1.00  0.00    -0.170 C  
HETATM   25  C   UNL     1      -7.984   7.490  72.471  1.00  0.00    -0.121 C  
ENDBRANCH  20  23
BRANCH  21  26
HETATM   26  C   UNL     1      -8.098   7.553  66.504  1.00  0.00    -0.120 A  
HETATM   27  C   UNL     1      -7.563   6.390  65.896  1.00  0.00    -0.084 A  
HETATM   28  C   UNL     1      -7.707   6.174  64.521  1.00  0.00    -0.105 A  
HETATM   29 CL   UNL     1      -7.199   4.701  63.796  1.00  0.00    -0.049 Cl 
HETATM   30  C   UNL     1      -8.270   7.167  63.709  1.00  0.00     0.088 A  
HETATM   31  C   UNL     1      -8.783   8.286  64.337  1.00  0.00     0.201 A  
HETATM   32  C   UNL     1      -8.839   8.383  65.713  1.00  0.00    -0.165 A  
HETATM   33  F   UNL     1      -9.679   9.277  66.232  1.00  0.00    -0.241 F  
BRANCH  31  34
HETATM   34  N   UNL     1      -9.324   9.390  63.612  1.00  0.00    -0.425 N  
HETATM   35  H   UNL     1     -10.161   9.309  63.034  1.00  0.00     0.000 HD 
BRANCH  34  36
HETATM   36  S   UNL     1      -8.479  10.842  63.782  1.00  0.00     0.088 S  
HETATM   37  O   UNL     1      -7.204  10.605  64.418  1.00  0.00     0.039 OA 
HETATM   38  O   UNL     1      -8.588  11.487  62.491  1.00  0.00    -0.265 OA 
HETATM   39  C   UNL     1      -9.574  11.638  64.928  1.00  0.00    -0.150 C  
ENDBRANCH  34  36
ENDBRANCH  31  34
ENDBRANCH  21  26
ENDBRANCH  16  18
ENDBRANCH  10  12
ENDBRANCH   9  10
ENDBRANCH   7   9
ENDBRANCH   4   7
ENDBRANCH   2   3
TORSDOF 10
ENDMDL
MODEL      211
REMARK 921   NORMALIZED FREE ENERGY PREDICTED BY IDOCK:   -3.31 KCAL/MOL
REMARK 922        TOTAL FREE ENERGY PREDICTED BY IDOCK:   -7.20 KCAL/MOL
REMARK 923 INTER-LIGAND FREE ENERGY PREDICTED BY IDOCK:   -6.30 KCAL/MOL
REMARK 924 INTRA-LIGAND FREE ENERGY PREDICTED BY IDOCK:   -0.90 KCAL/MOL
REMARK 927      BINDING AFFINITY PREDICTED BY RF-SCORE:    0.00 PKD
ROOT
HETATM    1  C   UNL     1     -10.937  18.826  68.175  1.00  0.00     0.187 C  
HETATM    2  O   UNL     1      -9.882  19.201  67.271  1.00  0.00    -0.314 OA 
ENDROOT
BRANCH   2   3
HETATM    3  C   UNL     1      -8.766  18.424  67.378  1.00  0.00    -0.260 C  
HETATM    4  N   UNL     1      -8.881  17.290  66.603  1.00  0.00    -0.243 N  
HETATM    5  O   UNL     1      -7.809  18.710  68.084  1.00  0.00    -0.269 OA 
HETATM    6  H   UNL     1      -9.731  17.157  66.053  1.00  0.00     0.000 HD 
BRANCH   4   7
HETATM    7  C   UNL     1      -7.827  16.261  66.535  1.00  0.00    -0.263 C  
HETATM    8  C   UNL     1      -6.846  16.500  67.728  1.00  0.00    -0.159 C  
BRANCH   7   9
HETATM    9  C   UNL     1      -8.293  14.747  66.617  1.00  0.00     0.032 C  
BRANCH   9  10
HETATM   10  N   UNL     1      -9.730  14.319  66.683  1.00  0.00    -0.276 NA 
HETATM   11  H   UNL     1     -10.227  14.165  65.805  1.00  0.00     0.000 HD 
BRANCH  10  12
HETATM   12  C   UNL     1     -10.431  14.120  67.888  1.00  0.00    -0.237 A  
HETATM   13  N   UNL     1     -10.798  15.213  68.560  1.00  0.00    -0.239 NA 
HETATM   14  C   UNL     1     -11.348  15.005  69.760  1.00  0.00    -0.283 A  
HETATM   15  C   UNL     1     -11.647  13.769  70.301  1.00  0.00    -0.187 A  
HETATM   16  C   UNL     1     -11.292  12.643  69.580  1.00  0.00    -0.158 A  
HETATM   17  N   UNL     1     -10.615  12.832  68.378  1.00  0.00    -0.243 NA 
BRANCH  16  18
HETATM   18  C   UNL     1     -11.667  11.275  70.184  1.00  0.00    -0.429 A  
HETATM   19  C   UNL     1     -12.943  11.066  70.741  1.00  0.00    -0.177 A  
HETATM   20  N   UNL     1     -13.067   9.753  71.101  1.00  0.00    -0.363 NA 
HETATM   21  C   UNL     1     -11.106   9.915  70.270  1.00  0.00    -0.308 A  
HETATM   22  N   UNL     1     -11.966   9.057  70.862  1.00  0.00    -0.262 NA 
BRANCH  20  23
HETATM   23  C   UNL     1     -14.243   9.049  71.642  1.00  0.00    -0.225 C  
HETATM   24  C   UNL     1     -14.257   8.997  73.176  1.00  0.00     0.520 C  
HETATM   25  C   UNL     1     -14.371   7.616  71.100  1.00  0.00    -0.310 C  
ENDBRANCH  20  23
BRANCH  21  26
HETATM   26  C   UNL     1      -9.819   9.323  69.903  1.00  0.00    -0.219 A  
HETATM   27  C   UNL     1      -8.777   9.089  70.834  1.00  0.00    -0.280 A  
HETATM   28  C   UNL     1      -7.509   8.688  70.399  1.00  0.00    -0.069 A  
HETATM   29 CL   UNL     1      -6.281   8.256  71.521  1.00  0.00    -0.038 Cl 
HETATM   30  C   UNL     1      -7.219   8.639  69.029  1.00  0.00    -0.072 A  
HETATM   31  C   UNL     1      -8.260   8.871  68.150  1.00  0.00    -0.114 A  
HETATM   32  C   UNL     1      -9.558   9.040  68.593  1.00  0.00    -0.153 A  
HETATM   33  F   UNL     1     -10.536   8.865  67.707  1.00  0.00    -0.256 F  
BRANCH  31  34
HETATM   34  N   UNL     1      -8.075   8.908  66.736  1.00  0.00    -0.110 N  
HETATM   35  H   UNL     1      -8.245   8.098  66.139  1.00  0.00     0.000 HD 
BRANCH  34  36
HETATM   36  S   UNL     1      -7.553  10.392  66.121  1.00  0.00    -0.135 S  
HETATM   37  O   UNL     1      -8.673  11.289  65.964  1.00  0.00    -0.188 OA 
HETATM   38  O   UNL     1      -6.396  10.736  66.920  1.00  0.00    -0.070 OA 
HETATM   39  C   UNL     1      -7.015   9.828  64.528  1.00  0.00    -0.125 C  
ENDBRANCH  34  36
ENDBRANCH  31  34
ENDBRANCH  21  26
ENDBRANCH  16  18
ENDBRANCH  10  12
ENDBRANCH   9  10
ENDBRANCH   7   9
ENDBRANCH   4   7
ENDBRANCH   2   3
TORSDOF 10
ENDMDL
MODEL      212
REMARK 921   NORMALIZED FREE ENERGY PREDICTED BY IDOCK:   -3.30 KCAL/MOL
REMARK 922        TOTAL FREE ENERGY PREDICTED BY IDOCK:   -7.18 KCAL/MOL
REMARK 923 INTER-LIGAND FREE ENERGY PREDICTED BY IDOCK:   -6.95 KCAL/MOL
REMARK 924 INTRA-LIGAND FREE ENERGY PREDICTED BY IDOCK:   -0.23 KCAL/MOL
REMARK 927      BINDING AFFINITY PREDICTED BY RF-SCORE:    0.00 PKD
ROOT
HETATM    1  C   UNL     1      -9.654  17.434  68.258  1.00  0.00    -0.292 C  
HETATM    2  O   UNL     1      -8.842  16.444  67.602  1.00  0.00    -0.186 OA 
ENDROOT
BRANCH   2   3
HETATM    3  C   UNL     1      -9.449  15.227  67.484  1.00  0.00    -0.202 C  
HETATM    4  N   UNL     1     -10.349  15.226  66.440  1.00  0.00    -0.279 N  
HETATM    5  O   UNL     1      -9.218  14.283  68.226  1.00  0.00    -0.185 OA 
HETATM    6  H   UNL     1     -10.459  16.077  65.887  1.00  0.00     0.000 HD 
BRANCH   4   7
HETATM    7  C   UNL     1     -11.160  14.046  66.089  1.00  0.00    -0.302 C  
HETATM    8  C   UNL     1     -10.495  13.355  64.856  1.00  0.00    -0.404 C  
BRANCH   7   9
HETATM    9  C   UNL     1     -11.329  12.932  67.206  1.00  0.00    -0.310 C  
BRANCH   9  10
HETATM   10  N   UNL     1     -11.815  13.213  68.598  1.00  0.00    -0.325 NA 
HETATM   11  H   UNL     1     -12.050  14.176  68.841  1.00  0.00     0.000 HD 
BRANCH  10  12
HETATM   12  C   UNL     1     -11.964  12.222  69.588  1.00  0.00    -0.279 A  
HETATM   13  N   UNL     1     -12.905  12.430  70.511  1.00  0.00     0.063 NA 
HETATM   14  C   UNL     1     -12.947  11.546  71.513  1.00  0.00    -0.380 A  
HETATM   15  C   UNL     1     -12.172  10.407  71.609  1.00  0.00    -0.340 A  
HETATM   16  C   UNL     1     -11.221  10.186  70.629  1.00  0.00    -0.340 A  
HETATM   17  N   UNL     1     -11.080  11.151  69.635  1.00  0.00    -0.250 NA 
BRANCH  16  18
HETATM   18  C   UNL     1     -10.391   8.891  70.735  1.00  0.00    -0.283 A  
HETATM   19  C   UNL     1     -10.790   7.856  71.603  1.00  0.00    -0.232 A  
HETATM   20  N   UNL     1      -9.962   6.782  71.431  1.00  0.00    -0.179 NA 
HETATM   21  C   UNL     1      -9.250   8.252  70.055  1.00  0.00    -0.151 A  
HETATM   22  N   UNL     1      -9.012   7.012  70.537  1.00  0.00    -0.154 NA 
BRANCH  20  23
HETATM   23  C   UNL     1     -10.038   5.447  72.051  1.00  0.00    -0.190 C  
HETATM   24  C   UNL     1      -9.603   4.320  71.104  1.00  0.00    -0.249 C  
HETATM   25  C   UNL     1     -11.442   5.126  72.586  1.00  0.00    -0.221 C  
ENDBRANCH  20  23
BRANCH  21  26
HETATM   26  C   UNL     1      -8.307   8.690  69.026  1.00  0.00    -0.119 A  
HETATM   27  C   UNL     1      -8.019  10.052  68.763  1.00  0.00    -0.096 A  
HETATM   28  C   UNL     1      -7.249  10.418  67.653  1.00  0.00    -0.086 A  
HETATM   29 CL   UNL     1      -6.766  12.048  67.406  1.00  0.00    -0.117 Cl 
HETATM   30  C   UNL     1      -6.864   9.450  66.716  1.00  0.00    -0.080 A  
HETATM   31  C   UNL     1      -7.160   8.131  67.006  1.00  0.00    -0.079 A  
HETATM   32  C   UNL     1      -7.718   7.763  68.215  1.00  0.00    -0.119 A  
HETATM   33  F   UNL     1      -7.610   6.486  68.576  1.00  0.00    -0.088 F  
BRANCH  31  34
HETATM   34  N   UNL     1      -6.872   7.065  66.102  1.00  0.00    -0.056 N  
HETATM   35  H   UNL     1      -6.121   6.395  66.266  1.00  0.00     0.000 HD 
BRANCH  34  36
HETATM   36  S   UNL     1      -7.868   6.994  64.740  1.00  0.00    -0.125 S  
HETATM   37  O   UNL     1      -8.616   5.760  64.733  1.00  0.00    -0.130 OA 
HETATM   38  O   UNL     1      -8.514   8.289  64.686  1.00  0.00    -0.143 OA 
HETATM   39  C   UNL     1      -6.597   6.925  63.504  1.00  0.00    -0.043 C  
ENDBRANCH  34  36
ENDBRANCH  31  34
ENDBRANCH  21  26
ENDBRANCH  16  18
ENDBRANCH  10  12
ENDBRANCH   9  10
ENDBRANCH   7   9
ENDBRANCH   4   7
ENDBRANCH   2   3
TORSDOF 10
ENDMDL
MODEL      213
REMARK 921   NORMALIZED FREE ENERGY PREDICTED BY IDOCK:   -3.29 KCAL/MOL
REMARK 922        TOTAL FREE ENERGY PREDICTED BY IDOCK:   -7.18 KCAL/MOL
REMARK 923 INTER-LIGAND FREE ENERGY PREDICTED BY IDOCK:   -5.90 KCAL/MOL
REMARK 924 INTRA-LIGAND FREE ENERGY PREDICTED BY IDOCK:   -1.28 KCAL/MOL
REMARK 927      BINDING AFFINITY PREDICTED BY RF-SCORE:    0.00 PKD
ROOT
HETATM    1  C   UNL     1      -6.034  15.225  72.295  1.00  0.00     1.045 C  
HETATM    2  O   UNL     1      -5.879  13.822  72.019  1.00  0.00    -0.403 OA 
ENDROOT
BRANCH   2   3
HETATM    3  C   UNL     1      -5.536  13.553  70.726  1.00  0.00    -0.162 C  
HETATM    4  N   UNL     1      -5.702  12.214  70.442  1.00  0.00    -0.161 N  
HETATM    5  O   UNL     1      -5.126  14.401  69.946  1.00  0.00    -0.092 OA 
HETATM    6  H   UNL     1      -6.052  11.598  71.176  1.00  0.00     0.000 HD 
BRANCH   4   7
HETATM    7  C   UNL     1      -5.395  11.637  69.120  1.00  0.00    -0.047 C  
HETATM    8  C   UNL     1      -5.915  10.164  69.107  1.00  0.00    -0.037 C  
BRANCH   7   9
HETATM    9  C   UNL     1      -6.024  12.360  67.856  1.00  0.00    -0.093 C  
BRANCH   9  10
HETATM   10  N   UNL     1      -5.655  12.034  66.438  1.00  0.00    -0.486 NA 
HETATM   11  H   UNL     1      -5.172  12.746  65.890  1.00  0.00     0.000 HD 
BRANCH  10  12
HETATM   12  C   UNL     1      -5.939  10.799  65.822  1.00  0.00    -0.126 A  
HETATM   13  N   UNL     1      -5.176  10.456  64.783  1.00  0.00    -0.117 NA 
HETATM   14  C   UNL     1      -5.539   9.346  64.132  1.00  0.00    -0.070 A  
HETATM   15  C   UNL     1      -6.562   8.496  64.506  1.00  0.00    -0.066 A  
HETATM   16  C   UNL     1      -7.326   8.847  65.605  1.00  0.00    -0.085 A  
HETATM   17  N   UNL     1      -7.040  10.057  66.232  1.00  0.00    -0.100 NA 
BRANCH  16  18
HETATM   18  C   UNL     1      -8.439   7.868  66.028  1.00  0.00    -0.145 A  
HETATM   19  C   UNL     1      -8.513   6.582  65.459  1.00  0.00    -0.136 A  
HETATM   20  N   UNL     1      -9.506   5.874  66.077  1.00  0.00    -0.110 NA 
HETATM   21  C   UNL     1      -9.505   7.779  67.041  1.00  0.00    -0.164 A  
HETATM   22  N   UNL     1     -10.136   6.585  66.999  1.00  0.00    -0.163 NA 
BRANCH  20  23
HETATM   23  C   UNL     1      -9.897   4.465  65.883  1.00  0.00    -0.228 C  
HETATM   24  C   UNL     1      -9.742   3.620  67.155  1.00  0.00    -0.102 C  
HETATM   25  C   UNL     1      -9.115   3.790  64.745  1.00  0.00    -0.139 C  
ENDBRANCH  20  23
BRANCH  21  26
HETATM   26  C   UNL     1     -10.048   8.713  68.028  1.00  0.00    -0.241 A  
HETATM   27  C   UNL     1     -10.225   8.385  69.395  1.00  0.00    -0.208 A  
HETATM   28  C   UNL     1     -10.912   9.251  70.253  1.00  0.00    -0.247 A  
HETATM   29 CL   UNL     1     -11.004   8.939  71.941  1.00  0.00    -0.429 Cl 
HETATM   30  C   UNL     1     -11.544  10.392  69.742  1.00  0.00    -0.339 A  
HETATM   31  C   UNL     1     -11.347  10.682  68.405  1.00  0.00    -0.283 A  
HETATM   32  C   UNL     1     -10.481   9.944  67.623  1.00  0.00    -0.244 A  
HETATM   33  F   UNL     1     -10.048  10.501  66.494  1.00  0.00    -0.234 F  
BRANCH  31  34
HETATM   34  N   UNL     1     -11.987  11.781  67.758  1.00  0.00    -0.176 N  
HETATM   35  H   UNL     1     -12.696  11.654  67.036  1.00  0.00     0.000 HD 
BRANCH  34  36
HETATM   36  S   UNL     1     -11.485  13.308  68.276  1.00  0.00    -0.340 S  
HETATM   37  O   UNL     1     -12.219  13.702  69.455  1.00  0.00    -0.324 OA 
HETATM   38  O   UNL     1     -10.039  13.249  68.251  1.00  0.00    -0.240 OA 
HETATM   39  C   UNL     1     -12.054  14.246  66.881  1.00  0.00    -0.409 C  
ENDBRANCH  34  36
ENDBRANCH  31  34
ENDBRANCH  21  26
ENDBRANCH  16  18
ENDBRANCH  10  12
ENDBRANCH   9  10
ENDBRANCH   7   9
ENDBRANCH   4   7
ENDBRANCH   2   3
TORSDOF 10
ENDMDL
MODEL      214
REMARK 921   NORMALIZED FREE ENERGY PREDICTED BY IDOCK:   -3.29 KCAL/MOL
REMARK 922        TOTAL FREE ENERGY PREDICTED BY IDOCK:   -7.17 KCAL/MOL
REMARK 923 INTER-LIGAND FREE ENERGY PREDICTED BY IDOCK:   -6.13 KCAL/MOL
REMARK 924 INTRA-LIGAND FREE ENERGY PREDICTED BY IDOCK:   -1.05 KCAL/MOL
REMARK 927      BINDING AFFINITY PREDICTED BY RF-SCORE:    0.00 PKD
ROOT
HETATM    1  C   UNL     1      -5.282  14.572  71.640  1.00  0.00    -0.159 C  
HETATM    2  O   UNL     1      -6.069  13.434  71.245  1.00  0.00    -0.221 OA 
ENDROOT
BRANCH   2   3
HETATM    3  C   UNL     1      -6.046  13.191  69.903  1.00  0.00    -0.128 C  
HETATM    4  N   UNL     1      -6.809  12.086  69.590  1.00  0.00    -0.339 N  
HETATM    5  O   UNL     1      -5.415  13.870  69.105  1.00  0.00    -0.076 OA 
HETATM    6  H   UNL     1      -7.292  11.596  70.344  1.00  0.00     0.000 HD 
BRANCH   4   7
HETATM    7  C   UNL     1      -6.955  11.583  68.212  1.00  0.00    -0.073 C  
HETATM    8  C   UNL     1      -6.605  10.060  68.217  1.00  0.00    -0.055 C  
BRANCH   7   9
HETATM    9  C   UNL     1      -8.386  11.726  67.543  1.00  0.00    -0.154 C  
BRANCH   9  10
HETATM   10  N   UNL     1      -8.629  11.632  66.065  1.00  0.00    -0.374 NA 
HETATM   11  H   UNL     1      -8.875  12.485  65.562  1.00  0.00     0.000 HD 
BRANCH  10  12
HETATM   12  C   UNL     1      -8.539  10.432  65.333  1.00  0.00    -0.174 A  
HETATM   13  N   UNL     1      -8.291  10.541  64.027  1.00  0.00    -0.135 NA 
HETATM   14  C   UNL     1      -8.335   9.403  63.326  1.00  0.00    -0.187 A  
HETATM   15  C   UNL     1      -8.515   8.141  63.859  1.00  0.00     0.100 A  
HETATM   16  C   UNL     1      -8.739   8.038  65.220  1.00  0.00    -0.029 A  
HETATM   17  N   UNL     1      -8.812   9.219  65.955  1.00  0.00    -0.156 NA 
BRANCH  16  18
HETATM   18  C   UNL     1      -8.902   6.619  65.800  1.00  0.00    -0.093 A  
HETATM   19  C   UNL     1      -8.801   5.490  64.965  1.00  0.00    -0.046 A  
HETATM   20  N   UNL     1      -8.867   4.358  65.728  1.00  0.00    -0.119 NA 
HETATM   21  C   UNL     1      -9.021   5.972  67.119  1.00  0.00    -0.114 A  
HETATM   22  N   UNL     1      -9.037   4.625  67.014  1.00  0.00    -0.117 NA 
BRANCH  20  23
HETATM   23  C   UNL     1      -8.721   2.952  65.313  1.00  0.00    -0.122 C  
HETATM   24  C   UNL     1      -9.506   2.619  64.037  1.00  0.00    -0.125 C  
HETATM   25  C   UNL     1      -9.137   1.966  66.417  1.00  0.00    -0.050 C  
ENDBRANCH  20  23
BRANCH  21  26
HETATM   26  C   UNL     1      -9.175   6.473  68.485  1.00  0.00    -0.125 A  
HETATM   27  C   UNL     1      -8.151   6.400  69.461  1.00  0.00    -0.118 A  
HETATM   28  C   UNL     1      -8.412   6.729  70.795  1.00  0.00    -0.133 A  
HETATM   29 CL   UNL     1      -7.147   6.791  71.958  1.00  0.00    -0.074 Cl 
HETATM   30  C   UNL     1      -9.721   7.010  71.206  1.00  0.00    -0.171 A  
HETATM   31  C   UNL     1     -10.695   7.076  70.227  1.00  0.00    -0.241 A  
HETATM   32  C   UNL     1     -10.381   6.973  68.886  1.00  0.00    -0.190 A  
HETATM   33  F   UNL     1     -11.275   7.429  68.011  1.00  0.00    -0.128 F  
BRANCH  31  34
HETATM   34  N   UNL     1     -12.072   7.293  70.530  1.00  0.00    -0.554 N  
HETATM   35  H   UNL     1     -12.815   6.706  70.153  1.00  0.00     0.000 HD 
BRANCH  34  36
HETATM   36  S   UNL     1     -12.381   8.596  71.559  1.00  0.00    -0.333 S  
HETATM   37  O   UNL     1     -13.775   8.968  71.487  1.00  0.00    -0.372 OA 
HETATM   38  O   UNL     1     -11.741   8.241  72.808  1.00  0.00    -0.397 OA 
HETATM   39  C   UNL     1     -11.398   9.814  70.724  1.00  0.00    -0.342 C  
ENDBRANCH  34  36
ENDBRANCH  31  34
ENDBRANCH  21  26
ENDBRANCH  16  18
ENDBRANCH  10  12
ENDBRANCH   9  10
ENDBRANCH   7   9
ENDBRANCH   4   7
ENDBRANCH   2   3
TORSDOF 10
ENDMDL
MODEL      215
REMARK 921   NORMALIZED FREE ENERGY PREDICTED BY IDOCK:   -3.27 KCAL/MOL
REMARK 922        TOTAL FREE ENERGY PREDICTED BY IDOCK:   -7.14 KCAL/MOL
REMARK 923 INTER-LIGAND FREE ENERGY PREDICTED BY IDOCK:   -7.19 KCAL/MOL
REMARK 924 INTRA-LIGAND FREE ENERGY PREDICTED BY IDOCK:    0.05 KCAL/MOL
REMARK 927      BINDING AFFINITY PREDICTED BY RF-SCORE:    0.00 PKD
ROOT
HETATM    1  C   UNL     1      -8.607   4.615  69.886  1.00  0.00    -0.073 C  
HETATM    2  O   UNL     1      -9.329   5.272  70.943  1.00  0.00    -0.145 OA 
ENDROOT
BRANCH   2   3
HETATM    3  C   UNL     1     -10.553   5.741  70.562  1.00  0.00    -0.289 C  
HETATM    4  N   UNL     1     -11.303   6.107  71.659  1.00  0.00    -0.287 N  
HETATM    5  O   UNL     1     -10.918   5.805  69.396  1.00  0.00    -0.342 OA 
HETATM    6  H   UNL     1     -10.892   6.007  72.588  1.00  0.00     0.000 HD 
BRANCH   4   7
HETATM    7  C   UNL     1     -12.674   6.636  71.546  1.00  0.00    -0.193 C  
HETATM    8  C   UNL     1     -13.555   5.925  72.622  1.00  0.00     1.013 C  
BRANCH   7   9
HETATM    9  C   UNL     1     -12.861   8.198  71.755  1.00  0.00    -0.333 C  
BRANCH   9  10
HETATM   10  N   UNL     1     -13.481   9.109  70.737  1.00  0.00    -0.450 NA 
HETATM   11  H   UNL     1     -14.460   8.960  70.491  1.00  0.00     0.000 HD 
BRANCH  10  12
HETATM   12  C   UNL     1     -12.788  10.156  70.100  1.00  0.00     0.096 A  
HETATM   13  N   UNL     1     -12.066   9.834  69.025  1.00  0.00     0.606 NA 
HETATM   14  C   UNL     1     -11.315  10.813  68.510  1.00  0.00    -0.295 A  
HETATM   15  C   UNL     1     -11.307  12.126  68.939  1.00  0.00    -0.335 A  
HETATM   16  C   UNL     1     -12.085  12.455  70.034  1.00  0.00    -0.263 A  
HETATM   17  N   UNL     1     -12.789  11.429  70.659  1.00  0.00    -0.167 NA 
BRANCH  16  18
HETATM   18  C   UNL     1     -12.090  13.932  70.474  1.00  0.00    -0.426 A  
HETATM   19  C   UNL     1     -12.432  14.284  71.794  1.00  0.00    -0.316 A  
HETATM   20  N   UNL     1     -12.250  15.628  71.963  1.00  0.00    -0.390 NA 
HETATM   21  C   UNL     1     -11.688  15.245  69.938  1.00  0.00    -0.323 A  
HETATM   22  N   UNL     1     -11.842  16.227  70.854  1.00  0.00    -0.268 NA 
BRANCH  20  23
HETATM   23  C   UNL     1     -12.395  16.435  73.188  1.00  0.00    -0.424 C  
HETATM   24  C   UNL     1     -11.289  17.488  73.346  1.00  0.00     1.375 C  
HETATM   25  C   UNL     1     -12.437  15.571  74.459  1.00  0.00    -0.713 C  
ENDBRANCH  20  23
BRANCH  21  26
HETATM   26  C   UNL     1     -11.215  15.707  68.633  1.00  0.00    -0.338 A  
HETATM   27  C   UNL     1     -11.383  14.966  67.438  1.00  0.00    -0.354 A  
HETATM   28  C   UNL     1     -10.756  15.369  66.253  1.00  0.00    -0.312 A  
HETATM   29 CL   UNL     1     -11.069  14.569  64.765  1.00  0.00    -0.400 Cl 
HETATM   30  C   UNL     1      -9.851  16.440  66.267  1.00  0.00    -0.336 A  
HETATM   31  C   UNL     1      -9.715  17.142  67.450  1.00  0.00    -0.253 A  
HETATM   32  C   UNL     1     -10.510  16.874  68.547  1.00  0.00    -0.361 A  
HETATM   33  F   UNL     1     -10.601  17.816  69.483  1.00  0.00    -0.292 F  
BRANCH  31  34
HETATM   34  N   UNL     1      -8.782  18.210  67.603  1.00  0.00    -0.246 N  
HETATM   35  H   UNL     1      -8.007  18.170  68.265  1.00  0.00     0.000 HD 
BRANCH  34  36
HETATM   36  S   UNL     1      -9.054  19.547  66.607  1.00  0.00    -0.369 S  
HETATM   37  O   UNL     1      -7.803  20.193  66.286  1.00  0.00    -0.292 OA 
HETATM   38  O   UNL     1      -9.960  19.068  65.585  1.00  0.00    -0.421 OA 
HETATM   39  C   UNL     1      -9.956  20.543  67.766  1.00  0.00    -0.269 C  
ENDBRANCH  34  36
ENDBRANCH  31  34
ENDBRANCH  21  26
ENDBRANCH  16  18
ENDBRANCH  10  12
ENDBRANCH   9  10
ENDBRANCH   7   9
ENDBRANCH   4   7
ENDBRANCH   2   3
TORSDOF 10
ENDMDL
MODEL      216
REMARK 921   NORMALIZED FREE ENERGY PREDICTED BY IDOCK:   -3.21 KCAL/MOL
REMARK 922        TOTAL FREE ENERGY PREDICTED BY IDOCK:   -7.05 KCAL/MOL
REMARK 923 INTER-LIGAND FREE ENERGY PREDICTED BY IDOCK:   -6.17 KCAL/MOL
REMARK 924 INTRA-LIGAND FREE ENERGY PREDICTED BY IDOCK:   -0.88 KCAL/MOL
REMARK 927      BINDING AFFINITY PREDICTED BY RF-SCORE:    0.00 PKD
ROOT
HETATM    1  C   UNL     1     -12.086  14.551  73.119  1.00  0.00     0.000 C  
HETATM    2  O   UNL     1     -13.229  13.679  73.060  1.00  0.00    -0.507 OA 
ENDROOT
BRANCH   2   3
HETATM    3  C   UNL     1     -13.307  12.955  71.905  1.00  0.00    -0.435 C  
HETATM    4  N   UNL     1     -13.164  11.608  72.159  1.00  0.00    -0.545 N  
HETATM    5  O   UNL     1     -13.470  13.459  70.803  1.00  0.00     0.122 OA 
HETATM    6  H   UNL     1     -13.032  11.303  73.124  1.00  0.00     0.000 HD 
BRANCH   4   7
HETATM    7  C   UNL     1     -13.194  10.589  71.094  1.00  0.00    -0.269 C  
HETATM    8  C   UNL     1     -12.166  11.012  69.996  1.00  0.00    -0.418 C  
BRANCH   7   9
HETATM    9  C   UNL     1     -12.836   9.101  71.512  1.00  0.00    -0.347 C  
BRANCH   9  10
HETATM   10  N   UNL     1     -11.716   8.743  72.444  1.00  0.00    -0.326 NA 
HETATM   11  H   UNL     1     -11.943   8.566  73.423  1.00  0.00     0.000 HD 
BRANCH  10  12
HETATM   12  C   UNL     1     -10.370   8.637  72.044  1.00  0.00    -0.346 A  
HETATM   13  N   UNL     1      -9.551   7.966  72.856  1.00  0.00    -0.236 NA 
HETATM   14  C   UNL     1      -8.256   7.984  72.527  1.00  0.00    -0.146 A  
HETATM   15  C   UNL     1      -7.728   8.549  71.382  1.00  0.00    -0.131 A  
HETATM   16  C   UNL     1      -8.593   9.214  70.531  1.00  0.00    -0.219 A  
HETATM   17  N   UNL     1      -9.929   9.308  70.909  1.00  0.00    -0.283 NA 
BRANCH  16  18
HETATM   18  C   UNL     1      -7.990   9.807  69.241  1.00  0.00    -0.112 A  
HETATM   19  C   UNL     1      -7.659  11.173  69.170  1.00  0.00    -0.098 A  
HETATM   20  N   UNL     1      -7.042  11.425  67.976  1.00  0.00    -0.072 NA 
HETATM   21  C   UNL     1      -7.471   9.333  67.946  1.00  0.00    -0.084 A  
HETATM   22  N   UNL     1      -6.954  10.345  67.215  1.00  0.00    -0.085 NA 
BRANCH  20  23
HETATM   23  C   UNL     1      -6.444  12.681  67.490  1.00  0.00    -0.158 C  
HETATM   24  C   UNL     1      -5.190  13.091  68.274  1.00  0.00    -0.083 C  
HETATM   25  C   UNL     1      -7.440  13.852  67.507  1.00  0.00    -0.184 C  
ENDBRANCH  20  23
BRANCH  21  26
HETATM   26  C   UNL     1      -7.445   8.031  67.278  1.00  0.00    -0.093 A  
HETATM   27  C   UNL     1      -7.797   7.848  65.918  1.00  0.00    -0.101 A  
HETATM   28  C   UNL     1      -7.927   6.562  65.381  1.00  0.00    -0.120 A  
HETATM   29 CL   UNL     1      -8.204   6.325  63.701  1.00  0.00    -0.040 Cl 
HETATM   30  C   UNL     1      -7.837   5.440  66.216  1.00  0.00    -0.100 A  
HETATM   31  C   UNL     1      -7.490   5.657  67.536  1.00  0.00    -0.081 A  
HETATM   32  C   UNL     1      -7.141   6.911  67.997  1.00  0.00    -0.086 A  
HETATM   33  F   UNL     1      -6.456   6.977  69.137  1.00  0.00    -0.034 F  
BRANCH  31  34
HETATM   34  N   UNL     1      -7.427   4.601  68.494  1.00  0.00    -0.065 N  
HETATM   35  H   UNL     1      -6.543   4.226  68.839  1.00  0.00     0.000 HD 
BRANCH  34  36
HETATM   36  S   UNL     1      -8.923   4.017  69.014  1.00  0.00    -0.128 S  
HETATM   37  O   UNL     1      -9.919   5.061  68.943  1.00  0.00    -0.167 OA 
HETATM   38  O   UNL     1      -9.084   2.751  68.331  1.00  0.00    -0.129 OA 
HETATM   39  C   UNL     1      -8.499   3.716  70.710  1.00  0.00    -0.070 C  
ENDBRANCH  34  36
ENDBRANCH  31  34
ENDBRANCH  21  26
ENDBRANCH  16  18
ENDBRANCH  10  12
ENDBRANCH   9  10
ENDBRANCH   7   9
ENDBRANCH   4   7
ENDBRANCH   2   3
TORSDOF 10
ENDMDL
MODEL      217
REMARK 921   NORMALIZED FREE ENERGY PREDICTED BY IDOCK:   -3.20 KCAL/MOL
REMARK 922        TOTAL FREE ENERGY PREDICTED BY IDOCK:   -7.03 KCAL/MOL
REMARK 923 INTER-LIGAND FREE ENERGY PREDICTED BY IDOCK:   -6.16 KCAL/MOL
REMARK 924 INTRA-LIGAND FREE ENERGY PREDICTED BY IDOCK:   -0.88 KCAL/MOL
REMARK 927      BINDING AFFINITY PREDICTED BY RF-SCORE:    0.00 PKD
ROOT
HETATM    1  C   UNL     1      -7.517  20.938  65.156  1.00  0.00     0.608 C  
HETATM    2  O   UNL     1      -6.625  19.924  65.653  1.00  0.00    -0.222 OA 
ENDROOT
BRANCH   2   3
HETATM    3  C   UNL     1      -7.259  18.917  66.322  1.00  0.00    -0.249 C  
HETATM    4  N   UNL     1      -7.731  19.357  67.540  1.00  0.00    -0.252 N  
HETATM    5  O   UNL     1      -7.370  17.781  65.884  1.00  0.00    -0.438 OA 
HETATM    6  H   UNL     1      -7.578  20.332  67.801  1.00  0.00     0.000 HD 
BRANCH   4   7
HETATM    7  C   UNL     1      -8.447  18.477  68.482  1.00  0.00    -0.329 C  
HETATM    8  C   UNL     1      -9.471  19.352  69.274  1.00  0.00    -0.225 C  
BRANCH   7   9
HETATM    9  C   UNL     1      -9.260  17.267  67.857  1.00  0.00    -0.247 C  
BRANCH   9  10
HETATM   10  N   UNL     1      -9.760  16.097  68.654  1.00  0.00    -0.219 NA 
HETATM   11  H   UNL     1      -9.644  16.121  69.667  1.00  0.00     0.000 HD 
BRANCH  10  12
HETATM   12  C   UNL     1     -10.378  14.969  68.081  1.00  0.00    -0.239 A  
HETATM   13  N   UNL     1     -11.711  14.977  68.022  1.00  0.00    -0.330 NA 
HETATM   14  C   UNL     1     -12.285  13.848  67.594  1.00  0.00    -0.197 A  
HETATM   15  C   UNL     1     -11.613  12.736  67.126  1.00  0.00    -0.426 A  
HETATM   16  C   UNL     1     -10.230  12.752  67.160  1.00  0.00    -0.233 A  
HETATM   17  N   UNL     1      -9.609  13.872  67.708  1.00  0.00    -0.216 NA 
BRANCH  16  18
HETATM   18  C   UNL     1      -9.499  11.516  66.600  1.00  0.00    -0.208 A  
HETATM   19  C   UNL     1      -9.452  11.282  65.213  1.00  0.00    -0.221 A  
HETATM   20  N   UNL     1      -8.656  10.198  64.966  1.00  0.00    -0.158 NA 
HETATM   21  C   UNL     1      -8.623  10.436  67.088  1.00  0.00    -0.130 A  
HETATM   22  N   UNL     1      -8.182   9.655  66.077  1.00  0.00    -0.118 NA 
BRANCH  20  23
HETATM   23  C   UNL     1      -8.242   9.629  63.671  1.00  0.00    -0.162 C  
HETATM   24  C   UNL     1      -6.867  10.130  63.209  1.00  0.00    -0.128 C  
HETATM   25  C   UNL     1      -9.265   9.900  62.556  1.00  0.00    -0.307 C  
ENDBRANCH  20  23
BRANCH  21  26
HETATM   26  C   UNL     1      -8.182  10.008  68.416  1.00  0.00    -0.106 A  
HETATM   27  C   UNL     1      -7.020  10.514  69.051  1.00  0.00    -0.076 A  
HETATM   28  C   UNL     1      -6.549   9.942  70.237  1.00  0.00    -0.116 A  
HETATM   29 CL   UNL     1      -5.233  10.638  71.096  1.00  0.00    -0.097 Cl 
HETATM   30  C   UNL     1      -7.146   8.780  70.743  1.00  0.00    -0.069 A  
HETATM   31  C   UNL     1      -8.279   8.317  70.100  1.00  0.00    -0.118 A  
HETATM   32  C   UNL     1      -8.865   9.021  69.067  1.00  0.00    -0.136 A  
HETATM   33  F   UNL     1     -10.131   8.735  68.771  1.00  0.00    -0.176 F  
BRANCH  31  34
HETATM   34  N   UNL     1      -8.938   7.111  70.485  1.00  0.00    -0.154 N  
HETATM   35  H   UNL     1      -9.790   7.107  71.045  1.00  0.00     0.000 HD 
BRANCH  34  36
HETATM   36  S   UNL     1      -8.203   5.690  69.944  1.00  0.00    -0.111 S  
HETATM   37  O   UNL     1      -7.667   5.879  68.617  1.00  0.00    -0.091 OA 
HETATM   38  O   UNL     1      -7.382   5.253  71.053  1.00  0.00    -0.073 OA 
HETATM   39  C   UNL     1      -9.655   4.674  69.857  1.00  0.00    -0.191 C  
ENDBRANCH  34  36
ENDBRANCH  31  34
ENDBRANCH  21  26
ENDBRANCH  16  18
ENDBRANCH  10  12
ENDBRANCH   9  10
ENDBRANCH   7   9
ENDBRANCH   4   7
ENDBRANCH   2   3
TORSDOF 10
ENDMDL
MODEL      218
REMARK 921   NORMALIZED FREE ENERGY PREDICTED BY IDOCK:   -3.12 KCAL/MOL
REMARK 922        TOTAL FREE ENERGY PREDICTED BY IDOCK:   -6.90 KCAL/MOL
REMARK 923 INTER-LIGAND FREE ENERGY PREDICTED BY IDOCK:   -5.35 KCAL/MOL
REMARK 924 INTRA-LIGAND FREE ENERGY PREDICTED BY IDOCK:   -1.55 KCAL/MOL
REMARK 927      BINDING AFFINITY PREDICTED BY RF-SCORE:    0.00 PKD
ROOT
HETATM    1  C   UNL     1      -5.129   2.921  64.546  1.00  0.00    -0.008 C  
HETATM    2  O   UNL     1      -5.554   3.756  65.638  1.00  0.00    -0.016 OA 
ENDROOT
BRANCH   2   3
HETATM    3  C   UNL     1      -6.788   3.434  66.125  1.00  0.00    -0.053 C  
HETATM    4  N   UNL     1      -7.644   3.084  65.103  1.00  0.00    -0.079 N  
HETATM    5  O   UNL     1      -7.075   3.472  67.314  1.00  0.00    -0.057 OA 
HETATM    6  H   UNL     1      -7.291   3.090  64.145  1.00  0.00     0.000 HD 
BRANCH   4   7
HETATM    7  C   UNL     1      -9.049   2.702  65.337  1.00  0.00    -0.129 C  
HETATM    8  C   UNL     1      -9.067   1.581  66.425  1.00  0.00    -0.047 C  
BRANCH   7   9
HETATM    9  C   UNL     1     -10.031   3.844  65.835  1.00  0.00    -0.074 C  
BRANCH   9  10
HETATM   10  N   UNL     1      -9.570   5.125  66.465  1.00  0.00    -0.146 NA 
HETATM   11  H   UNL     1      -9.503   5.164  67.482  1.00  0.00     0.000 HD 
BRANCH  10  12
HETATM   12  C   UNL     1      -9.224   6.277  65.731  1.00  0.00     0.042 A  
HETATM   13  N   UNL     1      -8.574   6.086  64.582  1.00  0.00    -0.002 NA 
HETATM   14  C   UNL     1      -8.143   7.190  63.963  1.00  0.00    -0.018 A  
HETATM   15  C   UNL     1      -8.401   8.486  64.366  1.00  0.00    -0.125 A  
HETATM   16  C   UNL     1      -9.105   8.671  65.542  1.00  0.00    -0.131 A  
HETATM   17  N   UNL     1      -9.466   7.538  66.265  1.00  0.00    -0.141 NA 
BRANCH  16  18
HETATM   18  C   UNL     1      -9.413  10.124  65.954  1.00  0.00    -0.249 A  
HETATM   19  C   UNL     1     -10.274  10.921  65.175  1.00  0.00    -0.297 A  
HETATM   20  N   UNL     1     -10.475  12.116  65.807  1.00  0.00    -0.245 NA 
HETATM   21  C   UNL     1      -9.173  11.022  67.098  1.00  0.00    -0.152 A  
HETATM   22  N   UNL     1      -9.795  12.211  66.940  1.00  0.00    -0.200 NA 
BRANCH  20  23
HETATM   23  C   UNL     1     -11.360  13.230  65.421  1.00  0.00    -0.295 C  
HETATM   24  C   UNL     1     -10.615  14.368  64.710  1.00  0.00    -0.417 C  
HETATM   25  C   UNL     1     -12.126  13.815  66.618  1.00  0.00    -0.471 C  
ENDBRANCH  20  23
BRANCH  21  26
HETATM   26  C   UNL     1      -8.375  10.917  68.321  1.00  0.00    -0.129 A  
HETATM   27  C   UNL     1      -7.347  11.832  68.660  1.00  0.00    -0.115 A  
HETATM   28  C   UNL     1      -6.500  11.583  69.745  1.00  0.00    -0.125 A  
HETATM   29 CL   UNL     1      -5.350  12.752  70.260  1.00  0.00    -0.110 Cl 
HETATM   30  C   UNL     1      -6.576  10.363  70.431  1.00  0.00    -0.121 A  
HETATM   31  C   UNL     1      -7.593   9.497  70.075  1.00  0.00    -0.133 A  
HETATM   32  C   UNL     1      -8.561   9.854  69.157  1.00  0.00    -0.157 A  
HETATM   33  F   UNL     1      -9.694   9.155  69.158  1.00  0.00    -0.155 F  
BRANCH  31  34
HETATM   34  N   UNL     1      -7.734   8.202  70.658  1.00  0.00    -0.082 N  
HETATM   35  H   UNL     1      -7.576   7.344  70.131  1.00  0.00     0.000 HD 
BRANCH  34  36
HETATM   36  S   UNL     1      -8.183   8.196  72.286  1.00  0.00    -0.165 S  
HETATM   37  O   UNL     1      -7.082   8.638  73.109  1.00  0.00    -0.302 OA 
HETATM   38  O   UNL     1      -9.476   8.845  72.315  1.00  0.00    -0.327 OA 
HETATM   39  C   UNL     1      -8.403   6.446  72.479  1.00  0.00    -0.116 C  
ENDBRANCH  34  36
ENDBRANCH  31  34
ENDBRANCH  21  26
ENDBRANCH  16  18
ENDBRANCH  10  12
ENDBRANCH   9  10
ENDBRANCH   7   9
ENDBRANCH   4   7
ENDBRANCH   2   3
TORSDOF 10
ENDMDL
MODEL      219
REMARK 921   NORMALIZED FREE ENERGY PREDICTED BY IDOCK:   -3.09 KCAL/MOL
REMARK 922        TOTAL FREE ENERGY PREDICTED BY IDOCK:   -6.85 KCAL/MOL
REMARK 923 INTER-LIGAND FREE ENERGY PREDICTED BY IDOCK:   -5.48 KCAL/MOL
REMARK 924 INTRA-LIGAND FREE ENERGY PREDICTED BY IDOCK:   -1.37 KCAL/MOL
REMARK 927      BINDING AFFINITY PREDICTED BY RF-SCORE:    0.00 PKD
ROOT
HETATM    1  C   UNL     1     -14.144   6.058  71.861  1.00  0.00     1.029 C  
HETATM    2  O   UNL     1     -14.293   7.488  71.810  1.00  0.00    -0.418 OA 
ENDROOT
BRANCH   2   3
HETATM    3  C   UNL     1     -13.108   8.159  71.720  1.00  0.00    -0.345 C  
HETATM    4  N   UNL     1     -13.133   9.062  70.678  1.00  0.00    -0.302 N  
HETATM    5  O   UNL     1     -12.161   7.960  72.467  1.00  0.00    -0.315 OA 
HETATM    6  H   UNL     1     -13.984   9.141  70.120  1.00  0.00     0.000 HD 
BRANCH   4   7
HETATM    7  C   UNL     1     -11.982   9.918  70.339  1.00  0.00    -0.195 C  
HETATM    8  C   UNL     1     -12.084  10.282  68.823  1.00  0.00     0.470 C  
BRANCH   7   9
HETATM    9  C   UNL     1     -11.843  11.284  71.133  1.00  0.00     0.197 C  
BRANCH   9  10
HETATM   10  N   UNL     1     -12.568  12.544  70.759  1.00  0.00    -0.267 NA 
HETATM   11  H   UNL     1     -13.555  12.475  70.508  1.00  0.00     0.000 HD 
BRANCH  10  12
HETATM   12  C   UNL     1     -11.962  13.815  70.733  1.00  0.00    -0.240 A  
HETATM   13  N   UNL     1     -12.334  14.678  71.680  1.00  0.00    -0.338 NA 
HETATM   14  C   UNL     1     -11.846  15.918  71.566  1.00  0.00    -0.468 A  
HETATM   15  C   UNL     1     -10.931  16.335  70.618  1.00  0.00    -0.179 A  
HETATM   16  C   UNL     1     -10.528  15.421  69.661  1.00  0.00    -0.280 A  
HETATM   17  N   UNL     1     -11.108  14.155  69.690  1.00  0.00    -0.192 NA 
BRANCH  16  18
HETATM   18  C   UNL     1      -9.479  15.894  68.635  1.00  0.00    -0.214 A  
HETATM   19  C   UNL     1      -8.858  17.150  68.777  1.00  0.00    -0.235 A  
HETATM   20  N   UNL     1      -7.894  17.286  67.816  1.00  0.00    -0.186 NA 
HETATM   21  C   UNL     1      -8.734  15.350  67.487  1.00  0.00    -0.175 A  
HETATM   22  N   UNL     1      -7.830  16.236  67.012  1.00  0.00    -0.193 NA 
BRANCH  20  23
HETATM   23  C   UNL     1      -6.931  18.384  67.620  1.00  0.00    -0.208 C  
HETATM   24  C   UNL     1      -6.924  18.925  66.184  1.00  0.00    -0.278 C  
HETATM   25  C   UNL     1      -5.497  17.984  68.003  1.00  0.00    -0.152 C  
ENDBRANCH  20  23
BRANCH  21  26
HETATM   26  C   UNL     1      -8.801  14.096  66.735  1.00  0.00    -0.190 A  
HETATM   27  C   UNL     1      -9.798  13.822  65.766  1.00  0.00    -0.242 A  
HETATM   28  C   UNL     1      -9.921  12.544  65.210  1.00  0.00    -0.207 A  
HETATM   29 CL   UNL     1     -11.023  12.236  63.928  1.00  0.00    -0.415 Cl 
HETATM   30  C   UNL     1      -9.142  11.487  65.700  1.00  0.00    -0.136 A  
HETATM   31  C   UNL     1      -8.178  11.791  66.643  1.00  0.00    -0.117 A  
HETATM   32  C   UNL     1      -7.915  13.095  67.015  1.00  0.00     0.015 A  
HETATM   33  F   UNL     1      -6.747  13.340  67.605  1.00  0.00    -0.110 F  
BRANCH  31  34
HETATM   34  N   UNL     1      -7.367  10.792  67.259  1.00  0.00    -0.093 N  
HETATM   35  H   UNL     1      -6.649  10.277  66.749  1.00  0.00     0.000 HD 
BRANCH  34  36
HETATM   36  S   UNL     1      -7.684  10.522  68.896  1.00  0.00    -0.126 S  
HETATM   37  O   UNL     1      -6.775  11.291  69.713  1.00  0.00    -0.133 OA 
HETATM   38  O   UNL     1      -9.121  10.642  69.019  1.00  0.00    -0.174 OA 
HETATM   39  C   UNL     1      -7.234   8.807  68.959  1.00  0.00    -0.072 C  
ENDBRANCH  34  36
ENDBRANCH  31  34
ENDBRANCH  21  26
ENDBRANCH  16  18
ENDBRANCH  10  12
ENDBRANCH   9  10
ENDBRANCH   7   9
ENDBRANCH   4   7
ENDBRANCH   2   3
TORSDOF 10
ENDMDL
MODEL      220
REMARK 921   NORMALIZED FREE ENERGY PREDICTED BY IDOCK:   -3.05 KCAL/MOL
REMARK 922        TOTAL FREE ENERGY PREDICTED BY IDOCK:   -6.78 KCAL/MOL
REMARK 923 INTER-LIGAND FREE ENERGY PREDICTED BY IDOCK:   -5.32 KCAL/MOL
REMARK 924 INTRA-LIGAND FREE ENERGY PREDICTED BY IDOCK:   -1.47 KCAL/MOL
REMARK 927      BINDING AFFINITY PREDICTED BY RF-SCORE:    0.00 PKD
ROOT
HETATM    1  C   UNL     1      -5.379  14.500  71.773  1.00  0.00    -0.140 C  
HETATM    2  O   UNL     1      -5.772  13.123  71.628  1.00  0.00    -0.392 OA 
ENDROOT
BRANCH   2   3
HETATM    3  C   UNL     1      -5.795  12.693  70.333  1.00  0.00    -0.155 C  
HETATM    4  N   UNL     1      -6.609  11.590  70.195  1.00  0.00    -0.320 N  
HETATM    5  O   UNL     1      -5.159  13.226  69.433  1.00  0.00    -0.075 OA 
HETATM    6  H   UNL     1      -7.091  11.231  71.020  1.00  0.00     0.000 HD 
BRANCH   4   7
HETATM    7  C   UNL     1      -6.812  10.906  68.905  1.00  0.00    -0.076 C  
HETATM    8  C   UNL     1      -7.206   9.424  69.203  1.00  0.00    -0.066 C  
BRANCH   7   9
HETATM    9  C   UNL     1      -7.930  11.496  67.947  1.00  0.00    -0.126 C  
BRANCH   9  10
HETATM   10  N   UNL     1      -7.844  11.471  66.449  1.00  0.00    -0.347 NA 
HETATM   11  H   UNL     1      -7.706  12.355  65.960  1.00  0.00     0.000 HD 
BRANCH  10  12
HETATM   12  C   UNL     1      -7.944  10.294  65.681  1.00  0.00    -0.150 A  
HETATM   13  N   UNL     1      -7.726  10.411  64.370  1.00  0.00    -0.094 NA 
HETATM   14  C   UNL     1      -7.949   9.314  63.639  1.00  0.00    -0.141 A  
HETATM   15  C   UNL     1      -8.285   8.072  64.142  1.00  0.00    -0.060 A  
HETATM   16  C   UNL     1      -8.476   7.956  65.507  1.00  0.00    -0.139 A  
HETATM   17  N   UNL     1      -8.362   9.110  66.277  1.00  0.00    -0.117 NA 
BRANCH  16  18
HETATM   18  C   UNL     1      -8.815   6.554  66.052  1.00  0.00    -0.154 A  
HETATM   19  C   UNL     1      -8.623   5.411  65.253  1.00  0.00    -0.151 A  
HETATM   20  N   UNL     1      -8.885   4.294  65.995  1.00  0.00    -0.117 NA 
HETATM   21  C   UNL     1      -9.205   5.931  67.329  1.00  0.00    -0.113 A  
HETATM   22  N   UNL     1      -9.272   4.584  67.228  1.00  0.00    -0.128 NA 
BRANCH  20  23
HETATM   23  C   UNL     1      -8.739   2.876  65.618  1.00  0.00    -0.127 C  
HETATM   24  C   UNL     1      -9.601   2.486  64.410  1.00  0.00    -0.128 C  
HETATM   25  C   UNL     1      -9.060   1.923  66.780  1.00  0.00    -0.077 C  
ENDBRANCH  20  23
BRANCH  21  26
HETATM   26  C   UNL     1      -9.579   6.456  68.643  1.00  0.00    -0.121 A  
HETATM   27  C   UNL     1     -10.442   7.565  68.821  1.00  0.00    -0.212 A  
HETATM   28  C   UNL     1     -10.622   8.134  70.086  1.00  0.00    -0.237 A  
HETATM   29 CL   UNL     1     -11.778   9.380  70.344  1.00  0.00    -0.239 Cl 
HETATM   30  C   UNL     1      -9.851   7.694  71.170  1.00  0.00    -0.184 A  
HETATM   31  C   UNL     1      -9.022   6.608  70.961  1.00  0.00    -0.146 A  
HETATM   32  C   UNL     1      -9.025   5.914  69.767  1.00  0.00    -0.131 A  
HETATM   33  F   UNL     1      -8.516   4.683  69.772  1.00  0.00    -0.072 F  
BRANCH  31  34
HETATM   34  N   UNL     1      -8.144   6.109  71.969  1.00  0.00    -0.110 N  
HETATM   35  H   UNL     1      -7.139   6.282  71.956  1.00  0.00     0.000 HD 
BRANCH  34  36
HETATM   36  S   UNL     1      -8.892   5.210  73.187  1.00  0.00    -0.114 S  
HETATM   37  O   UNL     1      -9.172   6.050  74.328  1.00  0.00    -0.127 OA 
HETATM   38  O   UNL     1      -9.928   4.459  72.510  1.00  0.00    -0.155 OA 
HETATM   39  C   UNL     1      -7.540   4.126  73.566  1.00  0.00    -0.077 C  
ENDBRANCH  34  36
ENDBRANCH  31  34
ENDBRANCH  21  26
ENDBRANCH  16  18
ENDBRANCH  10  12
ENDBRANCH   9  10
ENDBRANCH   7   9
ENDBRANCH   4   7
ENDBRANCH   2   3
TORSDOF 10
ENDMDL
MODEL      221
REMARK 921   NORMALIZED FREE ENERGY PREDICTED BY IDOCK:   -2.93 KCAL/MOL
REMARK 922        TOTAL FREE ENERGY PREDICTED BY IDOCK:   -6.60 KCAL/MOL
REMARK 923 INTER-LIGAND FREE ENERGY PREDICTED BY IDOCK:   -5.10 KCAL/MOL
REMARK 924 INTRA-LIGAND FREE ENERGY PREDICTED BY IDOCK:   -1.50 KCAL/MOL
REMARK 927      BINDING AFFINITY PREDICTED BY RF-SCORE:    0.00 PKD
ROOT
HETATM    1  C   UNL     1      -9.061   3.679  67.252  1.00  0.00    -0.169 C  
HETATM    2  O   UNL     1     -10.297   4.369  66.994  1.00  0.00    -0.100 OA 
ENDROOT
BRANCH   2   3
HETATM    3  C   UNL     1     -10.596   5.323  67.924  1.00  0.00    -0.024 C  
HETATM    4  N   UNL     1      -9.917   5.091  69.101  1.00  0.00    -0.195 N  
HETATM    5  O   UNL     1     -11.376   6.243  67.720  1.00  0.00    -0.250 OA 
HETATM    6  H   UNL     1      -9.290   4.288  69.155  1.00  0.00     0.000 HD 
BRANCH   4   7
HETATM    7  C   UNL     1     -10.059   5.958  70.286  1.00  0.00    -0.202 C  
HETATM    8  C   UNL     1     -10.376   5.045  71.513  1.00  0.00    -0.252 C  
BRANCH   7   9
HETATM    9  C   UNL     1      -8.804   6.845  70.682  1.00  0.00    -0.150 C  
BRANCH   9  10
HETATM   10  N   UNL     1      -8.888   8.304  71.021  1.00  0.00    -0.141 NA 
HETATM   11  H   UNL     1      -9.664   8.619  71.603  1.00  0.00     0.000 HD 
BRANCH  10  12
HETATM   12  C   UNL     1      -7.955   9.263  70.580  1.00  0.00    -0.167 A  
HETATM   13  N   UNL     1      -6.677   9.051  70.900  1.00  0.00    -0.071 NA 
HETATM   14  C   UNL     1      -5.825  10.032  70.585  1.00  0.00    -0.087 A  
HETATM   15  C   UNL     1      -6.146  11.177  69.882  1.00  0.00    -0.121 A  
HETATM   16  C   UNL     1      -7.470  11.369  69.527  1.00  0.00     0.141 A  
HETATM   17  N   UNL     1      -8.396  10.417  69.943  1.00  0.00    -0.016 NA 
BRANCH  16  18
HETATM   18  C   UNL     1      -7.801  12.635  68.711  1.00  0.00     0.039 A  
HETATM   19  C   UNL     1      -7.526  13.913  69.233  1.00  0.00     0.103 A  
HETATM   20  N   UNL     1      -7.801  14.856  68.282  1.00  0.00    -0.116 NA 
HETATM   21  C   UNL     1      -8.252  12.987  67.353  1.00  0.00    -0.183 A  
HETATM   22  N   UNL     1      -8.272  14.325  67.164  1.00  0.00    -0.189 NA 
BRANCH  20  23
HETATM   23  C   UNL     1      -7.591  16.314  68.336  1.00  0.00    -0.166 C  
HETATM   24  C   UNL     1      -6.627  16.740  69.452  1.00  0.00    -0.228 C  
HETATM   25  C   UNL     1      -8.906  17.092  68.497  1.00  0.00    -0.265 C  
ENDBRANCH  20  23
BRANCH  21  26
HETATM   26  C   UNL     1      -8.722  12.209  66.206  1.00  0.00     0.017 A  
HETATM   27  C   UNL     1      -9.981  12.414  65.591  1.00  0.00    -0.261 A  
HETATM   28  C   UNL     1     -10.453  11.527  64.617  1.00  0.00    -0.301 A  
HETATM   29 CL   UNL     1     -11.906  11.845  63.755  1.00  0.00    -0.551 Cl 
HETATM   30  C   UNL     1      -9.742  10.353  64.333  1.00  0.00    -0.396 A  
HETATM   31  C   UNL     1      -8.517  10.187  64.950  1.00  0.00    -0.172 A  
HETATM   32  C   UNL     1      -7.960  11.179  65.733  1.00  0.00     0.060 A  
HETATM   33  F   UNL     1      -6.650  11.117  65.961  1.00  0.00    -0.124 F  
BRANCH  31  34
HETATM   34  N   UNL     1      -7.731   9.008  64.786  1.00  0.00    -0.105 N  
HETATM   35  H   UNL     1      -7.131   8.857  63.975  1.00  0.00     0.000 HD 
BRANCH  34  36
HETATM   36  S   UNL     1      -7.866   7.879  66.035  1.00  0.00    -0.100 S  
HETATM   37  O   UNL     1      -8.312   6.608  65.513  1.00  0.00    -0.140 OA 
HETATM   38  O   UNL     1      -6.639   8.014  66.791  1.00  0.00    -0.054 OA 
HETATM   39  C   UNL     1      -9.191   8.650  66.928  1.00  0.00    -0.159 C  
ENDBRANCH  34  36
ENDBRANCH  31  34
ENDBRANCH  21  26
ENDBRANCH  16  18
ENDBRANCH  10  12
ENDBRANCH   9  10
ENDBRANCH   7   9
ENDBRANCH   4   7
ENDBRANCH   2   3
TORSDOF 10
ENDMDL
MODEL      222
REMARK 921   NORMALIZED FREE ENERGY PREDICTED BY IDOCK:   -2.91 KCAL/MOL
REMARK 922        TOTAL FREE ENERGY PREDICTED BY IDOCK:   -6.57 KCAL/MOL
REMARK 923 INTER-LIGAND FREE ENERGY PREDICTED BY IDOCK:   -6.52 KCAL/MOL
REMARK 924 INTRA-LIGAND FREE ENERGY PREDICTED BY IDOCK:   -0.05 KCAL/MOL
REMARK 927      BINDING AFFINITY PREDICTED BY RF-SCORE:    0.00 PKD
ROOT
HETATM    1  C   UNL     1     -10.156  12.450  67.874  1.00  0.00    -0.208 C  
HETATM    2  O   UNL     1     -10.517  13.371  66.830  1.00  0.00    -0.270 OA 
ENDROOT
BRANCH   2   3
HETATM    3  C   UNL     1     -10.317  12.880  65.572  1.00  0.00    -0.291 C  
HETATM    4  N   UNL     1     -10.250  11.504  65.587  1.00  0.00    -0.238 N  
HETATM    5  O   UNL     1     -10.203  13.588  64.581  1.00  0.00    -0.387 OA 
HETATM    6  H   UNL     1     -10.359  11.018  66.478  1.00  0.00     0.000 HD 
BRANCH   4   7
HETATM    7  C   UNL     1     -10.027  10.704  64.368  1.00  0.00    -0.350 C  
HETATM    8  C   UNL     1     -10.227  11.642  63.135  1.00  0.00    -0.396 C  
BRANCH   7   9
HETATM    9  C   UNL     1      -8.602  10.026  64.205  1.00  0.00    -0.189 C  
BRANCH   9  10
HETATM   10  N   UNL     1      -7.900   9.284  65.305  1.00  0.00    -0.102 NA 
HETATM   11  H   UNL     1      -7.763   8.279  65.196  1.00  0.00     0.000 HD 
BRANCH  10  12
HETATM   12  C   UNL     1      -7.420   9.897  66.479  1.00  0.00    -0.100 A  
HETATM   13  N   UNL     1      -6.933  11.133  66.356  1.00  0.00    -0.123 NA 
HETATM   14  C   UNL     1      -6.367  11.651  67.451  1.00  0.00    -0.100 A  
HETATM   15  C   UNL     1      -6.337  11.053  68.696  1.00  0.00    -0.047 A  
HETATM   16  C   UNL     1      -6.875   9.784  68.818  1.00  0.00    -0.051 A  
HETATM   17  N   UNL     1      -7.369   9.177  67.666  1.00  0.00    -0.087 NA 
BRANCH  16  18
HETATM   18  C   UNL     1      -6.865   9.150  70.223  1.00  0.00    -0.055 A  
HETATM   19  C   UNL     1      -5.863   9.487  71.152  1.00  0.00    -0.075 A  
HETATM   20  N   UNL     1      -6.138   8.886  72.348  1.00  0.00    -0.161 NA 
HETATM   21  C   UNL     1      -7.733   8.298  71.056  1.00  0.00    -0.090 A  
HETATM   22  N   UNL     1      -7.231   8.140  72.301  1.00  0.00    -0.087 NA 
BRANCH  20  23
HETATM   23  C   UNL     1      -5.426   9.012  73.633  1.00  0.00    -0.107 C  
HETATM   24  C   UNL     1      -5.447   7.719  74.459  1.00  0.00    -0.066 C  
HETATM   25  C   UNL     1      -5.973  10.159  74.498  1.00  0.00     0.534 C  
ENDBRANCH  20  23
BRANCH  21  26
HETATM   26  C   UNL     1      -8.971   7.560  70.807  1.00  0.00    -0.149 A  
HETATM   27  C   UNL     1      -9.269   6.933  69.571  1.00  0.00    -0.148 A  
HETATM   28  C   UNL     1     -10.539   6.397  69.331  1.00  0.00    -0.257 A  
HETATM   29 CL   UNL     1     -10.869   5.504  67.900  1.00  0.00    -0.178 Cl 
HETATM   30  C   UNL     1     -11.570   6.588  70.261  1.00  0.00    -0.473 A  
HETATM   31  C   UNL     1     -11.242   7.201  71.455  1.00  0.00    -0.245 A  
HETATM   32  C   UNL     1      -9.936   7.520  71.772  1.00  0.00    -0.171 A  
HETATM   33  F   UNL     1      -9.651   7.732  73.055  1.00  0.00    -0.216 F  
BRANCH  31  34
HETATM   34  N   UNL     1     -12.217   7.504  72.452  1.00  0.00    -0.510 N  
HETATM   35  H   UNL     1     -12.202   7.080  73.380  1.00  0.00     0.000 HD 
BRANCH  34  36
HETATM   36  S   UNL     1     -13.398   8.617  71.984  1.00  0.00    -0.405 S  
HETATM   37  O   UNL     1     -14.170   8.092  70.883  1.00  0.00    -0.072 OA 
HETATM   38  O   UNL     1     -14.013   9.046  73.222  1.00  0.00    -0.248 OA 
HETATM   39  C   UNL     1     -12.318   9.896  71.395  1.00  0.00    -0.404 C  
ENDBRANCH  34  36
ENDBRANCH  31  34
ENDBRANCH  21  26
ENDBRANCH  16  18
ENDBRANCH  10  12
ENDBRANCH   9  10
ENDBRANCH   7   9
ENDBRANCH   4   7
ENDBRANCH   2   3
TORSDOF 10
ENDMDL
MODEL      223
REMARK 921   NORMALIZED FREE ENERGY PREDICTED BY IDOCK:   -2.84 KCAL/MOL
REMARK 922        TOTAL FREE ENERGY PREDICTED BY IDOCK:   -6.45 KCAL/MOL
REMARK 923 INTER-LIGAND FREE ENERGY PREDICTED BY IDOCK:   -5.77 KCAL/MOL
REMARK 924 INTRA-LIGAND FREE ENERGY PREDICTED BY IDOCK:   -0.68 KCAL/MOL
REMARK 927      BINDING AFFINITY PREDICTED BY RF-SCORE:    0.00 PKD
ROOT
HETATM    1  C   UNL     1     -13.309  14.467  72.943  1.00  0.00    -0.482 C  
HETATM    2  O   UNL     1     -12.302  15.095  72.129  1.00  0.00    -0.319 OA 
ENDROOT
BRANCH   2   3
HETATM    3  C   UNL     1     -12.537  14.992  70.789  1.00  0.00    -0.370 C  
HETATM    4  N   UNL     1     -11.694  14.066  70.212  1.00  0.00    -0.427 N  
HETATM    5  O   UNL     1     -13.380  15.653  70.199  1.00  0.00    -0.122 OA 
HETATM    6  H   UNL     1     -11.027  13.574  70.807  1.00  0.00     0.000 HD 
BRANCH   4   7
HETATM    7  C   UNL     1     -11.716  13.758  68.770  1.00  0.00    -0.356 C  
HETATM    8  C   UNL     1     -11.642  15.109  67.989  1.00  0.00    -0.345 C  
BRANCH   7   9
HETATM    9  C   UNL     1     -10.549  12.839  68.214  1.00  0.00    -0.238 C  
BRANCH   9  10
HETATM   10  N   UNL     1     -10.729  11.842  67.107  1.00  0.00    -0.230 NA 
HETATM   11  H   UNL     1     -11.381  12.068  66.356  1.00  0.00     0.000 HD 
BRANCH  10  12
HETATM   12  C   UNL     1     -10.047  10.610  67.047  1.00  0.00    -0.211 A  
HETATM   13  N   UNL     1     -10.262   9.856  65.967  1.00  0.00    -0.235 NA 
HETATM   14  C   UNL     1      -9.709   8.638  65.985  1.00  0.00    -0.168 A  
HETATM   15  C   UNL     1      -8.872   8.154  66.971  1.00  0.00    -0.143 A  
HETATM   16  C   UNL     1      -8.631   8.959  68.070  1.00  0.00    -0.130 A  
HETATM   17  N   UNL     1      -9.286  10.186  68.130  1.00  0.00    -0.134 NA 
BRANCH  16  18
HETATM   18  C   UNL     1      -7.666   8.414  69.142  1.00  0.00    -0.092 A  
HETATM   19  C   UNL     1      -6.758   9.273  69.789  1.00  0.00    -0.051 A  
HETATM   20  N   UNL     1      -6.101   8.579  70.767  1.00  0.00    -0.032 NA 
HETATM   21  C   UNL     1      -7.438   7.164  69.889  1.00  0.00    -0.086 A  
HETATM   22  N   UNL     1      -6.466   7.307  70.818  1.00  0.00    -0.043 NA 
BRANCH  20  23
HETATM   23  C   UNL     1      -5.127   9.073  71.756  1.00  0.00    -0.043 C  
HETATM   24  C   UNL     1      -5.193   8.319  73.091  1.00  0.00    -0.044 C  
HETATM   25  C   UNL     1      -5.280  10.577  72.033  1.00  0.00     0.097 C  
ENDBRANCH  20  23
BRANCH  21  26
HETATM   26  C   UNL     1      -7.995   5.814  69.804  1.00  0.00    -0.100 A  
HETATM   27  C   UNL     1      -8.024   5.058  68.605  1.00  0.00    -0.085 A  
HETATM   28  C   UNL     1      -8.727   3.850  68.540  1.00  0.00    -0.100 A  
HETATM   29 CL   UNL     1      -8.647   2.851  67.144  1.00  0.00    -0.105 Cl 
HETATM   30  C   UNL     1      -9.518   3.438  69.621  1.00  0.00    -0.223 A  
HETATM   31  C   UNL     1      -9.463   4.198  70.774  1.00  0.00    -0.172 A  
HETATM   32  C   UNL     1      -8.589   5.260  70.902  1.00  0.00    -0.128 A  
HETATM   33  F   UNL     1      -8.312   5.682  72.134  1.00  0.00    -0.111 F  
BRANCH  31  34
HETATM   34  N   UNL     1     -10.268   3.913  71.917  1.00  0.00    -0.126 N  
HETATM   35  H   UNL     1     -11.177   4.350  72.070  1.00  0.00     0.000 HD 
BRANCH  34  36
HETATM   36  S   UNL     1      -9.606   2.799  73.000  1.00  0.00    -0.101 S  
HETATM   37  O   UNL     1      -8.615   1.986  72.335  1.00  0.00    -0.060 OA 
HETATM   38  O   UNL     1      -9.300   3.573  74.185  1.00  0.00    -0.092 OA 
HETATM   39  C   UNL     1     -11.066   1.835  73.293  1.00  0.00    -0.164 C  
ENDBRANCH  34  36
ENDBRANCH  31  34
ENDBRANCH  21  26
ENDBRANCH  16  18
ENDBRANCH  10  12
ENDBRANCH   9  10
ENDBRANCH   7   9
ENDBRANCH   4   7
ENDBRANCH   2   3
TORSDOF 10
ENDMDL
MODEL      224
REMARK 921   NORMALIZED FREE ENERGY PREDICTED BY IDOCK:   -2.78 KCAL/MOL
REMARK 922        TOTAL FREE ENERGY PREDICTED BY IDOCK:   -6.36 KCAL/MOL
REMARK 923 INTER-LIGAND FREE ENERGY PREDICTED BY IDOCK:   -5.09 KCAL/MOL
REMARK 924 INTRA-LIGAND FREE ENERGY PREDICTED BY IDOCK:   -1.27 KCAL/MOL
REMARK 927      BINDING AFFINITY PREDICTED BY RF-SCORE:    0.00 PKD
ROOT
HETATM    1  C   UNL     1     -10.719  17.147  67.662  1.00  0.00    -0.302 C  
HETATM    2  O   UNL     1     -10.976  15.731  67.673  1.00  0.00    -0.311 OA 
ENDROOT
BRANCH   2   3
HETATM    3  C   UNL     1     -10.020  15.006  68.323  1.00  0.00    -0.225 C  
HETATM    4  N   UNL     1      -9.811  13.796  67.696  1.00  0.00    -0.229 N  
HETATM    5  O   UNL     1      -9.449  15.393  69.332  1.00  0.00    -0.246 OA 
HETATM    6  H   UNL     1     -10.349  13.579  66.857  1.00  0.00     0.000 HD 
BRANCH   4   7
HETATM    7  C   UNL     1      -8.841  12.801  68.190  1.00  0.00    -0.194 C  
HETATM    8  C   UNL     1      -9.630  11.505  68.565  1.00  0.00    -0.180 C  
BRANCH   7   9
HETATM    9  C   UNL     1      -7.687  12.366  67.192  1.00  0.00    -0.122 C  
BRANCH   9  10
HETATM   10  N   UNL     1      -6.991  11.038  67.249  1.00  0.00    -0.089 NA 
HETATM   11  H   UNL     1      -6.103  10.981  67.747  1.00  0.00     0.000 HD 
BRANCH  10  12
HETATM   12  C   UNL     1      -7.495   9.865  66.653  1.00  0.00    -0.099 A  
HETATM   13  N   UNL     1      -8.083  10.000  65.463  1.00  0.00    -0.131 NA 
HETATM   14  C   UNL     1      -8.667   8.902  64.970  1.00  0.00    -0.166 A  
HETATM   15  C   UNL     1      -8.622   7.646  65.544  1.00  0.00    -0.112 A  
HETATM   16  C   UNL     1      -7.982   7.513  66.763  1.00  0.00    -0.115 A  
HETATM   17  N   UNL     1      -7.464   8.664  67.351  1.00  0.00    -0.089 NA 
BRANCH  16  18
HETATM   18  C   UNL     1      -7.912   6.097  67.368  1.00  0.00    -0.105 A  
HETATM   19  C   UNL     1      -7.428   5.017  66.606  1.00  0.00    -0.087 A  
HETATM   20  N   UNL     1      -7.358   3.903  67.396  1.00  0.00    -0.067 NA 
HETATM   21  C   UNL     1      -8.092   5.446  68.678  1.00  0.00    -0.091 A  
HETATM   22  N   UNL     1      -7.787   4.130  68.628  1.00  0.00    -0.072 NA 
BRANCH  20  23
HETATM   23  C   UNL     1      -6.836   2.565  67.066  1.00  0.00    -0.041 C  
HETATM   24  C   UNL     1      -6.024   2.543  65.764  1.00  0.00    -0.023 C  
HETATM   25  C   UNL     1      -7.946   1.507  66.973  1.00  0.00    -0.066 C  
ENDBRANCH  20  23
BRANCH  21  26
HETATM   26  C   UNL     1      -8.571   5.905  69.983  1.00  0.00    -0.130 A  
HETATM   27  C   UNL     1      -7.940   6.933  70.726  1.00  0.00    -0.106 A  
HETATM   28  C   UNL     1      -8.332   7.206  72.041  1.00  0.00    -0.107 A  
HETATM   29 CL   UNL     1      -7.681   8.545  72.901  1.00  0.00    -0.109 Cl 
HETATM   30  C   UNL     1      -9.266   6.381  72.681  1.00  0.00    -0.138 A  
HETATM   31  C   UNL     1      -9.863   5.391  71.925  1.00  0.00    -0.171 A  
HETATM   32  C   UNL     1      -9.634   5.278  70.567  1.00  0.00    -0.176 A  
HETATM   33  F   UNL     1     -10.516   4.583  69.852  1.00  0.00    -0.285 F  
BRANCH  31  34
HETATM   34  N   UNL     1     -10.782   4.452  72.481  1.00  0.00    -0.139 N  
HETATM   35  H   UNL     1     -11.763   4.678  72.648  1.00  0.00     0.000 HD 
BRANCH  34  36
HETATM   36  S   UNL     1     -10.128   2.938  72.843  1.00  0.00    -0.150 S  
HETATM   37  O   UNL     1      -9.891   2.193  71.629  1.00  0.00    -0.144 OA 
HETATM   38  O   UNL     1      -9.075   3.209  73.799  1.00  0.00    -0.085 OA 
HETATM   39  C   UNL     1     -11.527   2.256  73.694  1.00  0.00    -0.194 C  
ENDBRANCH  34  36
ENDBRANCH  31  34
ENDBRANCH  21  26
ENDBRANCH  16  18
ENDBRANCH  10  12
ENDBRANCH   9  10
ENDBRANCH   7   9
ENDBRANCH   4   7
ENDBRANCH   2   3
TORSDOF 10
ENDMDL
MODEL      225
REMARK 921   NORMALIZED FREE ENERGY PREDICTED BY IDOCK:   -2.78 KCAL/MOL
REMARK 922        TOTAL FREE ENERGY PREDICTED BY IDOCK:   -6.36 KCAL/MOL
REMARK 923 INTER-LIGAND FREE ENERGY PREDICTED BY IDOCK:   -5.07 KCAL/MOL
REMARK 924 INTRA-LIGAND FREE ENERGY PREDICTED BY IDOCK:   -1.29 KCAL/MOL
REMARK 927      BINDING AFFINITY PREDICTED BY RF-SCORE:    0.00 PKD
ROOT
HETATM    1  C   UNL     1     -12.840  12.471  64.557  1.00  0.00    -0.262 C  
HETATM    2  O   UNL     1     -13.262  13.619  65.314  1.00  0.00    -0.724 OA 
ENDROOT
BRANCH   2   3
HETATM    3  C   UNL     1     -12.235  14.433  65.695  1.00  0.00    -0.344 C  
HETATM    4  N   UNL     1     -12.055  14.392  67.061  1.00  0.00    -0.524 N  
HETATM    5  O   UNL     1     -11.583  15.109  64.911  1.00  0.00    -0.376 OA 
HETATM    6  H   UNL     1     -12.662  13.788  67.616  1.00  0.00     0.000 HD 
BRANCH   4   7
HETATM    7  C   UNL     1     -11.022  15.184  67.752  1.00  0.00    -0.306 C  
HETATM    8  C   UNL     1     -11.531  15.481  69.199  1.00  0.00    -0.356 C  
BRANCH   7   9
HETATM    9  C   UNL     1      -9.586  14.523  67.895  1.00  0.00    -0.217 C  
BRANCH   9  10
HETATM   10  N   UNL     1      -8.957  13.658  66.843  1.00  0.00    -0.315 NA 
HETATM   11  H   UNL     1      -9.143  13.879  65.864  1.00  0.00     0.000 HD 
BRANCH  10  12
HETATM   12  C   UNL     1      -8.125  12.559  67.130  1.00  0.00    -0.156 A  
HETATM   13  N   UNL     1      -7.049  12.798  67.882  1.00  0.00    -0.103 NA 
HETATM   14  C   UNL     1      -6.205  11.774  68.039  1.00  0.00    -0.052 A  
HETATM   15  C   UNL     1      -6.409  10.489  67.573  1.00  0.00    -0.057 A  
HETATM   16  C   UNL     1      -7.545  10.246  66.822  1.00  0.00    -0.107 A  
HETATM   17  N   UNL     1      -8.383  11.323  66.549  1.00  0.00    -0.166 NA 
BRANCH  16  18
HETATM   18  C   UNL     1      -7.773   8.798  66.343  1.00  0.00    -0.099 A  
HETATM   19  C   UNL     1      -7.507   8.438  65.008  1.00  0.00    -0.089 A  
HETATM   20  N   UNL     1      -7.676   7.089  64.864  1.00  0.00    -0.107 NA 
HETATM   21  C   UNL     1      -8.099   7.482  66.920  1.00  0.00    -0.116 A  
HETATM   22  N   UNL     1      -8.067   6.505  65.987  1.00  0.00    -0.115 NA 
BRANCH  20  23
HETATM   23  C   UNL     1      -7.431   6.247  63.679  1.00  0.00    -0.080 C  
HETATM   24  C   UNL     1      -7.505   7.030  62.362  1.00  0.00    -0.086 C  
HETATM   25  C   UNL     1      -8.396   5.053  63.597  1.00  0.00    -0.127 C  
ENDBRANCH  20  23
BRANCH  21  26
HETATM   26  C   UNL     1      -8.493   7.028  68.254  1.00  0.00    -0.123 A  
HETATM   27  C   UNL     1      -9.768   6.485  68.546  1.00  0.00    -0.129 A  
HETATM   28  C   UNL     1     -10.152   6.235  69.869  1.00  0.00    -0.173 A  
HETATM   29 CL   UNL     1     -11.631   5.438  70.228  1.00  0.00     0.913 Cl 
HETATM   30  C   UNL     1      -9.328   6.640  70.928  1.00  0.00    -0.159 A  
HETATM   31  C   UNL     1      -8.090   7.164  70.605  1.00  0.00    -0.113 A  
HETATM   32  C   UNL     1      -7.633   7.193  69.302  1.00  0.00    -0.102 A  
HETATM   33  F   UNL     1      -6.322   7.335  69.116  1.00  0.00    -0.031 F  
BRANCH  31  34
HETATM   34  N   UNL     1      -7.191   7.666  71.593  1.00  0.00    -0.062 N  
HETATM   35  H   UNL     1      -7.109   8.661  71.804  1.00  0.00     0.000 HD 
BRANCH  34  36
HETATM   36  S   UNL     1      -6.272   6.493  72.387  1.00  0.00    -0.046 S  
HETATM   37  O   UNL     1      -5.849   5.475  71.455  1.00  0.00    -0.025 OA 
HETATM   38  O   UNL     1      -5.329   7.243  73.190  1.00  0.00    -0.041 OA 
HETATM   39  C   UNL     1      -7.546   5.845  73.437  1.00  0.00    -0.098 C  
ENDBRANCH  34  36
ENDBRANCH  31  34
ENDBRANCH  21  26
ENDBRANCH  16  18
ENDBRANCH  10  12
ENDBRANCH   9  10
ENDBRANCH   7   9
ENDBRANCH   4   7
ENDBRANCH   2   3
TORSDOF 10
ENDMDL
MODEL      226
REMARK 921   NORMALIZED FREE ENERGY PREDICTED BY IDOCK:   -2.76 KCAL/MOL
REMARK 922        TOTAL FREE ENERGY PREDICTED BY IDOCK:   -6.33 KCAL/MOL
REMARK 923 INTER-LIGAND FREE ENERGY PREDICTED BY IDOCK:   -5.53 KCAL/MOL
REMARK 924 INTRA-LIGAND FREE ENERGY PREDICTED BY IDOCK:   -0.80 KCAL/MOL
REMARK 927      BINDING AFFINITY PREDICTED BY RF-SCORE:    0.00 PKD
ROOT
HETATM    1  C   UNL     1      -9.556  20.364  67.891  1.00  0.00    -0.257 C  
HETATM    2  O   UNL     1      -9.271  19.017  67.472  1.00  0.00    -0.284 OA 
ENDROOT
BRANCH   2   3
HETATM    3  C   UNL     1     -10.025  18.601  66.414  1.00  0.00    -0.388 C  
HETATM    4  N   UNL     1     -10.485  17.317  66.613  1.00  0.00    -0.293 N  
HETATM    5  O   UNL     1     -10.239  19.290  65.426  1.00  0.00    -0.328 OA 
HETATM    6  H   UNL     1     -10.241  16.839  67.480  1.00  0.00     0.000 HD 
BRANCH   4   7
HETATM    7  C   UNL     1     -11.317  16.607  65.623  1.00  0.00     0.500 C  
HETATM    8  C   UNL     1     -10.429  16.313  64.372  1.00  0.00     1.121 C  
BRANCH   7   9
HETATM    9  C   UNL     1     -11.948  15.224  66.076  1.00  0.00     0.327 C  
BRANCH   9  10
HETATM   10  N   UNL     1     -11.989  14.001  65.207  1.00  0.00    -0.360 NA 
HETATM   11  H   UNL     1     -12.768  13.899  64.556  1.00  0.00     0.000 HD 
BRANCH  10  12
HETATM   12  C   UNL     1     -11.014  12.986  65.241  1.00  0.00    -0.284 A  
HETATM   13  N   UNL     1     -10.784  12.335  64.100  1.00  0.00    -0.339 NA 
HETATM   14  C   UNL     1      -9.949  11.293  64.178  1.00  0.00    -0.300 A  
HETATM   15  C   UNL     1      -9.249  10.911  65.307  1.00  0.00    -0.236 A  
HETATM   16  C   UNL     1      -9.472  11.616  66.476  1.00  0.00    -0.206 A  
HETATM   17  N   UNL     1     -10.421  12.633  66.448  1.00  0.00    -0.246 NA 
BRANCH  16  18
HETATM   18  C   UNL     1      -8.654  11.198  67.714  1.00  0.00    -0.131 A  
HETATM   19  C   UNL     1      -7.342  11.674  67.898  1.00  0.00    -0.096 A  
HETATM   20  N   UNL     1      -6.878  11.257  69.115  1.00  0.00    -0.098 NA 
HETATM   21  C   UNL     1      -8.861  10.475  68.982  1.00  0.00    -0.169 A  
HETATM   22  N   UNL     1      -7.757  10.507  69.762  1.00  0.00    -0.120 NA 
BRANCH  20  23
HETATM   23  C   UNL     1      -5.601  11.576  69.778  1.00  0.00    -0.081 C  
HETATM   24  C   UNL     1      -5.406  10.820  71.099  1.00  0.00    -0.078 C  
HETATM   25  C   UNL     1      -5.437  13.081  70.043  1.00  0.00    -0.112 C  
ENDBRANCH  20  23
BRANCH  21  26
HETATM   26  C   UNL     1      -9.971   9.702  69.540  1.00  0.00    -0.223 A  
HETATM   27  C   UNL     1     -11.004  10.276  70.322  1.00  0.00    -0.375 A  
HETATM   28  C   UNL     1     -11.938   9.466  70.977  1.00  0.00    -0.315 A  
HETATM   29 CL   UNL     1     -13.282  10.149  71.803  1.00  0.00    -0.531 Cl 
HETATM   30  C   UNL     1     -11.785   8.073  70.972  1.00  0.00    -0.295 A  
HETATM   31  C   UNL     1     -10.768   7.548  70.197  1.00  0.00    -0.239 A  
HETATM   32  C   UNL     1      -9.997   8.346  69.375  1.00  0.00    -0.191 A  
HETATM   33  F   UNL     1      -9.328   7.749  68.391  1.00  0.00    -0.143 F  
BRANCH  31  34
HETATM   34  N   UNL     1     -10.477   6.152  70.161  1.00  0.00    -0.212 N  
HETATM   35  H   UNL     1     -10.973   5.504  69.548  1.00  0.00     0.000 HD 
BRANCH  34  36
HETATM   36  S   UNL     1      -9.249   5.649  71.206  1.00  0.00    -0.147 S  
HETATM   37  O   UNL     1      -9.112   4.212  71.160  1.00  0.00    -0.111 OA 
HETATM   38  O   UNL     1      -8.141   6.539  70.930  1.00  0.00    -0.119 OA 
HETATM   39  C   UNL     1     -10.013   6.124  72.736  1.00  0.00    -0.172 C  
ENDBRANCH  34  36
ENDBRANCH  31  34
ENDBRANCH  21  26
ENDBRANCH  16  18
ENDBRANCH  10  12
ENDBRANCH   9  10
ENDBRANCH   7   9
ENDBRANCH   4   7
ENDBRANCH   2   3
TORSDOF 10
ENDMDL
MODEL      227
REMARK 921   NORMALIZED FREE ENERGY PREDICTED BY IDOCK:   -2.76 KCAL/MOL
REMARK 922        TOTAL FREE ENERGY PREDICTED BY IDOCK:   -6.33 KCAL/MOL
REMARK 923 INTER-LIGAND FREE ENERGY PREDICTED BY IDOCK:   -7.84 KCAL/MOL
REMARK 924 INTRA-LIGAND FREE ENERGY PREDICTED BY IDOCK:    1.52 KCAL/MOL
REMARK 927      BINDING AFFINITY PREDICTED BY RF-SCORE:    0.00 PKD
ROOT
HETATM    1  C   UNL     1      -7.470   7.115  62.505  1.00  0.00    -0.096 C  
HETATM    2  O   UNL     1      -6.959   6.916  63.835  1.00  0.00    -0.051 OA 
ENDROOT
BRANCH   2   3
HETATM    3  C   UNL     1      -7.237   7.944  64.688  1.00  0.00    -0.079 C  
HETATM    4  N   UNL     1      -8.597   8.151  64.780  1.00  0.00    -0.383 N  
HETATM    5  O   UNL     1      -6.377   8.588  65.272  1.00  0.00    -0.052 OA 
HETATM    6  H   UNL     1      -9.221   7.548  64.244  1.00  0.00     0.000 HD 
BRANCH   4   7
HETATM    7  C   UNL     1      -9.185   9.208  65.623  1.00  0.00    -0.234 C  
HETATM    8  C   UNL     1      -8.166   9.540  66.760  1.00  0.00    -0.113 C  
BRANCH   7   9
HETATM    9  C   UNL     1      -9.542  10.580  64.910  1.00  0.00    -0.277 C  
BRANCH   9  10
HETATM   10  N   UNL     1     -10.812  11.342  65.154  1.00  0.00    -0.241 NA 
HETATM   11  H   UNL     1     -11.670  10.997  64.724  1.00  0.00     0.000 HD 
BRANCH  10  12
HETATM   12  C   UNL     1     -10.884  12.507  65.943  1.00  0.00    -0.269 A  
HETATM   13  N   UNL     1     -10.607  13.662  65.337  1.00  0.00    -0.304 NA 
HETATM   14  C   UNL     1     -10.556  14.740  66.127  1.00  0.00    -0.311 A  
HETATM   15  C   UNL     1     -10.858  14.760  67.475  1.00  0.00    -0.287 A  
HETATM   16  C   UNL     1     -11.177  13.560  68.085  1.00  0.00    -0.272 A  
HETATM   17  N   UNL     1     -11.126  12.405  67.308  1.00  0.00    -0.266 NA 
BRANCH  16  18
HETATM   18  C   UNL     1     -11.547  13.609  69.581  1.00  0.00    -0.342 A  
HETATM   19  C   UNL     1     -11.595  14.838  70.265  1.00  0.00    -0.282 A  
HETATM   20  N   UNL     1     -12.054  14.629  71.535  1.00  0.00    -0.344 NA 
HETATM   21  C   UNL     1     -12.046  12.697  70.625  1.00  0.00    -0.226 A  
HETATM   22  N   UNL     1     -12.293  13.350  71.782  1.00  0.00    -0.006 NA 
BRANCH  20  23
HETATM   23  C   UNL     1     -12.352  15.618  72.587  1.00  0.00    -0.427 C  
HETATM   24  C   UNL     1     -11.388  16.812  72.577  1.00  0.00     0.600 C  
HETATM   25  C   UNL     1     -12.354  14.998  73.993  1.00  0.00    -0.646 C  
ENDBRANCH  20  23
BRANCH  21  26
HETATM   26  C   UNL     1     -12.275  11.253  70.687  1.00  0.00    -0.489 A  
HETATM   27  C   UNL     1     -13.125  10.640  71.641  1.00  0.00    -0.555 A  
HETATM   28  C   UNL     1     -13.167   9.247  71.769  1.00  0.00    -0.403 A  
HETATM   29 CL   UNL     1     -14.300   8.486  72.814  1.00  0.00    -0.202 Cl 
HETATM   30  C   UNL     1     -12.274   8.448  71.043  1.00  0.00    -0.181 A  
HETATM   31  C   UNL     1     -11.463   9.079  70.120  1.00  0.00    -0.062 A  
HETATM   32  C   UNL     1     -11.592  10.426  69.842  1.00  0.00    -0.284 A  
HETATM   33  F   UNL     1     -11.073  10.869  68.698  1.00  0.00    -0.211 F  
BRANCH  31  34
HETATM   34  N   UNL     1     -10.473   8.380  69.366  1.00  0.00    -0.220 N  
HETATM   35  H   UNL     1      -9.604   8.820  69.061  1.00  0.00     0.000 HD 
BRANCH  34  36
HETATM   36  S   UNL     1     -10.844   6.771  69.016  1.00  0.00    -0.237 S  
HETATM   37  O   UNL     1     -11.142   6.051  70.232  1.00  0.00    -0.328 OA 
HETATM   38  O   UNL     1     -11.777   6.838  67.911  1.00  0.00     0.347 OA 
HETATM   39  C   UNL     1      -9.254   6.273  68.407  1.00  0.00    -0.112 C  
ENDBRANCH  34  36
ENDBRANCH  31  34
ENDBRANCH  21  26
ENDBRANCH  16  18
ENDBRANCH  10  12
ENDBRANCH   9  10
ENDBRANCH   7   9
ENDBRANCH   4   7
ENDBRANCH   2   3
TORSDOF 10
ENDMDL
MODEL      228
REMARK 921   NORMALIZED FREE ENERGY PREDICTED BY IDOCK:   -2.59 KCAL/MOL
REMARK 922        TOTAL FREE ENERGY PREDICTED BY IDOCK:   -6.06 KCAL/MOL
REMARK 923 INTER-LIGAND FREE ENERGY PREDICTED BY IDOCK:   -5.07 KCAL/MOL
REMARK 924 INTRA-LIGAND FREE ENERGY PREDICTED BY IDOCK:   -0.99 KCAL/MOL
REMARK 927      BINDING AFFINITY PREDICTED BY RF-SCORE:    0.00 PKD
ROOT
HETATM    1  C   UNL     1      -5.818   3.030  64.493  1.00  0.00    -0.014 C  
HETATM    2  O   UNL     1      -5.897   4.154  65.388  1.00  0.00    -0.021 OA 
ENDROOT
BRANCH   2   3
HETATM    3  C   UNL     1      -6.918   4.067  66.289  1.00  0.00    -0.063 C  
HETATM    4  N   UNL     1      -8.104   3.757  65.658  1.00  0.00    -0.093 N  
HETATM    5  O   UNL     1      -6.777   4.255  67.489  1.00  0.00    -0.045 OA 
HETATM    6  H   UNL     1      -8.100   3.623  64.647  1.00  0.00     0.000 HD 
BRANCH   4   7
HETATM    7  C   UNL     1      -9.378   3.612  66.386  1.00  0.00    -0.182 C  
HETATM    8  C   UNL     1      -9.111   2.736  67.652  1.00  0.00    -0.219 C  
BRANCH   7   9
HETATM    9  C   UNL     1     -10.075   4.946  66.887  1.00  0.00    -0.222 C  
BRANCH   9  10
HETATM   10  N   UNL     1      -9.323   6.178  67.298  1.00  0.00    -0.113 NA 
HETATM   11  H   UNL     1      -9.018   6.254  68.269  1.00  0.00     0.000 HD 
BRANCH  10  12
HETATM   12  C   UNL     1      -9.014   7.234  66.419  1.00  0.00    -0.158 A  
HETATM   13  N   UNL     1      -8.477   6.901  65.244  1.00  0.00    -0.101 NA 
HETATM   14  C   UNL     1      -8.073   7.919  64.475  1.00  0.00    -0.114 A  
HETATM   15  C   UNL     1      -8.256   9.258  64.760  1.00  0.00    -0.149 A  
HETATM   16  C   UNL     1      -8.844   9.590  65.968  1.00  0.00    -0.156 A  
HETATM   17  N   UNL     1      -9.170   8.551  66.836  1.00  0.00    -0.150 NA 
BRANCH  16  18
HETATM   18  C   UNL     1      -9.072  11.088  66.250  1.00  0.00    -0.196 A  
HETATM   19  C   UNL     1     -10.139  11.775  65.641  1.00  0.00    -0.243 A  
HETATM   20  N   UNL     1     -10.195  13.048  66.136  1.00  0.00    -0.278 NA 
HETATM   21  C   UNL     1      -8.553  12.134  67.150  1.00  0.00    -0.185 A  
HETATM   22  N   UNL     1      -9.232  13.294  67.011  1.00  0.00    -0.231 NA 
BRANCH  20  23
HETATM   23  C   UNL     1     -11.187  14.104  65.865  1.00  0.00    -0.313 C  
HETATM   24  C   UNL     1     -12.429  13.585  65.128  1.00  0.00    -0.495 C  
HETATM   25  C   UNL     1     -10.595  15.276  65.065  1.00  0.00    -0.444 C  
ENDBRANCH  20  23
BRANCH  21  26
HETATM   26  C   UNL     1      -7.445  12.193  68.104  1.00  0.00    -0.114 A  
HETATM   27  C   UNL     1      -7.197  11.188  69.071  1.00  0.00    -0.118 A  
HETATM   28  C   UNL     1      -6.237  11.382  70.071  1.00  0.00    -0.148 A  
HETATM   29 CL   UNL     1      -5.818  10.117  71.157  1.00  0.00    -0.062 Cl 
HETATM   30  C   UNL     1      -5.602  12.624  70.205  1.00  0.00    -0.138 A  
HETATM   31  C   UNL     1      -5.867  13.580  69.242  1.00  0.00    -0.086 A  
HETATM   32  C   UNL     1      -6.641  13.297  68.133  1.00  0.00    -0.115 A  
HETATM   33  F   UNL     1      -6.529  14.108  67.084  1.00  0.00    -0.110 F  
BRANCH  31  34
HETATM   34  N   UNL     1      -5.329  14.900  69.305  1.00  0.00    -0.090 N  
HETATM   35  H   UNL     1      -4.360  15.109  69.064  1.00  0.00     0.000 HD 
BRANCH  34  36
HETATM   36  S   UNL     1      -6.414  16.092  69.809  1.00  0.00    -0.118 S  
HETATM   37  O   UNL     1      -6.356  17.228  68.918  1.00  0.00    -0.178 OA 
HETATM   38  O   UNL     1      -7.647  15.381  70.073  1.00  0.00    -0.082 OA 
HETATM   39  C   UNL     1      -5.637  16.504  71.349  1.00  0.00     0.472 C  
ENDBRANCH  34  36
ENDBRANCH  31  34
ENDBRANCH  21  26
ENDBRANCH  16  18
ENDBRANCH  10  12
ENDBRANCH   9  10
ENDBRANCH   7   9
ENDBRANCH   4   7
ENDBRANCH   2   3
TORSDOF 10
ENDMDL
MODEL      229
REMARK 921   NORMALIZED FREE ENERGY PREDICTED BY IDOCK:   -2.54 KCAL/MOL
REMARK 922        TOTAL FREE ENERGY PREDICTED BY IDOCK:   -5.99 KCAL/MOL
REMARK 923 INTER-LIGAND FREE ENERGY PREDICTED BY IDOCK:   -5.82 KCAL/MOL
REMARK 924 INTRA-LIGAND FREE ENERGY PREDICTED BY IDOCK:   -0.17 KCAL/MOL
REMARK 927      BINDING AFFINITY PREDICTED BY RF-SCORE:    0.00 PKD
ROOT
HETATM    1  C   UNL     1     -11.438  16.724  72.216  1.00  0.00     0.331 C  
HETATM    2  O   UNL     1     -12.480  16.291  73.110  1.00  0.00    -0.470 OA 
ENDROOT
BRANCH   2   3
HETATM    3  C   UNL     1     -12.976  15.055  72.814  1.00  0.00    -0.433 C  
HETATM    4  N   UNL     1     -12.023  14.278  72.192  1.00  0.00    -0.122 N  
HETATM    5  O   UNL     1     -14.123  14.710  73.066  1.00  0.00    -0.380 OA 
HETATM    6  H   UNL     1     -11.096  14.675  72.033  1.00  0.00     0.000 HD 
BRANCH   4   7
HETATM    7  C   UNL     1     -12.287  12.897  71.748  1.00  0.00     0.344 C  
HETATM    8  C   UNL     1     -13.790  12.580  72.032  1.00  0.00    -0.083 C  
BRANCH   7   9
HETATM    9  C   UNL     1     -12.029  12.574  70.216  1.00  0.00    -0.283 C  
BRANCH   9  10
HETATM   10  N   UNL     1     -12.249  13.560  69.106  1.00  0.00    -0.269 NA 
HETATM   11  H   UNL     1     -12.683  14.454  69.336  1.00  0.00     0.000 HD 
BRANCH  10  12
HETATM   12  C   UNL     1     -11.891  13.320  67.765  1.00  0.00    -0.353 A  
HETATM   13  N   UNL     1     -12.341  14.187  66.858  1.00  0.00    -0.364 NA 
HETATM   14  C   UNL     1     -12.100  13.876  65.580  1.00  0.00    -0.407 A  
HETATM   15  C   UNL     1     -11.352  12.798  65.146  1.00  0.00    -0.346 A  
HETATM   16  C   UNL     1     -10.863  11.924  66.100  1.00  0.00    -0.292 A  
HETATM   17  N   UNL     1     -11.196  12.163  67.430  1.00  0.00    -0.282 NA 
BRANCH  16  18
HETATM   18  C   UNL     1     -10.000  10.748  65.598  1.00  0.00    -0.317 A  
HETATM   19  C   UNL     1      -9.440  10.774  64.306  1.00  0.00    -0.264 A  
HETATM   20  N   UNL     1      -8.633   9.683  64.144  1.00  0.00    -0.180 NA 
HETATM   21  C   UNL     1      -9.395   9.516  66.133  1.00  0.00    -0.198 A  
HETATM   22  N   UNL     1      -8.622   8.898  65.211  1.00  0.00    -0.175 NA 
BRANCH  20  23
HETATM   23  C   UNL     1      -7.774   9.328  63.000  1.00  0.00    -0.121 C  
HETATM   24  C   UNL     1      -6.727   8.260  63.345  1.00  0.00    -0.084 C  
HETATM   25  C   UNL     1      -7.055  10.549  62.405  1.00  0.00    -0.158 C  
ENDBRANCH  20  23
BRANCH  21  26
HETATM   26  C   UNL     1      -9.494   8.807  67.409  1.00  0.00    -0.183 A  
HETATM   27  C   UNL     1     -10.718   8.609  68.096  1.00  0.00    -0.116 A  
HETATM   28  C   UNL     1     -10.731   8.085  69.393  1.00  0.00    -0.159 A  
HETATM   29 CL   UNL     1     -12.210   7.699  70.179  1.00  0.00     0.349 Cl 
HETATM   30  C   UNL     1      -9.527   7.870  70.076  1.00  0.00    -0.157 A  
HETATM   31  C   UNL     1      -8.353   8.071  69.374  1.00  0.00    -0.131 A  
HETATM   32  C   UNL     1      -8.358   8.369  68.026  1.00  0.00    -0.128 A  
HETATM   33  F   UNL     1      -7.230   8.161  67.348  1.00  0.00    -0.079 F  
BRANCH  31  34
HETATM   34  N   UNL     1      -7.068   7.944  69.980  1.00  0.00    -0.050 N  
HETATM   35  H   UNL     1      -6.516   7.088  69.920  1.00  0.00     0.000 HD 
BRANCH  34  36
HETATM   36  S   UNL     1      -6.526   9.314  70.805  1.00  0.00    -0.088 S  
HETATM   37  O   UNL     1      -7.550  10.332  70.807  1.00  0.00    -0.075 OA 
HETATM   38  O   UNL     1      -5.944   8.803  72.028  1.00  0.00    -0.062 OA 
HETATM   39  C   UNL     1      -5.227   9.781  69.691  1.00  0.00    -0.034 C  
ENDBRANCH  34  36
ENDBRANCH  31  34
ENDBRANCH  21  26
ENDBRANCH  16  18
ENDBRANCH  10  12
ENDBRANCH   9  10
ENDBRANCH   7   9
ENDBRANCH   4   7
ENDBRANCH   2   3
TORSDOF 10
ENDMDL
MODEL      230
REMARK 921   NORMALIZED FREE ENERGY PREDICTED BY IDOCK:   -2.52 KCAL/MOL
REMARK 922        TOTAL FREE ENERGY PREDICTED BY IDOCK:   -5.95 KCAL/MOL
REMARK 923 INTER-LIGAND FREE ENERGY PREDICTED BY IDOCK:   -5.71 KCAL/MOL
REMARK 924 INTRA-LIGAND FREE ENERGY PREDICTED BY IDOCK:   -0.24 KCAL/MOL
REMARK 927      BINDING AFFINITY PREDICTED BY RF-SCORE:    0.00 PKD
ROOT
HETATM    1  C   UNL     1      -9.547  10.354  65.158  1.00  0.00    -0.271 C  
HETATM    2  O   UNL     1      -8.121  10.512  65.267  1.00  0.00    -0.158 OA 
ENDROOT
BRANCH   2   3
HETATM    3  C   UNL     1      -7.701  10.850  66.521  1.00  0.00    -0.149 C  
HETATM    4  N   UNL     1      -7.638   9.740  67.335  1.00  0.00    -0.091 N  
HETATM    5  O   UNL     1      -7.435  11.996  66.857  1.00  0.00    -0.131 OA 
HETATM    6  H   UNL     1      -7.885   8.830  66.942  1.00  0.00     0.000 HD 
BRANCH   4   7
HETATM    7  C   UNL     1      -7.226   9.811  68.749  1.00  0.00    -0.072 C  
HETATM    8  C   UNL     1      -5.713   9.430  68.829  1.00  0.00    -0.040 C  
BRANCH   7   9
HETATM    9  C   UNL     1      -7.387  11.213  69.474  1.00  0.00    -0.018 C  
BRANCH   9  10
HETATM   10  N   UNL     1      -6.234  12.096  69.850  1.00  0.00    -0.236 NA 
HETATM   11  H   UNL     1      -5.366  11.651  70.150  1.00  0.00     0.000 HD 
BRANCH  10  12
HETATM   12  C   UNL     1      -6.282  13.503  69.812  1.00  0.00    -0.116 A  
HETATM   13  N   UNL     1      -5.183  14.153  70.199  1.00  0.00    -0.091 NA 
HETATM   14  C   UNL     1      -5.288  15.484  70.278  1.00  0.00    -0.133 A  
HETATM   15  C   UNL     1      -6.393  16.224  69.904  1.00  0.00    -0.131 A  
HETATM   16  C   UNL     1      -7.515  15.539  69.473  1.00  0.00    -0.200 A  
HETATM   17  N   UNL     1      -7.471  14.148  69.490  1.00  0.00     0.074 NA 
BRANCH  16  18
HETATM   18  C   UNL     1      -8.725  16.384  69.026  1.00  0.00    -0.233 A  
HETATM   19  C   UNL     1      -8.617  17.783  68.917  1.00  0.00    -0.123 A  
HETATM   20  N   UNL     1      -9.778  18.285  68.397  1.00  0.00    -0.339 NA 
HETATM   21  C   UNL     1     -10.082  16.173  68.493  1.00  0.00    -0.241 A  
HETATM   22  N   UNL     1     -10.681  17.342  68.173  1.00  0.00    -0.383 NA 
BRANCH  20  23
HETATM   23  C   UNL     1     -10.102  19.674  68.025  1.00  0.00    -0.437 C  
HETATM   24  C   UNL     1     -10.711  20.478  69.182  1.00  0.00     0.592 C  
HETATM   25  C   UNL     1     -11.050  19.753  66.818  1.00  0.00    -0.137 C  
ENDBRANCH  20  23
BRANCH  21  26
HETATM   26  C   UNL     1     -10.921  14.991  68.291  1.00  0.00    -0.274 A  
HETATM   27  C   UNL     1     -10.700  13.757  68.951  1.00  0.00    -0.249 A  
HETATM   28  C   UNL     1     -11.419  12.613  68.587  1.00  0.00    -0.308 A  
HETATM   29 CL   UNL     1     -11.270  11.150  69.476  1.00  0.00    -0.317 Cl 
HETATM   30  C   UNL     1     -12.275  12.646  67.478  1.00  0.00     0.049 A  
HETATM   31  C   UNL     1     -12.470  13.867  66.860  1.00  0.00    -0.162 A  
HETATM   32  C   UNL     1     -11.930  15.031  67.371  1.00  0.00    -0.041 A  
HETATM   33  F   UNL     1     -12.467  16.182  66.972  1.00  0.00     1.152 F  
BRANCH  31  34
HETATM   34  N   UNL     1     -13.269  14.012  65.687  1.00  0.00    -0.624 N  
HETATM   35  H   UNL     1     -14.289  14.021  65.717  1.00  0.00     0.000 HD 
BRANCH  34  36
HETATM   36  S   UNL     1     -12.403  14.170  64.246  1.00  0.00    -0.276 S  
HETATM   37  O   UNL     1     -12.864  13.201  63.279  1.00  0.00    -0.567 OA 
HETATM   38  O   UNL     1     -12.397  15.591  63.972  1.00  0.00    -0.650 OA 
HETATM   39  C   UNL     1     -10.809  13.686  64.857  1.00  0.00    -0.375 C  
ENDBRANCH  34  36
ENDBRANCH  31  34
ENDBRANCH  21  26
ENDBRANCH  16  18
ENDBRANCH  10  12
ENDBRANCH   9  10
ENDBRANCH   7   9
ENDBRANCH   4   7
ENDBRANCH   2   3
TORSDOF 10
ENDMDL
MODEL      231
REMARK 921   NORMALIZED FREE ENERGY PREDICTED BY IDOCK:   -2.45 KCAL/MOL
REMARK 922        TOTAL FREE ENERGY PREDICTED BY IDOCK:   -5.84 KCAL/MOL
REMARK 923 INTER-LIGAND FREE ENERGY PREDICTED BY IDOCK:   -4.61 KCAL/MOL
REMARK 924 INTRA-LIGAND FREE ENERGY PREDICTED BY IDOCK:   -1.23 KCAL/MOL
REMARK 927      BINDING AFFINITY PREDICTED BY RF-SCORE:    0.00 PKD
ROOT
HETATM    1  C   UNL     1     -12.321  14.495  67.282  1.00  0.00     0.022 C  
HETATM    2  O   UNL     1     -11.437  15.290  68.092  1.00  0.00    -0.328 OA 
ENDROOT
BRANCH   2   3
HETATM    3  C   UNL     1     -10.218  15.508  67.519  1.00  0.00    -0.254 C  
HETATM    4  N   UNL     1      -9.379  14.434  67.724  1.00  0.00    -0.195 N  
HETATM    5  O   UNL     1      -9.928  16.535  66.920  1.00  0.00    -0.254 OA 
HETATM    6  H   UNL     1      -9.732  13.629  68.242  1.00  0.00     0.000 HD 
BRANCH   4   7
HETATM    7  C   UNL     1      -7.991  14.401  67.226  1.00  0.00    -0.180 C  
HETATM    8  C   UNL     1      -7.180  15.496  67.990  1.00  0.00    -0.132 C  
BRANCH   7   9
HETATM    9  C   UNL     1      -7.199  13.037  67.396  1.00  0.00    -0.116 C  
BRANCH   9  10
HETATM   10  N   UNL     1      -7.848  11.684  67.356  1.00  0.00    -0.139 NA 
HETATM   11  H   UNL     1      -8.861  11.640  67.244  1.00  0.00     0.000 HD 
BRANCH  10  12
HETATM   12  C   UNL     1      -7.137  10.473  67.463  1.00  0.00    -0.089 A  
HETATM   13  N   UNL     1      -5.811  10.562  67.583  1.00  0.00    -0.044 NA 
HETATM   14  C   UNL     1      -5.142   9.405  67.556  1.00  0.00    -0.037 A  
HETATM   15  C   UNL     1      -5.716   8.149  67.513  1.00  0.00    -0.039 A  
HETATM   16  C   UNL     1      -7.094   8.069  67.422  1.00  0.00    -0.083 A  
HETATM   17  N   UNL     1      -7.807   9.262  67.334  1.00  0.00    -0.099 NA 
BRANCH  16  18
HETATM   18  C   UNL     1      -7.716   6.659  67.412  1.00  0.00    -0.109 A  
HETATM   19  C   UNL     1      -8.273   6.132  66.231  1.00  0.00    -0.116 A  
HETATM   20  N   UNL     1      -8.651   4.837  66.451  1.00  0.00    -0.113 NA 
HETATM   21  C   UNL     1      -7.824   5.493  68.307  1.00  0.00    -0.089 A  
HETATM   22  N   UNL     1      -8.426   4.448  67.696  1.00  0.00    -0.099 NA 
BRANCH  20  23
HETATM   23  C   UNL     1      -9.199   3.858  65.495  1.00  0.00    -0.151 C  
HETATM   24  C   UNL     1      -8.763   2.417  65.797  1.00  0.00    -0.121 C  
HETATM   25  C   UNL     1      -8.831   4.188  64.039  1.00  0.00    -0.126 C  
ENDBRANCH  20  23
BRANCH  21  26
HETATM   26  C   UNL     1      -7.470   5.252  69.706  1.00  0.00    -0.065 A  
HETATM   27  C   UNL     1      -6.663   4.166  70.128  1.00  0.00    -0.033 A  
HETATM   28  C   UNL     1      -6.506   3.881  71.489  1.00  0.00    -0.015 A  
HETATM   29 CL   UNL     1      -5.413   2.665  72.021  1.00  0.00    -0.004 Cl 
HETATM   30  C   UNL     1      -7.248   4.587  72.445  1.00  0.00    -0.075 A  
HETATM   31  C   UNL     1      -8.022   5.641  71.998  1.00  0.00    -0.107 A  
HETATM   32  C   UNL     1      -7.990   6.055  70.680  1.00  0.00    -0.111 A  
HETATM   33  F   UNL     1      -8.435   7.281  70.412  1.00  0.00    -0.130 F  
BRANCH  31  34
HETATM   34  N   UNL     1      -8.867   6.394  72.867  1.00  0.00    -0.125 N  
HETATM   35  H   UNL     1      -8.516   7.155  73.448  1.00  0.00     0.000 HD 
BRANCH  34  36
HETATM   36  S   UNL     1     -10.491   5.931  72.864  1.00  0.00    -0.236 S  
HETATM   37  O   UNL     1     -10.786   5.153  71.684  1.00  0.00    -0.197 OA 
HETATM   38  O   UNL     1     -10.735   5.429  74.199  1.00  0.00    -0.274 OA 
HETATM   39  C   UNL     1     -11.211   7.545  72.706  1.00  0.00    -0.352 C  
ENDBRANCH  34  36
ENDBRANCH  31  34
ENDBRANCH  21  26
ENDBRANCH  16  18
ENDBRANCH  10  12
ENDBRANCH   9  10
ENDBRANCH   7   9
ENDBRANCH   4   7
ENDBRANCH   2   3
TORSDOF 10
ENDMDL
MODEL      232
REMARK 921   NORMALIZED FREE ENERGY PREDICTED BY IDOCK:   -2.41 KCAL/MOL
REMARK 922        TOTAL FREE ENERGY PREDICTED BY IDOCK:   -5.78 KCAL/MOL
REMARK 923 INTER-LIGAND FREE ENERGY PREDICTED BY IDOCK:   -4.29 KCAL/MOL
REMARK 924 INTRA-LIGAND FREE ENERGY PREDICTED BY IDOCK:   -1.49 KCAL/MOL
REMARK 927      BINDING AFFINITY PREDICTED BY RF-SCORE:    0.00 PKD
ROOT
HETATM    1  C   UNL     1     -13.373  10.455  70.062  1.00  0.00     0.611 C  
HETATM    2  O   UNL     1     -12.116  10.030  69.506  1.00  0.00     0.038 OA 
ENDROOT
BRANCH   2   3
HETATM    3  C   UNL     1     -11.289   9.433  70.412  1.00  0.00    -0.248 C  
HETATM    4  N   UNL     1     -11.516   8.074  70.464  1.00  0.00    -0.402 N  
HETATM    5  O   UNL     1     -10.472  10.045  71.087  1.00  0.00    -0.082 OA 
HETATM    6  H   UNL     1     -12.227   7.673  69.851  1.00  0.00     0.000 HD 
BRANCH   4   7
HETATM    7  C   UNL     1     -10.773   7.177  71.367  1.00  0.00    -0.225 C  
HETATM    8  C   UNL     1     -10.939   5.716  70.837  1.00  0.00    -0.257 C  
BRANCH   7   9
HETATM    9  C   UNL     1      -9.216   7.438  71.519  1.00  0.00    -0.140 C  
BRANCH   9  10
HETATM   10  N   UNL     1      -8.167   6.720  70.722  1.00  0.00    -0.122 NA 
HETATM   11  H   UNL     1      -8.075   5.711  70.846  1.00  0.00     0.000 HD 
BRANCH  10  12
HETATM   12  C   UNL     1      -7.303   7.359  69.812  1.00  0.00    -0.083 A  
HETATM   13  N   UNL     1      -5.996   7.277  70.064  1.00  0.00    -0.024 NA 
HETATM   14  C   UNL     1      -5.199   7.994  69.264  1.00  0.00    -0.026 A  
HETATM   15  C   UNL     1      -5.613   8.718  68.163  1.00  0.00    -0.035 A  
HETATM   16  C   UNL     1      -6.969   8.769  67.892  1.00  0.00    -0.078 A  
HETATM   17  N   UNL     1      -7.829   8.124  68.776  1.00  0.00    -0.111 NA 
BRANCH  16  18
HETATM   18  C   UNL     1      -7.406   9.551  66.638  1.00  0.00    -0.090 A  
HETATM   19  C   UNL     1      -7.097   9.069  65.352  1.00  0.00    -0.081 A  
HETATM   20  N   UNL     1      -7.688   9.873  64.417  1.00  0.00    -0.138 NA 
HETATM   21  C   UNL     1      -8.248  10.712  66.299  1.00  0.00    -0.153 A  
HETATM   22  N   UNL     1      -8.349  10.883  64.962  1.00  0.00    -0.041 NA 
BRANCH  20  23
HETATM   23  C   UNL     1      -7.719   9.720  62.951  1.00  0.00    -0.127 C  
HETATM   24  C   UNL     1      -9.143   9.604  62.391  1.00  0.00    -0.290 C  
HETATM   25  C   UNL     1      -6.901   8.511  62.469  1.00  0.00    -0.094 C  
ENDBRANCH  20  23
BRANCH  21  26
HETATM   26  C   UNL     1      -8.940  11.730  67.091  1.00  0.00    -0.177 A  
HETATM   27  C   UNL     1     -10.241  12.201  66.785  1.00  0.00    -0.224 A  
HETATM   28  C   UNL     1     -10.781  13.298  67.466  1.00  0.00    -0.250 A  
HETATM   29 CL   UNL     1     -12.410  13.785  67.214  1.00  0.00    -0.304 Cl 
HETATM   30  C   UNL     1      -9.991  14.023  68.368  1.00  0.00    -0.236 A  
HETATM   31  C   UNL     1      -8.729  13.533  68.644  1.00  0.00    -0.001 A  
HETATM   32  C   UNL     1      -8.294  12.323  68.137  1.00  0.00    -0.174 A  
HETATM   33  F   UNL     1      -7.261  11.741  68.742  1.00  0.00    -0.088 F  
BRANCH  31  34
HETATM   34  N   UNL     1      -7.811  14.216  69.497  1.00  0.00    -0.335 N  
HETATM   35  H   UNL     1      -7.479  13.818  70.375  1.00  0.00     0.000 HD 
BRANCH  34  36
HETATM   36  S   UNL     1      -7.317  15.734  68.946  1.00  0.00    -0.176 S  
HETATM   37  O   UNL     1      -7.242  15.742  67.504  1.00  0.00    -0.148 OA 
HETATM   38  O   UNL     1      -8.132  16.678  69.681  1.00  0.00     0.145 OA 
HETATM   39  C   UNL     1      -5.678  15.725  69.625  1.00  0.00    -0.129 C  
ENDBRANCH  34  36
ENDBRANCH  31  34
ENDBRANCH  21  26
ENDBRANCH  16  18
ENDBRANCH  10  12
ENDBRANCH   9  10
ENDBRANCH   7   9
ENDBRANCH   4   7
ENDBRANCH   2   3
TORSDOF 10
ENDMDL
MODEL      233
REMARK 921   NORMALIZED FREE ENERGY PREDICTED BY IDOCK:   -2.39 KCAL/MOL
REMARK 922        TOTAL FREE ENERGY PREDICTED BY IDOCK:   -5.75 KCAL/MOL
REMARK 923 INTER-LIGAND FREE ENERGY PREDICTED BY IDOCK:   -6.01 KCAL/MOL
REMARK 924 INTRA-LIGAND FREE ENERGY PREDICTED BY IDOCK:    0.26 KCAL/MOL
REMARK 927      BINDING AFFINITY PREDICTED BY RF-SCORE:    0.00 PKD
ROOT
HETATM    1  C   UNL     1     -10.992   3.603  63.974  1.00  0.00    -0.045 C  
HETATM    2  O   UNL     1      -9.564   3.681  64.129  1.00  0.00    -0.139 OA 
ENDROOT
BRANCH   2   3
HETATM    3  C   UNL     1      -9.170   4.186  65.335  1.00  0.00    -0.151 C  
HETATM    4  N   UNL     1     -10.225   4.794  65.981  1.00  0.00    -0.261 N  
HETATM    5  O   UNL     1      -8.025   4.107  65.758  1.00  0.00    -0.093 OA 
HETATM    6  H   UNL     1     -11.140   4.799  65.528  1.00  0.00     0.000 HD 
BRANCH   4   7
HETATM    7  C   UNL     1     -10.086   5.439  67.299  1.00  0.00    -0.193 C  
HETATM    8  C   UNL     1     -11.188   6.540  67.415  1.00  0.00    -0.301 C  
BRANCH   7   9
HETATM    9  C   UNL     1     -10.231   4.506  68.574  1.00  0.00     0.149 C  
BRANCH   9  10
HETATM   10  N   UNL     1     -10.190   5.010  69.987  1.00  0.00    -0.273 NA 
HETATM   11  H   UNL     1     -10.553   4.406  70.725  1.00  0.00     0.000 HD 
BRANCH  10  12
HETATM   12  C   UNL     1      -9.678   6.271  70.351  1.00  0.00    -0.165 A  
HETATM   13  N   UNL     1      -9.755   6.602  71.641  1.00  0.00    -0.164 NA 
HETATM   14  C   UNL     1      -9.383   7.848  71.950  1.00  0.00    -0.154 A  
HETATM   15  C   UNL     1      -8.843   8.764  71.067  1.00  0.00    -0.260 A  
HETATM   16  C   UNL     1      -8.737   8.397  69.737  1.00  0.00    -0.133 A  
HETATM   17  N   UNL     1      -9.224   7.145  69.370  1.00  0.00    -0.148 NA 
BRANCH  16  18
HETATM   18  C   UNL     1      -8.100   9.419  68.775  1.00  0.00    -0.103 A  
HETATM   19  C   UNL     1      -6.922   9.101  68.072  1.00  0.00    -0.077 A  
HETATM   20  N   UNL     1      -6.626  10.117  67.207  1.00  0.00    -0.068 NA 
HETATM   21  C   UNL     1      -8.423  10.730  68.185  1.00  0.00    -0.125 A  
HETATM   22  N   UNL     1      -7.490  11.118  67.287  1.00  0.00    -0.112 NA 
BRANCH  20  23
HETATM   23  C   UNL     1      -5.545  10.197  66.209  1.00  0.00    -0.057 C  
HETATM   24  C   UNL     1      -5.625  11.458  65.338  1.00  0.00     0.646 C  
HETATM   25  C   UNL     1      -5.501   8.966  65.290  1.00  0.00    -0.038 C  
ENDBRANCH  20  23
BRANCH  21  26
HETATM   26  C   UNL     1      -9.493  11.705  68.401  1.00  0.00    -0.193 A  
HETATM   27  C   UNL     1     -10.438  11.602  69.451  1.00  0.00     0.061 A  
HETATM   28  C   UNL     1     -11.543  12.460  69.503  1.00  0.00    -0.286 A  
HETATM   29 CL   UNL     1     -12.614  12.448  70.848  1.00  0.00    -0.397 Cl 
HETATM   30  C   UNL     1     -11.796  13.345  68.447  1.00  0.00    -0.401 A  
HETATM   31  C   UNL     1     -10.850  13.420  67.441  1.00  0.00    -0.268 A  
HETATM   32  C   UNL     1      -9.654  12.734  67.518  1.00  0.00    -0.192 A  
HETATM   33  F   UNL     1      -8.658  13.150  66.739  1.00  0.00    -0.202 F  
BRANCH  31  34
HETATM   34  N   UNL     1     -11.026  14.238  66.285  1.00  0.00    -0.312 N  
HETATM   35  H   UNL     1     -10.877  15.247  66.300  1.00  0.00     0.000 HD 
BRANCH  34  36
HETATM   36  S   UNL     1     -11.499  13.413  64.890  1.00  0.00    -0.340 S  
HETATM   37  O   UNL     1     -10.341  12.894  64.201  1.00  0.00    -0.410 OA 
HETATM   38  O   UNL     1     -12.590  12.562  65.315  1.00  0.00    -0.645 OA 
HETATM   39  C   UNL     1     -12.154  14.795  63.991  1.00  0.00    -0.161 C  
ENDBRANCH  34  36
ENDBRANCH  31  34
ENDBRANCH  21  26
ENDBRANCH  16  18
ENDBRANCH  10  12
ENDBRANCH   9  10
ENDBRANCH   7   9
ENDBRANCH   4   7
ENDBRANCH   2   3
TORSDOF 10
ENDMDL
MODEL      234
REMARK 921   NORMALIZED FREE ENERGY PREDICTED BY IDOCK:   -2.26 KCAL/MOL
REMARK 922        TOTAL FREE ENERGY PREDICTED BY IDOCK:   -5.54 KCAL/MOL
REMARK 923 INTER-LIGAND FREE ENERGY PREDICTED BY IDOCK:   -6.34 KCAL/MOL
REMARK 924 INTRA-LIGAND FREE ENERGY PREDICTED BY IDOCK:    0.80 KCAL/MOL
REMARK 927      BINDING AFFINITY PREDICTED BY RF-SCORE:    0.00 PKD
ROOT
HETATM    1  C   UNL     1     -10.589  12.801  67.971  1.00  0.00    -0.226 C  
HETATM    2  O   UNL     1     -11.033  13.689  66.929  1.00  0.00    -0.285 OA 
ENDROOT
BRANCH   2   3
HETATM    3  C   UNL     1     -10.890  13.174  65.673  1.00  0.00    -0.278 C  
HETATM    4  N   UNL     1     -10.797  11.800  65.713  1.00  0.00    -0.284 N  
HETATM    5  O   UNL     1     -10.841  13.863  64.663  1.00  0.00    -0.390 OA 
HETATM    6  H   UNL     1     -10.850  11.331  66.618  1.00  0.00     0.000 HD 
BRANCH   4   7
HETATM    7  C   UNL     1     -10.623  10.978  64.501  1.00  0.00    -0.313 C  
HETATM    8  C   UNL     1     -11.038  11.845  63.269  1.00  0.00    -0.390 C  
BRANCH   7   9
HETATM    9  C   UNL     1      -9.164  10.429  64.208  1.00  0.00    -0.255 C  
BRANCH   9  10
HETATM   10  N   UNL     1      -8.322   9.714  65.224  1.00  0.00    -0.127 NA 
HETATM   11  H   UNL     1      -8.040   8.753  65.025  1.00  0.00     0.000 HD 
BRANCH  10  12
HETATM   12  C   UNL     1      -7.900  10.293  66.436  1.00  0.00    -0.119 A  
HETATM   13  N   UNL     1      -7.613  11.596  66.413  1.00  0.00     0.007 NA 
HETATM   14  C   UNL     1      -7.094  12.101  67.537  1.00  0.00    -0.135 A  
HETATM   15  C   UNL     1      -6.929  11.411  68.723  1.00  0.00    -0.097 A  
HETATM   16  C   UNL     1      -7.261  10.069  68.744  1.00  0.00    -0.076 A  
HETATM   17  N   UNL     1      -7.697   9.492  67.554  1.00  0.00    -0.095 NA 
BRANCH  16  18
HETATM   18  C   UNL     1      -7.104   9.327  70.086  1.00  0.00    -0.072 A  
HETATM   19  C   UNL     1      -5.991   9.574  70.912  1.00  0.00    -0.073 A  
HETATM   20  N   UNL     1      -6.140   8.887  72.085  1.00  0.00    -0.103 NA 
HETATM   21  C   UNL     1      -7.890   8.428  70.949  1.00  0.00    -0.098 A  
HETATM   22  N   UNL     1      -7.251   8.166  72.111  1.00  0.00    -0.085 NA 
BRANCH  20  23
HETATM   23  C   UNL     1      -5.280   8.901  73.282  1.00  0.00    -0.077 C  
HETATM   24  C   UNL     1      -5.214   7.540  73.988  1.00  0.00    -0.046 C  
HETATM   25  C   UNL     1      -5.712   9.965  74.303  1.00  0.00     0.257 C  
ENDBRANCH  20  23
BRANCH  21  26
HETATM   26  C   UNL     1      -9.168   7.733  70.794  1.00  0.00    -0.157 A  
HETATM   27  C   UNL     1      -9.794   7.012  71.841  1.00  0.00    -0.173 A  
HETATM   28  C   UNL     1     -10.920   6.220  71.589  1.00  0.00    -0.261 A  
HETATM   29 CL   UNL     1     -11.777   5.461  72.871  1.00  0.00    -0.312 Cl 
HETATM   30  C   UNL     1     -11.364   6.030  70.274  1.00  0.00    -0.336 A  
HETATM   31  C   UNL     1     -10.732   6.751  69.279  1.00  0.00    -0.253 A  
HETATM   32  C   UNL     1      -9.773   7.701  69.570  1.00  0.00    -0.168 A  
HETATM   33  F   UNL     1      -9.504   8.609  68.634  1.00  0.00    -0.141 F  
BRANCH  31  34
HETATM   34  N   UNL     1     -11.056   6.596  67.898  1.00  0.00    -0.518 N  
HETATM   35  H   UNL     1     -11.745   7.183  67.427  1.00  0.00     0.000 HD 
BRANCH  34  36
HETATM   36  S   UNL     1     -10.214   5.369  67.099  1.00  0.00    -0.234 S  
HETATM   37  O   UNL     1      -9.868   4.317  68.025  1.00  0.00    -0.131 OA 
HETATM   38  O   UNL     1     -10.979   5.118  65.896  1.00  0.00    -0.170 OA 
HETATM   39  C   UNL     1      -8.759   6.294  66.682  1.00  0.00    -0.126 C  
ENDBRANCH  34  36
ENDBRANCH  31  34
ENDBRANCH  21  26
ENDBRANCH  16  18
ENDBRANCH  10  12
ENDBRANCH   9  10
ENDBRANCH   7   9
ENDBRANCH   4   7
ENDBRANCH   2   3
TORSDOF 10
ENDMDL
MODEL      235
REMARK 921   NORMALIZED FREE ENERGY PREDICTED BY IDOCK:   -2.24 KCAL/MOL
REMARK 922        TOTAL FREE ENERGY PREDICTED BY IDOCK:   -5.51 KCAL/MOL
REMARK 923 INTER-LIGAND FREE ENERGY PREDICTED BY IDOCK:   -6.45 KCAL/MOL
REMARK 924 INTRA-LIGAND FREE ENERGY PREDICTED BY IDOCK:    0.94 KCAL/MOL
REMARK 927      BINDING AFFINITY PREDICTED BY RF-SCORE:    0.00 PKD
ROOT
HETATM    1  C   UNL     1     -12.396  15.234  73.220  1.00  0.00    -0.475 C  
HETATM    2  O   UNL     1     -13.416  14.229  73.084  1.00  0.00    -0.632 OA 
ENDROOT
BRANCH   2   3
HETATM    3  C   UNL     1     -13.397  13.589  71.878  1.00  0.00    -0.443 C  
HETATM    4  N   UNL     1     -13.235  12.231  72.046  1.00  0.00    -0.474 N  
HETATM    5  O   UNL     1     -13.500  14.168  70.805  1.00  0.00    -0.208 OA 
HETATM    6  H   UNL     1     -13.160  11.860  72.993  1.00  0.00     0.000 HD 
BRANCH   4   7
HETATM    7  C   UNL     1     -13.166  11.291  70.911  1.00  0.00     0.172 C  
HETATM    8  C   UNL     1     -11.912  11.662  70.056  1.00  0.00    -0.429 C  
BRANCH   7   9
HETATM    9  C   UNL     1     -13.046   9.749  71.262  1.00  0.00    -0.381 C  
BRANCH   9  10
HETATM   10  N   UNL     1     -12.122   9.201  72.310  1.00  0.00    -0.298 NA 
HETATM   11  H   UNL     1     -12.401   9.284  73.288  1.00  0.00     0.000 HD 
BRANCH  10  12
HETATM   12  C   UNL     1     -10.892   8.579  72.020  1.00  0.00    -0.335 A  
HETATM   13  N   UNL     1     -10.201   8.100  73.055  1.00  0.00    -0.281 NA 
HETATM   14  C   UNL     1      -8.981   7.628  72.777  1.00  0.00    -0.161 A  
HETATM   15  C   UNL     1      -8.436   7.514  71.512  1.00  0.00    -0.120 A  
HETATM   16  C   UNL     1      -9.177   7.984  70.443  1.00  0.00    -0.155 A  
HETATM   17  N   UNL     1     -10.403   8.584  70.718  1.00  0.00    -0.193 NA 
BRANCH  16  18
HETATM   18  C   UNL     1      -8.567   7.814  69.037  1.00  0.00    -0.135 A  
HETATM   19  C   UNL     1      -8.188   8.940  68.282  1.00  0.00    -0.121 A  
HETATM   20  N   UNL     1      -7.574   8.525  67.133  1.00  0.00    -0.095 NA 
HETATM   21  C   UNL     1      -8.077   6.727  68.170  1.00  0.00    -0.115 A  
HETATM   22  N   UNL     1      -7.532   7.205  67.030  1.00  0.00    -0.095 NA 
BRANCH  20  23
HETATM   23  C   UNL     1      -6.937   9.335  66.079  1.00  0.00    -0.089 C  
HETATM   24  C   UNL     1      -6.890  10.831  66.419  1.00  0.00    -0.135 C  
HETATM   25  C   UNL     1      -7.618   9.162  64.712  1.00  0.00    -0.108 C  
ENDBRANCH  20  23
BRANCH  21  26
HETATM   26  C   UNL     1      -8.104   5.267  68.260  1.00  0.00    -0.094 A  
HETATM   27  C   UNL     1      -7.867   4.415  67.153  1.00  0.00    -0.097 A  
HETATM   28  C   UNL     1      -8.081   3.036  67.255  1.00  0.00    -0.078 A  
HETATM   29 CL   UNL     1      -7.655   1.974  65.972  1.00  0.00    -0.066 Cl 
HETATM   30  C   UNL     1      -8.656   2.498  68.414  1.00  0.00    -0.110 A  
HETATM   31  C   UNL     1      -8.871   3.358  69.474  1.00  0.00    -0.092 A  
HETATM   32  C   UNL     1      -8.444   4.671  69.441  1.00  0.00    -0.081 A  
HETATM   33  F   UNL     1      -8.329   5.309  70.604  1.00  0.00    -0.102 F  
BRANCH  31  34
HETATM   34  N   UNL     1      -9.506   2.940  70.682  1.00  0.00    -0.154 N  
HETATM   35  H   UNL     1     -10.477   2.628  70.711  1.00  0.00     0.000 HD 
BRANCH  34  36
HETATM   36  S   UNL     1      -8.533   3.001  72.061  1.00  0.00    -0.070 S  
HETATM   37  O   UNL     1      -7.139   2.916  71.692  1.00  0.00    -0.030 OA 
HETATM   38  O   UNL     1      -9.058   4.105  72.836  1.00  0.00    -0.110 OA 
HETATM   39  C   UNL     1      -9.046   1.472  72.799  1.00  0.00    -0.062 C  
ENDBRANCH  34  36
ENDBRANCH  31  34
ENDBRANCH  21  26
ENDBRANCH  16  18
ENDBRANCH  10  12
ENDBRANCH   9  10
ENDBRANCH   7   9
ENDBRANCH   4   7
ENDBRANCH   2   3
TORSDOF 10
ENDMDL
MODEL      236
REMARK 921   NORMALIZED FREE ENERGY PREDICTED BY IDOCK:   -2.24 KCAL/MOL
REMARK 922        TOTAL FREE ENERGY PREDICTED BY IDOCK:   -5.51 KCAL/MOL
REMARK 923 INTER-LIGAND FREE ENERGY PREDICTED BY IDOCK:   -6.78 KCAL/MOL
REMARK 924 INTRA-LIGAND FREE ENERGY PREDICTED BY IDOCK:    1.27 KCAL/MOL
REMARK 927      BINDING AFFINITY PREDICTED BY RF-SCORE:    0.00 PKD
ROOT
HETATM    1  C   UNL     1     -11.160  16.301  64.680  1.00  0.00    -0.246 C  
HETATM    2  O   UNL     1     -11.779  15.306  65.515  1.00  0.00    -0.156 OA 
ENDROOT
BRANCH   2   3
HETATM    3  C   UNL     1     -11.320  14.040  65.291  1.00  0.00    -0.321 C  
HETATM    4  N   UNL     1     -10.474  13.639  66.303  1.00  0.00    -0.286 N  
HETATM    5  O   UNL     1     -11.624  13.376  64.310  1.00  0.00    -0.372 OA 
HETATM    6  H   UNL     1     -10.293  14.282  67.074  1.00  0.00     0.000 HD 
BRANCH   4   7
HETATM    7  C   UNL     1      -9.819  12.318  66.316  1.00  0.00    -0.241 C  
HETATM    8  C   UNL     1      -8.738  12.328  67.443  1.00  0.00    -0.180 C  
BRANCH   7   9
HETATM    9  C   UNL     1     -10.748  11.058  66.578  1.00  0.00    -0.241 C  
BRANCH   9  10
HETATM   10  N   UNL     1     -11.826  11.020  67.621  1.00  0.00    -0.623 NA 
HETATM   11  H   UNL     1     -12.717  11.471  67.409  1.00  0.00     0.000 HD 
BRANCH  10  12
HETATM   12  C   UNL     1     -11.679  10.396  68.875  1.00  0.00    -0.068 A  
HETATM   13  N   UNL     1     -12.086  11.086  69.942  1.00  0.00    -0.341 NA 
HETATM   14  C   UNL     1     -11.823  10.534  71.131  1.00  0.00    -0.295 A  
HETATM   15  C   UNL     1     -11.262   9.287  71.329  1.00  0.00    -0.425 A  
HETATM   16  C   UNL     1     -10.873   8.568  70.213  1.00  0.00    -0.238 A  
HETATM   17  N   UNL     1     -11.032   9.169  68.967  1.00  0.00    -0.082 NA 
BRANCH  16  18
HETATM   18  C   UNL     1     -10.282   7.164  70.454  1.00  0.00    -0.203 A  
HETATM   19  C   UNL     1     -10.681   6.403  71.569  1.00  0.00    -0.238 A  
HETATM   20  N   UNL     1     -10.108   5.164  71.495  1.00  0.00    -0.186 NA 
HETATM   21  C   UNL     1      -9.428   6.191  69.751  1.00  0.00    -0.150 A  
HETATM   22  N   UNL     1      -9.325   5.030  70.436  1.00  0.00    -0.149 NA 
BRANCH  20  23
HETATM   23  C   UNL     1     -10.297   4.002  72.383  1.00  0.00    -0.137 C  
HETATM   24  C   UNL     1     -11.009   4.360  73.694  1.00  0.00    -0.374 C  
HETATM   25  C   UNL     1      -8.973   3.297  72.719  1.00  0.00    -0.107 C  
ENDBRANCH  20  23
BRANCH  21  26
HETATM   26  C   UNL     1      -8.641   6.235  68.518  1.00  0.00    -0.114 A  
HETATM   27  C   UNL     1      -7.776   5.190  68.108  1.00  0.00    -0.084 A  
HETATM   28  C   UNL     1      -6.916   5.360  67.018  1.00  0.00    -0.065 A  
HETATM   29 CL   UNL     1      -5.974   4.055  66.418  1.00  0.00    -0.026 Cl 
HETATM   30  C   UNL     1      -6.808   6.613  66.399  1.00  0.00    -0.061 A  
HETATM   31  C   UNL     1      -7.668   7.608  66.822  1.00  0.00    -0.102 A  
HETATM   32  C   UNL     1      -8.667   7.359  67.742  1.00  0.00    -0.126 A  
HETATM   33  F   UNL     1      -9.676   8.226  67.803  1.00  0.00    -0.154 F  
BRANCH  31  34
HETATM   34  N   UNL     1      -7.611   8.938  66.310  1.00  0.00    -0.094 N  
HETATM   35  H   UNL     1      -7.983   9.739  66.821  1.00  0.00     0.000 HD 
BRANCH  34  36
HETATM   36  S   UNL     1      -6.881   9.091  64.794  1.00  0.00    -0.081 S  
HETATM   37  O   UNL     1      -7.226   7.966  63.958  1.00  0.00    -0.075 OA 
HETATM   38  O   UNL     1      -7.142  10.458  64.395  1.00  0.00    -0.101 OA 
HETATM   39  C   UNL     1      -5.191   8.948  65.314  1.00  0.00    -0.038 C  
ENDBRANCH  34  36
ENDBRANCH  31  34
ENDBRANCH  21  26
ENDBRANCH  16  18
ENDBRANCH  10  12
ENDBRANCH   9  10
ENDBRANCH   7   9
ENDBRANCH   4   7
ENDBRANCH   2   3
TORSDOF 10
ENDMDL
MODEL      237
REMARK 921   NORMALIZED FREE ENERGY PREDICTED BY IDOCK:   -2.23 KCAL/MOL
REMARK 922        TOTAL FREE ENERGY PREDICTED BY IDOCK:   -5.49 KCAL/MOL
REMARK 923 INTER-LIGAND FREE ENERGY PREDICTED BY IDOCK:   -4.65 KCAL/MOL
REMARK 924 INTRA-LIGAND FREE ENERGY PREDICTED BY IDOCK:   -0.84 KCAL/MOL
REMARK 927      BINDING AFFINITY PREDICTED BY RF-SCORE:    0.00 PKD
ROOT
HETATM    1  C   UNL     1     -14.001  15.472  72.745  1.00  0.00    -0.459 C  
HETATM    2  O   UNL     1     -12.674  15.477  72.189  1.00  0.00    -0.346 OA 
ENDROOT
BRANCH   2   3
HETATM    3  C   UNL     1     -12.635  15.170  70.860  1.00  0.00    -0.379 C  
HETATM    4  N   UNL     1     -11.750  14.141  70.619  1.00  0.00    -0.485 N  
HETATM    5  O   UNL     1     -13.296  15.755  70.013  1.00  0.00     0.028 OA 
HETATM    6  H   UNL     1     -11.252  13.729  71.408  1.00  0.00     0.000 HD 
BRANCH   4   7
HETATM    7  C   UNL     1     -11.496  13.610  69.267  1.00  0.00    -0.291 C  
HETATM    8  C   UNL     1     -10.616  14.649  68.500  1.00  0.00    -0.245 C  
BRANCH   7   9
HETATM    9  C   UNL     1     -10.749  12.214  69.172  1.00  0.00    -0.061 C  
BRANCH   9  10
HETATM   10  N   UNL     1     -10.775  11.335  67.956  1.00  0.00    -0.191 NA 
HETATM   11  H   UNL     1     -11.142  11.725  67.087  1.00  0.00     0.000 HD 
BRANCH  10  12
HETATM   12  C   UNL     1     -10.321  10.001  67.946  1.00  0.00    -0.207 A  
HETATM   13  N   UNL     1     -10.898   9.176  67.071  1.00  0.00    -0.103 NA 
HETATM   14  C   UNL     1     -10.548   7.888  67.162  1.00  0.00    -0.313 A  
HETATM   15  C   UNL     1      -9.582   7.380  68.009  1.00  0.00    -0.152 A  
HETATM   16  C   UNL     1      -8.967   8.252  68.889  1.00  0.00    -0.144 A  
HETATM   17  N   UNL     1      -9.396   9.577  68.893  1.00  0.00    -0.146 NA 
BRANCH  16  18
HETATM   18  C   UNL     1      -7.867   7.672  69.800  1.00  0.00    -0.110 A  
HETATM   19  C   UNL     1      -6.978   8.525  70.479  1.00  0.00    -0.040 A  
HETATM   20  N   UNL     1      -6.180   7.781  71.303  1.00  0.00    -0.035 NA 
HETATM   21  C   UNL     1      -7.470   6.366  70.357  1.00  0.00    -0.094 A  
HETATM   22  N   UNL     1      -6.433   6.484  71.216  1.00  0.00    -0.048 NA 
BRANCH  20  23
HETATM   23  C   UNL     1      -5.164   8.238  72.268  1.00  0.00    -0.036 C  
HETATM   24  C   UNL     1      -5.197   7.456  73.588  1.00  0.00    -0.042 C  
HETATM   25  C   UNL     1      -5.282   9.738  72.580  1.00  0.00     0.011 C  
ENDBRANCH  20  23
BRANCH  21  26
HETATM   26  C   UNL     1      -7.920   4.991  70.140  1.00  0.00    -0.077 A  
HETATM   27  C   UNL     1      -8.325   4.130  71.190  1.00  0.00    -0.094 A  
HETATM   28  C   UNL     1      -8.573   2.774  70.946  1.00  0.00    -0.063 A  
HETATM   29 CL   UNL     1      -9.208   1.753  72.173  1.00  0.00    -0.117 Cl 
HETATM   30  C   UNL     1      -8.298   2.226  69.686  1.00  0.00    -0.075 A  
HETATM   31  C   UNL     1      -7.908   3.096  68.685  1.00  0.00    -0.057 A  
HETATM   32  C   UNL     1      -7.888   4.463  68.881  1.00  0.00    -0.070 A  
HETATM   33  F   UNL     1      -7.890   5.237  67.798  1.00  0.00    -0.088 F  
BRANCH  31  34
HETATM   34  N   UNL     1      -7.544   2.648  67.380  1.00  0.00    -0.061 N  
HETATM   35  H   UNL     1      -8.232   2.336  66.696  1.00  0.00     0.000 HD 
BRANCH  34  36
HETATM   36  S   UNL     1      -5.887   2.671  67.052  1.00  0.00    -0.023 S  
HETATM   37  O   UNL     1      -5.479   3.993  66.640  1.00  0.00    -0.012 OA 
HETATM   38  O   UNL     1      -5.278   1.992  68.176  1.00  0.00    -0.011 OA 
HETATM   39  C   UNL     1      -5.894   1.587  65.648  1.00  0.00    -0.014 C  
ENDBRANCH  34  36
ENDBRANCH  31  34
ENDBRANCH  21  26
ENDBRANCH  16  18
ENDBRANCH  10  12
ENDBRANCH   9  10
ENDBRANCH   7   9
ENDBRANCH   4   7
ENDBRANCH   2   3
TORSDOF 10
ENDMDL
MODEL      238
REMARK 921   NORMALIZED FREE ENERGY PREDICTED BY IDOCK:   -2.21 KCAL/MOL
REMARK 922        TOTAL FREE ENERGY PREDICTED BY IDOCK:   -5.46 KCAL/MOL
REMARK 923 INTER-LIGAND FREE ENERGY PREDICTED BY IDOCK:   -5.54 KCAL/MOL
REMARK 924 INTRA-LIGAND FREE ENERGY PREDICTED BY IDOCK:    0.08 KCAL/MOL
REMARK 927      BINDING AFFINITY PREDICTED BY RF-SCORE:    0.00 PKD
ROOT
HETATM    1  C   UNL     1     -10.936  18.826  68.177  1.00  0.00     0.187 C  
HETATM    2  O   UNL     1      -9.874  19.192  67.278  1.00  0.00    -0.314 OA 
ENDROOT
BRANCH   2   3
HETATM    3  C   UNL     1      -8.758  18.418  67.404  1.00  0.00    -0.260 C  
HETATM    4  N   UNL     1      -8.866  17.273  66.643  1.00  0.00    -0.243 N  
HETATM    5  O   UNL     1      -7.806  18.714  68.113  1.00  0.00    -0.269 OA 
HETATM    6  H   UNL     1      -9.711  17.132  66.088  1.00  0.00     0.000 HD 
BRANCH   4   7
HETATM    7  C   UNL     1      -7.809  16.245  66.597  1.00  0.00    -0.275 C  
HETATM    8  C   UNL     1      -6.834  16.504  67.790  1.00  0.00    -0.159 C  
BRANCH   7   9
HETATM    9  C   UNL     1      -8.275  14.732  66.701  1.00  0.00     0.127 C  
BRANCH   9  10
HETATM   10  N   UNL     1      -9.711  14.304  66.771  1.00  0.00    -0.265 NA 
HETATM   11  H   UNL     1     -10.206  14.135  65.895  1.00  0.00     0.000 HD 
BRANCH  10  12
HETATM   12  C   UNL     1     -10.414  14.122  67.978  1.00  0.00    -0.240 A  
HETATM   13  N   UNL     1     -10.779  15.225  68.634  1.00  0.00    -0.238 NA 
HETATM   14  C   UNL     1     -11.332  15.035  69.837  1.00  0.00    -0.278 A  
HETATM   15  C   UNL     1     -11.635  13.807  70.394  1.00  0.00    -0.143 A  
HETATM   16  C   UNL     1     -11.281  12.671  69.688  1.00  0.00    -0.007 A  
HETATM   17  N   UNL     1     -10.602  12.841  68.485  1.00  0.00    -0.250 NA 
BRANCH  16  18
HETATM   18  C   UNL     1     -11.661  11.312  70.310  1.00  0.00    -0.366 A  
HETATM   19  C   UNL     1     -12.938  11.114  70.868  1.00  0.00    -0.187 A  
HETATM   20  N   UNL     1     -13.066   9.806  71.245  1.00  0.00    -0.376 NA 
HETATM   21  C   UNL     1     -11.103   9.952  70.416  1.00  0.00    -0.319 A  
HETATM   22  N   UNL     1     -11.966   9.104  71.018  1.00  0.00    -0.291 NA 
BRANCH  20  23
HETATM   23  C   UNL     1     -14.244   9.111  71.794  1.00  0.00    -0.178 C  
HETATM   24  C   UNL     1     -14.261   9.080  73.328  1.00  0.00     0.839 C  
HETATM   25  C   UNL     1     -14.375   7.672  71.271  1.00  0.00    -0.438 C  
ENDBRANCH  20  23
BRANCH  21  26
HETATM   26  C   UNL     1      -9.817   9.352  70.060  1.00  0.00    -0.253 A  
HETATM   27  C   UNL     1      -8.638  10.107  69.847  1.00  0.00    -0.100 A  
HETATM   28  C   UNL     1      -7.484   9.502  69.335  1.00  0.00    -0.088 A  
HETATM   29 CL   UNL     1      -6.006  10.369  69.214  1.00  0.00    -0.037 Cl 
HETATM   30  C   UNL     1      -7.522   8.169  68.906  1.00  0.00    -0.089 A  
HETATM   31  C   UNL     1      -8.688   7.461  69.132  1.00  0.00    -0.136 A  
HETATM   32  C   UNL     1      -9.739   8.005  69.844  1.00  0.00    -0.180 A  
HETATM   33  F   UNL     1     -10.637   7.163  70.352  1.00  0.00    -0.212 F  
BRANCH  31  34
HETATM   34  N   UNL     1      -8.867   6.118  68.686  1.00  0.00    -0.114 N  
HETATM   35  H   UNL     1      -8.704   5.313  69.291  1.00  0.00     0.000 HD 
BRANCH  34  36
HETATM   36  S   UNL     1      -9.369   5.958  67.082  1.00  0.00    -0.119 S  
HETATM   37  O   UNL     1      -9.022   7.140  66.329  1.00  0.00    -0.153 OA 
HETATM   38  O   UNL     1      -8.930   4.636  66.687  1.00  0.00    -0.111 OA 
HETATM   39  C   UNL     1     -11.120   5.930  67.368  1.00  0.00    -0.009 C  
ENDBRANCH  34  36
ENDBRANCH  31  34
ENDBRANCH  21  26
ENDBRANCH  16  18
ENDBRANCH  10  12
ENDBRANCH   9  10
ENDBRANCH   7   9
ENDBRANCH   4   7
ENDBRANCH   2   3
TORSDOF 10
ENDMDL
MODEL      239
REMARK 921   NORMALIZED FREE ENERGY PREDICTED BY IDOCK:   -2.21 KCAL/MOL
REMARK 922        TOTAL FREE ENERGY PREDICTED BY IDOCK:   -5.45 KCAL/MOL
REMARK 923 INTER-LIGAND FREE ENERGY PREDICTED BY IDOCK:   -5.20 KCAL/MOL
REMARK 924 INTRA-LIGAND FREE ENERGY PREDICTED BY IDOCK:   -0.25 KCAL/MOL
REMARK 927      BINDING AFFINITY PREDICTED BY RF-SCORE:    0.00 PKD
ROOT
HETATM    1  C   UNL     1     -11.161   2.633  63.065  1.00  0.00    -0.148 C  
HETATM    2  O   UNL     1      -9.737   2.448  62.980  1.00  0.00    -0.090 OA 
ENDROOT
BRANCH   2   3
HETATM    3  C   UNL     1      -9.049   3.007  64.018  1.00  0.00    -0.104 C  
HETATM    4  N   UNL     1      -9.913   3.510  64.966  1.00  0.00    -0.353 N  
HETATM    5  O   UNL     1      -7.828   3.054  64.071  1.00  0.00    -0.078 OA 
HETATM    6  H   UNL     1     -10.918   3.413  64.814  1.00  0.00     0.000 HD 
BRANCH   4   7
HETATM    7  C   UNL     1      -9.447   4.183  66.192  1.00  0.00    -0.183 C  
HETATM    8  C   UNL     1     -10.654   4.968  66.799  1.00  0.00    -0.220 C  
BRANCH   7   9
HETATM    9  C   UNL     1      -8.871   3.258  67.346  1.00  0.00    -0.134 C  
BRANCH   9  10
HETATM   10  N   UNL     1      -8.238   3.784  68.600  1.00  0.00    -0.073 NA 
HETATM   11  H   UNL     1      -8.121   3.143  69.386  1.00  0.00     0.000 HD 
BRANCH  10  12
HETATM   12  C   UNL     1      -7.795   5.112  68.754  1.00  0.00    -0.079 A  
HETATM   13  N   UNL     1      -7.428   5.486  69.981  1.00  0.00    -0.068 NA 
HETATM   14  C   UNL     1      -7.132   6.781  70.134  1.00  0.00    -0.071 A  
HETATM   15  C   UNL     1      -7.085   7.717  69.119  1.00  0.00    -0.077 A  
HETATM   16  C   UNL     1      -7.436   7.309  67.845  1.00  0.00    -0.102 A  
HETATM   17  N   UNL     1      -7.858   5.993  67.680  1.00  0.00    -0.101 NA 
BRANCH  16  18
HETATM   18  C   UNL     1      -7.342   8.360  66.720  1.00  0.00    -0.083 A  
HETATM   19  C   UNL     1      -6.567   8.110  65.572  1.00  0.00    -0.049 A  
HETATM   20  N   UNL     1      -6.737   9.134  64.683  1.00  0.00    -0.081 NA 
HETATM   21  C   UNL     1      -7.970   9.641  66.352  1.00  0.00    -0.108 A  
HETATM   22  N   UNL     1      -7.543  10.078  65.146  1.00  0.00    -0.133 NA 
BRANCH  20  23
HETATM   23  C   UNL     1      -6.201   9.273  63.317  1.00  0.00    -0.090 C  
HETATM   24  C   UNL     1      -6.821  10.446  62.546  1.00  0.00    -0.143 C  
HETATM   25  C   UNL     1      -6.372   7.992  62.485  1.00  0.00    -0.086 C  
ENDBRANCH  20  23
BRANCH  21  26
HETATM   26  C   UNL     1      -8.900  10.547  67.026  1.00  0.00    -0.142 A  
HETATM   27  C   UNL     1      -9.912  10.105  67.914  1.00  0.00    -0.190 A  
HETATM   28  C   UNL     1     -10.883  10.993  68.389  1.00  0.00    -0.220 A  
HETATM   29 CL   UNL     1     -12.023  10.508  69.580  1.00  0.00    -0.307 Cl 
HETATM   30  C   UNL     1     -10.943  12.301  67.890  1.00  0.00    -0.265 A  
HETATM   31  C   UNL     1      -9.938  12.699  67.028  1.00  0.00    -0.219 A  
HETATM   32  C   UNL     1      -8.860  11.884  66.747  1.00  0.00    -0.193 A  
HETATM   33  F   UNL     1      -7.769  12.460  66.246  1.00  0.00     0.163 F  
BRANCH  31  34
HETATM   34  N   UNL     1      -9.925  13.984  66.409  1.00  0.00    -0.285 N  
HETATM   35  H   UNL     1     -10.216  14.130  65.442  1.00  0.00     0.000 HD 
BRANCH  34  36
HETATM   36  S   UNL     1      -9.394  15.249  67.395  1.00  0.00    -0.202 S  
HETATM   37  O   UNL     1     -10.100  15.230  68.654  1.00  0.00    -0.211 OA 
HETATM   38  O   UNL     1      -7.950  15.194  67.319  1.00  0.00    -0.175 OA 
HETATM   39  C   UNL     1      -9.980  16.600  66.406  1.00  0.00    -0.302 C  
ENDBRANCH  34  36
ENDBRANCH  31  34
ENDBRANCH  21  26
ENDBRANCH  16  18
ENDBRANCH  10  12
ENDBRANCH   9  10
ENDBRANCH   7   9
ENDBRANCH   4   7
ENDBRANCH   2   3
TORSDOF 10
ENDMDL
MODEL      240
REMARK 921   NORMALIZED FREE ENERGY PREDICTED BY IDOCK:   -2.20 KCAL/MOL
REMARK 922        TOTAL FREE ENERGY PREDICTED BY IDOCK:   -5.45 KCAL/MOL
REMARK 923 INTER-LIGAND FREE ENERGY PREDICTED BY IDOCK:   -4.49 KCAL/MOL
REMARK 924 INTRA-LIGAND FREE ENERGY PREDICTED BY IDOCK:   -0.96 KCAL/MOL
REMARK 927      BINDING AFFINITY PREDICTED BY RF-SCORE:    0.00 PKD
ROOT
HETATM    1  C   UNL     1     -14.231  14.494  72.511  1.00  0.00    -0.235 C  
HETATM    2  O   UNL     1     -12.953  15.007  72.096  1.00  0.00    -0.307 OA 
ENDROOT
BRANCH   2   3
HETATM    3  C   UNL     1     -12.861  15.228  70.752  1.00  0.00    -0.437 C  
HETATM    4  N   UNL     1     -11.929  14.390  70.179  1.00  0.00    -0.302 N  
HETATM    5  O   UNL     1     -13.520  16.072  70.160  1.00  0.00     0.261 OA 
HETATM    6  H   UNL     1     -11.438  13.723  70.775  1.00  0.00     0.000 HD 
BRANCH   4   7
HETATM    7  C   UNL     1     -11.613  14.417  68.739  1.00  0.00    -0.315 C  
HETATM    8  C   UNL     1     -10.957  15.798  68.417  1.00  0.00    -0.323 C  
BRANCH   7   9
HETATM    9  C   UNL     1     -10.625  13.300  68.199  1.00  0.00    -0.249 C  
BRANCH   9  10
HETATM   10  N   UNL     1     -10.543  12.882  66.760  1.00  0.00    -0.256 NA 
HETATM   11  H   UNL     1     -10.994  13.473  66.061  1.00  0.00     0.000 HD 
BRANCH  10  12
HETATM   12  C   UNL     1      -9.880  11.720  66.320  1.00  0.00    -0.221 A  
HETATM   13  N   UNL     1     -10.267  11.214  65.148  1.00  0.00    -0.273 NA 
HETATM   14  C   UNL     1      -9.718  10.043  64.806  1.00  0.00    -0.293 A  
HETATM   15  C   UNL     1      -8.731   9.385  65.514  1.00  0.00    -0.190 A  
HETATM   16  C   UNL     1      -8.314   9.938  66.712  1.00  0.00    -0.125 A  
HETATM   17  N   UNL     1      -8.952  11.097  67.146  1.00  0.00    -0.143 NA 
BRANCH  16  18
HETATM   18  C   UNL     1      -7.187   9.207  67.468  1.00  0.00    -0.080 A  
HETATM   19  C   UNL     1      -6.731   9.689  68.710  1.00  0.00    -0.051 A  
HETATM   20  N   UNL     1      -5.818   8.811  69.225  1.00  0.00    -0.035 NA 
HETATM   21  C   UNL     1      -6.422   7.952  67.365  1.00  0.00    -0.056 A  
HETATM   22  N   UNL     1      -5.591   7.785  68.418  1.00  0.00    -0.027 NA 
BRANCH  20  23
HETATM   23  C   UNL     1      -5.136   8.845  70.531  1.00  0.00    -0.020 C  
HETATM   24  C   UNL     1      -5.351   7.567  71.353  1.00  0.00    -0.031 C  
HETATM   25  C   UNL     1      -5.555  10.054  71.382  1.00  0.00    -0.036 C  
ENDBRANCH  20  23
BRANCH  21  26
HETATM   26  C   UNL     1      -6.337   6.894  66.357  1.00  0.00    -0.050 A  
HETATM   27  C   UNL     1      -6.044   7.141  64.994  1.00  0.00    -0.037 A  
HETATM   28  C   UNL     1      -6.152   6.119  64.044  1.00  0.00    -0.025 A  
HETATM   29 CL   UNL     1      -5.656   6.363  62.417  1.00  0.00    -0.023 Cl 
HETATM   30  C   UNL     1      -6.676   4.872  64.411  1.00  0.00    -0.044 A  
HETATM   31  C   UNL     1      -6.948   4.666  65.750  1.00  0.00    -0.063 A  
HETATM   32  C   UNL     1      -6.623   5.605  66.708  1.00  0.00    -0.056 A  
HETATM   33  F   UNL     1      -6.547   5.192  67.972  1.00  0.00    -0.043 F  
BRANCH  31  34
HETATM   34  N   UNL     1      -7.541   3.461  66.234  1.00  0.00    -0.077 N  
HETATM   35  H   UNL     1      -6.999   2.613  66.401  1.00  0.00     0.000 HD 
BRANCH  34  36
HETATM   36  S   UNL     1      -9.205   3.543  66.512  1.00  0.00    -0.166 S  
HETATM   37  O   UNL     1      -9.666   4.905  66.381  1.00  0.00    -0.153 OA 
HETATM   38  O   UNL     1      -9.763   2.461  65.729  1.00  0.00     0.181 OA 
HETATM   39  C   UNL     1      -9.196   3.080  68.224  1.00  0.00    -0.189 C  
ENDBRANCH  34  36
ENDBRANCH  31  34
ENDBRANCH  21  26
ENDBRANCH  16  18
ENDBRANCH  10  12
ENDBRANCH   9  10
ENDBRANCH   7   9
ENDBRANCH   4   7
ENDBRANCH   2   3
TORSDOF 10
ENDMDL
MODEL      241
REMARK 921   NORMALIZED FREE ENERGY PREDICTED BY IDOCK:   -2.18 KCAL/MOL
REMARK 922        TOTAL FREE ENERGY PREDICTED BY IDOCK:   -5.41 KCAL/MOL
REMARK 923 INTER-LIGAND FREE ENERGY PREDICTED BY IDOCK:   -4.90 KCAL/MOL
REMARK 924 INTRA-LIGAND FREE ENERGY PREDICTED BY IDOCK:   -0.51 KCAL/MOL
REMARK 927      BINDING AFFINITY PREDICTED BY RF-SCORE:    0.00 PKD
ROOT
HETATM    1  C   UNL     1     -12.056  14.497  73.111  1.00  0.00     0.000 C  
HETATM    2  O   UNL     1     -13.214  13.651  73.214  1.00  0.00    -0.409 OA 
ENDROOT
BRANCH   2   3
HETATM    3  C   UNL     1     -13.508  12.982  72.061  1.00  0.00    -0.492 C  
HETATM    4  N   UNL     1     -13.171  11.649  72.166  1.00  0.00    -0.545 N  
HETATM    5  O   UNL     1     -13.993  13.518  71.074  1.00  0.00     0.250 OA 
HETATM    6  H   UNL     1     -12.770  11.314  73.043  1.00  0.00     0.000 HD 
BRANCH   4   7
HETATM    7  C   UNL     1     -13.366  10.689  71.064  1.00  0.00    -0.044 C  
HETATM    8  C   UNL     1     -12.530  11.185  69.841  1.00  0.00    -0.257 C  
BRANCH   7   9
HETATM    9  C   UNL     1     -12.937   9.186  71.337  1.00  0.00    -0.307 C  
BRANCH   9  10
HETATM   10  N   UNL     1     -11.645   8.792  71.991  1.00  0.00    -0.355 NA 
HETATM   11  H   UNL     1     -11.685   8.371  72.920  1.00  0.00     0.000 HD 
BRANCH  10  12
HETATM   12  C   UNL     1     -10.382   8.971  71.395  1.00  0.00    -0.326 A  
HETATM   13  N   UNL     1      -9.402   8.164  71.807  1.00  0.00    -0.164 NA 
HETATM   14  C   UNL     1      -8.183   8.430  71.327  1.00  0.00    -0.134 A  
HETATM   15  C   UNL     1      -7.888   9.394  70.382  1.00  0.00    -0.179 A  
HETATM   16  C   UNL     1      -8.919  10.203  69.938  1.00  0.00    -0.067 A  
HETATM   17  N   UNL     1     -10.176  10.021  70.508  1.00  0.00    -0.190 NA 
BRANCH  16  18
HETATM   18  C   UNL     1      -8.576  11.248  68.857  1.00  0.00    -0.056 A  
HETATM   19  C   UNL     1      -8.389  12.599  69.204  1.00  0.00     0.608 A  
HETATM   20  N   UNL     1      -7.985  13.296  68.099  1.00  0.00    -0.140 NA 
HETATM   21  C   UNL     1      -8.215  11.281  67.429  1.00  0.00    -0.135 A  
HETATM   22  N   UNL     1      -7.912  12.533  67.019  1.00  0.00    -0.131 NA 
BRANCH  20  23
HETATM   23  C   UNL     1      -7.587  14.711  67.991  1.00  0.00    -0.128 C  
HETATM   24  C   UNL     1      -6.109  14.891  67.618  1.00  0.00    -0.098 C  
HETATM   25  C   UNL     1      -7.870  15.501  69.278  1.00  0.00    -0.227 C  
ENDBRANCH  20  23
BRANCH  21  26
HETATM   26  C   UNL     1      -8.169  10.272  66.370  1.00  0.00    -0.129 A  
HETATM   27  C   UNL     1      -8.760  10.454  65.095  1.00  0.00    -0.194 A  
HETATM   28  C   UNL     1      -8.841   9.392  64.188  1.00  0.00    -0.182 A  
HETATM   29 CL   UNL     1      -9.417   9.634  62.587  1.00  0.00    -0.082 Cl 
HETATM   30  C   UNL     1      -8.453   8.103  64.578  1.00  0.00    -0.013 A  
HETATM   31  C   UNL     1      -7.877   7.964  65.827  1.00  0.00    -0.103 A  
HETATM   32  C   UNL     1      -7.596   9.058  66.622  1.00  0.00    -0.089 A  
HETATM   33  F   UNL     1      -6.710   8.893  67.601  1.00  0.00    -0.062 F  
BRANCH  31  34
HETATM   34  N   UNL     1      -7.499   6.695  66.359  1.00  0.00    -0.083 N  
HETATM   35  H   UNL     1      -6.728   6.148  65.975  1.00  0.00     0.000 HD 
BRANCH  34  36
HETATM   36  S   UNL     1      -8.422   6.164  67.669  1.00  0.00    -0.107 S  
HETATM   37  O   UNL     1      -7.560   5.755  68.753  1.00  0.00    -0.086 OA 
HETATM   38  O   UNL     1      -9.444   7.175  67.836  1.00  0.00    -0.130 OA 
HETATM   39  C   UNL     1      -9.138   4.730  66.908  1.00  0.00    -0.117 C  
ENDBRANCH  34  36
ENDBRANCH  31  34
ENDBRANCH  21  26
ENDBRANCH  16  18
ENDBRANCH  10  12
ENDBRANCH   9  10
ENDBRANCH   7   9
ENDBRANCH   4   7
ENDBRANCH   2   3
TORSDOF 10
ENDMDL
MODEL      242
REMARK 921   NORMALIZED FREE ENERGY PREDICTED BY IDOCK:   -2.13 KCAL/MOL
REMARK 922        TOTAL FREE ENERGY PREDICTED BY IDOCK:   -5.34 KCAL/MOL
REMARK 923 INTER-LIGAND FREE ENERGY PREDICTED BY IDOCK:   -4.46 KCAL/MOL
REMARK 924 INTRA-LIGAND FREE ENERGY PREDICTED BY IDOCK:   -0.88 KCAL/MOL
REMARK 927      BINDING AFFINITY PREDICTED BY RF-SCORE:    0.00 PKD
ROOT
HETATM    1  C   UNL     1      -8.974   3.512  70.128  1.00  0.00    -0.107 C  
HETATM    2  O   UNL     1      -9.348   4.609  69.277  1.00  0.00    -0.117 OA 
ENDROOT
BRANCH   2   3
HETATM    3  C   UNL     1      -9.254   5.829  69.881  1.00  0.00    -0.144 C  
HETATM    4  N   UNL     1      -9.585   5.742  71.216  1.00  0.00    -0.164 N  
HETATM    5  O   UNL     1      -8.929   6.851  69.293  1.00  0.00    -0.138 OA 
HETATM    6  H   UNL     1      -9.842   4.832  71.599  1.00  0.00     0.000 HD 
BRANCH   4   7
HETATM    7  C   UNL     1      -9.584   6.912  72.115  1.00  0.00    -0.144 C  
HETATM    8  C   UNL     1      -8.133   7.491  72.146  1.00  0.00    -0.115 C  
BRANCH   7   9
HETATM    9  C   UNL     1     -10.551   8.111  71.736  1.00  0.00    -0.250 C  
BRANCH   9  10
HETATM   10  N   UNL     1     -10.081   9.513  71.479  1.00  0.00    -0.146 NA 
HETATM   11  H   UNL     1      -9.154   9.778  71.812  1.00  0.00     0.000 HD 
BRANCH  10  12
HETATM   12  C   UNL     1     -10.849  10.483  70.806  1.00  0.00     0.292 A  
HETATM   13  N   UNL     1     -12.131  10.587  71.159  1.00  0.00    -0.370 NA 
HETATM   14  C   UNL     1     -12.875  11.421  70.425  1.00  0.00     0.011 A  
HETATM   15  C   UNL     1     -12.402  12.237  69.415  1.00  0.00     0.036 A  
HETATM   16  C   UNL     1     -11.063  12.144  69.081  1.00  0.00    -0.205 A  
HETATM   17  N   UNL     1     -10.292  11.200  69.754  1.00  0.00     0.117 NA 
BRANCH  16  18
HETATM   18  C   UNL     1     -10.548  13.089  67.977  1.00  0.00    -0.246 A  
HETATM   19  C   UNL     1     -10.605  14.485  68.147  1.00  0.00    -0.238 A  
HETATM   20  N   UNL     1      -9.989  15.093  67.089  1.00  0.00    -0.235 NA 
HETATM   21  C   UNL     1      -9.815  13.000  66.701  1.00  0.00    -0.252 A  
HETATM   22  N   UNL     1      -9.543  14.224  66.195  1.00  0.00    -0.297 NA 
BRANCH  20  23
HETATM   23  C   UNL     1      -9.726  16.527  66.870  1.00  0.00    -0.251 C  
HETATM   24  C   UNL     1      -8.363  16.977  67.413  1.00  0.00    -0.206 C  
HETATM   25  C   UNL     1     -10.818  17.423  67.476  1.00  0.00    -0.203 C  
ENDBRANCH  20  23
BRANCH  21  26
HETATM   26  C   UNL     1      -9.374  11.888  65.858  1.00  0.00    -0.193 A  
HETATM   27  C   UNL     1      -9.954  11.587  64.601  1.00  0.00    -0.305 A  
HETATM   28  C   UNL     1      -9.617  10.411  63.923  1.00  0.00    -0.312 A  
HETATM   29 CL   UNL     1     -10.195  10.106  62.333  1.00  0.00     0.600 Cl 
HETATM   30  C   UNL     1      -8.800   9.454  64.539  1.00  0.00    -0.235 A  
HETATM   31  C   UNL     1      -8.250   9.782  65.764  1.00  0.00    -0.122 A  
HETATM   32  C   UNL     1      -8.408  11.038  66.316  1.00  0.00    -0.166 A  
HETATM   33  F   UNL     1      -7.551  11.402  67.268  1.00  0.00    -0.109 F  
BRANCH  31  34
HETATM   34  N   UNL     1      -7.453   8.868  66.515  1.00  0.00    -0.088 N  
HETATM   35  H   UNL     1      -7.563   8.743  67.522  1.00  0.00     0.000 HD 
BRANCH  34  36
HETATM   36  S   UNL     1      -6.313   8.006  65.616  1.00  0.00    -0.041 S  
HETATM   37  O   UNL     1      -6.906   7.519  64.393  1.00  0.00    -0.052 OA 
HETATM   38  O   UNL     1      -5.131   8.841  65.620  1.00  0.00    -0.030 OA 
HETATM   39  C   UNL     1      -6.076   6.654  66.740  1.00  0.00    -0.033 C  
ENDBRANCH  34  36
ENDBRANCH  31  34
ENDBRANCH  21  26
ENDBRANCH  16  18
ENDBRANCH  10  12
ENDBRANCH   9  10
ENDBRANCH   7   9
ENDBRANCH   4   7
ENDBRANCH   2   3
TORSDOF 10
ENDMDL
MODEL      243
REMARK 921   NORMALIZED FREE ENERGY PREDICTED BY IDOCK:   -2.13 KCAL/MOL
REMARK 922        TOTAL FREE ENERGY PREDICTED BY IDOCK:   -5.33 KCAL/MOL
REMARK 923 INTER-LIGAND FREE ENERGY PREDICTED BY IDOCK:   -5.08 KCAL/MOL
REMARK 924 INTRA-LIGAND FREE ENERGY PREDICTED BY IDOCK:   -0.25 KCAL/MOL
REMARK 927      BINDING AFFINITY PREDICTED BY RF-SCORE:    0.00 PKD
ROOT
HETATM    1  C   UNL     1     -13.155   7.088  71.158  1.00  0.00    -0.188 C  
HETATM    2  O   UNL     1     -12.173   7.712  70.312  1.00  0.00     0.131 OA 
ENDROOT
BRANCH   2   3
HETATM    3  C   UNL     1     -11.371   6.824  69.656  1.00  0.00    -0.272 C  
HETATM    4  N   UNL     1     -10.188   6.634  70.338  1.00  0.00    -0.187 N  
HETATM    5  O   UNL     1     -11.677   6.291  68.599  1.00  0.00     0.071 OA 
HETATM    6  H   UNL     1     -10.043   7.136  71.215  1.00  0.00     0.000 HD 
BRANCH   4   7
HETATM    7  C   UNL     1      -9.125   5.735  69.853  1.00  0.00    -0.144 C  
HETATM    8  C   UNL     1      -8.793   4.722  70.996  1.00  0.00    -0.147 C  
BRANCH   7   9
HETATM    9  C   UNL     1      -9.445   4.878  68.557  1.00  0.00    -0.143 C  
BRANCH   9  10
HETATM   10  N   UNL     1      -8.939   5.218  67.186  1.00  0.00    -0.112 NA 
HETATM   11  H   UNL     1      -8.768   4.454  66.532  1.00  0.00     0.000 HD 
BRANCH  10  12
HETATM   12  C   UNL     1      -8.688   6.534  66.750  1.00  0.00    -0.123 A  
HETATM   13  N   UNL     1      -8.722   6.749  65.434  1.00  0.00    -0.048 NA 
HETATM   14  C   UNL     1      -8.357   7.971  65.031  1.00  0.00    -0.113 A  
HETATM   15  C   UNL     1      -8.049   9.030  65.863  1.00  0.00    -0.108 A  
HETATM   16  C   UNL     1      -8.048   8.802  67.228  1.00  0.00    -0.101 A  
HETATM   17  N   UNL     1      -8.314   7.509  67.668  1.00  0.00    -0.117 NA 
BRANCH  16  18
HETATM   18  C   UNL     1      -7.737  10.005  68.140  1.00  0.00    -0.085 A  
HETATM   19  C   UNL     1      -6.482  10.120  68.768  1.00  0.00    -0.052 A  
HETATM   20  N   UNL     1      -6.414  11.318  69.423  1.00  0.00    -0.092 NA 
HETATM   21  C   UNL     1      -8.349  11.292  68.518  1.00  0.00    -0.155 A  
HETATM   22  N   UNL     1      -7.535  12.017  69.317  1.00  0.00     0.098 NA 
BRANCH  20  23
HETATM   23  C   UNL     1      -5.277  11.915  70.146  1.00  0.00    -0.091 C  
HETATM   24  C   UNL     1      -5.198  11.468  71.612  1.00  0.00     0.086 C  
HETATM   25  C   UNL     1      -5.292  13.451  70.099  1.00  0.00    -0.105 C  
ENDBRANCH  20  23
BRANCH  21  26
HETATM   26  C   UNL     1      -9.648  11.913  68.259  1.00  0.00    -0.201 A  
HETATM   27  C   UNL     1     -10.502  12.388  69.284  1.00  0.00     0.176 A  
HETATM   28  C   UNL     1     -11.805  12.807  68.992  1.00  0.00    -0.297 A  
HETATM   29 CL   UNL     1     -12.798  13.526  70.196  1.00  0.00    -0.041 Cl 
HETATM   30  C   UNL     1     -12.323  12.641  67.701  1.00  0.00     0.351 A  
HETATM   31  C   UNL     1     -11.461  12.177  66.725  1.00  0.00    -0.356 A  
HETATM   32  C   UNL     1     -10.117  11.983  66.978  1.00  0.00    -0.203 A  
HETATM   33  F   UNL     1      -9.298  11.923  65.930  1.00  0.00    -0.224 F  
BRANCH  31  34
HETATM   34  N   UNL     1     -11.888  11.909  65.390  1.00  0.00    -0.190 N  
HETATM   35  H   UNL     1     -12.029  10.962  65.039  1.00  0.00     0.000 HD 
BRANCH  34  36
HETATM   36  S   UNL     1     -12.143  13.277  64.432  1.00  0.00    -0.420 S  
HETATM   37  O   UNL     1     -12.339  12.891  63.055  1.00  0.00    -0.509 OA 
HETATM   38  O   UNL     1     -13.117  14.061  65.160  1.00  0.00    -0.776 OA 
HETATM   39  C   UNL     1     -10.541  14.016  64.619  1.00  0.00    -0.395 C  
ENDBRANCH  34  36
ENDBRANCH  31  34
ENDBRANCH  21  26
ENDBRANCH  16  18
ENDBRANCH  10  12
ENDBRANCH   9  10
ENDBRANCH   7   9
ENDBRANCH   4   7
ENDBRANCH   2   3
TORSDOF 10
ENDMDL
MODEL      244
REMARK 921   NORMALIZED FREE ENERGY PREDICTED BY IDOCK:   -2.06 KCAL/MOL
REMARK 922        TOTAL FREE ENERGY PREDICTED BY IDOCK:   -5.22 KCAL/MOL
REMARK 923 INTER-LIGAND FREE ENERGY PREDICTED BY IDOCK:   -5.18 KCAL/MOL
REMARK 924 INTRA-LIGAND FREE ENERGY PREDICTED BY IDOCK:   -0.03 KCAL/MOL
REMARK 927      BINDING AFFINITY PREDICTED BY RF-SCORE:    0.00 PKD
ROOT
HETATM    1  C   UNL     1     -11.362   4.295  71.752  1.00  0.00     1.362 C  
HETATM    2  O   UNL     1     -12.071   5.240  72.573  1.00  0.00    -0.062 OA 
ENDROOT
BRANCH   2   3
HETATM    3  C   UNL     1     -12.020   6.521  72.104  1.00  0.00    -0.290 C  
HETATM    4  N   UNL     1     -11.641   7.395  73.100  1.00  0.00    -0.588 N  
HETATM    5  O   UNL     1     -12.290   6.829  70.951  1.00  0.00    -0.381 OA 
HETATM    6  H   UNL     1     -11.440   7.021  74.028  1.00  0.00     0.000 HD 
BRANCH   4   7
HETATM    7  C   UNL     1     -11.515   8.847  72.880  1.00  0.00     0.797 C  
HETATM    8  C   UNL     1     -10.099   9.121  72.279  1.00  0.00     0.260 C  
BRANCH   7   9
HETATM    9  C   UNL     1     -12.569   9.520  71.903  1.00  0.00    -0.396 C  
BRANCH   9  10
HETATM   10  N   UNL     1     -12.220  10.070  70.551  1.00  0.00    -0.414 NA 
HETATM   11  H   UNL     1     -12.126   9.415  69.774  1.00  0.00     0.000 HD 
BRANCH  10  12
HETATM   12  C   UNL     1     -12.015  11.440  70.294  1.00  0.00    -0.373 A  
HETATM   13  N   UNL     1     -12.365  12.292  71.259  1.00  0.00    -0.174 NA 
HETATM   14  C   UNL     1     -12.283  13.591  70.952  1.00  0.00    -0.305 A  
HETATM   15  C   UNL     1     -11.782  14.103  69.771  1.00  0.00    -0.370 A  
HETATM   16  C   UNL     1     -11.391  13.209  68.790  1.00  0.00    -0.291 A  
HETATM   17  N   UNL     1     -11.573  11.852  69.042  1.00  0.00    -0.291 NA 
BRANCH  16  18
HETATM   18  C   UNL     1     -10.801  13.801  67.495  1.00  0.00    -0.274 A  
HETATM   19  C   UNL     1     -10.757  15.195  67.302  1.00  0.00    -0.305 A  
HETATM   20  N   UNL     1     -10.090  15.467  66.140  1.00  0.00    -0.287 NA 
HETATM   21  C   UNL     1     -10.068  13.338  66.303  1.00  0.00    -0.294 A  
HETATM   22  N   UNL     1      -9.704  14.369  65.509  1.00  0.00    -0.251 NA 
BRANCH  20  23
HETATM   23  C   UNL     1      -9.722  16.775  65.568  1.00  0.00     0.160 C  
HETATM   24  C   UNL     1      -8.327  17.247  66.001  1.00  0.00    -0.154 C  
HETATM   25  C   UNL     1     -10.741  17.874  65.911  1.00  0.00    -0.116 C  
ENDBRANCH  20  23
BRANCH  21  26
HETATM   26  C   UNL     1      -9.706  12.019  65.784  1.00  0.00    -0.254 A  
HETATM   27  C   UNL     1      -9.834  11.658  64.420  1.00  0.00    -0.253 A  
HETATM   28  C   UNL     1      -9.643  10.333  64.011  1.00  0.00    -0.304 A  
HETATM   29 CL   UNL     1      -9.647   9.908  62.346  1.00  0.00    -0.176 Cl 
HETATM   30  C   UNL     1      -9.449   9.325  64.965  1.00  0.00    -0.119 A  
HETATM   31  C   UNL     1      -9.326   9.714  66.285  1.00  0.00    -0.185 A  
HETATM   32  C   UNL     1      -9.289  11.047  66.647  1.00  0.00    -0.177 A  
HETATM   33  F   UNL     1      -8.784  11.343  67.843  1.00  0.00    -0.129 F  
BRANCH  31  34
HETATM   34  N   UNL     1      -9.188   8.775  67.350  1.00  0.00    -0.135 N  
HETATM   35  H   UNL     1      -9.848   8.725  68.126  1.00  0.00     0.000 HD 
BRANCH  34  36
HETATM   36  S   UNL     1      -7.849   7.752  67.234  1.00  0.00    -0.119 S  
HETATM   37  O   UNL     1      -6.639   8.477  67.543  1.00  0.00    -0.057 OA 
HETATM   38  O   UNL     1      -8.235   6.555  67.949  1.00  0.00    -0.115 OA 
HETATM   39  C   UNL     1      -7.924   7.439  65.489  1.00  0.00    -0.122 C  
ENDBRANCH  34  36
ENDBRANCH  31  34
ENDBRANCH  21  26
ENDBRANCH  16  18
ENDBRANCH  10  12
ENDBRANCH   9  10
ENDBRANCH   7   9
ENDBRANCH   4   7
ENDBRANCH   2   3
TORSDOF 10
ENDMDL
MODEL      245
REMARK 921   NORMALIZED FREE ENERGY PREDICTED BY IDOCK:   -2.04 KCAL/MOL
REMARK 922        TOTAL FREE ENERGY PREDICTED BY IDOCK:   -5.20 KCAL/MOL
REMARK 923 INTER-LIGAND FREE ENERGY PREDICTED BY IDOCK:   -5.51 KCAL/MOL
REMARK 924 INTRA-LIGAND FREE ENERGY PREDICTED BY IDOCK:    0.31 KCAL/MOL
REMARK 927      BINDING AFFINITY PREDICTED BY RF-SCORE:    0.00 PKD
ROOT
HETATM    1  C   UNL     1      -9.602   9.490  64.134  1.00  0.00     0.332 C  
HETATM    2  O   UNL     1      -8.173   9.346  64.066  1.00  0.00    -0.143 OA 
ENDROOT
BRANCH   2   3
HETATM    3  C   UNL     1      -7.523   9.789  65.181  1.00  0.00    -0.122 C  
HETATM    4  N   UNL     1      -7.733   8.936  66.243  1.00  0.00    -0.097 N  
HETATM    5  O   UNL     1      -6.859  10.816  65.212  1.00  0.00    -0.033 OA 
HETATM    6  H   UNL     1      -8.309   8.106  66.098  1.00  0.00     0.000 HD 
BRANCH   4   7
HETATM    7  C   UNL     1      -7.161   9.175  67.581  1.00  0.00    -0.082 C  
HETATM    8  C   UNL     1      -5.654   8.765  67.539  1.00  0.00    -0.039 C  
BRANCH   7   9
HETATM    9  C   UNL     1      -7.220  10.661  68.133  1.00  0.00    -0.086 C  
BRANCH   9  10
HETATM   10  N   UNL     1      -6.239  11.731  67.753  1.00  0.00    -0.054 NA 
HETATM   11  H   UNL     1      -5.521  11.504  67.066  1.00  0.00     0.000 HD 
BRANCH  10  12
HETATM   12  C   UNL     1      -6.255  13.033  68.293  1.00  0.00    -0.085 A  
HETATM   13  N   UNL     1      -5.144  13.443  68.907  1.00  0.00    -0.066 NA 
HETATM   14  C   UNL     1      -5.219  14.628  69.522  1.00  0.00    -0.087 A  
HETATM   15  C   UNL     1      -6.305  15.481  69.487  1.00  0.00    -0.155 A  
HETATM   16  C   UNL     1      -7.441  15.057  68.819  1.00  0.00    -0.133 A  
HETATM   17  N   UNL     1      -7.427  13.780  68.266  1.00  0.00    -0.108 NA 
BRANCH  16  18
HETATM   18  C   UNL     1      -8.628  16.039  68.760  1.00  0.00    -0.223 A  
HETATM   19  C   UNL     1      -8.414  17.404  68.489  1.00  0.00    -0.274 A  
HETATM   20  N   UNL     1      -9.622  18.035  68.378  1.00  0.00    -0.319 NA 
HETATM   21  C   UNL     1     -10.101  15.992  68.775  1.00  0.00    -0.225 A  
HETATM   22  N   UNL     1     -10.642  17.216  68.584  1.00  0.00    -0.359 NA 
BRANCH  20  23
HETATM   23  C   UNL     1      -9.904  19.436  68.018  1.00  0.00    -0.369 C  
HETATM   24  C   UNL     1      -9.332  19.830  66.650  1.00  0.00    -0.483 C  
HETATM   25  C   UNL     1      -9.388  20.429  69.072  1.00  0.00     0.487 C  
ENDBRANCH  20  23
BRANCH  21  26
HETATM   26  C   UNL     1     -11.080  14.929  69.002  1.00  0.00    -0.260 A  
HETATM   27  C   UNL     1     -11.679  14.677  70.261  1.00  0.00    -0.355 A  
HETATM   28  C   UNL     1     -12.469  13.540  70.461  1.00  0.00    -0.302 A  
HETATM   29 CL   UNL     1     -13.322  13.300  71.934  1.00  0.00    -0.530 Cl 
HETATM   30  C   UNL     1     -12.572  12.570  69.455  1.00  0.00     0.408 A  
HETATM   31  C   UNL     1     -11.978  12.850  68.239  1.00  0.00    -0.254 A  
HETATM   32  C   UNL     1     -11.396  14.076  67.983  1.00  0.00    -0.293 A  
HETATM   33  F   UNL     1     -11.206  14.410  66.708  1.00  0.00    -0.303 F  
BRANCH  31  34
HETATM   34  N   UNL     1     -11.964  11.916  67.161  1.00  0.00    -0.118 N  
HETATM   35  H   UNL     1     -12.756  11.796  66.529  1.00  0.00     0.000 HD 
BRANCH  34  36
HETATM   36  S   UNL     1     -10.540  11.022  67.007  1.00  0.00    -0.269 S  
HETATM   37  O   UNL     1     -10.841   9.670  66.598  1.00  0.00    -0.088 OA 
HETATM   38  O   UNL     1      -9.647  11.876  66.252  1.00  0.00    -0.218 OA 
HETATM   39  C   UNL     1     -10.052  11.031  68.713  1.00  0.00    -0.203 C  
ENDBRANCH  34  36
ENDBRANCH  31  34
ENDBRANCH  21  26
ENDBRANCH  16  18
ENDBRANCH  10  12
ENDBRANCH   9  10
ENDBRANCH   7   9
ENDBRANCH   4   7
ENDBRANCH   2   3
TORSDOF 10
ENDMDL
MODEL      246
REMARK 921   NORMALIZED FREE ENERGY PREDICTED BY IDOCK:   -1.93 KCAL/MOL
REMARK 922        TOTAL FREE ENERGY PREDICTED BY IDOCK:   -5.02 KCAL/MOL
REMARK 923 INTER-LIGAND FREE ENERGY PREDICTED BY IDOCK:   -3.69 KCAL/MOL
REMARK 924 INTRA-LIGAND FREE ENERGY PREDICTED BY IDOCK:   -1.33 KCAL/MOL
REMARK 927      BINDING AFFINITY PREDICTED BY RF-SCORE:    0.00 PKD
ROOT
HETATM    1  C   UNL     1     -11.515  16.574  64.960  1.00  0.00     0.200 C  
HETATM    2  O   UNL     1     -11.031  15.931  66.153  1.00  0.00    -0.254 OA 
ENDROOT
BRANCH   2   3
HETATM    3  C   UNL     1     -11.537  14.678  66.343  1.00  0.00    -0.339 C  
HETATM    4  N   UNL     1     -11.559  13.972  65.160  1.00  0.00    -0.329 N  
HETATM    5  O   UNL     1     -11.923  14.263  67.427  1.00  0.00    -0.395 OA 
HETATM    6  H   UNL     1     -11.209  14.423  64.314  1.00  0.00     0.000 HD 
BRANCH   4   7
HETATM    7  C   UNL     1     -12.067  12.591  65.066  1.00  0.00    -0.446 C  
HETATM    8  C   UNL     1     -11.524  11.968  63.740  1.00  0.00    -0.547 C  
BRANCH   7   9
HETATM    9  C   UNL     1     -11.671  11.598  66.238  1.00  0.00     0.094 C  
BRANCH   9  10
HETATM   10  N   UNL     1     -10.298  11.018  66.412  1.00  0.00    -0.243 NA 
HETATM   11  H   UNL     1      -9.510  11.510  65.990  1.00  0.00     0.000 HD 
BRANCH  10  12
HETATM   12  C   UNL     1     -10.035   9.833  67.127  1.00  0.00    -0.198 A  
HETATM   13  N   UNL     1     -10.904   8.832  66.972  1.00  0.00    -0.099 NA 
HETATM   14  C   UNL     1     -10.711   7.763  67.752  1.00  0.00    -0.127 A  
HETATM   15  C   UNL     1      -9.646   7.584  68.614  1.00  0.00    -0.151 A  
HETATM   16  C   UNL     1      -8.734   8.616  68.741  1.00  0.00    -0.135 A  
HETATM   17  N   UNL     1      -8.975   9.785  68.025  1.00  0.00    -0.119 NA 
BRANCH  16  18
HETATM   18  C   UNL     1      -7.534   8.381  69.681  1.00  0.00    -0.073 A  
HETATM   19  C   UNL     1      -7.186   7.078  70.083  1.00  0.00    -0.075 A  
HETATM   20  N   UNL     1      -6.031   7.125  70.812  1.00  0.00    -0.031 NA 
HETATM   21  C   UNL     1      -6.424   9.153  70.268  1.00  0.00    -0.050 A  
HETATM   22  N   UNL     1      -5.580   8.361  70.967  1.00  0.00    -0.032 NA 
BRANCH  20  23
HETATM   23  C   UNL     1      -5.241   6.012  71.369  1.00  0.00    -0.017 C  
HETATM   24  C   UNL     1      -5.674   4.642  70.830  1.00  0.00    -0.016 C  
HETATM   25  C   UNL     1      -5.282   5.972  72.905  1.00  0.00    -0.027 C  
ENDBRANCH  20  23
BRANCH  21  26
HETATM   26  C   UNL     1      -6.080  10.575  70.297  1.00  0.00    -0.115 A  
HETATM   27  C   UNL     1      -5.804  11.284  71.492  1.00  0.00     0.599 A  
HETATM   28  C   UNL     1      -5.657  12.675  71.478  1.00  0.00     0.195 A  
HETATM   29 CL   UNL     1      -5.174  13.531  72.888  1.00  0.00    -0.106 Cl 
HETATM   30  C   UNL     1      -5.910  13.397  70.304  1.00  0.00    -0.157 A  
HETATM   31  C   UNL     1      -6.174  12.672  69.157  1.00  0.00    -0.098 A  
HETATM   32  C   UNL     1      -6.091  11.293  69.136  1.00  0.00    -0.053 A  
HETATM   33  F   UNL     1      -5.968  10.704  67.948  1.00  0.00    -0.044 F  
BRANCH  31  34
HETATM   34  N   UNL     1      -6.507  13.295  67.917  1.00  0.00    -0.129 N  
HETATM   35  H   UNL     1      -5.810  13.489  67.198  1.00  0.00     0.000 HD 
BRANCH  34  36
HETATM   36  S   UNL     1      -8.138  13.688  67.728  1.00  0.00    -0.191 S  
HETATM   37  O   UNL     1      -8.412  14.033  66.353  1.00  0.00     0.163 OA 
HETATM   38  O   UNL     1      -8.854  12.634  68.416  1.00  0.00    -0.180 OA 
HETATM   39  C   UNL     1      -8.160  15.155  68.725  1.00  0.00    -0.166 C  
ENDBRANCH  34  36
ENDBRANCH  31  34
ENDBRANCH  21  26
ENDBRANCH  16  18
ENDBRANCH  10  12
ENDBRANCH   9  10
ENDBRANCH   7   9
ENDBRANCH   4   7
ENDBRANCH   2   3
TORSDOF 10
ENDMDL
MODEL      247
REMARK 921   NORMALIZED FREE ENERGY PREDICTED BY IDOCK:   -1.81 KCAL/MOL
REMARK 922        TOTAL FREE ENERGY PREDICTED BY IDOCK:   -4.83 KCAL/MOL
REMARK 923 INTER-LIGAND FREE ENERGY PREDICTED BY IDOCK:   -3.66 KCAL/MOL
REMARK 924 INTRA-LIGAND FREE ENERGY PREDICTED BY IDOCK:   -1.17 KCAL/MOL
REMARK 927      BINDING AFFINITY PREDICTED BY RF-SCORE:    0.00 PKD
ROOT
HETATM    1  C   UNL     1     -10.874  15.792  67.943  1.00  0.00    -0.314 C  
HETATM    2  O   UNL     1     -10.340  15.056  66.828  1.00  0.00    -0.262 OA 
ENDROOT
BRANCH   2   3
HETATM    3  C   UNL     1      -9.178  15.575  66.335  1.00  0.00    -0.305 C  
HETATM    4  N   UNL     1      -8.890  16.786  66.927  1.00  0.00    -0.207 N  
HETATM    5  O   UNL     1      -8.506  15.026  65.473  1.00  0.00     1.332 OA 
HETATM    6  H   UNL     1      -9.528  17.147  67.637  1.00  0.00     0.000 HD 
BRANCH   4   7
HETATM    7  C   UNL     1      -7.699  17.580  66.576  1.00  0.00    -0.275 C  
HETATM    8  C   UNL     1      -7.629  18.799  67.552  1.00  0.00    -0.243 C  
BRANCH   7   9
HETATM    9  C   UNL     1      -6.295  16.845  66.657  1.00  0.00    -0.179 C  
BRANCH   9  10
HETATM   10  N   UNL     1      -5.684  16.352  67.936  1.00  0.00    -0.117 NA 
HETATM   11  H   UNL     1      -4.934  16.902  68.355  1.00  0.00     0.000 HD 
BRANCH  10  12
HETATM   12  C   UNL     1      -6.086  15.170  68.590  1.00  0.00    -0.086 A  
HETATM   13  N   UNL     1      -6.318  15.257  69.901  1.00  0.00    -0.159 NA 
HETATM   14  C   UNL     1      -6.574  14.104  70.528  1.00  0.00     0.094 A  
HETATM   15  C   UNL     1      -6.711  12.873  69.915  1.00  0.00     0.240 A  
HETATM   16  C   UNL     1      -6.501  12.802  68.549  1.00  0.00    -0.082 A  
HETATM   17  N   UNL     1      -6.121  13.969  67.892  1.00  0.00    -0.148 NA 
BRANCH  16  18
HETATM   18  C   UNL     1      -6.694  11.427  67.880  1.00  0.00    -0.064 A  
HETATM   19  C   UNL     1      -5.591  10.729  67.352  1.00  0.00    -0.044 A  
HETATM   20  N   UNL     1      -6.003   9.498  66.922  1.00  0.00    -0.055 NA 
HETATM   21  C   UNL     1      -7.762  10.428  67.699  1.00  0.00    -0.093 A  
HETATM   22  N   UNL     1      -7.304   9.313  67.086  1.00  0.00    -0.090 NA 
BRANCH  20  23
HETATM   23  C   UNL     1      -5.197   8.390  66.378  1.00  0.00    -0.027 C  
HETATM   24  C   UNL     1      -5.305   8.262  64.853  1.00  0.00    -0.036 C  
HETATM   25  C   UNL     1      -5.554   7.036  67.012  1.00  0.00    -0.018 C  
ENDBRANCH  20  23
BRANCH  21  26
HETATM   26  C   UNL     1      -9.196  10.410  67.990  1.00  0.00    -0.142 A  
HETATM   27  C   UNL     1     -10.003  11.573  67.994  1.00  0.00    -0.197 A  
HETATM   28  C   UNL     1     -11.324  11.524  68.453  1.00  0.00    -0.279 A  
HETATM   29 CL   UNL     1     -12.361  12.889  68.324  1.00  0.00     0.031 Cl 
HETATM   30  C   UNL     1     -11.822  10.350  69.035  1.00  0.00    -0.094 A  
HETATM   31  C   UNL     1     -11.007   9.234  69.011  1.00  0.00    -0.033 A  
HETATM   32  C   UNL     1      -9.794   9.236  68.351  1.00  0.00    -0.155 A  
HETATM   33  F   UNL     1      -9.265   8.056  68.037  1.00  0.00    -0.135 F  
BRANCH  31  34
HETATM   34  N   UNL     1     -11.380   8.001  69.625  1.00  0.00    -0.441 N  
HETATM   35  H   UNL     1     -11.850   7.254  69.114  1.00  0.00     0.000 HD 
BRANCH  34  36
HETATM   36  S   UNL     1     -10.986   7.869  71.262  1.00  0.00    -0.243 S  
HETATM   37  O   UNL     1     -10.460   6.554  71.544  1.00  0.00    -0.210 OA 
HETATM   38  O   UNL     1     -10.245   9.076  71.562  1.00  0.00    -0.298 OA 
HETATM   39  C   UNL     1     -12.624   8.008  71.927  1.00  0.00    -0.328 C  
ENDBRANCH  34  36
ENDBRANCH  31  34
ENDBRANCH  21  26
ENDBRANCH  16  18
ENDBRANCH  10  12
ENDBRANCH   9  10
ENDBRANCH   7   9
ENDBRANCH   4   7
ENDBRANCH   2   3
TORSDOF 10
ENDMDL
MODEL      248
REMARK 921   NORMALIZED FREE ENERGY PREDICTED BY IDOCK:   -1.81 KCAL/MOL
REMARK 922        TOTAL FREE ENERGY PREDICTED BY IDOCK:   -4.83 KCAL/MOL
REMARK 923 INTER-LIGAND FREE ENERGY PREDICTED BY IDOCK:   -5.03 KCAL/MOL
REMARK 924 INTRA-LIGAND FREE ENERGY PREDICTED BY IDOCK:    0.21 KCAL/MOL
REMARK 927      BINDING AFFINITY PREDICTED BY RF-SCORE:    0.00 PKD
ROOT
HETATM    1  C   UNL     1     -12.786  11.380  69.513  1.00  0.00     0.326 C  
HETATM    2  O   UNL     1     -11.527  11.632  68.862  1.00  0.00    -0.234 OA 
ENDROOT
BRANCH   2   3
HETATM    3  C   UNL     1     -10.448  11.180  69.564  1.00  0.00    -0.037 C  
HETATM    4  N   UNL     1     -10.810  10.164  70.422  1.00  0.00    -0.321 N  
HETATM    5  O   UNL     1      -9.321  11.640  69.439  1.00  0.00     0.350 OA 
HETATM    6  H   UNL     1     -11.785   9.863  70.440  1.00  0.00     0.000 HD 
BRANCH   4   7
HETATM    7  C   UNL     1      -9.846   9.495  71.315  1.00  0.00    -0.025 C  
HETATM    8  C   UNL     1     -10.571   8.282  71.983  1.00  0.00    -0.365 C  
BRANCH   7   9
HETATM    9  C   UNL     1      -8.522   8.930  70.649  1.00  0.00    -0.184 C  
BRANCH   9  10
HETATM   10  N   UNL     1      -7.171   9.565  70.807  1.00  0.00    -0.234 NA 
HETATM   11  H   UNL     1      -6.576   9.246  71.571  1.00  0.00     0.000 HD 
BRANCH  10  12
HETATM   12  C   UNL     1      -6.680  10.578  69.959  1.00  0.00    -0.151 A  
HETATM   13  N   UNL     1      -5.934  10.187  68.925  1.00  0.00    -0.038 NA 
HETATM   14  C   UNL     1      -5.372  11.165  68.206  1.00  0.00    -0.039 A  
HETATM   15  C   UNL     1      -5.582  12.518  68.393  1.00  0.00    -0.058 A  
HETATM   16  C   UNL     1      -6.385  12.909  69.450  1.00  0.00    -0.109 A  
HETATM   17  N   UNL     1      -6.890  11.914  70.282  1.00  0.00     0.264 NA 
BRANCH  16  18
HETATM   18  C   UNL     1      -6.636  14.421  69.619  1.00  0.00    -0.147 A  
HETATM   19  C   UNL     1      -5.576  15.289  69.944  1.00  0.00    -0.120 A  
HETATM   20  N   UNL     1      -6.029  16.579  69.924  1.00  0.00    -0.206 NA 
HETATM   21  C   UNL     1      -7.726  15.390  69.406  1.00  0.00    -0.227 A  
HETATM   22  N   UNL     1      -7.320  16.657  69.641  1.00  0.00     0.054 NA 
BRANCH  20  23
HETATM   23  C   UNL     1      -5.271  17.829  70.114  1.00  0.00    -0.224 C  
HETATM   24  C   UNL     1      -5.636  18.559  71.413  1.00  0.00     0.062 C  
HETATM   25  C   UNL     1      -5.440  18.803  68.937  1.00  0.00    -0.195 C  
ENDBRANCH  20  23
BRANCH  21  26
HETATM   26  C   UNL     1      -9.140  15.265  69.051  1.00  0.00    -0.225 A  
HETATM   27  C   UNL     1     -10.174  15.129  70.010  1.00  0.00    -0.149 A  
HETATM   28  C   UNL     1     -11.482  14.834  69.612  1.00  0.00    -0.292 A  
HETATM   29 CL   UNL     1     -12.773  14.816  70.747  1.00  0.00    -0.400 Cl 
HETATM   30  C   UNL     1     -11.759  14.543  68.269  1.00  0.00    -0.368 A  
HETATM   31  C   UNL     1     -10.728  14.689  67.361  1.00  0.00    -0.280 A  
HETATM   32  C   UNL     1      -9.500  15.200  67.735  1.00  0.00    -0.194 A  
HETATM   33  F   UNL     1      -8.713  15.672  66.771  1.00  0.00    -0.208 F  
BRANCH  31  34
HETATM   34  N   UNL     1     -10.872  14.363  65.980  1.00  0.00    -0.303 N  
HETATM   35  H   UNL     1     -11.146  15.052  65.280  1.00  0.00     0.000 HD 
BRANCH  34  36
HETATM   36  S   UNL     1     -10.556  12.751  65.587  1.00  0.00    -0.280 S  
HETATM   37  O   UNL     1     -11.350  11.872  66.413  1.00  0.00    -0.331 OA 
HETATM   38  O   UNL     1     -10.607  12.706  64.141  1.00  0.00    -0.355 OA 
HETATM   39  C   UNL     1      -8.863  12.692  66.114  1.00  0.00     0.208 C  
ENDBRANCH  34  36
ENDBRANCH  31  34
ENDBRANCH  21  26
ENDBRANCH  16  18
ENDBRANCH  10  12
ENDBRANCH   9  10
ENDBRANCH   7   9
ENDBRANCH   4   7
ENDBRANCH   2   3
TORSDOF 10
ENDMDL
MODEL      249
REMARK 921   NORMALIZED FREE ENERGY PREDICTED BY IDOCK:   -1.81 KCAL/MOL
REMARK 922        TOTAL FREE ENERGY PREDICTED BY IDOCK:   -4.82 KCAL/MOL
REMARK 923 INTER-LIGAND FREE ENERGY PREDICTED BY IDOCK:   -4.68 KCAL/MOL
REMARK 924 INTRA-LIGAND FREE ENERGY PREDICTED BY IDOCK:   -0.14 KCAL/MOL
REMARK 927      BINDING AFFINITY PREDICTED BY RF-SCORE:    0.00 PKD
ROOT
HETATM    1  C   UNL     1      -5.782  15.109  72.249  1.00  0.00     0.570 C  
HETATM    2  O   UNL     1      -5.703  13.733  71.836  1.00  0.00    -0.355 OA 
ENDROOT
BRANCH   2   3
HETATM    3  C   UNL     1      -5.438  13.574  70.506  1.00  0.00    -0.145 C  
HETATM    4  N   UNL     1      -5.498  12.245  70.149  1.00  0.00    -0.111 N  
HETATM    5  O   UNL     1      -5.173  14.503  69.755  1.00  0.00    -0.092 OA 
HETATM    6  H   UNL     1      -5.729  11.555  70.865  1.00  0.00     0.000 HD 
BRANCH   4   7
HETATM    7  C   UNL     1      -5.241  11.777  68.774  1.00  0.00    -0.049 C  
HETATM    8  C   UNL     1      -5.285  10.216  68.781  1.00  0.00    -0.035 C  
BRANCH   7   9
HETATM    9  C   UNL     1      -6.251  12.262  67.651  1.00  0.00    -0.120 C  
BRANCH   9  10
HETATM   10  N   UNL     1      -6.095  11.941  66.193  1.00  0.00    -0.399 NA 
HETATM   11  H   UNL     1      -5.828  12.696  65.560  1.00  0.00     0.000 HD 
BRANCH  10  12
HETATM   12  C   UNL     1      -6.296  10.658  65.649  1.00  0.00    -0.103 A  
HETATM   13  N   UNL     1      -5.650  10.376  64.516  1.00  0.00    -0.132 NA 
HETATM   14  C   UNL     1      -5.950   9.204  63.947  1.00  0.00    -0.079 A  
HETATM   15  C   UNL     1      -6.785   8.243  64.485  1.00  0.00    -0.068 A  
HETATM   16  C   UNL     1      -7.423   8.534  65.678  1.00  0.00    -0.085 A  
HETATM   17  N   UNL     1      -7.216   9.794  66.233  1.00  0.00    -0.096 NA 
BRANCH  16  18
HETATM   18  C   UNL     1      -8.321   7.435  66.280  1.00  0.00    -0.132 A  
HETATM   19  C   UNL     1      -7.993   6.076  66.118  1.00  0.00    -0.107 A  
HETATM   20  N   UNL     1      -8.872   5.312  66.833  1.00  0.00    -0.111 NA 
HETATM   21  C   UNL     1      -9.482   7.329  67.181  1.00  0.00    -0.145 A  
HETATM   22  N   UNL     1      -9.794   6.040  67.445  1.00  0.00    -0.123 NA 
BRANCH  20  23
HETATM   23  C   UNL     1      -8.878   3.852  67.037  1.00  0.00    -0.126 C  
HETATM   24  C   UNL     1      -9.483   3.084  65.854  1.00  0.00    -0.016 C  
HETATM   25  C   UNL     1      -9.616   3.440  68.321  1.00  0.00    -0.149 C  
ENDBRANCH  20  23
BRANCH  21  26
HETATM   26  C   UNL     1     -10.383   8.305  67.795  1.00  0.00    -0.296 A  
HETATM   27  C   UNL     1     -10.730   9.535  67.184  1.00  0.00    -0.252 A  
HETATM   28  C   UNL     1     -11.449  10.505  67.892  1.00  0.00    -0.109 A  
HETATM   29 CL   UNL     1     -12.007  11.936  67.120  1.00  0.00    -0.192 Cl 
HETATM   30  C   UNL     1     -11.722  10.323  69.254  1.00  0.00    -0.141 A  
HETATM   31  C   UNL     1     -11.372   9.109  69.815  1.00  0.00     0.030 A  
HETATM   32  C   UNL     1     -10.869   8.075  69.050  1.00  0.00     0.003 A  
HETATM   33  F   UNL     1     -10.928   6.848  69.564  1.00  0.00    -0.240 F  
BRANCH  31  34
HETATM   34  N   UNL     1     -11.544   8.830  71.204  1.00  0.00    -0.279 N  
HETATM   35  H   UNL     1     -10.763   8.592  71.816  1.00  0.00     0.000 HD 
BRANCH  34  36
HETATM   36  S   UNL     1     -13.135   8.924  71.762  1.00  0.00    -0.397 S  
HETATM   37  O   UNL     1     -13.151   9.180  73.183  1.00  0.00    -0.128 OA 
HETATM   38  O   UNL     1     -13.808   9.787  70.815  1.00  0.00    -0.114 OA 
HETATM   39  C   UNL     1     -13.607   7.241  71.457  1.00  0.00    -0.356 C  
ENDBRANCH  34  36
ENDBRANCH  31  34
ENDBRANCH  21  26
ENDBRANCH  16  18
ENDBRANCH  10  12
ENDBRANCH   9  10
ENDBRANCH   7   9
ENDBRANCH   4   7
ENDBRANCH   2   3
TORSDOF 10
ENDMDL
MODEL      250
REMARK 921   NORMALIZED FREE ENERGY PREDICTED BY IDOCK:   -1.77 KCAL/MOL
REMARK 922        TOTAL FREE ENERGY PREDICTED BY IDOCK:   -4.76 KCAL/MOL
REMARK 923 INTER-LIGAND FREE ENERGY PREDICTED BY IDOCK:   -3.63 KCAL/MOL
REMARK 924 INTRA-LIGAND FREE ENERGY PREDICTED BY IDOCK:   -1.13 KCAL/MOL
REMARK 927      BINDING AFFINITY PREDICTED BY RF-SCORE:    0.00 PKD
ROOT
HETATM    1  C   UNL     1     -12.402  14.737  64.310  1.00  0.00    -0.320 C  
HETATM    2  O   UNL     1     -12.275  13.862  65.445  1.00  0.00    -0.393 OA 
ENDROOT
BRANCH   2   3
HETATM    3  C   UNL     1     -11.289  12.928  65.310  1.00  0.00    -0.300 C  
HETATM    4  N   UNL     1     -11.537  12.106  64.231  1.00  0.00    -0.354 N  
HETATM    5  O   UNL     1     -10.331  12.843  66.065  1.00  0.00    -0.271 OA 
HETATM    6  H   UNL     1     -12.373  12.272  63.670  1.00  0.00     0.000 HD 
BRANCH   4   7
HETATM    7  C   UNL     1     -10.642  10.997  63.854  1.00  0.00    -0.312 C  
HETATM    8  C   UNL     1      -9.444  11.597  63.050  1.00  0.00    -0.265 C  
BRANCH   7   9
HETATM    9  C   UNL     1     -10.021  10.140  65.036  1.00  0.00    -0.305 C  
BRANCH   9  10
HETATM   10  N   UNL     1      -8.621  10.315  65.547  1.00  0.00    -0.157 NA 
HETATM   11  H   UNL     1      -8.193  11.238  65.472  1.00  0.00     0.000 HD 
BRANCH  10  12
HETATM   12  C   UNL     1      -7.864   9.276  66.124  1.00  0.00    -0.099 A  
HETATM   13  N   UNL     1      -6.820   9.635  66.871  1.00  0.00    -0.079 NA 
HETATM   14  C   UNL     1      -6.040   8.640  67.305  1.00  0.00    -0.055 A  
HETATM   15  C   UNL     1      -6.286   7.292  67.123  1.00  0.00    -0.051 A  
HETATM   16  C   UNL     1      -7.392   6.931  66.373  1.00  0.00    -0.073 A  
HETATM   17  N   UNL     1      -8.156   7.952  65.815  1.00  0.00    -0.115 NA 
BRANCH  16  18
HETATM   18  C   UNL     1      -7.669   5.423  66.212  1.00  0.00    -0.099 A  
HETATM   19  C   UNL     1      -7.260   4.742  65.050  1.00  0.00    -0.064 A  
HETATM   20  N   UNL     1      -7.516   3.407  65.198  1.00  0.00    -0.072 NA 
HETATM   21  C   UNL     1      -8.172   4.301  67.024  1.00  0.00    -0.101 A  
HETATM   22  N   UNL     1      -8.096   3.128  66.356  1.00  0.00    -0.084 NA 
BRANCH  20  23
HETATM   23  C   UNL     1      -7.185   2.295  64.289  1.00  0.00    -0.057 C  
HETATM   24  C   UNL     1      -5.712   1.874  64.368  1.00  0.00    -0.009 C  
HETATM   25  C   UNL     1      -7.530   2.611  62.825  1.00  0.00    -0.049 C  
ENDBRANCH  20  23
BRANCH  21  26
HETATM   26  C   UNL     1      -8.772   4.199  68.354  1.00  0.00    -0.122 A  
HETATM   27  C   UNL     1      -8.448   3.174  69.278  1.00  0.00    -0.098 A  
HETATM   28  C   UNL     1      -9.180   3.021  70.460  1.00  0.00    -0.140 A  
HETATM   29 CL   UNL     1      -8.706   1.883  71.658  1.00  0.00    -0.089 Cl 
HETATM   30  C   UNL     1     -10.325   3.799  70.683  1.00  0.00     0.587 A  
HETATM   31  C   UNL     1     -10.609   4.790  69.763  1.00  0.00     0.359 A  
HETATM   32  C   UNL     1      -9.750   5.079  68.721  1.00  0.00    -0.161 A  
HETATM   33  F   UNL     1      -9.880   6.265  68.129  1.00  0.00    -0.124 F  
BRANCH  31  34
HETATM   34  N   UNL     1     -11.778   5.603  69.850  1.00  0.00     0.836 N  
HETATM   35  H   UNL     1     -12.591   5.461  69.250  1.00  0.00     0.000 HD 
BRANCH  34  36
HETATM   36  S   UNL     1     -11.718   6.820  71.020  1.00  0.00    -0.370 S  
HETATM   37  O   UNL     1     -10.994   6.360  72.182  1.00  0.00    -0.230 OA 
HETATM   38  O   UNL     1     -11.334   8.012  70.295  1.00  0.00    -0.243 OA 
HETATM   39  C   UNL     1     -13.451   6.895  71.393  1.00  0.00    -0.154 C  
ENDBRANCH  34  36
ENDBRANCH  31  34
ENDBRANCH  21  26
ENDBRANCH  16  18
ENDBRANCH  10  12
ENDBRANCH   9  10
ENDBRANCH   7   9
ENDBRANCH   4   7
ENDBRANCH   2   3
TORSDOF 10
ENDMDL
MODEL      251
REMARK 921   NORMALIZED FREE ENERGY PREDICTED BY IDOCK:   -1.71 KCAL/MOL
REMARK 922        TOTAL FREE ENERGY PREDICTED BY IDOCK:   -4.66 KCAL/MOL
REMARK 923 INTER-LIGAND FREE ENERGY PREDICTED BY IDOCK:   -3.77 KCAL/MOL
REMARK 924 INTRA-LIGAND FREE ENERGY PREDICTED BY IDOCK:   -0.89 KCAL/MOL
REMARK 927      BINDING AFFINITY PREDICTED BY RF-SCORE:    0.00 PKD
ROOT
HETATM    1  C   UNL     1      -9.198   6.985  66.619  1.00  0.00    -0.158 C  
HETATM    2  O   UNL     1      -7.799   6.722  66.412  1.00  0.00    -0.099 OA 
ENDROOT
BRANCH   2   3
HETATM    3  C   UNL     1      -6.976   7.528  67.145  1.00  0.00    -0.083 C  
HETATM    4  N   UNL     1      -6.491   8.564  66.376  1.00  0.00    -0.057 N  
HETATM    5  O   UNL     1      -6.709   7.329  68.322  1.00  0.00    -0.050 OA 
HETATM    6  H   UNL     1      -6.784   8.629  65.400  1.00  0.00     0.000 HD 
BRANCH   4   7
HETATM    7  C   UNL     1      -5.567   9.583  66.905  1.00  0.00    -0.047 C  
HETATM    8  C   UNL     1      -5.511  10.761  65.879  1.00  0.00    -0.133 C  
BRANCH   7   9
HETATM    9  C   UNL     1      -5.927  10.217  68.315  1.00  0.00    -0.041 C  
BRANCH   9  10
HETATM   10  N   UNL     1      -5.397  11.535  68.797  1.00  0.00    -0.043 NA 
HETATM   11  H   UNL     1      -4.516  11.540  69.312  1.00  0.00     0.000 HD 
BRANCH  10  12
HETATM   12  C   UNL     1      -6.047  12.765  68.580  1.00  0.00    -0.067 A  
HETATM   13  N   UNL     1      -5.278  13.801  68.239  1.00  0.00    -0.101 NA 
HETATM   14  C   UNL     1      -5.892  14.986  68.161  1.00  0.00    -0.135 A  
HETATM   15  C   UNL     1      -7.250  15.195  68.308  1.00  0.00    -0.112 A  
HETATM   16  C   UNL     1      -8.042  14.107  68.629  1.00  0.00    -0.126 A  
HETATM   17  N   UNL     1      -7.410  12.883  68.828  1.00  0.00    -0.096 NA 
BRANCH  16  18
HETATM   18  C   UNL     1      -9.559  14.355  68.753  1.00  0.00    -0.177 A  
HETATM   19  C   UNL     1     -10.106  14.851  69.951  1.00  0.00     0.057 A  
HETATM   20  N   UNL     1     -11.440  15.091  69.771  1.00  0.00    -0.277 NA 
HETATM   21  C   UNL     1     -10.751  14.360  67.886  1.00  0.00    -0.244 A  
HETATM   22  N   UNL     1     -11.852  14.768  68.555  1.00  0.00    -0.325 NA 
BRANCH  20  23
HETATM   23  C   UNL     1     -12.407  15.690  70.708  1.00  0.00    -0.419 C  
HETATM   24  C   UNL     1     -11.757  16.182  72.008  1.00  0.00    -0.574 C  
HETATM   25  C   UNL     1     -13.553  14.729  71.064  1.00  0.00    -0.364 C  
ENDBRANCH  20  23
BRANCH  21  26
HETATM   26  C   UNL     1     -10.997  13.975  66.496  1.00  0.00    -0.306 A  
HETATM   27  C   UNL     1     -11.713  14.783  65.580  1.00  0.00    -0.274 A  
HETATM   28  C   UNL     1     -12.073  14.289  64.321  1.00  0.00    -0.441 A  
HETATM   29 CL   UNL     1     -12.807  15.304  63.145  1.00  0.00     2.089 Cl 
HETATM   30  C   UNL     1     -11.841  12.944  64.002  1.00  0.00    -0.512 A  
HETATM   31  C   UNL     1     -11.138  12.186  64.919  1.00  0.00    -0.319 A  
HETATM   32  C   UNL     1     -10.591  12.747  66.056  1.00  0.00    -0.268 A  
HETATM   33  F   UNL     1      -9.621  12.071  66.669  1.00  0.00    -0.196 F  
BRANCH  31  34
HETATM   34  N   UNL     1     -10.894  10.792  64.733  1.00  0.00    -0.110 N  
HETATM   35  H   UNL     1     -11.585  10.079  64.968  1.00  0.00     0.000 HD 
BRANCH  34  36
HETATM   36  S   UNL     1      -9.378  10.409  64.095  1.00  0.00    -0.299 S  
HETATM   37  O   UNL     1      -8.503  11.555  64.167  1.00  0.00     0.499 OA 
HETATM   38  O   UNL     1      -9.035   9.137  64.696  1.00  0.00    -0.192 OA 
HETATM   39  C   UNL     1      -9.873  10.145  62.412  1.00  0.00     0.229 C  
ENDBRANCH  34  36
ENDBRANCH  31  34
ENDBRANCH  21  26
ENDBRANCH  16  18
ENDBRANCH  10  12
ENDBRANCH   9  10
ENDBRANCH   7   9
ENDBRANCH   4   7
ENDBRANCH   2   3
TORSDOF 10
ENDMDL
MODEL      252
REMARK 921   NORMALIZED FREE ENERGY PREDICTED BY IDOCK:   -1.65 KCAL/MOL
REMARK 922        TOTAL FREE ENERGY PREDICTED BY IDOCK:   -4.57 KCAL/MOL
REMARK 923 INTER-LIGAND FREE ENERGY PREDICTED BY IDOCK:   -3.94 KCAL/MOL
REMARK 924 INTRA-LIGAND FREE ENERGY PREDICTED BY IDOCK:   -0.63 KCAL/MOL
REMARK 927      BINDING AFFINITY PREDICTED BY RF-SCORE:    0.00 PKD
ROOT
HETATM    1  C   UNL     1     -10.527   8.653  65.815  1.00  0.00     1.401 C  
HETATM    2  O   UNL     1     -10.626   8.019  67.102  1.00  0.00    -0.320 OA 
ENDROOT
BRANCH   2   3
HETATM    3  C   UNL     1     -10.682   6.657  67.039  1.00  0.00    -0.366 C  
HETATM    4  N   UNL     1     -10.132   6.197  65.861  1.00  0.00    -0.328 N  
HETATM    5  O   UNL     1     -11.172   5.960  67.917  1.00  0.00    -0.155 OA 
HETATM    6  H   UNL     1      -9.753   6.875  65.200  1.00  0.00     0.000 HD 
BRANCH   4   7
HETATM    7  C   UNL     1     -10.069   4.764  65.518  1.00  0.00    -0.136 C  
HETATM    8  C   UNL     1     -11.279   4.440  64.583  1.00  0.00     0.285 C  
BRANCH   7   9
HETATM    9  C   UNL     1      -8.762   4.260  64.774  1.00  0.00    -0.135 C  
BRANCH   9  10
HETATM   10  N   UNL     1      -7.548   3.735  65.482  1.00  0.00    -0.081 NA 
HETATM   11  H   UNL     1      -7.018   2.985  65.038  1.00  0.00     0.000 HD 
BRANCH  10  12
HETATM   12  C   UNL     1      -7.100   4.219  66.727  1.00  0.00    -0.067 A  
HETATM   13  N   UNL     1      -5.910   4.823  66.744  1.00  0.00    -0.025 NA 
HETATM   14  C   UNL     1      -5.444   5.162  67.951  1.00  0.00    -0.012 A  
HETATM   15  C   UNL     1      -6.130   5.025  69.142  1.00  0.00    -0.025 A  
HETATM   16  C   UNL     1      -7.377   4.427  69.106  1.00  0.00    -0.055 A  
HETATM   17  N   UNL     1      -7.837   3.962  67.877  1.00  0.00    -0.074 NA 
BRANCH  16  18
HETATM   18  C   UNL     1      -8.141   4.316  70.440  1.00  0.00    -0.059 A  
HETATM   19  C   UNL     1      -7.946   3.208  71.286  1.00  0.00    -0.058 A  
HETATM   20  N   UNL     1      -8.642   3.399  72.447  1.00  0.00    -0.083 NA 
HETATM   21  C   UNL     1      -9.022   5.148  71.280  1.00  0.00    -0.139 A  
HETATM   22  N   UNL     1      -9.322   4.536  72.447  1.00  0.00    -0.124 NA 
BRANCH  20  23
HETATM   23  C   UNL     1      -8.675   2.557  73.656  1.00  0.00    -0.071 C  
HETATM   24  C   UNL     1      -7.346   1.838  73.922  1.00  0.00    -0.029 C  
HETATM   25  C   UNL     1      -9.801   1.512  73.614  1.00  0.00    -0.104 C  
ENDBRANCH  20  23
BRANCH  21  26
HETATM   26  C   UNL     1      -9.668   6.448  71.098  1.00  0.00    -0.191 A  
HETATM   27  C   UNL     1      -9.113   7.489  70.313  1.00  0.00    -0.154 A  
HETATM   28  C   UNL     1      -9.682   8.768  70.319  1.00  0.00    -0.176 A  
HETATM   29 CL   UNL     1      -9.113   9.997  69.261  1.00  0.00    -0.192 Cl 
HETATM   30  C   UNL     1     -10.730   9.066  71.200  1.00  0.00    -0.358 A  
HETATM   31  C   UNL     1     -11.248   8.026  71.947  1.00  0.00    -0.280 A  
HETATM   32  C   UNL     1     -10.828   6.723  71.764  1.00  0.00    -0.229 A  
HETATM   33  F   UNL     1     -11.622   5.753  72.214  1.00  0.00    -0.321 F  
BRANCH  31  34
HETATM   34  N   UNL     1     -12.273   8.218  72.921  1.00  0.00    -0.527 N  
HETATM   35  H   UNL     1     -12.199   7.859  73.873  1.00  0.00     0.000 HD 
BRANCH  34  36
HETATM   36  S   UNL     1     -13.618   9.085  72.382  1.00  0.00    -0.439 S  
HETATM   37  O   UNL     1     -14.201   8.437  71.231  1.00  0.00    -0.330 OA 
HETATM   38  O   UNL     1     -14.382   9.365  73.579  1.00  0.00     0.346 OA 
HETATM   39  C   UNL     1     -12.777  10.560  71.868  1.00  0.00    -0.332 C  
ENDBRANCH  34  36
ENDBRANCH  31  34
ENDBRANCH  21  26
ENDBRANCH  16  18
ENDBRANCH  10  12
ENDBRANCH   9  10
ENDBRANCH   7   9
ENDBRANCH   4   7
ENDBRANCH   2   3
TORSDOF 10
ENDMDL
MODEL      253
REMARK 921   NORMALIZED FREE ENERGY PREDICTED BY IDOCK:   -1.65 KCAL/MOL
REMARK 922        TOTAL FREE ENERGY PREDICTED BY IDOCK:   -4.56 KCAL/MOL
REMARK 923 INTER-LIGAND FREE ENERGY PREDICTED BY IDOCK:   -5.19 KCAL/MOL
REMARK 924 INTRA-LIGAND FREE ENERGY PREDICTED BY IDOCK:    0.63 KCAL/MOL
REMARK 927      BINDING AFFINITY PREDICTED BY RF-SCORE:    0.00 PKD
ROOT
HETATM    1  C   UNL     1     -11.158   2.628  63.066  1.00  0.00    -0.148 C  
HETATM    2  O   UNL     1      -9.735   2.460  62.936  1.00  0.00    -0.089 OA 
ENDROOT
BRANCH   2   3
HETATM    3  C   UNL     1      -9.021   3.020  63.956  1.00  0.00    -0.102 C  
HETATM    4  N   UNL     1      -9.860   3.476  64.950  1.00  0.00    -0.278 N  
HETATM    5  O   UNL     1      -7.801   3.106  63.958  1.00  0.00    -0.079 OA 
HETATM    6  H   UNL     1     -10.867   3.348  64.838  1.00  0.00     0.000 HD 
BRANCH   4   7
HETATM    7  C   UNL     1      -9.363   4.139  66.170  1.00  0.00    -0.166 C  
HETATM    8  C   UNL     1     -10.574   4.842  66.862  1.00  0.00    -0.119 C  
BRANCH   7   9
HETATM    9  C   UNL     1      -8.681   3.213  67.263  1.00  0.00    -0.123 C  
BRANCH   9  10
HETATM   10  N   UNL     1      -7.985   3.739  68.484  1.00  0.00    -0.070 NA 
HETATM   11  H   UNL     1      -7.783   3.086  69.242  1.00  0.00     0.000 HD 
BRANCH  10  12
HETATM   12  C   UNL     1      -7.596   5.083  68.644  1.00  0.00    -0.078 A  
HETATM   13  N   UNL     1      -7.295   5.480  69.882  1.00  0.00    -0.067 NA 
HETATM   14  C   UNL     1      -7.052   6.785  70.036  1.00  0.00    -0.071 A  
HETATM   15  C   UNL     1      -6.994   7.715  69.015  1.00  0.00    -0.069 A  
HETATM   16  C   UNL     1      -7.276   7.284  67.731  1.00  0.00    -0.091 A  
HETATM   17  N   UNL     1      -7.643   5.952  67.560  1.00  0.00    -0.091 NA 
BRANCH  16  18
HETATM   18  C   UNL     1      -7.170   8.329  66.601  1.00  0.00    -0.081 A  
HETATM   19  C   UNL     1      -6.316   8.110  65.504  1.00  0.00    -0.048 A  
HETATM   20  N   UNL     1      -6.487   9.116  64.594  1.00  0.00    -0.074 NA 
HETATM   21  C   UNL     1      -7.841   9.572  66.181  1.00  0.00    -0.100 A  
HETATM   22  N   UNL     1      -7.366  10.020  64.998  1.00  0.00    -0.135 NA 
BRANCH  20  23
HETATM   23  C   UNL     1      -5.879   9.271  63.260  1.00  0.00    -0.088 C  
HETATM   24  C   UNL     1      -6.511  10.404  62.441  1.00  0.00    -0.147 C  
HETATM   25  C   UNL     1      -5.935   7.975  62.434  1.00  0.00    -0.078 C  
ENDBRANCH  20  23
BRANCH  21  26
HETATM   26  C   UNL     1      -8.855  10.434  66.789  1.00  0.00    -0.139 A  
HETATM   27  C   UNL     1      -9.269  11.666  66.225  1.00  0.00    -0.225 A  
HETATM   28  C   UNL     1     -10.107  12.531  66.937  1.00  0.00    -0.225 A  
HETATM   29 CL   UNL     1     -10.738  13.954  66.209  1.00  0.00    -0.284 Cl 
HETATM   30  C   UNL     1     -10.441  12.248  68.268  1.00  0.00    -0.236 A  
HETATM   31  C   UNL     1     -10.023  11.036  68.785  1.00  0.00    -0.207 A  
HETATM   32  C   UNL     1      -9.391  10.093  67.998  1.00  0.00    -0.141 A  
HETATM   33  F   UNL     1      -9.375   8.837  68.441  1.00  0.00    -0.137 F  
BRANCH  31  34
HETATM   34  N   UNL     1     -10.250  10.664  70.143  1.00  0.00    -0.371 N  
HETATM   35  H   UNL     1      -9.527  10.736  70.860  1.00  0.00     0.000 HD 
BRANCH  34  36
HETATM   36  S   UNL     1     -11.803  10.093  70.479  1.00  0.00    -0.330 S  
HETATM   37  O   UNL     1     -12.135  10.335  71.863  1.00  0.00    -0.229 OA 
HETATM   38  O   UNL     1     -12.621  10.586  69.392  1.00  0.00    -0.212 OA 
HETATM   39  C   UNL     1     -11.492   8.363  70.238  1.00  0.00    -0.062 C  
ENDBRANCH  34  36
ENDBRANCH  31  34
ENDBRANCH  21  26
ENDBRANCH  16  18
ENDBRANCH  10  12
ENDBRANCH   9  10
ENDBRANCH   7   9
ENDBRANCH   4   7
ENDBRANCH   2   3
TORSDOF 10
ENDMDL
MODEL      254
REMARK 921   NORMALIZED FREE ENERGY PREDICTED BY IDOCK:   -1.63 KCAL/MOL
REMARK 922        TOTAL FREE ENERGY PREDICTED BY IDOCK:   -4.54 KCAL/MOL
REMARK 923 INTER-LIGAND FREE ENERGY PREDICTED BY IDOCK:   -4.80 KCAL/MOL
REMARK 924 INTRA-LIGAND FREE ENERGY PREDICTED BY IDOCK:    0.26 KCAL/MOL
REMARK 927      BINDING AFFINITY PREDICTED BY RF-SCORE:    0.00 PKD
ROOT
HETATM    1  C   UNL     1      -8.951  11.958  69.577  1.00  0.00     1.277 C  
HETATM    2  O   UNL     1      -7.659  11.511  69.126  1.00  0.00    -0.097 OA 
ENDROOT
BRANCH   2   3
HETATM    3  C   UNL     1      -6.638  12.345  69.478  1.00  0.00    -0.048 C  
HETATM    4  N   UNL     1      -6.581  13.434  68.635  1.00  0.00    -0.084 N  
HETATM    5  O   UNL     1      -5.880  12.128  70.413  1.00  0.00    -0.159 OA 
HETATM    6  H   UNL     1      -7.269  13.510  67.886  1.00  0.00     0.000 HD 
BRANCH   4   7
HETATM    7  C   UNL     1      -5.565  14.495  68.772  1.00  0.00    -0.087 C  
HETATM    8  C   UNL     1      -5.128  14.930  67.336  1.00  0.00     0.331 C  
BRANCH   7   9
HETATM    9  C   UNL     1      -6.002  15.813  69.540  1.00  0.00    -0.141 C  
BRANCH   9  10
HETATM   10  N   UNL     1      -6.803  16.917  68.914  1.00  0.00    -0.196 NA 
HETATM   11  H   UNL     1      -6.358  17.827  68.797  1.00  0.00     0.000 HD 
BRANCH  10  12
HETATM   12  C   UNL     1      -8.134  16.767  68.480  1.00  0.00    -0.241 A  
HETATM   13  N   UNL     1      -8.502  17.474  67.410  1.00  0.00    -0.214 NA 
HETATM   14  C   UNL     1      -9.799  17.419  67.089  1.00  0.00    -0.278 A  
HETATM   15  C   UNL     1     -10.744  16.624  67.709  1.00  0.00    -0.327 A  
HETATM   16  C   UNL     1     -10.342  15.869  68.797  1.00  0.00    -0.228 A  
HETATM   17  N   UNL     1      -9.023  15.997  69.222  1.00  0.00    -0.247 NA 
BRANCH  16  18
HETATM   18  C   UNL     1     -11.403  14.962  69.451  1.00  0.00    -0.312 A  
HETATM   19  C   UNL     1     -12.165  15.425  70.540  1.00  0.00    -0.394 A  
HETATM   20  N   UNL     1     -13.106  14.486  70.863  1.00  0.00    -0.361 NA 
HETATM   21  C   UNL     1     -12.044  13.658  69.205  1.00  0.00    -0.319 A  
HETATM   22  N   UNL     1     -13.025  13.406  70.100  1.00  0.00     0.195 NA 
BRANCH  20  23
HETATM   23  C   UNL     1     -14.179  14.559  71.871  1.00  0.00    -0.538 C  
HETATM   24  C   UNL     1     -14.009  15.734  72.842  1.00  0.00    -0.467 C  
HETATM   25  C   UNL     1     -14.310  13.262  72.685  1.00  0.00     0.137 C  
ENDBRANCH  20  23
BRANCH  21  26
HETATM   26  C   UNL     1     -11.812  12.577  68.246  1.00  0.00    -0.361 A  
HETATM   27  C   UNL     1     -11.582  11.233  68.629  1.00  0.00    -0.384 A  
HETATM   28  C   UNL     1     -11.189  10.278  67.684  1.00  0.00    -0.158 A  
HETATM   29 CL   UNL     1     -11.054   8.617  68.104  1.00  0.00     0.136 Cl 
HETATM   30  C   UNL     1     -10.894  10.670  66.372  1.00  0.00    -0.132 A  
HETATM   31  C   UNL     1     -11.132  11.988  66.033  1.00  0.00    -0.320 A  
HETATM   32  C   UNL     1     -11.735  12.865  66.913  1.00  0.00    -0.382 A  
HETATM   33  F   UNL     1     -12.280  13.968  66.403  1.00  0.00    -0.408 F  
BRANCH  31  34
HETATM   34  N   UNL     1     -10.813  12.518  64.746  1.00  0.00    -0.286 N  
HETATM   35  H   UNL     1     -10.752  13.520  64.566  1.00  0.00     0.000 HD 
BRANCH  34  36
HETATM   36  S   UNL     1     -10.545  11.363  63.543  1.00  0.00    -0.374 S  
HETATM   37  O   UNL     1      -9.554  11.839  62.608  1.00  0.00    -0.228 OA 
HETATM   38  O   UNL     1     -10.395  10.113  64.257  1.00  0.00    -0.065 OA 
HETATM   39  C   UNL     1     -12.149  11.414  62.785  1.00  0.00     0.959 C  
ENDBRANCH  34  36
ENDBRANCH  31  34
ENDBRANCH  21  26
ENDBRANCH  16  18
ENDBRANCH  10  12
ENDBRANCH   9  10
ENDBRANCH   7   9
ENDBRANCH   4   7
ENDBRANCH   2   3
TORSDOF 10
ENDMDL
MODEL      255
REMARK 921   NORMALIZED FREE ENERGY PREDICTED BY IDOCK:   -1.30 KCAL/MOL
REMARK 922        TOTAL FREE ENERGY PREDICTED BY IDOCK:   -4.01 KCAL/MOL
REMARK 923 INTER-LIGAND FREE ENERGY PREDICTED BY IDOCK:   -3.95 KCAL/MOL
REMARK 924 INTRA-LIGAND FREE ENERGY PREDICTED BY IDOCK:   -0.06 KCAL/MOL
REMARK 927      BINDING AFFINITY PREDICTED BY RF-SCORE:    0.00 PKD
ROOT
HETATM    1  C   UNL     1      -8.992   5.205  70.183  1.00  0.00    -0.119 C  
HETATM    2  O   UNL     1      -9.885   5.650  71.220  1.00  0.00    -0.166 OA 
ENDROOT
BRANCH   2   3
HETATM    3  C   UNL     1     -11.085   6.103  70.753  1.00  0.00    -0.309 C  
HETATM    4  N   UNL     1     -11.950   6.363  71.794  1.00  0.00    -0.333 N  
HETATM    5  O   UNL     1     -11.338   6.239  69.564  1.00  0.00    -0.409 OA 
HETATM    6  H   UNL     1     -11.627   6.210  72.749  1.00  0.00     0.000 HD 
BRANCH   4   7
HETATM    7  C   UNL     1     -13.325   6.852  71.582  1.00  0.00    -0.219 C  
HETATM    8  C   UNL     1     -14.307   5.813  72.212  1.00  0.00     1.234 C  
BRANCH   7   9
HETATM    9  C   UNL     1     -13.688   8.265  72.204  1.00  0.00    -0.282 C  
BRANCH   9  10
HETATM   10  N   UNL     1     -14.144   9.442  71.393  1.00  0.00    -0.240 NA 
HETATM   11  H   UNL     1     -15.148   9.593  71.286  1.00  0.00     0.000 HD 
BRANCH  10  12
HETATM   12  C   UNL     1     -13.265  10.349  70.769  1.00  0.00    -0.196 A  
HETATM   13  N   UNL     1     -12.523   9.874  69.767  1.00  0.00     0.325 NA 
HETATM   14  C   UNL     1     -11.605  10.711  69.271  1.00  0.00    -0.275 A  
HETATM   15  C   UNL     1     -11.440  12.031  69.645  1.00  0.00    -0.322 A  
HETATM   16  C   UNL     1     -12.239  12.521  70.663  1.00  0.00    -0.276 A  
HETATM   17  N   UNL     1     -13.124  11.636  71.273  1.00  0.00    -0.253 NA 
BRANCH  16  18
HETATM   18  C   UNL     1     -12.064  14.005  71.040  1.00  0.00    -0.383 A  
HETATM   19  C   UNL     1     -12.278  14.436  72.363  1.00  0.00    -0.079 A  
HETATM   20  N   UNL     1     -11.950  15.759  72.464  1.00  0.00    -0.449 NA 
HETATM   21  C   UNL     1     -11.568  15.249  70.425  1.00  0.00    -0.308 A  
HETATM   22  N   UNL     1     -11.559  16.273  71.307  1.00  0.00    -0.415 NA 
BRANCH  20  23
HETATM   23  C   UNL     1     -11.928  16.619  73.661  1.00  0.00    -0.216 C  
HETATM   24  C   UNL     1     -13.180  16.463  74.534  1.00  0.00     0.794 C  
HETATM   25  C   UNL     1     -11.753  18.106  73.313  1.00  0.00     2.238 C  
ENDBRANCH  20  23
BRANCH  21  26
HETATM   26  C   UNL     1     -11.141  15.614  69.074  1.00  0.00    -0.279 A  
HETATM   27  C   UNL     1     -10.190  16.630  68.806  1.00  0.00    -0.288 A  
HETATM   28  C   UNL     1      -9.953  17.058  67.495  1.00  0.00    -0.274 A  
HETATM   29 CL   UNL     1      -8.699  18.178  67.140  1.00  0.00    -0.244 Cl 
HETATM   30  C   UNL     1     -10.747  16.577  66.445  1.00  0.00    -0.146 A  
HETATM   31  C   UNL     1     -11.662  15.585  66.743  1.00  0.00     0.255 A  
HETATM   32  C   UNL     1     -11.726  15.011  67.997  1.00  0.00    -0.298 A  
HETATM   33  F   UNL     1     -12.331  13.829  68.101  1.00  0.00    -0.387 F  
BRANCH  31  34
HETATM   34  N   UNL     1     -12.566  15.061  65.771  1.00  0.00     0.297 N  
HETATM   35  H   UNL     1     -13.570  15.237  65.806  1.00  0.00     0.000 HD 
BRANCH  34  36
HETATM   36  S   UNL     1     -11.852  14.127  64.559  1.00  0.00    -0.435 S  
HETATM   37  O   UNL     1     -12.502  14.372  63.293  1.00  0.00    -0.633 OA 
HETATM   38  O   UNL     1     -10.428  14.309  64.742  1.00  0.00    -0.431 OA 
HETATM   39  C   UNL     1     -12.319  12.527  65.166  1.00  0.00    -0.429 C  
ENDBRANCH  34  36
ENDBRANCH  31  34
ENDBRANCH  21  26
ENDBRANCH  16  18
ENDBRANCH  10  12
ENDBRANCH   9  10
ENDBRANCH   7   9
ENDBRANCH   4   7
ENDBRANCH   2   3
TORSDOF 10
ENDMDL
MODEL      256
REMARK 921   NORMALIZED FREE ENERGY PREDICTED BY IDOCK:   -1.18 KCAL/MOL
REMARK 922        TOTAL FREE ENERGY PREDICTED BY IDOCK:   -3.83 KCAL/MOL
REMARK 923 INTER-LIGAND FREE ENERGY PREDICTED BY IDOCK:   -5.87 KCAL/MOL
REMARK 924 INTRA-LIGAND FREE ENERGY PREDICTED BY IDOCK:    2.04 KCAL/MOL
REMARK 927      BINDING AFFINITY PREDICTED BY RF-SCORE:    0.00 PKD
ROOT
HETATM    1  C   UNL     1     -13.238  12.148  71.688  1.00  0.00    -0.258 C  
HETATM    2  O   UNL     1     -12.569  11.049  71.044  1.00  0.00    -0.358 OA 
ENDROOT
BRANCH   2   3
HETATM    3  C   UNL     1     -12.986   9.824  71.478  1.00  0.00    -0.407 C  
HETATM    4  N   UNL     1     -12.000   8.878  71.299  1.00  0.00    -0.297 N  
HETATM    5  O   UNL     1     -14.097   9.616  71.947  1.00  0.00    -0.168 OA 
HETATM    6  H   UNL     1     -11.109   9.169  70.895  1.00  0.00     0.000 HD 
BRANCH   4   7
HETATM    7  C   UNL     1     -12.180   7.461  71.667  1.00  0.00    -0.330 C  
HETATM    8  C   UNL     1     -13.706   7.212  71.887  1.00  0.00    -0.290 C  
BRANCH   7   9
HETATM    9  C   UNL     1     -11.682   6.378  70.620  1.00  0.00    -0.311 C  
BRANCH   9  10
HETATM   10  N   UNL     1     -11.829   6.524  69.134  1.00  0.00    -0.448 NA 
HETATM   11  H   UNL     1     -12.756   6.727  68.760  1.00  0.00     0.000 HD 
BRANCH  10  12
HETATM   12  C   UNL     1     -10.760   6.394  68.226  1.00  0.00    -0.285 A  
HETATM   13  N   UNL     1     -10.384   5.153  67.913  1.00  0.00    -0.125 NA 
HETATM   14  C   UNL     1      -9.289   5.048  67.152  1.00  0.00    -0.125 A  
HETATM   15  C   UNL     1      -8.594   6.106  66.599  1.00  0.00    -0.118 A  
HETATM   16  C   UNL     1      -9.014   7.388  66.905  1.00  0.00    -0.135 A  
HETATM   17  N   UNL     1     -10.082   7.526  67.787  1.00  0.00    -0.174 NA 
BRANCH  16  18
HETATM   18  C   UNL     1      -8.247   8.554  66.249  1.00  0.00    -0.109 A  
HETATM   19  C   UNL     1      -8.315   8.760  64.858  1.00  0.00    -0.170 A  
HETATM   20  N   UNL     1      -7.650   9.912  64.542  1.00  0.00    -0.135 NA 
HETATM   21  C   UNL     1      -7.473   9.737  66.663  1.00  0.00    -0.095 A  
HETATM   22  N   UNL     1      -7.108  10.491  65.602  1.00  0.00    -0.140 NA 
BRANCH  20  23
HETATM   23  C   UNL     1      -7.524  10.578  63.233  1.00  0.00     0.011 C  
HETATM   24  C   UNL     1      -8.753  10.376  62.336  1.00  0.00    -0.262 C  
HETATM   25  C   UNL     1      -6.273  10.127  62.462  1.00  0.00    -0.124 C  
ENDBRANCH  20  23
BRANCH  21  26
HETATM   26  C   UNL     1      -6.983  10.231  67.950  1.00  0.00    -0.083 A  
HETATM   27  C   UNL     1      -6.456  11.533  68.135  1.00  0.00    -0.053 A  
HETATM   28  C   UNL     1      -5.838  11.888  69.339  1.00  0.00    -0.076 A  
HETATM   29 CL   UNL     1      -5.331  13.504  69.633  1.00  0.00    -0.085 Cl 
HETATM   30  C   UNL     1      -5.620  10.921  70.329  1.00  0.00    -0.089 A  
HETATM   31  C   UNL     1      -6.151   9.663  70.116  1.00  0.00    -0.053 A  
HETATM   32  C   UNL     1      -6.953   9.390  69.026  1.00  0.00    -0.059 A  
HETATM   33  F   UNL     1      -7.730   8.310  69.091  1.00  0.00    -0.088 F  
BRANCH  31  34
HETATM   34  N   UNL     1      -5.942   8.581  71.023  1.00  0.00    -0.034 N  
HETATM   35  H   UNL     1      -5.011   8.281  71.313  1.00  0.00     0.000 HD 
BRANCH  34  36
HETATM   36  S   UNL     1      -7.349   7.831  71.579  1.00  0.00    -0.072 S  
HETATM   37  O   UNL     1      -8.509   8.602  71.198  1.00  0.00    -0.139 OA 
HETATM   38  O   UNL     1      -7.195   6.439  71.215  1.00  0.00    -0.076 OA 
HETATM   39  C   UNL     1      -7.060   8.015  73.320  1.00  0.00    -0.112 C  
ENDBRANCH  34  36
ENDBRANCH  31  34
ENDBRANCH  21  26
ENDBRANCH  16  18
ENDBRANCH  10  12
ENDBRANCH   9  10
ENDBRANCH   7   9
ENDBRANCH   4   7
ENDBRANCH   2   3
TORSDOF 10
ENDMDL
MODEL      257
REMARK 921   NORMALIZED FREE ENERGY PREDICTED BY IDOCK:   -0.74 KCAL/MOL
REMARK 922        TOTAL FREE ENERGY PREDICTED BY IDOCK:   -3.13 KCAL/MOL
REMARK 923 INTER-LIGAND FREE ENERGY PREDICTED BY IDOCK:   -3.21 KCAL/MOL
REMARK 924 INTRA-LIGAND FREE ENERGY PREDICTED BY IDOCK:    0.09 KCAL/MOL
REMARK 927      BINDING AFFINITY PREDICTED BY RF-SCORE:    0.00 PKD
ROOT
HETATM    1  C   UNL     1     -14.017   9.637  69.962  1.00  0.00     1.841 C  
HETATM    2  O   UNL     1     -12.652   9.532  69.521  1.00  0.00     0.980 OA 
ENDROOT
BRANCH   2   3
HETATM    3  C   UNL     1     -11.746   9.518  70.541  1.00  0.00    -0.222 C  
HETATM    4  N   UNL     1     -11.534   8.232  70.991  1.00  0.00    -0.273 N  
HETATM    5  O   UNL     1     -11.215  10.525  70.987  1.00  0.00    -0.187 OA 
HETATM    6  H   UNL     1     -12.036   7.466  70.540  1.00  0.00     0.000 HD 
BRANCH   4   7
HETATM    7  C   UNL     1     -10.612   7.918  72.098  1.00  0.00    -0.253 C  
HETATM    8  C   UNL     1     -10.012   6.499  71.837  1.00  0.00    -0.192 C  
BRANCH   7   9
HETATM    9  C   UNL     1      -9.388   8.904  72.315  1.00  0.00     0.011 C  
BRANCH   9  10
HETATM   10  N   UNL     1      -7.966   8.553  71.988  1.00  0.00    -0.234 NA 
HETATM   11  H   UNL     1      -7.555   7.736  72.440  1.00  0.00     0.000 HD 
BRANCH  10  12
HETATM   12  C   UNL     1      -7.166   9.290  71.092  1.00  0.00    -0.033 A  
HETATM   13  N   UNL     1      -6.056   9.838  71.588  1.00  0.00    -0.293 NA 
HETATM   14  C   UNL     1      -5.377  10.637  70.758  1.00  0.00    -0.097 A  
HETATM   15  C   UNL     1      -5.680  10.852  69.427  1.00  0.00    -0.043 A  
HETATM   16  C   UNL     1      -6.816  10.251  68.916  1.00  0.00    -0.059 A  
HETATM   17  N   UNL     1      -7.603   9.506  69.790  1.00  0.00    -0.095 NA 
BRANCH  16  18
HETATM   18  C   UNL     1      -7.116  10.475  67.421  1.00  0.00    -0.090 A  
HETATM   19  C   UNL     1      -6.265   9.944  66.434  1.00  0.00    -0.070 A  
HETATM   20  N   UNL     1      -6.804  10.180  65.200  1.00  0.00    -0.130 NA 
HETATM   21  C   UNL     1      -8.197  11.023  66.582  1.00  0.00    -0.154 A  
HETATM   22  N   UNL     1      -7.941  10.856  65.265  1.00  0.00     0.012 NA 
BRANCH  20  23
HETATM   23  C   UNL     1      -6.320   9.739  63.879  1.00  0.00    -0.118 C  
HETATM   24  C   UNL     1      -5.142  10.576  63.363  1.00  0.00    -0.157 C  
HETATM   25  C   UNL     1      -7.430   9.743  62.815  1.00  0.00    -0.122 C  
ENDBRANCH  20  23
BRANCH  21  26
HETATM   26  C   UNL     1      -9.440  11.741  66.867  1.00  0.00    -0.200 A  
HETATM   27  C   UNL     1     -10.525  11.810  65.960  1.00  0.00    -0.286 A  
HETATM   28  C   UNL     1     -11.612  12.655  66.209  1.00  0.00    -0.386 A  
HETATM   29 CL   UNL     1     -13.001  12.637  65.197  1.00  0.00    -0.192 Cl 
HETATM   30  C   UNL     1     -11.579  13.540  67.295  1.00  0.00    -0.398 A  
HETATM   31  C   UNL     1     -10.506  13.443  68.161  1.00  0.00    -0.245 A  
HETATM   32  C   UNL     1      -9.556  12.449  68.029  1.00  0.00    -0.211 A  
HETATM   33  F   UNL     1      -8.801  12.178  69.092  1.00  0.00     0.087 F  
BRANCH  31  34
HETATM   34  N   UNL     1     -10.332  14.328  69.266  1.00  0.00    -0.419 N  
HETATM   35  H   UNL     1     -10.503  14.042  70.230  1.00  0.00     0.000 HD 
BRANCH  34  36
HETATM   36  S   UNL     1      -9.822  15.887  68.861  1.00  0.00    -0.240 S  
HETATM   37  O   UNL     1     -10.509  16.863  69.674  1.00  0.00    -0.269 OA 
HETATM   38  O   UNL     1      -8.378  15.802  68.812  1.00  0.00    -0.168 OA 
HETATM   39  C   UNL     1     -10.461  15.937  67.207  1.00  0.00    -0.310 C  
ENDBRANCH  34  36
ENDBRANCH  31  34
ENDBRANCH  21  26
ENDBRANCH  16  18
ENDBRANCH  10  12
ENDBRANCH   9  10
ENDBRANCH   7   9
ENDBRANCH   4   7
ENDBRANCH   2   3
TORSDOF 10
ENDMDL
MODEL      258
REMARK 921   NORMALIZED FREE ENERGY PREDICTED BY IDOCK:   -0.31 KCAL/MOL
REMARK 922        TOTAL FREE ENERGY PREDICTED BY IDOCK:   -2.44 KCAL/MOL
REMARK 923 INTER-LIGAND FREE ENERGY PREDICTED BY IDOCK:   -1.66 KCAL/MOL
REMARK 924 INTRA-LIGAND FREE ENERGY PREDICTED BY IDOCK:   -0.78 KCAL/MOL
REMARK 927      BINDING AFFINITY PREDICTED BY RF-SCORE:    0.00 PKD
ROOT
HETATM    1  C   UNL     1     -13.725   5.963  72.104  1.00  0.00     1.092 C  
HETATM    2  O   UNL     1     -13.974   7.364  72.318  1.00  0.00    -0.065 OA 
ENDROOT
BRANCH   2   3
HETATM    3  C   UNL     1     -13.081   8.182  71.689  1.00  0.00    -0.335 C  
HETATM    4  N   UNL     1     -13.732   9.110  70.905  1.00  0.00    -0.565 N  
HETATM    5  O   UNL     1     -11.868   8.077  71.811  1.00  0.00    -0.270 OA 
HETATM    6  H   UNL     1     -14.752   9.101  70.881  1.00  0.00     0.000 HD 
BRANCH   4   7
HETATM    7  C   UNL     1     -13.014  10.115  70.099  1.00  0.00     0.166 C  
HETATM    8  C   UNL     1     -12.278  11.082  71.081  1.00  0.00    -0.415 C  
BRANCH   7   9
HETATM    9  C   UNL     1     -11.925   9.574  69.080  1.00  0.00     0.949 C  
BRANCH   9  10
HETATM   10  N   UNL     1     -10.497   9.301  69.453  1.00  0.00    -0.214 NA 
HETATM   11  H   UNL     1     -10.306   8.530  70.094  1.00  0.00     0.000 HD 
BRANCH  10  12
HETATM   12  C   UNL     1      -9.406  10.049  68.969  1.00  0.00    -0.181 A  
HETATM   13  N   UNL     1      -8.477   9.382  68.282  1.00  0.00    -0.119 NA 
HETATM   14  C   UNL     1      -7.389  10.079  67.940  1.00  0.00    -0.088 A  
HETATM   15  C   UNL     1      -7.204  11.431  68.155  1.00  0.00    -0.082 A  
HETATM   16  C   UNL     1      -8.190  12.119  68.840  1.00  0.00     0.165 A  
HETATM   17  N   UNL     1      -9.281  11.391  69.306  1.00  0.00     0.198 NA 
BRANCH  16  18
HETATM   18  C   UNL     1      -7.981  13.634  69.037  1.00  0.00     0.169 A  
HETATM   19  C   UNL     1      -6.684  14.167  69.151  1.00  0.00    -0.118 A  
HETATM   20  N   UNL     1      -6.761  15.531  69.202  1.00  0.00    -0.135 NA 
HETATM   21  C   UNL     1      -8.784  14.870  69.022  1.00  0.00    -0.177 A  
HETATM   22  N   UNL     1      -8.010  15.969  69.165  1.00  0.00    -0.231 NA 
BRANCH  20  23
HETATM   23  C   UNL     1      -5.668  16.520  69.235  1.00  0.00    -0.147 C  
HETATM   24  C   UNL     1      -6.028  17.784  70.027  1.00  0.00    -0.184 C  
HETATM   25  C   UNL     1      -5.208  16.934  67.828  1.00  0.00    -0.129 C  
ENDBRANCH  20  23
BRANCH  21  26
HETATM   26  C   UNL     1     -10.218  15.148  68.938  1.00  0.00    -0.236 A  
HETATM   27  C   UNL     1     -11.086  15.102  70.056  1.00  0.00    -0.297 A  
HETATM   28  C   UNL     1     -12.472  15.200  69.889  1.00  0.00    -0.233 A  
HETATM   29 CL   UNL     1     -13.525  15.296  71.243  1.00  0.00    -0.556 Cl 
HETATM   30  C   UNL     1     -13.024  15.216  68.601  1.00  0.00     1.475 A  
HETATM   31  C   UNL     1     -12.147  15.264  67.534  1.00  0.00     0.305 A  
HETATM   32  C   UNL     1     -10.785  15.396  67.721  1.00  0.00    -0.289 A  
HETATM   33  F   UNL     1     -10.063  15.824  66.687  1.00  0.00    -0.250 F  
BRANCH  31  34
HETATM   34  N   UNL     1     -12.589  15.222  66.178  1.00  0.00     0.609 N  
HETATM   35  H   UNL     1     -13.148  15.966  65.760  1.00  0.00     0.000 HD 
BRANCH  34  36
HETATM   36  S   UNL     1     -12.119  13.849  65.313  1.00  0.00    -0.436 S  
HETATM   37  O   UNL     1     -13.158  13.463  64.388  1.00  0.00    -0.460 OA 
HETATM   38  O   UNL     1     -10.766  14.130  64.881  1.00  0.00    -0.382 OA 
HETATM   39  C   UNL     1     -12.074  12.704  66.667  1.00  0.00    -0.197 C  
ENDBRANCH  34  36
ENDBRANCH  31  34
ENDBRANCH  21  26
ENDBRANCH  16  18
ENDBRANCH  10  12
ENDBRANCH   9  10
ENDBRANCH   7   9
ENDBRANCH   4   7
ENDBRANCH   2   3
TORSDOF 10
ENDMDL
MODEL      259
REMARK 921   NORMALIZED FREE ENERGY PREDICTED BY IDOCK:    0.06 KCAL/MOL
REMARK 922        TOTAL FREE ENERGY PREDICTED BY IDOCK:   -1.87 KCAL/MOL
REMARK 923 INTER-LIGAND FREE ENERGY PREDICTED BY IDOCK:   -3.01 KCAL/MOL
REMARK 924 INTRA-LIGAND FREE ENERGY PREDICTED BY IDOCK:    1.15 KCAL/MOL
REMARK 927      BINDING AFFINITY PREDICTED BY RF-SCORE:    0.00 PKD
ROOT
HETATM    1  C   UNL     1     -10.813  18.999  67.129  1.00  0.00    -0.387 C  
HETATM    2  O   UNL     1     -10.257  17.739  66.711  1.00  0.00    -0.323 OA 
ENDROOT
BRANCH   2   3
HETATM    3  C   UNL     1      -8.902  17.762  66.556  1.00  0.00    -0.262 C  
HETATM    4  N   UNL     1      -8.266  17.684  67.776  1.00  0.00    -0.221 N  
HETATM    5  O   UNL     1      -8.348  17.854  65.469  1.00  0.00    -0.221 OA 
HETATM    6  H   UNL     1      -8.834  17.611  68.621  1.00  0.00     0.000 HD 
BRANCH   4   7
HETATM    7  C   UNL     1      -6.798  17.701  67.912  1.00  0.00    -0.190 C  
HETATM    8  C   UNL     1      -6.450  18.339  69.295  1.00  0.00    -0.261 C  
BRANCH   7   9
HETATM    9  C   UNL     1      -6.054  16.301  67.850  1.00  0.00    -0.125 C  
BRANCH   9  10
HETATM   10  N   UNL     1      -6.311  15.176  68.811  1.00  0.00    -0.081 NA 
HETATM   11  H   UNL     1      -6.725  15.402  69.715  1.00  0.00     0.000 HD 
BRANCH  10  12
HETATM   12  C   UNL     1      -6.011  13.828  68.533  1.00  0.00    -0.093 A  
HETATM   13  N   UNL     1      -5.492  13.562  67.333  1.00  0.00    -0.350 NA 
HETATM   14  C   UNL     1      -5.333  12.267  67.039  1.00  0.00    -0.006 A  
HETATM   15  C   UNL     1      -5.568  11.215  67.903  1.00  0.00    -0.043 A  
HETATM   16  C   UNL     1      -6.075  11.507  69.157  1.00  0.00    -0.064 A  
HETATM   17  N   UNL     1      -6.357  12.839  69.447  1.00  0.00    -0.109 NA 
BRANCH  16  18
HETATM   18  C   UNL     1      -6.296  10.322  70.118  1.00  0.00    -0.117 A  
HETATM   19  C   UNL     1      -5.473  10.156  71.248  1.00  0.00    -0.066 A  
HETATM   20  N   UNL     1      -5.939   9.110  71.994  1.00  0.00    -0.164 NA 
HETATM   21  C   UNL     1      -7.280   9.248  70.338  1.00  0.00    -0.097 A  
HETATM   22  N   UNL     1      -6.997   8.530  71.447  1.00  0.00    -0.071 NA 
BRANCH  20  23
HETATM   23  C   UNL     1      -5.460   8.616  73.298  1.00  0.00    -0.078 C  
HETATM   24  C   UNL     1      -5.843   7.154  73.563  1.00  0.00    -0.053 C  
HETATM   25  C   UNL     1      -5.958   9.476  74.471  1.00  0.00     0.083 C  
ENDBRANCH  20  23
BRANCH  21  26
HETATM   26  C   UNL     1      -8.447   8.772  69.593  1.00  0.00    -0.129 A  
HETATM   27  C   UNL     1      -8.495   8.710  68.179  1.00  0.00    -0.131 A  
HETATM   28  C   UNL     1      -9.693   8.418  67.518  1.00  0.00    -0.162 A  
HETATM   29 CL   UNL     1      -9.735   8.191  65.814  1.00  0.00     0.075 Cl 
HETATM   30  C   UNL     1     -10.888   8.311  68.243  1.00  0.00     0.025 A  
HETATM   31  C   UNL     1     -10.802   8.374  69.620  1.00  0.00    -0.148 A  
HETATM   32  C   UNL     1      -9.584   8.434  70.269  1.00  0.00    -0.165 A  
HETATM   33  F   UNL     1      -9.559   8.099  71.558  1.00  0.00    -0.172 F  
BRANCH  31  34
HETATM   34  N   UNL     1     -11.955   8.339  70.461  1.00  0.00    -0.485 N  
HETATM   35  H   UNL     1     -12.643   9.092  70.480  1.00  0.00     0.000 HD 
BRANCH  34  36
HETATM   36  S   UNL     1     -12.097   6.959  71.424  1.00  0.00    -0.377 S  
HETATM   37  O   UNL     1     -10.863   6.717  72.134  1.00  0.00    -0.217 OA 
HETATM   38  O   UNL     1     -13.363   7.114  72.108  1.00  0.00    -0.131 OA 
HETATM   39  C   UNL     1     -12.278   5.764  70.125  1.00  0.00     2.306 C  
ENDBRANCH  34  36
ENDBRANCH  31  34
ENDBRANCH  21  26
ENDBRANCH  16  18
ENDBRANCH  10  12
ENDBRANCH   9  10
ENDBRANCH   7   9
ENDBRANCH   4   7
ENDBRANCH   2   3
TORSDOF 10
ENDMDL
MODEL      260
REMARK 921   NORMALIZED FREE ENERGY PREDICTED BY IDOCK:    0.39 KCAL/MOL
REMARK 922        TOTAL FREE ENERGY PREDICTED BY IDOCK:   -1.33 KCAL/MOL
REMARK 923 INTER-LIGAND FREE ENERGY PREDICTED BY IDOCK:   -3.64 KCAL/MOL
REMARK 924 INTRA-LIGAND FREE ENERGY PREDICTED BY IDOCK:    2.30 KCAL/MOL
REMARK 927      BINDING AFFINITY PREDICTED BY RF-SCORE:    0.00 PKD
ROOT
HETATM    1  C   UNL     1     -11.566  14.383  73.388  1.00  0.00     0.837 C  
HETATM    2  O   UNL     1     -10.787  15.104  72.417  1.00  0.00     0.072 OA 
ENDROOT
BRANCH   2   3
HETATM    3  C   UNL     1     -11.420  15.266  71.219  1.00  0.00    -0.380 C  
HETATM    4  N   UNL     1     -11.153  14.210  70.375  1.00  0.00    -0.455 N  
HETATM    5  O   UNL     1     -12.115  16.236  70.948  1.00  0.00    -0.255 OA 
HETATM    6  H   UNL     1     -10.555  13.453  70.711  1.00  0.00     0.000 HD 
BRANCH   4   7
HETATM    7  C   UNL     1     -11.696  14.127  69.007  1.00  0.00    -0.324 C  
HETATM    8  C   UNL     1     -11.995  15.581  68.519  1.00  0.00    -0.179 C  
BRANCH   7   9
HETATM    9  C   UNL     1     -10.772  13.453  67.907  1.00  0.00    -0.247 C  
BRANCH   9  10
HETATM   10  N   UNL     1     -11.172  12.250  67.103  1.00  0.00    -0.288 NA 
HETATM   11  H   UNL     1     -12.026  12.305  66.548  1.00  0.00     0.000 HD 
BRANCH  10  12
HETATM   12  C   UNL     1     -10.436  11.050  67.074  1.00  0.00    -0.240 A  
HETATM   13  N   UNL     1     -10.728  10.188  66.099  1.00  0.00    -0.018 NA 
HETATM   14  C   UNL     1     -10.112   9.003  66.160  1.00  0.00    -0.172 A  
HETATM   15  C   UNL     1      -9.144   8.651  67.081  1.00  0.00    -0.156 A  
HETATM   16  C   UNL     1      -8.826   9.566  68.069  1.00  0.00    -0.123 A  
HETATM   17  N   UNL     1      -9.536  10.763  68.094  1.00  0.00    -0.153 NA 
BRANCH  16  18
HETATM   18  C   UNL     1      -7.718   9.168  69.064  1.00  0.00    -0.078 A  
HETATM   19  C   UNL     1      -6.943  10.155  69.703  1.00  0.00    -0.103 A  
HETATM   20  N   UNL     1      -6.117   9.558  70.614  1.00  0.00    -0.063 NA 
HETATM   21  C   UNL     1      -7.227   7.955  69.742  1.00  0.00    -0.066 A  
HETATM   22  N   UNL     1      -6.245   8.240  70.626  1.00  0.00    -0.035 NA 
BRANCH  20  23
HETATM   23  C   UNL     1      -5.192  10.185  71.575  1.00  0.00    -0.071 C  
HETATM   24  C   UNL     1      -5.504   9.822  73.033  1.00  0.00     0.167 C  
HETATM   25  C   UNL     1      -5.159  11.716  71.445  1.00  0.00    -0.062 C  
ENDBRANCH  20  23
BRANCH  21  26
HETATM   26  C   UNL     1      -7.537   6.530  69.624  1.00  0.00    -0.098 A  
HETATM   27  C   UNL     1      -6.870   5.524  70.366  1.00  0.00    -0.052 A  
HETATM   28  C   UNL     1      -7.081   4.170  70.084  1.00  0.00    -0.042 A  
HETATM   29 CL   UNL     1      -6.398   2.940  71.071  1.00  0.00    -0.019 Cl 
HETATM   30  C   UNL     1      -7.855   3.796  68.977  1.00  0.00    -0.052 A  
HETATM   31  C   UNL     1      -8.493   4.803  68.278  1.00  0.00    -0.098 A  
HETATM   32  C   UNL     1      -8.460   6.116  68.706  1.00  0.00    -0.118 A  
HETATM   33  F   UNL     1      -9.391   6.940  68.230  1.00  0.00    -0.129 F  
BRANCH  31  34
HETATM   34  N   UNL     1      -9.258   4.551  67.100  1.00  0.00    -0.127 N  
HETATM   35  H   UNL     1     -10.225   4.229  67.133  1.00  0.00     0.000 HD 
BRANCH  34  36
HETATM   36  S   UNL     1      -8.444   4.825  65.646  1.00  0.00    -0.125 S  
HETATM   37  O   UNL     1      -8.375   6.241  65.372  1.00  0.00    -0.144 OA 
HETATM   38  O   UNL     1      -7.260   3.996  65.723  1.00  0.00    -0.069 OA 
HETATM   39  C   UNL     1      -9.619   4.066  64.554  1.00  0.00    -0.173 C  
ENDBRANCH  34  36
ENDBRANCH  31  34
ENDBRANCH  21  26
ENDBRANCH  16  18
ENDBRANCH  10  12
ENDBRANCH   9  10
ENDBRANCH   7   9
ENDBRANCH   4   7
ENDBRANCH   2   3
TORSDOF 10
ENDMDL
MODEL      261
REMARK 921   NORMALIZED FREE ENERGY PREDICTED BY IDOCK:    0.93 KCAL/MOL
REMARK 922        TOTAL FREE ENERGY PREDICTED BY IDOCK:   -0.49 KCAL/MOL
REMARK 923 INTER-LIGAND FREE ENERGY PREDICTED BY IDOCK:    0.05 KCAL/MOL
REMARK 924 INTRA-LIGAND FREE ENERGY PREDICTED BY IDOCK:   -0.54 KCAL/MOL
REMARK 927      BINDING AFFINITY PREDICTED BY RF-SCORE:    0.00 PKD
ROOT
HETATM    1  C   UNL     1     -13.536  10.427  70.079  1.00  0.00     0.829 C  
HETATM    2  O   UNL     1     -12.267   9.749  70.062  1.00  0.00    -0.001 OA 
ENDROOT
BRANCH   2   3
HETATM    3  C   UNL     1     -11.809   9.412  71.303  1.00  0.00    -0.360 C  
HETATM    4  N   UNL     1     -12.351   8.215  71.718  1.00  0.00    -0.307 N  
HETATM    5  O   UNL     1     -11.031  10.103  71.946  1.00  0.00     0.648 OA 
HETATM    6  H   UNL     1     -12.993   7.725  71.093  1.00  0.00     0.000 HD 
BRANCH   4   7
HETATM    7  C   UNL     1     -12.042   7.613  73.028  1.00  0.00     0.336 C  
HETATM    8  C   UNL     1     -12.428   6.100  72.964  1.00  0.00     0.949 C  
BRANCH   7   9
HETATM    9  C   UNL     1     -10.533   7.684  73.513  1.00  0.00    -0.224 C  
BRANCH   9  10
HETATM   10  N   UNL     1      -9.546   6.568  73.336  1.00  0.00    -0.148 NA 
HETATM   11  H   UNL     1      -9.704   5.700  73.848  1.00  0.00     0.000 HD 
BRANCH  10  12
HETATM   12  C   UNL     1      -8.413   6.652  72.502  1.00  0.00    -0.123 A  
HETATM   13  N   UNL     1      -7.224   6.494  73.086  1.00  0.00    -0.081 NA 
HETATM   14  C   UNL     1      -6.158   6.703  72.307  1.00  0.00    -0.039 A  
HETATM   15  C   UNL     1      -6.196   6.968  70.951  1.00  0.00    -0.036 A  
HETATM   16  C   UNL     1      -7.436   7.097  70.351  1.00  0.00    -0.084 A  
HETATM   17  N   UNL     1      -8.562   6.997  71.164  1.00  0.00    -0.132 NA 
BRANCH  16  18
HETATM   18  C   UNL     1      -7.456   7.356  68.832  1.00  0.00    -0.101 A  
HETATM   19  C   UNL     1      -6.925   6.408  67.938  1.00  0.00    -0.076 A  
HETATM   20  N   UNL     1      -7.165   6.815  66.655  1.00  0.00    -0.072 NA 
HETATM   21  C   UNL     1      -8.029   8.331  67.886  1.00  0.00    -0.123 A  
HETATM   22  N   UNL     1      -7.790   7.981  66.602  1.00  0.00    -0.097 NA 
BRANCH  20  23
HETATM   23  C   UNL     1      -6.873   6.114  65.391  1.00  0.00    -0.048 C  
HETATM   24  C   UNL     1      -5.375   6.066  65.064  1.00  0.00    -0.017 C  
HETATM   25  C   UNL     1      -7.619   6.725  64.194  1.00  0.00    -0.105 C  
ENDBRANCH  20  23
BRANCH  21  26
HETATM   26  C   UNL     1      -8.741   9.600  68.042  1.00  0.00    -0.119 A  
HETATM   27  C   UNL     1      -9.788  10.015  67.182  1.00  0.00    -0.231 A  
HETATM   28  C   UNL     1     -10.310  11.311  67.268  1.00  0.00    -0.201 A  
HETATM   29 CL   UNL     1     -11.677  11.781  66.338  1.00  0.00    -0.253 Cl 
HETATM   30  C   UNL     1      -9.716  12.253  68.119  1.00  0.00    -0.213 A  
HETATM   31  C   UNL     1      -8.700  11.811  68.945  1.00  0.00     0.131 A  
HETATM   32  C   UNL     1      -8.349  10.477  69.012  1.00  0.00    -0.154 A  
HETATM   33  F   UNL     1      -7.663  10.076  70.081  1.00  0.00    -0.141 F  
BRANCH  31  34
HETATM   34  N   UNL     1      -7.979  12.689  69.809  1.00  0.00     0.863 N  
HETATM   35  H   UNL     1      -7.643  12.400  70.728  1.00  0.00     0.000 HD 
BRANCH  34  36
HETATM   36  S   UNL     1      -7.722  14.242  69.198  1.00  0.00     0.057 S  
HETATM   37  O   UNL     1      -6.781  14.956  70.028  1.00  0.00    -0.175 OA 
HETATM   38  O   UNL     1      -7.509  14.051  67.779  1.00  0.00    -0.128 OA 
HETATM   39  C   UNL     1      -9.354  14.888  69.461  1.00  0.00     0.023 C  
ENDBRANCH  34  36
ENDBRANCH  31  34
ENDBRANCH  21  26
ENDBRANCH  16  18
ENDBRANCH  10  12
ENDBRANCH   9  10
ENDBRANCH   7   9
ENDBRANCH   4   7
ENDBRANCH   2   3
TORSDOF 10
ENDMDL
MODEL      262
REMARK 921   NORMALIZED FREE ENERGY PREDICTED BY IDOCK:    1.57 KCAL/MOL
REMARK 922        TOTAL FREE ENERGY PREDICTED BY IDOCK:    0.53 KCAL/MOL
REMARK 923 INTER-LIGAND FREE ENERGY PREDICTED BY IDOCK:    0.71 KCAL/MOL
REMARK 924 INTRA-LIGAND FREE ENERGY PREDICTED BY IDOCK:   -0.19 KCAL/MOL
REMARK 927      BINDING AFFINITY PREDICTED BY RF-SCORE:    0.00 PKD
ROOT
HETATM    1  C   UNL     1     -12.226  17.616  67.465  1.00  0.00     3.265 C  
HETATM    2  O   UNL     1     -11.418  18.175  66.414  1.00  0.00     0.944 OA 
ENDROOT
BRANCH   2   3
HETATM    3  C   UNL     1     -10.171  17.626  66.330  1.00  0.00    -0.364 C  
HETATM    4  N   UNL     1     -10.173  16.526  65.499  1.00  0.00    -0.284 N  
HETATM    5  O   UNL     1      -9.200  18.062  66.932  1.00  0.00    -0.255 OA 
HETATM    6  H   UNL     1     -11.048  16.254  65.049  1.00  0.00     0.000 HD 
BRANCH   4   7
HETATM    7  C   UNL     1      -8.963  15.727  65.233  1.00  0.00     1.280 C  
HETATM    8  C   UNL     1      -7.800  16.316  66.094  1.00  0.00     0.045 C  
BRANCH   7   9
HETATM    9  C   UNL     1      -9.040  14.176  65.560  1.00  0.00     0.841 C  
BRANCH   9  10
HETATM   10  N   UNL     1     -10.288  13.481  66.018  1.00  0.00    -0.296 NA 
HETATM   11  H   UNL     1     -10.852  12.995  65.320  1.00  0.00     0.000 HD 
BRANCH  10  12
HETATM   12  C   UNL     1     -10.725  13.461  67.357  1.00  0.00    -0.262 A  
HETATM   13  N   UNL     1     -10.837  14.640  67.971  1.00  0.00    -0.252 NA 
HETATM   14  C   UNL     1     -11.129  14.595  69.275  1.00  0.00    -0.269 A  
HETATM   15  C   UNL     1     -11.414  13.450  69.993  1.00  0.00    -0.126 A  
HETATM   16  C   UNL     1     -11.327  12.235  69.336  1.00  0.00    -0.228 A  
HETATM   17  N   UNL     1     -10.914  12.247  68.006  1.00  0.00    -0.214 NA 
BRANCH  16  18
HETATM   18  C   UNL     1     -11.685  10.972  70.145  1.00  0.00    -0.442 A  
HETATM   19  C   UNL     1     -12.974  10.813  70.687  1.00  0.00    -0.232 A  
HETATM   20  N   UNL     1     -13.072   9.573  71.255  1.00  0.00    -0.344 NA 
HETATM   21  C   UNL     1     -11.087   9.665  70.472  1.00  0.00    -0.308 A  
HETATM   22  N   UNL     1     -11.943   8.886  71.170  1.00  0.00    -0.294 NA 
BRANCH  20  23
HETATM   23  C   UNL     1     -14.247   8.925  71.867  1.00  0.00    -0.345 C  
HETATM   24  C   UNL     1     -14.262   9.035  73.397  1.00  0.00     1.220 C  
HETATM   25  C   UNL     1     -14.371   7.444  71.478  1.00  0.00    -0.594 C  
ENDBRANCH  20  23
BRANCH  21  26
HETATM   26  C   UNL     1      -9.771   9.067  70.250  1.00  0.00    -0.229 A  
HETATM   27  C   UNL     1      -9.188   8.922  68.967  1.00  0.00    -0.140 A  
HETATM   28  C   UNL     1      -8.012   8.183  68.796  1.00  0.00    -0.115 A  
HETATM   29 CL   UNL     1      -7.213   8.125  67.275  1.00  0.00    -0.083 Cl 
HETATM   30  C   UNL     1      -7.468   7.470  69.872  1.00  0.00    -0.084 A  
HETATM   31  C   UNL     1      -8.060   7.637  71.110  1.00  0.00    -0.098 A  
HETATM   32  C   UNL     1      -9.081   8.547  71.308  1.00  0.00    -0.196 A  
HETATM   33  F   UNL     1      -9.324   8.933  72.558  1.00  0.00    -0.331 F  
BRANCH  31  34
HETATM   34  N   UNL     1      -7.634   6.918  72.266  1.00  0.00    -0.091 N  
HETATM   35  H   UNL     1      -6.989   7.314  72.950  1.00  0.00     0.000 HD 
BRANCH  34  36
HETATM   36  S   UNL     1      -8.275   5.363  72.419  1.00  0.00    -0.115 S  
HETATM   37  O   UNL     1      -8.322   4.978  73.810  1.00  0.00    -0.105 OA 
HETATM   38  O   UNL     1      -9.454   5.365  71.579  1.00  0.00    -0.145 OA 
HETATM   39  C   UNL     1      -6.976   4.475  71.600  1.00  0.00    -0.039 C  
ENDBRANCH  34  36
ENDBRANCH  31  34
ENDBRANCH  21  26
ENDBRANCH  16  18
ENDBRANCH  10  12
ENDBRANCH   9  10
ENDBRANCH   7   9
ENDBRANCH   4   7
ENDBRANCH   2   3
TORSDOF 10
ENDMDL
MODEL      263
REMARK 921   NORMALIZED FREE ENERGY PREDICTED BY IDOCK:    1.78 KCAL/MOL
REMARK 922        TOTAL FREE ENERGY PREDICTED BY IDOCK:    0.86 KCAL/MOL
REMARK 923 INTER-LIGAND FREE ENERGY PREDICTED BY IDOCK:    0.99 KCAL/MOL
REMARK 924 INTRA-LIGAND FREE ENERGY PREDICTED BY IDOCK:   -0.14 KCAL/MOL
REMARK 927      BINDING AFFINITY PREDICTED BY RF-SCORE:    0.00 PKD
ROOT
HETATM    1  C   UNL     1     -12.939  11.624  68.034  1.00  0.00     3.738 C  
HETATM    2  O   UNL     1     -11.833  11.674  67.115  1.00  0.00    -0.608 OA 
ENDROOT
BRANCH   2   3
HETATM    3  C   UNL     1     -10.701  11.075  67.587  1.00  0.00    -0.238 C  
HETATM    4  N   UNL     1     -11.001  10.176  68.587  1.00  0.00    -0.293 N  
HETATM    5  O   UNL     1      -9.579  11.330  67.170  1.00  0.00    -0.175 OA 
HETATM    6  H   UNL     1     -11.978  10.047  68.852  1.00  0.00     0.000 HD 
BRANCH   4   7
HETATM    7  C   UNL     1      -9.969   9.391  69.289  1.00  0.00    -0.181 C  
HETATM    8  C   UNL     1     -10.691   8.432  70.288  1.00  0.00    -0.240 C  
BRANCH   7   9
HETATM    9  C   UNL     1      -9.016   8.493  68.393  1.00  0.00    -0.139 C  
BRANCH   9  10
HETATM   10  N   UNL     1      -7.553   8.763  68.199  1.00  0.00    -0.096 NA 
HETATM   11  H   UNL     1      -6.903   7.982  68.289  1.00  0.00     0.000 HD 
BRANCH  10  12
HETATM   12  C   UNL     1      -7.027  10.035  67.901  1.00  0.00    -0.084 A  
HETATM   13  N   UNL     1      -6.359  10.156  66.752  1.00  0.00    -0.068 NA 
HETATM   14  C   UNL     1      -5.759  11.333  66.545  1.00  0.00    -0.145 A  
HETATM   15  C   UNL     1      -5.858  12.438  67.368  1.00  0.00    -0.149 A  
HETATM   16  C   UNL     1      -6.581  12.310  68.541  1.00  0.00    -0.072 A  
HETATM   17  N   UNL     1      -7.121  11.061  68.835  1.00  0.00    -0.089 NA 
BRANCH  16  18
HETATM   18  C   UNL     1      -6.710  13.565  69.427  1.00  0.00    -0.051 A  
HETATM   19  C   UNL     1      -5.654  13.953  70.273  1.00  0.00    -0.128 A  
HETATM   20  N   UNL     1      -5.965  15.148  70.861  1.00  0.00     0.014 NA 
HETATM   21  C   UNL     1      -7.637  14.695  69.612  1.00  0.00     0.015 A  
HETATM   22  N   UNL     1      -7.162  15.589  70.508  1.00  0.00     0.583 NA 
BRANCH  20  23
HETATM   23  C   UNL     1      -5.139  15.984  71.751  1.00  0.00     0.103 C  
HETATM   24  C   UNL     1      -5.534  15.858  73.228  1.00  0.00     1.859 C  
HETATM   25  C   UNL     1      -5.171  17.470  71.358  1.00  0.00     0.034 C  
ENDBRANCH  20  23
BRANCH  21  26
HETATM   26  C   UNL     1      -8.960  15.021  69.078  1.00  0.00    -0.205 A  
HETATM   27  C   UNL     1     -10.156  14.421  69.544  1.00  0.00     0.142 A  
HETATM   28  C   UNL     1     -11.368  14.635  68.879  1.00  0.00    -0.283 A  
HETATM   29 CL   UNL     1     -12.848  14.039  69.517  1.00  0.00     0.223 Cl 
HETATM   30  C   UNL     1     -11.390  15.342  67.669  1.00  0.00    -0.292 A  
HETATM   31  C   UNL     1     -10.206  15.916  67.247  1.00  0.00    -0.278 A  
HETATM   32  C   UNL     1      -9.068  15.888  68.029  1.00  0.00    -0.184 A  
HETATM   33  F   UNL     1      -8.111  16.773  67.752  1.00  0.00    -0.169 F  
BRANCH  31  34
HETATM   34  N   UNL     1     -10.090  16.606  66.004  1.00  0.00    -0.338 N  
HETATM   35  H   UNL     1      -9.868  16.129  65.130  1.00  0.00     0.000 HD 
BRANCH  34  36
HETATM   36  S   UNL     1     -10.347  18.274  66.084  1.00  0.00    -0.337 S  
HETATM   37  O   UNL     1     -11.009  18.734  64.886  1.00  0.00    -0.439 OA 
HETATM   38  O   UNL     1     -10.897  18.500  67.404  1.00  0.00    -0.421 OA 
HETATM   39  C   UNL     1      -8.651  18.791  66.061  1.00  0.00    -0.018 C  
ENDBRANCH  34  36
ENDBRANCH  31  34
ENDBRANCH  21  26
ENDBRANCH  16  18
ENDBRANCH  10  12
ENDBRANCH   9  10
ENDBRANCH   7   9
ENDBRANCH   4   7
ENDBRANCH   2   3
TORSDOF 10
ENDMDL
MODEL      264
REMARK 921   NORMALIZED FREE ENERGY PREDICTED BY IDOCK:    1.79 KCAL/MOL
REMARK 922        TOTAL FREE ENERGY PREDICTED BY IDOCK:    0.88 KCAL/MOL
REMARK 923 INTER-LIGAND FREE ENERGY PREDICTED BY IDOCK:    2.31 KCAL/MOL
REMARK 924 INTRA-LIGAND FREE ENERGY PREDICTED BY IDOCK:   -1.44 KCAL/MOL
REMARK 927      BINDING AFFINITY PREDICTED BY RF-SCORE:    0.00 PKD
ROOT
HETATM    1  C   UNL     1     -11.172  15.629  64.346  1.00  0.00    -0.236 C  
HETATM    2  O   UNL     1     -11.088  15.783  65.774  1.00  0.00    -0.248 OA 
ENDROOT
BRANCH   2   3
HETATM    3  C   UNL     1      -9.821  15.657  66.265  1.00  0.00    -0.295 C  
HETATM    4  N   UNL     1      -9.831  15.036  67.496  1.00  0.00    -0.217 N  
HETATM    5  O   UNL     1      -8.826  16.060  65.679  1.00  0.00    -0.281 OA 
HETATM    6  H   UNL     1     -10.726  14.742  67.888  1.00  0.00     0.000 HD 
BRANCH   4   7
HETATM    7  C   UNL     1      -8.601  14.778  68.268  1.00  0.00    -0.164 C  
HETATM    8  C   UNL     1      -8.377  15.988  69.231  1.00  0.00    -0.217 C  
BRANCH   7   9
HETATM    9  C   UNL     1      -8.574  13.467  69.160  1.00  0.00     0.575 C  
BRANCH   9  10
HETATM   10  N   UNL     1      -7.313  12.798  69.622  1.00  0.00    -0.097 NA 
HETATM   11  H   UNL     1      -6.421  13.213  69.352  1.00  0.00     0.000 HD 
BRANCH  10  12
HETATM   12  C   UNL     1      -7.291  11.628  70.407  1.00  0.00     2.042 A  
HETATM   13  N   UNL     1      -6.270  11.491  71.254  1.00  0.00     0.298 NA 
HETATM   14  C   UNL     1      -6.196  10.321  71.897  1.00  0.00     0.856 A  
HETATM   15  C   UNL     1      -7.132   9.307  71.824  1.00  0.00     0.229 A  
HETATM   16  C   UNL     1      -8.205   9.475  70.967  1.00  0.00     0.198 A  
HETATM   17  N   UNL     1      -8.244  10.637  70.200  1.00  0.00     0.341 NA 
BRANCH  16  18
HETATM   18  C   UNL     1      -9.256   8.348  70.927  1.00  0.00    -0.192 A  
HETATM   19  C   UNL     1     -10.448   8.458  71.667  1.00  0.00    -0.252 A  
HETATM   20  N   UNL     1     -11.257   7.394  71.377  1.00  0.00    -0.243 NA 
HETATM   21  C   UNL     1      -9.509   7.101  70.185  1.00  0.00    -0.161 A  
HETATM   22  N   UNL     1     -10.698   6.552  70.522  1.00  0.00    -0.240 NA 
BRANCH  20  23
HETATM   23  C   UNL     1     -12.630   7.122  71.839  1.00  0.00    -0.293 C  
HETATM   24  C   UNL     1     -13.151   5.749  71.394  1.00  0.00     2.076 C  
HETATM   25  C   UNL     1     -13.628   8.199  71.383  1.00  0.00    -0.265 C  
ENDBRANCH  20  23
BRANCH  21  26
HETATM   26  C   UNL     1      -8.737   6.320  69.218  1.00  0.00    -0.124 A  
HETATM   27  C   UNL     1      -9.137   6.133  67.872  1.00  0.00    -0.117 A  
HETATM   28  C   UNL     1      -8.457   5.234  67.043  1.00  0.00    -0.106 A  
HETATM   29 CL   UNL     1      -8.834   5.108  65.371  1.00  0.00    -0.152 Cl 
HETATM   30  C   UNL     1      -7.454   4.411  67.573  1.00  0.00    -0.073 A  
HETATM   31  C   UNL     1      -7.088   4.623  68.889  1.00  0.00    -0.052 A  
HETATM   32  C   UNL     1      -7.609   5.667  69.627  1.00  0.00    -0.075 A  
HETATM   33  F   UNL     1      -6.941   6.042  70.716  1.00  0.00    -0.057 F  
BRANCH  31  34
HETATM   34  N   UNL     1      -6.124   3.809  69.556  1.00  0.00    -0.026 N  
HETATM   35  H   UNL     1      -5.126   4.017  69.538  1.00  0.00     0.000 HD 
BRANCH  34  36
HETATM   36  S   UNL     1      -6.757   2.476  70.376  1.00  0.00    -0.033 S  
HETATM   37  O   UNL     1      -7.321   2.889  71.640  1.00  0.00    -0.038 OA 
HETATM   38  O   UNL     1      -7.532   1.763  69.382  1.00  0.00    -0.042 OA 
HETATM   39  C   UNL     1      -5.235   1.610  70.661  1.00  0.00    -0.004 C  
ENDBRANCH  34  36
ENDBRANCH  31  34
ENDBRANCH  21  26
ENDBRANCH  16  18
ENDBRANCH  10  12
ENDBRANCH   9  10
ENDBRANCH   7   9
ENDBRANCH   4   7
ENDBRANCH   2   3
TORSDOF 10
ENDMDL
MODEL      265
REMARK 921   NORMALIZED FREE ENERGY PREDICTED BY IDOCK:    2.17 KCAL/MOL
REMARK 922        TOTAL FREE ENERGY PREDICTED BY IDOCK:    1.48 KCAL/MOL
REMARK 923 INTER-LIGAND FREE ENERGY PREDICTED BY IDOCK:    1.04 KCAL/MOL
REMARK 924 INTRA-LIGAND FREE ENERGY PREDICTED BY IDOCK:    0.44 KCAL/MOL
REMARK 927      BINDING AFFINITY PREDICTED BY RF-SCORE:    0.00 PKD
ROOT
HETATM    1  C   UNL     1      -8.369  17.064  70.424  1.00  0.00     3.333 C  
HETATM    2  O   UNL     1      -8.563  15.669  70.131  1.00  0.00     0.232 OA 
ENDROOT
BRANCH   2   3
HETATM    3  C   UNL     1      -8.304  15.340  68.832  1.00  0.00    -0.196 C  
HETATM    4  N   UNL     1      -9.436  14.856  68.212  1.00  0.00    -0.204 N  
HETATM    5  O   UNL     1      -7.202  15.458  68.312  1.00  0.00    -0.109 OA 
HETATM    6  H   UNL     1     -10.303  14.803  68.748  1.00  0.00     0.000 HD 
BRANCH   4   7
HETATM    7  C   UNL     1      -9.446  14.411  66.807  1.00  0.00    -0.267 C  
HETATM    8  C   UNL     1      -8.021  14.659  66.214  1.00  0.00     1.236 C  
BRANCH   7   9
HETATM    9  C   UNL     1      -9.798  12.888  66.537  1.00  0.00    -0.254 C  
BRANCH   9  10
HETATM   10  N   UNL     1      -9.029  12.007  65.597  1.00  0.00    -0.417 NA 
HETATM   11  H   UNL     1      -9.142  12.159  64.595  1.00  0.00     0.000 HD 
BRANCH  10  12
HETATM   12  C   UNL     1      -8.161  10.981  66.021  1.00  0.00    -0.129 A  
HETATM   13  N   UNL     1      -7.440  10.375  65.077  1.00  0.00    -0.118 NA 
HETATM   14  C   UNL     1      -6.718   9.322  65.476  1.00  0.00    -0.073 A  
HETATM   15  C   UNL     1      -6.592   8.888  66.782  1.00  0.00    -0.064 A  
HETATM   16  C   UNL     1      -7.320   9.546  67.757  1.00  0.00    -0.083 A  
HETATM   17  N   UNL     1      -8.167  10.573  67.350  1.00  0.00    -0.117 NA 
BRANCH  16  18
HETATM   18  C   UNL     1      -7.138   9.069  69.212  1.00  0.00    -0.058 A  
HETATM   19  C   UNL     1      -6.008   9.460  69.955  1.00  0.00    -0.036 A  
HETATM   20  N   UNL     1      -6.135   9.006  71.238  1.00  0.00    -0.056 NA 
HETATM   21  C   UNL     1      -7.909   8.353  70.244  1.00  0.00    -0.096 A  
HETATM   22  N   UNL     1      -7.246   8.310  71.421  1.00  0.00    -0.073 NA 
BRANCH  20  23
HETATM   23  C   UNL     1      -5.250   9.239  72.394  1.00  0.00    -0.076 C  
HETATM   24  C   UNL     1      -5.132   8.017  73.315  1.00  0.00    -0.041 C  
HETATM   25  C   UNL     1      -5.690  10.448  73.236  1.00  0.00     0.925 C  
ENDBRANCH  20  23
BRANCH  21  26
HETATM   26  C   UNL     1      -9.191   7.649  70.247  1.00  0.00    -0.157 A  
HETATM   27  C   UNL     1     -10.381   8.203  70.781  1.00  0.00    -0.217 A  
HETATM   28  C   UNL     1     -11.533   7.420  70.921  1.00  0.00    -0.286 A  
HETATM   29 CL   UNL     1     -13.022   8.114  71.424  1.00  0.00    -0.294 Cl 
HETATM   30  C   UNL     1     -11.484   6.046  70.653  1.00  0.00    -0.228 A  
HETATM   31  C   UNL     1     -10.308   5.541  70.131  1.00  0.00    -0.284 A  
HETATM   32  C   UNL     1      -9.256   6.366  69.786  1.00  0.00    -0.144 A  
HETATM   33  F   UNL     1      -8.344   5.878  68.947  1.00  0.00    -0.100 F  
BRANCH  31  34
HETATM   34  N   UNL     1     -10.119   4.150  69.877  1.00  0.00    -0.040 N  
HETATM   35  H   UNL     1     -10.478   3.692  69.039  1.00  0.00     0.000 HD 
BRANCH  34  36
HETATM   36  S   UNL     1      -9.255   3.316  71.064  1.00  0.00    -0.141 S  
HETATM   37  O   UNL     1     -10.161   2.577  71.913  1.00  0.00    -0.162 OA 
HETATM   38  O   UNL     1      -8.170   2.675  70.351  1.00  0.00    -0.042 OA 
HETATM   39  C   UNL     1      -8.625   4.719  71.948  1.00  0.00    -0.123 C  
ENDBRANCH  34  36
ENDBRANCH  31  34
ENDBRANCH  21  26
ENDBRANCH  16  18
ENDBRANCH  10  12
ENDBRANCH   9  10
ENDBRANCH   7   9
ENDBRANCH   4   7
ENDBRANCH   2   3
TORSDOF 10
ENDMDL
MODEL      266
REMARK 921   NORMALIZED FREE ENERGY PREDICTED BY IDOCK:    2.61 KCAL/MOL
REMARK 922        TOTAL FREE ENERGY PREDICTED BY IDOCK:    2.18 KCAL/MOL
REMARK 923 INTER-LIGAND FREE ENERGY PREDICTED BY IDOCK:    2.54 KCAL/MOL
REMARK 924 INTRA-LIGAND FREE ENERGY PREDICTED BY IDOCK:   -0.36 KCAL/MOL
REMARK 927      BINDING AFFINITY PREDICTED BY RF-SCORE:    0.00 PKD
ROOT
HETATM    1  C   UNL     1      -8.444  14.149  66.199  1.00  0.00     0.923 C  
HETATM    2  O   UNL     1      -8.429  13.895  67.615  1.00  0.00    -0.166 OA 
ENDROOT
BRANCH   2   3
HETATM    3  C   UNL     1      -9.080  14.844  68.349  1.00  0.00    -0.185 C  
HETATM    4  N   UNL     1      -9.824  15.670  67.534  1.00  0.00    -0.227 N  
HETATM    5  O   UNL     1      -8.989  14.936  69.565  1.00  0.00    -0.107 OA 
HETATM    6  H   UNL     1      -9.823  15.497  66.529  1.00  0.00     0.000 HD 
BRANCH   4   7
HETATM    7  C   UNL     1     -10.622  16.795  68.057  1.00  0.00    -0.347 C  
HETATM    8  C   UNL     1     -10.201  18.084  67.280  1.00  0.00    -0.371 C  
BRANCH   7   9
HETATM    9  C   UNL     1     -12.199  16.676  67.933  1.00  0.00     1.555 C  
BRANCH   9  10
HETATM   10  N   UNL     1     -13.047  15.840  68.847  1.00  0.00     0.775 NA 
HETATM   11  H   UNL     1     -14.054  15.826  68.689  1.00  0.00     0.000 HD 
BRANCH  10  12
HETATM   12  C   UNL     1     -12.529  15.074  69.910  1.00  0.00    -0.230 A  
HETATM   13  N   UNL     1     -11.938  15.743  70.901  1.00  0.00    -0.384 NA 
HETATM   14  C   UNL     1     -11.342  14.996  71.837  1.00  0.00    -0.201 A  
HETATM   15  C   UNL     1     -11.376  13.617  71.902  1.00  0.00     2.712 A  
HETATM   16  C   UNL     1     -12.020  12.936  70.885  1.00  0.00     0.119 A  
HETATM   17  N   UNL     1     -12.551  13.686  69.839  1.00  0.00    -0.154 NA 
BRANCH  16  18
HETATM   18  C   UNL     1     -12.079  11.399  70.995  1.00  0.00    -0.303 A  
HETATM   19  C   UNL     1     -13.267  10.756  71.388  1.00  0.00    -0.287 A  
HETATM   20  N   UNL     1     -13.097   9.402  71.299  1.00  0.00    -0.321 NA 
HETATM   21  C   UNL     1     -11.235  10.236  70.668  1.00  0.00    -0.325 A  
HETATM   22  N   UNL     1     -11.877   9.070  70.906  1.00  0.00    -0.276 NA 
BRANCH  20  23
HETATM   23  C   UNL     1     -14.082   8.328  71.522  1.00  0.00    -0.372 C  
HETATM   24  C   UNL     1     -14.370   8.079  73.009  1.00  0.00     0.647 C  
HETATM   25  C   UNL     1     -13.662   7.001  70.872  1.00  0.00     0.230 C  
ENDBRANCH  20  23
BRANCH  21  26
HETATM   26  C   UNL     1      -9.858  10.081  70.198  1.00  0.00    -0.205 A  
HETATM   27  C   UNL     1      -8.746   9.972  71.069  1.00  0.00     1.294 A  
HETATM   28  C   UNL     1      -7.440  10.006  70.567  1.00  0.00     0.067 A  
HETATM   29 CL   UNL     1      -6.088   9.725  71.590  1.00  0.00     0.077 Cl 
HETATM   30  C   UNL     1      -7.216  10.278  69.211  1.00  0.00    -0.093 A  
HETATM   31  C   UNL     1      -8.324  10.375  68.390  1.00  0.00    -0.119 A  
HETATM   32  C   UNL     1      -9.597  10.113  68.858  1.00  0.00    -0.184 A  
HETATM   33  F   UNL     1     -10.538   9.842  67.955  1.00  0.00    -0.214 F  
BRANCH  31  34
HETATM   34  N   UNL     1      -8.225  10.708  67.006  1.00  0.00    -0.121 N  
HETATM   35  H   UNL     1      -7.912  11.624  66.684  1.00  0.00     0.000 HD 
BRANCH  34  36
HETATM   36  S   UNL     1      -8.663   9.474  65.940  1.00  0.00    -0.155 S  
HETATM   37  O   UNL     1     -10.100   9.341  65.895  1.00  0.00    -0.293 OA 
HETATM   38  O   UNL     1      -7.874   9.716  64.751  1.00  0.00    -0.117 OA 
HETATM   39  C   UNL     1      -7.968   8.110  66.835  1.00  0.00    -0.104 C  
ENDBRANCH  34  36
ENDBRANCH  31  34
ENDBRANCH  21  26
ENDBRANCH  16  18
ENDBRANCH  10  12
ENDBRANCH   9  10
ENDBRANCH   7   9
ENDBRANCH   4   7
ENDBRANCH   2   3
TORSDOF 10
ENDMDL
MODEL      267
REMARK 921   NORMALIZED FREE ENERGY PREDICTED BY IDOCK:    3.09 KCAL/MOL
REMARK 922        TOTAL FREE ENERGY PREDICTED BY IDOCK:    2.94 KCAL/MOL
REMARK 923 INTER-LIGAND FREE ENERGY PREDICTED BY IDOCK:    1.93 KCAL/MOL
REMARK 924 INTRA-LIGAND FREE ENERGY PREDICTED BY IDOCK:    1.00 KCAL/MOL
REMARK 927      BINDING AFFINITY PREDICTED BY RF-SCORE:    0.00 PKD
ROOT
HETATM    1  C   UNL     1     -12.621   5.785  72.403  1.00  0.00     0.394 C  
HETATM    2  O   UNL     1     -13.057   7.139  72.619  1.00  0.00     0.395 OA 
ENDROOT
BRANCH   2   3
HETATM    3  C   UNL     1     -12.436   8.050  71.814  1.00  0.00    -0.324 C  
HETATM    4  N   UNL     1     -13.261   9.125  71.561  1.00  0.00    -0.375 N  
HETATM    5  O   UNL     1     -11.303   7.903  71.377  1.00  0.00    -0.244 OA 
HETATM    6  H   UNL     1     -14.190   9.138  71.981  1.00  0.00     0.000 HD 
BRANCH   4   7
HETATM    7  C   UNL     1     -12.854  10.257  70.708  1.00  0.00    -0.344 C  
HETATM    8  C   UNL     1     -11.662  10.984  71.410  1.00  0.00     0.427 C  
BRANCH   7   9
HETATM    9  C   UNL     1     -12.379   9.912  69.234  1.00  0.00     0.945 C  
BRANCH   9  10
HETATM   10  N   UNL     1     -10.987   9.472  68.887  1.00  0.00    -0.410 NA 
HETATM   11  H   UNL     1     -10.643   8.601  69.290  1.00  0.00     0.000 HD 
BRANCH  10  12
HETATM   12  C   UNL     1     -10.128  10.197  68.037  1.00  0.00    -0.157 A  
HETATM   13  N   UNL     1      -9.846   9.645  66.856  1.00  0.00    -0.188 NA 
HETATM   14  C   UNL     1      -8.932  10.283  66.116  1.00  0.00    -0.154 A  
HETATM   15  C   UNL     1      -8.346  11.493  66.435  1.00  0.00    -0.118 A  
HETATM   16  C   UNL     1      -8.673  12.071  67.648  1.00  0.00    -0.166 A  
HETATM   17  N   UNL     1      -9.535  11.371  68.488  1.00  0.00    -0.187 NA 
BRANCH  16  18
HETATM   18  C   UNL     1      -8.036  13.438  67.969  1.00  0.00    -0.160 A  
HETATM   19  C   UNL     1      -6.733  13.740  67.530  1.00  0.00    -0.115 A  
HETATM   20  N   UNL     1      -6.445  15.040  67.837  1.00  0.00    -0.146 NA 
HETATM   21  C   UNL     1      -8.436  14.733  68.546  1.00  0.00    -0.159 A  
HETATM   22  N   UNL     1      -7.436  15.640  68.479  1.00  0.00    -0.119 NA 
BRANCH  20  23
HETATM   23  C   UNL     1      -5.243  15.826  67.503  1.00  0.00    -0.031 C  
HETATM   24  C   UNL     1      -5.150  17.142  68.287  1.00  0.00    -0.123 C  
HETATM   25  C   UNL     1      -5.145  16.139  66.001  1.00  0.00     2.273 C  
ENDBRANCH  20  23
BRANCH  21  26
HETATM   26  C   UNL     1      -9.646  15.219  69.211  1.00  0.00    -0.249 A  
HETATM   27  C   UNL     1     -10.624  14.360  69.771  1.00  0.00     0.051 A  
HETATM   28  C   UNL     1     -11.842  14.871  70.232  1.00  0.00    -0.307 A  
HETATM   29 CL   UNL     1     -12.973  13.867  71.050  1.00  0.00    -0.382 Cl 
HETATM   30  C   UNL     1     -12.160  16.220  70.028  1.00  0.00     0.225 A  
HETATM   31  C   UNL     1     -11.182  17.029  69.481  1.00  0.00     0.393 A  
HETATM   32  C   UNL     1      -9.905  16.559  69.241  1.00  0.00    -0.218 A  
HETATM   33  F   UNL     1      -8.937  17.462  69.096  1.00  0.00    -0.222 F  
BRANCH  31  34
HETATM   34  N   UNL     1     -11.409  18.402  69.170  1.00  0.00     1.527 N  
HETATM   35  H   UNL     1     -11.865  19.043  69.820  1.00  0.00     0.000 HD 
BRANCH  34  36
HETATM   36  S   UNL     1     -10.869  18.890  67.646  1.00  0.00    -0.217 S  
HETATM   37  O   UNL     1     -10.350  17.758  66.915  1.00  0.00    -0.335 OA 
HETATM   38  O   UNL     1     -11.932  19.723  67.126  1.00  0.00     1.081 OA 
HETATM   39  C   UNL     1      -9.525  19.921  68.175  1.00  0.00    -0.328 C  
ENDBRANCH  34  36
ENDBRANCH  31  34
ENDBRANCH  21  26
ENDBRANCH  16  18
ENDBRANCH  10  12
ENDBRANCH   9  10
ENDBRANCH   7   9
ENDBRANCH   4   7
ENDBRANCH   2   3
TORSDOF 10
ENDMDL
MODEL      268
REMARK 921   NORMALIZED FREE ENERGY PREDICTED BY IDOCK:    4.65 KCAL/MOL
REMARK 922        TOTAL FREE ENERGY PREDICTED BY IDOCK:    5.41 KCAL/MOL
REMARK 923 INTER-LIGAND FREE ENERGY PREDICTED BY IDOCK:   -0.18 KCAL/MOL
REMARK 924 INTRA-LIGAND FREE ENERGY PREDICTED BY IDOCK:    5.59 KCAL/MOL
REMARK 927      BINDING AFFINITY PREDICTED BY RF-SCORE:    0.00 PKD
ROOT
HETATM    1  C   UNL     1     -10.170  18.402  68.485  1.00  0.00    -0.364 C  
HETATM    2  O   UNL     1      -9.331  17.259  68.243  1.00  0.00    -0.255 OA 
ENDROOT
BRANCH   2   3
HETATM    3  C   UNL     1      -9.984  16.214  67.656  1.00  0.00    -0.241 C  
HETATM    4  N   UNL     1      -9.095  15.369  67.027  1.00  0.00    -0.214 N  
HETATM    5  O   UNL     1     -11.199  16.075  67.686  1.00  0.00    -0.288 OA 
HETATM    6  H   UNL     1      -8.099  15.588  67.068  1.00  0.00     0.000 HD 
BRANCH   4   7
HETATM    7  C   UNL     1      -9.524  14.162  66.297  1.00  0.00    -0.241 C  
HETATM    8  C   UNL     1      -8.242  13.373  65.878  1.00  0.00     1.977 C  
BRANCH   7   9
HETATM    9  C   UNL     1     -10.456  13.144  67.079  1.00  0.00    -0.248 C  
BRANCH   9  10
HETATM   10  N   UNL     1     -11.056  11.916  66.458  1.00  0.00    -0.293 NA 
HETATM   11  H   UNL     1     -11.527  12.013  65.558  1.00  0.00     0.000 HD 
BRANCH  10  12
HETATM   12  C   UNL     1     -11.006  10.638  67.049  1.00  0.00    -0.208 A  
HETATM   13  N   UNL     1     -11.919  10.371  67.984  1.00  0.00     0.005 NA 
HETATM   14  C   UNL     1     -11.780   9.205  68.622  1.00  0.00     1.244 A  
HETATM   15  C   UNL     1     -10.840   8.236  68.324  1.00  0.00     0.025 A  
HETATM   16  C   UNL     1      -9.919   8.512  67.330  1.00  0.00    -0.225 A  
HETATM   17  N   UNL     1      -9.972   9.766  66.727  1.00  0.00    -0.205 NA 
BRANCH  16  18
HETATM   18  C   UNL     1      -8.902   7.404  66.988  1.00  0.00    -0.132 A  
HETATM   19  C   UNL     1      -9.038   6.650  65.807  1.00  0.00     0.035 A  
HETATM   20  N   UNL     1      -7.960   5.820  65.677  1.00  0.00    -0.110 NA 
HETATM   21  C   UNL     1      -7.612   6.898  67.488  1.00  0.00    -0.109 A  
HETATM   22  N   UNL     1      -7.114   5.926  66.691  1.00  0.00    -0.068 NA 
BRANCH  20  23
HETATM   23  C   UNL     1      -7.620   4.911  64.568  1.00  0.00    -0.077 C  
HETATM   24  C   UNL     1      -6.863   3.658  65.030  1.00  0.00    -0.049 C  
HETATM   25  C   UNL     1      -6.799   5.605  63.469  1.00  0.00    -0.040 C  
ENDBRANCH  20  23
BRANCH  21  26
HETATM   26  C   UNL     1      -6.799   7.183  68.670  1.00  0.00    -0.076 A  
HETATM   27  C   UNL     1      -6.553   6.235  69.694  1.00  0.00    -0.047 A  
HETATM   28  C   UNL     1      -5.921   6.615  70.883  1.00  0.00    -0.028 A  
HETATM   29 CL   UNL     1      -5.482   5.450  72.067  1.00  0.00    -0.016 Cl 
HETATM   30  C   UNL     1      -5.639   7.966  71.127  1.00  0.00    -0.034 A  
HETATM   31  C   UNL     1      -5.889   8.862  70.106  1.00  0.00    -0.030 A  
HETATM   32  C   UNL     1      -6.300   8.441  68.856  1.00  0.00    -0.045 A  
HETATM   33  F   UNL     1      -6.141   9.287  67.840  1.00  0.00    -0.047 F  
BRANCH  31  34
HETATM   34  N   UNL     1      -5.700  10.269  70.258  1.00  0.00    -0.056 N  
HETATM   35  H   UNL     1      -5.291  10.679  71.097  1.00  0.00     0.000 HD 
BRANCH  34  36
HETATM   36  S   UNL     1      -6.205  11.205  68.946  1.00  0.00    -0.050 S  
HETATM   37  O   UNL     1      -5.484  12.456  68.920  1.00  0.00    -0.057 OA 
HETATM   38  O   UNL     1      -6.209  10.294  67.821  1.00  0.00    -0.056 OA 
HETATM   39  C   UNL     1      -7.875  11.492  69.470  1.00  0.00     0.446 C  
ENDBRANCH  34  36
ENDBRANCH  31  34
ENDBRANCH  21  26
ENDBRANCH  16  18
ENDBRANCH  10  12
ENDBRANCH   9  10
ENDBRANCH   7   9
ENDBRANCH   4   7
ENDBRANCH   2   3
TORSDOF 10
ENDMDL
MODEL      269
REMARK 921   NORMALIZED FREE ENERGY PREDICTED BY IDOCK:    4.72 KCAL/MOL
REMARK 922        TOTAL FREE ENERGY PREDICTED BY IDOCK:    5.52 KCAL/MOL
REMARK 923 INTER-LIGAND FREE ENERGY PREDICTED BY IDOCK:    5.19 KCAL/MOL
REMARK 924 INTRA-LIGAND FREE ENERGY PREDICTED BY IDOCK:    0.33 KCAL/MOL
REMARK 927      BINDING AFFINITY PREDICTED BY RF-SCORE:    0.00 PKD
ROOT
HETATM    1  C   UNL     1     -12.180  15.302  68.844  1.00  0.00    -0.097 C  
HETATM    2  O   UNL     1     -11.795  16.007  70.038  1.00  0.00    -0.318 OA 
ENDROOT
BRANCH   2   3
HETATM    3  C   UNL     1     -10.473  16.345  70.072  1.00  0.00    -0.131 C  
HETATM    4  N   UNL     1      -9.679  15.219  70.122  1.00  0.00    -0.432 N  
HETATM    5  O   UNL     1     -10.072  17.500  70.070  1.00  0.00     0.374 OA 
HETATM    6  H   UNL     1     -10.128  14.303  70.118  1.00  0.00     0.000 HD 
BRANCH   4   7
HETATM    7  C   UNL     1      -8.207  15.285  70.179  1.00  0.00     0.554 C  
HETATM    8  C   UNL     1      -7.812  16.067  71.473  1.00  0.00     5.929 C  
BRANCH   7   9
HETATM    9  C   UNL     1      -7.427  13.904  70.218  1.00  0.00     1.208 C  
BRANCH   9  10
HETATM   10  N   UNL     1      -7.861  12.679  69.467  1.00  0.00     0.178 NA 
HETATM   11  H   UNL     1      -8.790  12.677  69.045  1.00  0.00     0.000 HD 
BRANCH  10  12
HETATM   12  C   UNL     1      -7.058  11.532  69.313  1.00  0.00    -0.077 A  
HETATM   13  N   UNL     1      -6.065  11.370  70.190  1.00  0.00    -0.146 NA 
HETATM   14  C   UNL     1      -5.237  10.348  69.954  1.00  0.00    -0.038 A  
HETATM   15  C   UNL     1      -5.388   9.411  68.949  1.00  0.00    -0.037 A  
HETATM   16  C   UNL     1      -6.440   9.571  68.066  1.00  0.00    -0.061 A  
HETATM   17  N   UNL     1      -7.251  10.693  68.222  1.00  0.00    -0.081 NA 
BRANCH  16  18
HETATM   18  C   UNL     1      -6.612   8.496  66.975  1.00  0.00    -0.058 A  
HETATM   19  C   UNL     1      -6.385   8.809  65.621  1.00  0.00    -0.056 A  
HETATM   20  N   UNL     1      -6.489   7.669  64.873  1.00  0.00    -0.041 NA 
HETATM   21  C   UNL     1      -6.843   7.043  66.884  1.00  0.00    -0.064 A  
HETATM   22  N   UNL     1      -6.800   6.610  65.604  1.00  0.00    -0.047 NA 
BRANCH  20  23
HETATM   23  C   UNL     1      -6.251   7.485  63.430  1.00  0.00    -0.054 C  
HETATM   24  C   UNL     1      -5.708   8.747  62.746  1.00  0.00    -0.082 C  
HETATM   25  C   UNL     1      -7.512   7.023  62.681  1.00  0.00    -0.086 C  
ENDBRANCH  20  23
BRANCH  21  26
HETATM   26  C   UNL     1      -7.155   6.001  67.863  1.00  0.00    -0.074 A  
HETATM   27  C   UNL     1      -8.005   4.902  67.586  1.00  0.00    -0.094 A  
HETATM   28  C   UNL     1      -8.410   4.037  68.608  1.00  0.00    -0.082 A  
HETATM   29 CL   UNL     1      -9.315   2.617  68.264  1.00  0.00    -0.256 Cl 
HETATM   30  C   UNL     1      -8.083   4.323  69.940  1.00  0.00    -0.061 A  
HETATM   31  C   UNL     1      -7.250   5.401  70.173  1.00  0.00    -0.067 A  
HETATM   32  C   UNL     1      -6.674   6.109  69.136  1.00  0.00    -0.060 A  
HETATM   33  F   UNL     1      -5.606   6.852  69.420  1.00  0.00    -0.013 F  
BRANCH  31  34
HETATM   34  N   UNL     1      -6.898   5.826  71.489  1.00  0.00    -0.065 N  
HETATM   35  H   UNL     1      -6.153   6.500  71.666  1.00  0.00     0.000 HD 
BRANCH  34  36
HETATM   36  S   UNL     1      -7.805   5.132  72.733  1.00  0.00    -0.099 S  
HETATM   37  O   UNL     1      -9.135   4.818  72.265  1.00  0.00    -0.125 OA 
HETATM   38  O   UNL     1      -6.934   4.130  73.310  1.00  0.00    -0.058 OA 
HETATM   39  C   UNL     1      -7.871   6.539  73.811  1.00  0.00    -0.093 C  
ENDBRANCH  34  36
ENDBRANCH  31  34
ENDBRANCH  21  26
ENDBRANCH  16  18
ENDBRANCH  10  12
ENDBRANCH   9  10
ENDBRANCH   7   9
ENDBRANCH   4   7
ENDBRANCH   2   3
TORSDOF 10
ENDMDL
MODEL      270
REMARK 921   NORMALIZED FREE ENERGY PREDICTED BY IDOCK:    7.41 KCAL/MOL
REMARK 922        TOTAL FREE ENERGY PREDICTED BY IDOCK:    9.79 KCAL/MOL
REMARK 923 INTER-LIGAND FREE ENERGY PREDICTED BY IDOCK:   -3.05 KCAL/MOL
REMARK 924 INTRA-LIGAND FREE ENERGY PREDICTED BY IDOCK:   12.84 KCAL/MOL
REMARK 927      BINDING AFFINITY PREDICTED BY RF-SCORE:    0.00 PKD
ROOT
HETATM    1  C   UNL     1     -10.240  12.272  67.613  1.00  0.00    -0.203 C  
HETATM    2  O   UNL     1     -10.767  13.295  66.750  1.00  0.00    -0.273 OA 
ENDROOT
BRANCH   2   3
HETATM    3  C   UNL     1     -10.548  13.059  65.424  1.00  0.00    -0.292 C  
HETATM    4  N   UNL     1     -10.417  11.709  65.180  1.00  0.00    -0.268 N  
HETATM    5  O   UNL     1     -10.471  13.946  64.584  1.00  0.00    -0.425 OA 
HETATM    6  H   UNL     1     -10.501  11.060  65.963  1.00  0.00     0.000 HD 
BRANCH   4   7
HETATM    7  C   UNL     1     -10.161  11.165  63.834  1.00  0.00    -0.362 C  
HETATM    8  C   UNL     1     -10.421  12.304  62.797  1.00  0.00     0.908 C  
BRANCH   7   9
HETATM    9  C   UNL     1      -8.703  10.607  63.550  1.00  0.00    -0.154 C  
BRANCH   9  10
HETATM   10  N   UNL     1      -7.720  10.255  64.627  1.00  0.00    -0.222 NA 
HETATM   11  H   UNL     1      -6.806   9.897  64.347  1.00  0.00     0.000 HD 
BRANCH  10  12
HETATM   12  C   UNL     1      -7.987  10.390  66.003  1.00  0.00    -0.144 A  
HETATM   13  N   UNL     1      -8.636  11.491  66.385  1.00  0.00    -0.177 NA 
HETATM   14  C   UNL     1      -8.769  11.665  67.704  1.00  0.00    -0.156 A  
HETATM   15  C   UNL     1      -8.380  10.762  68.674  1.00  0.00    -0.141 A  
HETATM   16  C   UNL     1      -7.737   9.607  68.263  1.00  0.00    -0.082 A  
HETATM   17  N   UNL     1      -7.485   9.456  66.902  1.00  0.00    -0.090 NA 
BRANCH  16  18
HETATM   18  C   UNL     1      -7.344   8.596  69.358  1.00  0.00    -0.072 A  
HETATM   19  C   UNL     1      -7.377   8.964  70.716  1.00  0.00    -0.090 A  
HETATM   20  N   UNL     1      -7.099   7.869  71.486  1.00  0.00    -0.062 NA 
HETATM   21  C   UNL     1      -7.025   7.161  69.472  1.00  0.00    -0.058 A  
HETATM   22  N   UNL     1      -6.848   6.790  70.760  1.00  0.00    -0.057 NA 
BRANCH  20  23
HETATM   23  C   UNL     1      -7.103   7.745  72.955  1.00  0.00    -0.079 C  
HETATM   24  C   UNL     1      -6.749   6.332  73.438  1.00  0.00    -0.074 C  
HETATM   25  C   UNL     1      -8.448   8.155  73.576  1.00  0.00    -0.310 C  
ENDBRANCH  20  23
BRANCH  21  26
HETATM   26  C   UNL     1      -6.812   6.088  68.500  1.00  0.00    -0.070 A  
HETATM   27  C   UNL     1      -6.447   6.321  67.151  1.00  0.00    -0.053 A  
HETATM   28  C   UNL     1      -6.432   5.272  66.225  1.00  0.00    -0.044 A  
HETATM   29 CL   UNL     1      -5.849   5.509  64.626  1.00  0.00    -0.021 Cl 
HETATM   30  C   UNL     1      -6.902   4.004  66.592  1.00  0.00    -0.058 A  
HETATM   31  C   UNL     1      -7.246   3.813  67.917  1.00  0.00    -0.059 A  
HETATM   32  C   UNL     1      -7.040   4.793  68.868  1.00  0.00    -0.053 A  
HETATM   33  F   UNL     1      -7.020   4.414  70.144  1.00  0.00    -0.037 F  
BRANCH  31  34
HETATM   34  N   UNL     1      -7.793   2.585  68.396  1.00  0.00    -0.054 N  
HETATM   35  H   UNL     1      -7.209   1.814  68.719  1.00  0.00     0.000 HD 
BRANCH  34  36
HETATM   36  S   UNL     1      -9.480   2.502  68.389  1.00  0.00    -0.063 S  
HETATM   37  O   UNL     1      -9.930   1.573  67.379  1.00  0.00     0.328 OA 
HETATM   38  O   UNL     1      -9.850   2.367  69.782  1.00  0.00     0.053 OA 
HETATM   39  C   UNL     1      -9.811   4.162  67.856  1.00  0.00    -0.036 C  
ENDBRANCH  34  36
ENDBRANCH  31  34
ENDBRANCH  21  26
ENDBRANCH  16  18
ENDBRANCH  10  12
ENDBRANCH   9  10
ENDBRANCH   7   9
ENDBRANCH   4   7
ENDBRANCH   2   3
TORSDOF 10
ENDMDL
MODEL      271
REMARK 921   NORMALIZED FREE ENERGY PREDICTED BY IDOCK:    8.38 KCAL/MOL
REMARK 922        TOTAL FREE ENERGY PREDICTED BY IDOCK:   11.32 KCAL/MOL
REMARK 923 INTER-LIGAND FREE ENERGY PREDICTED BY IDOCK:   12.02 KCAL/MOL
REMARK 924 INTRA-LIGAND FREE ENERGY PREDICTED BY IDOCK:   -0.70 KCAL/MOL
REMARK 927      BINDING AFFINITY PREDICTED BY RF-SCORE:    0.00 PKD
ROOT
HETATM    1  C   UNL     1     -14.099   9.965  69.328  1.00  0.00     5.449 C  
HETATM    2  O   UNL     1     -12.750   9.837  68.846  1.00  0.00     1.522 OA 
ENDROOT
BRANCH   2   3
HETATM    3  C   UNL     1     -11.832  10.508  69.600  1.00  0.00    -0.234 C  
HETATM    4  N   UNL     1     -11.443   9.754  70.686  1.00  0.00    -0.300 N  
HETATM    5  O   UNL     1     -11.433  11.634  69.335  1.00  0.00    -0.261 OA 
HETATM    6  H   UNL     1     -11.846   8.824  70.806  1.00  0.00     0.000 HD 
BRANCH   4   7
HETATM    7  C   UNL     1     -10.468  10.236  71.682  1.00  0.00     2.177 C  
HETATM    8  C   UNL     1      -9.880   8.990  72.420  1.00  0.00     0.208 C  
BRANCH   7   9
HETATM    9  C   UNL     1      -9.236  11.073  71.135  1.00  0.00     6.183 C  
BRANCH   9  10
HETATM   10  N   UNL     1      -7.847  10.522  71.002  1.00  0.00     0.864 NA 
HETATM   11  H   UNL     1      -7.381  10.181  71.843  1.00  0.00     0.000 HD 
BRANCH  10  12
HETATM   12  C   UNL     1      -7.149  10.450  69.781  1.00  0.00    -0.148 A  
HETATM   13  N   UNL     1      -5.909  10.942  69.767  1.00  0.00    -0.057 NA 
HETATM   14  C   UNL     1      -5.308  10.982  68.572  1.00  0.00    -0.043 A  
HETATM   15  C   UNL     1      -5.828  10.473  67.398  1.00  0.00    -0.045 A  
HETATM   16  C   UNL     1      -7.103   9.936  67.432  1.00  0.00    -0.085 A  
HETATM   17  N   UNL     1      -7.794   9.986  68.640  1.00  0.00    -0.088 NA 
BRANCH  16  18
HETATM   18  C   UNL     1      -7.650   9.342  66.119  1.00  0.00    -0.096 A  
HETATM   19  C   UNL     1      -7.212   8.082  65.668  1.00  0.00    -0.071 A  
HETATM   20  N   UNL     1      -7.924   7.731  64.555  1.00  0.00    -0.140 NA 
HETATM   21  C   UNL     1      -8.697   9.638  65.125  1.00  0.00    -0.166 A  
HETATM   22  N   UNL     1      -8.790   8.665  64.192  1.00  0.00     0.077 NA 
BRANCH  20  23
HETATM   23  C   UNL     1      -7.879   6.474  63.786  1.00  0.00    -0.107 C  
HETATM   24  C   UNL     1      -7.793   5.229  64.679  1.00  0.00    -0.098 C  
HETATM   25  C   UNL     1      -6.717   6.440  62.781  1.00  0.00    -0.038 C  
ENDBRANCH  20  23
BRANCH  21  26
HETATM   26  C   UNL     1      -9.603  10.767  64.911  1.00  0.00    -0.307 A  
HETATM   27  C   UNL     1     -10.611  10.778  63.915  1.00  0.00    -0.149 A  
HETATM   28  C   UNL     1     -11.327  11.947  63.637  1.00  0.00    -0.450 A  
HETATM   29 CL   UNL     1     -12.652  11.938  62.542  1.00  0.00     0.908 Cl 
HETATM   30  C   UNL     1     -10.966  13.154  64.250  1.00  0.00    -0.428 A  
HETATM   31  C   UNL     1      -9.981  13.106  65.218  1.00  0.00    -0.168 A  
HETATM   32  C   UNL     1      -9.442  11.908  65.644  1.00  0.00    -0.166 A  
HETATM   33  F   UNL     1      -8.812  11.902  66.817  1.00  0.00    -0.170 F  
BRANCH  31  34
HETATM   34  N   UNL     1      -9.487  14.277  65.866  1.00  0.00    -0.517 N  
HETATM   35  H   UNL     1      -8.502  14.542  65.843  1.00  0.00     0.000 HD 
BRANCH  34  36
HETATM   36  S   UNL     1     -10.652  15.192  66.676  1.00  0.00    -0.309 S  
HETATM   37  O   UNL     1     -10.955  16.390  65.928  1.00  0.00    -0.158 OA 
HETATM   38  O   UNL     1     -11.675  14.239  67.053  1.00  0.00    -0.366 OA 
HETATM   39  C   UNL     1      -9.691  15.613  68.107  1.00  0.00    -0.204 C  
ENDBRANCH  34  36
ENDBRANCH  31  34
ENDBRANCH  21  26
ENDBRANCH  16  18
ENDBRANCH  10  12
ENDBRANCH   9  10
ENDBRANCH   7   9
ENDBRANCH   4   7
ENDBRANCH   2   3
TORSDOF 10
ENDMDL
MODEL      272
REMARK 921   NORMALIZED FREE ENERGY PREDICTED BY IDOCK:    8.38 KCAL/MOL
REMARK 922        TOTAL FREE ENERGY PREDICTED BY IDOCK:   11.32 KCAL/MOL
REMARK 923 INTER-LIGAND FREE ENERGY PREDICTED BY IDOCK:    5.90 KCAL/MOL
REMARK 924 INTRA-LIGAND FREE ENERGY PREDICTED BY IDOCK:    5.42 KCAL/MOL
REMARK 927      BINDING AFFINITY PREDICTED BY RF-SCORE:    0.00 PKD
ROOT
HETATM    1  C   UNL     1      -7.886  16.237  71.239  1.00  0.00     5.543 C  
HETATM    2  O   UNL     1      -8.009  14.893  70.741  1.00  0.00     1.072 OA 
ENDROOT
BRANCH   2   3
HETATM    3  C   UNL     1      -7.600  14.749  69.447  1.00  0.00    -0.127 C  
HETATM    4  N   UNL     1      -8.654  14.389  68.635  1.00  0.00    -0.190 N  
HETATM    5  O   UNL     1      -6.443  14.910  69.083  1.00  0.00    -0.101 OA 
HETATM    6  H   UNL     1      -9.579  14.282  69.053  1.00  0.00     0.000 HD 
BRANCH   4   7
HETATM    7  C   UNL     1      -8.500  14.152  67.188  1.00  0.00    -0.195 C  
HETATM    8  C   UNL     1      -7.013  14.445  66.809  1.00  0.00     1.364 C  
BRANCH   7   9
HETATM    9  C   UNL     1      -8.832  12.693  66.660  1.00  0.00    -0.126 C  
BRANCH   9  10
HETATM   10  N   UNL     1      -7.931  11.911  65.750  1.00  0.00     0.018 NA 
HETATM   11  H   UNL     1      -7.845  12.215  64.780  1.00  0.00     0.000 HD 
BRANCH  10  12
HETATM   12  C   UNL     1      -7.198  10.779  66.160  1.00  0.00    -0.126 A  
HETATM   13  N   UNL     1      -6.283  10.314  65.307  1.00  0.00    -0.119 NA 
HETATM   14  C   UNL     1      -5.688   9.169  65.656  1.00  0.00    -0.049 A  
HETATM   15  C   UNL     1      -5.875   8.500  66.850  1.00  0.00    -0.049 A  
HETATM   16  C   UNL     1      -6.803   9.011  67.740  1.00  0.00    -0.070 A  
HETATM   17  N   UNL     1      -7.519  10.140  67.351  1.00  0.00    -0.093 NA 
BRANCH  16  18
HETATM   18  C   UNL     1      -6.970   8.271  69.082  1.00  0.00    -0.063 A  
HETATM   19  C   UNL     1      -6.069   8.496  70.140  1.00  0.00    -0.034 A  
HETATM   20  N   UNL     1      -6.495   7.817  71.247  1.00  0.00    -0.038 NA 
HETATM   21  C   UNL     1      -7.952   7.393  69.743  1.00  0.00    -0.125 A  
HETATM   22  N   UNL     1      -7.599   7.120  71.019  1.00  0.00    -0.084 NA 
BRANCH  20  23
HETATM   23  C   UNL     1      -5.929   7.816  72.608  1.00  0.00    -0.041 C  
HETATM   24  C   UNL     1      -6.018   6.446  73.293  1.00  0.00    -0.057 C  
HETATM   25  C   UNL     1      -6.587   8.865  73.518  1.00  0.00     0.110 C  
ENDBRANCH  20  23
BRANCH  21  26
HETATM   26  C   UNL     1      -9.177   6.725  69.301  1.00  0.00    -0.141 A  
HETATM   27  C   UNL     1      -9.340   6.178  68.005  1.00  0.00    -0.114 A  
HETATM   28  C   UNL     1     -10.589   5.713  67.578  1.00  0.00    -0.221 A  
HETATM   29 CL   UNL     1     -10.771   4.912  66.069  1.00  0.00    -0.334 Cl 
HETATM   30  C   UNL     1     -11.721   5.901  68.383  1.00  0.00     1.509 A  
HETATM   31  C   UNL     1     -11.523   6.435  69.643  1.00  0.00    -0.378 A  
HETATM   32  C   UNL     1     -10.256   6.678  70.136  1.00  0.00    -0.187 A  
HETATM   33  F   UNL     1     -10.126   6.809  71.455  1.00  0.00    -0.184 F  
BRANCH  31  34
HETATM   34  N   UNL     1     -12.603   6.729  70.528  1.00  0.00    -0.478 N  
HETATM   35  H   UNL     1     -13.485   7.126  70.203  1.00  0.00     0.000 HD 
BRANCH  34  36
HETATM   36  S   UNL     1     -12.315   6.373  72.153  1.00  0.00    -0.046 S  
HETATM   37  O   UNL     1     -11.821   7.543  72.840  1.00  0.00    -0.186 OA 
HETATM   38  O   UNL     1     -13.497   5.662  72.591  1.00  0.00     0.282 OA 
HETATM   39  C   UNL     1     -10.989   5.216  71.925  1.00  0.00    -0.042 C  
ENDBRANCH  34  36
ENDBRANCH  31  34
ENDBRANCH  21  26
ENDBRANCH  16  18
ENDBRANCH  10  12
ENDBRANCH   9  10
ENDBRANCH   7   9
ENDBRANCH   4   7
ENDBRANCH   2   3
TORSDOF 10
ENDMDL
MODEL      273
REMARK 921   NORMALIZED FREE ENERGY PREDICTED BY IDOCK:    8.54 KCAL/MOL
REMARK 922        TOTAL FREE ENERGY PREDICTED BY IDOCK:   11.57 KCAL/MOL
REMARK 923 INTER-LIGAND FREE ENERGY PREDICTED BY IDOCK:    6.59 KCAL/MOL
REMARK 924 INTRA-LIGAND FREE ENERGY PREDICTED BY IDOCK:    4.98 KCAL/MOL
REMARK 927      BINDING AFFINITY PREDICTED BY RF-SCORE:    0.00 PKD
ROOT
HETATM    1  C   UNL     1      -7.887  16.217  71.225  1.00  0.00     5.174 C  
HETATM    2  O   UNL     1      -8.042  14.824  70.899  1.00  0.00     1.513 OA 
ENDROOT
BRANCH   2   3
HETATM    3  C   UNL     1      -7.718  14.524  69.607  1.00  0.00     0.138 C  
HETATM    4  N   UNL     1      -8.812  14.034  68.927  1.00  0.00    -0.377 N  
HETATM    5  O   UNL     1      -6.596  14.668  69.142  1.00  0.00    -0.098 OA 
HETATM    6  H   UNL     1      -9.702  13.958  69.422  1.00  0.00     0.000 HD 
BRANCH   4   7
HETATM    7  C   UNL     1      -8.750  13.616  67.515  1.00  0.00    -0.198 C  
HETATM    8  C   UNL     1      -7.305  13.899  66.993  1.00  0.00     0.376 C  
BRANCH   7   9
HETATM    9  C   UNL     1      -9.063  12.093  67.202  1.00  0.00    -0.189 C  
BRANCH   9  10
HETATM   10  N   UNL     1      -8.204  11.227  66.328  1.00  0.00    -0.262 NA 
HETATM   11  H   UNL     1      -8.223  11.390  65.321  1.00  0.00     0.000 HD 
BRANCH  10  12
HETATM   12  C   UNL     1      -7.374  10.200  66.819  1.00  0.00    -0.104 A  
HETATM   13  N   UNL     1      -6.521   9.650  65.953  1.00  0.00    -0.076 NA 
HETATM   14  C   UNL     1      -5.832   8.595  66.400  1.00  0.00    -0.047 A  
HETATM   15  C   UNL     1      -5.867   8.105  67.692  1.00  0.00    -0.042 A  
HETATM   16  C   UNL     1      -6.732   8.705  68.589  1.00  0.00    -0.059 A  
HETATM   17  N   UNL     1      -7.543   9.733  68.117  1.00  0.00    -0.082 NA 
BRANCH  16  18
HETATM   18  C   UNL     1      -6.728   8.168  70.034  1.00  0.00    -0.040 A  
HETATM   19  C   UNL     1      -5.783   8.634  70.968  1.00  0.00    -0.035 A  
HETATM   20  N   UNL     1      -6.059   8.096  72.194  1.00  0.00    -0.044 NA 
HETATM   21  C   UNL     1      -7.566   7.316  70.897  1.00  0.00    -0.084 A  
HETATM   22  N   UNL     1      -7.098   7.276  72.165  1.00  0.00    -0.066 NA 
BRANCH  20  23
HETATM   23  C   UNL     1      -5.402   8.356  73.488  1.00  0.00    -0.058 C  
HETATM   24  C   UNL     1      -5.300   7.105  74.370  1.00  0.00    -0.054 C  
HETATM   25  C   UNL     1      -6.100   9.467  74.289  1.00  0.00     0.239 C  
ENDBRANCH  20  23
BRANCH  21  26
HETATM   26  C   UNL     1      -8.743   6.480  70.662  1.00  0.00    -0.144 A  
HETATM   27  C   UNL     1      -9.371   5.717  71.678  1.00  0.00    -0.164 A  
HETATM   28  C   UNL     1     -10.379   4.799  71.361  1.00  0.00    -0.122 A  
HETATM   29 CL   UNL     1     -11.252   3.979  72.594  1.00  0.00     0.074 Cl 
HETATM   30  C   UNL     1     -10.690   4.532  70.021  1.00  0.00     0.927 A  
HETATM   31  C   UNL     1     -10.060   5.297  69.058  1.00  0.00    -0.202 A  
HETATM   32  C   UNL     1      -9.237   6.353  69.395  1.00  0.00    -0.143 A  
HETATM   33  F   UNL     1      -8.993   7.264  68.456  1.00  0.00    -0.131 F  
BRANCH  31  34
HETATM   34  N   UNL     1     -10.249   5.076  67.661  1.00  0.00    -0.143 N  
HETATM   35  H   UNL     1     -10.276   4.141  67.253  1.00  0.00     0.000 HD 
BRANCH  34  36
HETATM   36  S   UNL     1     -10.425   6.475  66.732  1.00  0.00    -0.204 S  
HETATM   37  O   UNL     1      -9.144   6.895  66.215  1.00  0.00    -0.156 OA 
HETATM   38  O   UNL     1     -11.554   6.206  65.868  1.00  0.00     1.400 OA 
HETATM   39  C   UNL     1     -10.931   7.575  68.029  1.00  0.00     0.074 C  
ENDBRANCH  34  36
ENDBRANCH  31  34
ENDBRANCH  21  26
ENDBRANCH  16  18
ENDBRANCH  10  12
ENDBRANCH   9  10
ENDBRANCH   7   9
ENDBRANCH   4   7
ENDBRANCH   2   3
TORSDOF 10
ENDMDL
MODEL      274
REMARK 921   NORMALIZED FREE ENERGY PREDICTED BY IDOCK:    9.58 KCAL/MOL
REMARK 922        TOTAL FREE ENERGY PREDICTED BY IDOCK:   13.22 KCAL/MOL
REMARK 923 INTER-LIGAND FREE ENERGY PREDICTED BY IDOCK:   -0.51 KCAL/MOL
REMARK 924 INTRA-LIGAND FREE ENERGY PREDICTED BY IDOCK:   13.73 KCAL/MOL
REMARK 927      BINDING AFFINITY PREDICTED BY RF-SCORE:    0.00 PKD
ROOT
HETATM    1  C   UNL     1     -10.244  12.287  67.601  1.00  0.00    -0.203 C  
HETATM    2  O   UNL     1     -10.653  13.391  66.774  1.00  0.00    -0.274 OA 
ENDROOT
BRANCH   2   3
HETATM    3  C   UNL     1     -10.411  13.199  65.445  1.00  0.00    -0.301 C  
HETATM    4  N   UNL     1     -10.537  11.869  65.109  1.00  0.00    -0.276 N  
HETATM    5  O   UNL     1     -10.111  14.103  64.676  1.00  0.00    -0.343 OA 
HETATM    6  H   UNL     1     -10.792  11.202  65.838  1.00  0.00     0.000 HD 
BRANCH   4   7
HETATM    7  C   UNL     1     -10.318  11.369  63.739  1.00  0.00    -0.393 C  
HETATM    8  C   UNL     1     -10.172  12.605  62.794  1.00  0.00     1.982 C  
BRANCH   7   9
HETATM    9  C   UNL     1      -9.042  10.455  63.503  1.00  0.00    -0.249 C  
BRANCH   9  10
HETATM   10  N   UNL     1      -8.257   9.816  64.610  1.00  0.00    -0.140 NA 
HETATM   11  H   UNL     1      -7.486   9.197  64.358  1.00  0.00     0.000 HD 
BRANCH  10  12
HETATM   12  C   UNL     1      -8.526  10.021  65.978  1.00  0.00    -0.131 A  
HETATM   13  N   UNL     1      -8.784  11.273  66.359  1.00  0.00    -0.177 NA 
HETATM   14  C   UNL     1      -8.910  11.470  67.675  1.00  0.00    -0.152 A  
HETATM   15  C   UNL     1      -8.891  10.480  68.638  1.00  0.00    -0.147 A  
HETATM   16  C   UNL     1      -8.656   9.180  68.227  1.00  0.00    -0.129 A  
HETATM   17  N   UNL     1      -8.408   8.965  66.874  1.00  0.00    -0.111 NA 
BRANCH  16  18
HETATM   18  C   UNL     1      -8.675   8.085  69.312  1.00  0.00    -0.137 A  
HETATM   19  C   UNL     1      -8.574   8.428  70.674  1.00  0.00    -0.141 A  
HETATM   20  N   UNL     1      -8.731   7.301  71.433  1.00  0.00    -0.126 NA 
HETATM   21  C   UNL     1      -8.917   6.635  69.413  1.00  0.00    -0.133 A  
HETATM   22  N   UNL     1      -8.898   6.214  70.697  1.00  0.00    -0.142 NA 
BRANCH  20  23
HETATM   23  C   UNL     1      -8.788   7.175  72.901  1.00  0.00    -0.129 C  
HETATM   24  C   UNL     1     -10.062   7.780  73.505  1.00  0.00    -0.257 C  
HETATM   25  C   UNL     1      -7.568   7.805  73.593  1.00  0.00    -0.174 C  
ENDBRANCH  20  23
BRANCH  21  26
HETATM   26  C   UNL     1      -9.116   5.568  68.431  1.00  0.00    -0.117 A  
HETATM   27  C   UNL     1      -9.752   4.339  68.736  1.00  0.00    -0.184 A  
HETATM   28  C   UNL     1      -9.755   3.289  67.811  1.00  0.00     0.048 A  
HETATM   29 CL   UNL     1     -10.649   1.851  68.105  1.00  0.00     2.673 Cl 
HETATM   30  C   UNL     1      -9.019   3.396  66.624  1.00  0.00    -0.162 A  
HETATM   31  C   UNL     1      -8.414   4.610  66.359  1.00  0.00    -0.109 A  
HETATM   32  C   UNL     1      -8.608   5.709  67.171  1.00  0.00    -0.109 A  
HETATM   33  F   UNL     1      -8.333   6.907  66.659  1.00  0.00    -0.108 F  
BRANCH  31  34
HETATM   34  N   UNL     1      -7.588   4.820  65.214  1.00  0.00    -0.080 N  
HETATM   35  H   UNL     1      -7.965   4.864  64.267  1.00  0.00     0.000 HD 
BRANCH  34  36
HETATM   36  S   UNL     1      -5.940   4.989  65.541  1.00  0.00    -0.023 S  
HETATM   37  O   UNL     1      -5.704   4.920  66.964  1.00  0.00    -0.013 OA 
HETATM   38  O   UNL     1      -5.284   4.099  64.607  1.00  0.00    -0.008 OA 
HETATM   39  C   UNL     1      -5.745   6.663  64.987  1.00  0.00    -0.030 C  
ENDBRANCH  34  36
ENDBRANCH  31  34
ENDBRANCH  21  26
ENDBRANCH  16  18
ENDBRANCH  10  12
ENDBRANCH   9  10
ENDBRANCH   7   9
ENDBRANCH   4   7
ENDBRANCH   2   3
TORSDOF 10
ENDMDL
MODEL      275
REMARK 921   NORMALIZED FREE ENERGY PREDICTED BY IDOCK:    9.92 KCAL/MOL
REMARK 922        TOTAL FREE ENERGY PREDICTED BY IDOCK:   13.76 KCAL/MOL
REMARK 923 INTER-LIGAND FREE ENERGY PREDICTED BY IDOCK:    7.78 KCAL/MOL
REMARK 924 INTRA-LIGAND FREE ENERGY PREDICTED BY IDOCK:    5.98 KCAL/MOL
REMARK 927      BINDING AFFINITY PREDICTED BY RF-SCORE:    0.00 PKD
ROOT
HETATM    1  C   UNL     1     -10.432  15.446  67.852  1.00  0.00    -0.256 C  
HETATM    2  O   UNL     1      -9.372  14.589  67.392  1.00  0.00    -0.188 OA 
ENDROOT
BRANCH   2   3
HETATM    3  C   UNL     1      -8.262  15.266  66.978  1.00  0.00    -0.233 C  
HETATM    4  N   UNL     1      -8.583  16.551  66.596  1.00  0.00    -0.226 N  
HETATM    5  O   UNL     1      -7.143  14.772  66.945  1.00  0.00    -0.036 OA 
HETATM    6  H   UNL     1      -9.556  16.853  66.667  1.00  0.00     0.000 HD 
BRANCH   4   7
HETATM    7  C   UNL     1      -7.580  17.506  66.091  1.00  0.00    -0.285 C  
HETATM    8  C   UNL     1      -8.343  18.720  65.469  1.00  0.00     0.822 C  
BRANCH   7   9
HETATM    9  C   UNL     1      -6.556  18.099  67.148  1.00  0.00    -0.181 C  
BRANCH   9  10
HETATM   10  N   UNL     1      -6.737  17.995  68.634  1.00  0.00    -0.231 NA 
HETATM   11  H   UNL     1      -6.314  18.713  69.222  1.00  0.00     0.000 HD 
BRANCH  10  12
HETATM   12  C   UNL     1      -7.459  16.962  69.263  1.00  0.00    -0.116 A  
HETATM   13  N   UNL     1      -8.386  17.328  70.150  1.00  0.00     2.101 NA 
HETATM   14  C   UNL     1      -8.971  16.336  70.829  1.00  0.00     3.308 A  
HETATM   15  C   UNL     1      -8.762  14.987  70.615  1.00  0.00     1.750 A  
HETATM   16  C   UNL     1      -7.821  14.620  69.670  1.00  0.00     0.102 A  
HETATM   17  N   UNL     1      -7.116  15.635  69.029  1.00  0.00    -0.139 NA 
BRANCH  16  18
HETATM   18  C   UNL     1      -7.629  13.110  69.421  1.00  0.00     0.501 A  
HETATM   19  C   UNL     1      -6.341  12.576  69.229  1.00  0.00    -0.110 A  
HETATM   20  N   UNL     1      -6.426  11.215  69.144  1.00  0.00    -0.065 NA 
HETATM   21  C   UNL     1      -8.435  11.877  69.442  1.00  0.00     0.867 A  
HETATM   22  N   UNL     1      -7.674  10.779  69.231  1.00  0.00    -0.142 NA 
BRANCH  20  23
HETATM   23  C   UNL     1      -5.340  10.224  69.031  1.00  0.00    -0.038 C  
HETATM   24  C   UNL     1      -5.180   9.671  67.608  1.00  0.00    -0.036 C  
HETATM   25  C   UNL     1      -5.517   9.045  70.001  1.00  0.00    -0.028 C  
ENDBRANCH  20  23
BRANCH  21  26
HETATM   26  C   UNL     1      -9.864  11.600  69.588  1.00  0.00     0.916 A  
HETATM   27  C   UNL     1     -10.771  12.496  70.206  1.00  0.00     1.736 A  
HETATM   28  C   UNL     1     -12.087  12.105  70.479  1.00  0.00    -0.293 A  
HETATM   29 CL   UNL     1     -13.238  13.227  71.087  1.00  0.00    -0.215 Cl 
HETATM   30  C   UNL     1     -12.485  10.780  70.261  1.00  0.00    -0.395 A  
HETATM   31  C   UNL     1     -11.576   9.934  69.655  1.00  0.00    -0.039 A  
HETATM   32  C   UNL     1     -10.361  10.394  69.184  1.00  0.00    -0.222 A  
HETATM   33  F   UNL     1      -9.727   9.642  68.286  1.00  0.00    -0.143 F  
BRANCH  31  34
HETATM   34  N   UNL     1     -11.844   8.550  69.438  1.00  0.00     0.369 N  
HETATM   35  H   UNL     1     -12.388   8.215  68.642  1.00  0.00     0.000 HD 
BRANCH  34  36
HETATM   36  S   UNL     1     -11.196   7.505  70.596  1.00  0.00    -0.265 S  
HETATM   37  O   UNL     1     -10.906   6.221  70.002  1.00  0.00    -0.260 OA 
HETATM   38  O   UNL     1     -10.185   8.287  71.275  1.00  0.00    -0.190 OA 
HETATM   39  C   UNL     1     -12.626   7.367  71.637  1.00  0.00    -0.358 C  
ENDBRANCH  34  36
ENDBRANCH  31  34
ENDBRANCH  21  26
ENDBRANCH  16  18
ENDBRANCH  10  12
ENDBRANCH   9  10
ENDBRANCH   7   9
ENDBRANCH   4   7
ENDBRANCH   2   3
TORSDOF 10
ENDMDL
MODEL      276
REMARK 921   NORMALIZED FREE ENERGY PREDICTED BY IDOCK:   10.42 KCAL/MOL
REMARK 922        TOTAL FREE ENERGY PREDICTED BY IDOCK:   14.55 KCAL/MOL
REMARK 923 INTER-LIGAND FREE ENERGY PREDICTED BY IDOCK:   14.42 KCAL/MOL
REMARK 924 INTRA-LIGAND FREE ENERGY PREDICTED BY IDOCK:    0.13 KCAL/MOL
REMARK 927      BINDING AFFINITY PREDICTED BY RF-SCORE:    0.00 PKD
ROOT
HETATM    1  C   UNL     1     -13.393   6.553  70.414  1.00  0.00     2.239 C  
HETATM    2  O   UNL     1     -12.554   7.044  69.353  1.00  0.00     1.338 OA 
ENDROOT
BRANCH   2   3
HETATM    3  C   UNL     1     -11.871   6.063  68.695  1.00  0.00     1.679 C  
HETATM    4  N   UNL     1     -10.802   5.622  69.445  1.00  0.00    -0.313 N  
HETATM    5  O   UNL     1     -12.178   5.656  67.584  1.00  0.00     3.766 OA 
HETATM    6  H   UNL     1     -10.643   6.038  70.363  1.00  0.00     0.000 HD 
BRANCH   4   7
HETATM    7  C   UNL     1      -9.879   4.573  68.975  1.00  0.00    -0.132 C  
HETATM    8  C   UNL     1     -10.320   3.220  69.621  1.00  0.00     1.547 C  
BRANCH   7   9
HETATM    9  C   UNL     1      -9.802   4.332  67.409  1.00  0.00    -0.126 C  
BRANCH   9  10
HETATM   10  N   UNL     1      -8.860   5.063  66.498  1.00  0.00    -0.112 NA 
HETATM   11  H   UNL     1      -8.449   4.550  65.718  1.00  0.00     0.000 HD 
BRANCH  10  12
HETATM   12  C   UNL     1      -8.511   6.419  66.659  1.00  0.00    -0.115 A  
HETATM   13  N   UNL     1      -8.130   7.076  65.563  1.00  0.00    -0.126 NA 
HETATM   14  C   UNL     1      -7.682   8.322  65.753  1.00  0.00    -0.091 A  
HETATM   15  C   UNL     1      -7.677   8.995  66.960  1.00  0.00    -0.098 A  
HETATM   16  C   UNL     1      -8.106   8.312  68.084  1.00  0.00    -0.124 A  
HETATM   17  N   UNL     1      -8.470   6.977  67.931  1.00  0.00    -0.124 NA 
BRANCH  16  18
HETATM   18  C   UNL     1      -8.126   9.092  69.414  1.00  0.00    -0.102 A  
HETATM   19  C   UNL     1      -7.259   8.737  70.464  1.00  0.00    -0.059 A  
HETATM   20  N   UNL     1      -7.388   9.643  71.480  1.00  0.00    -0.117 NA 
HETATM   21  C   UNL     1      -8.743  10.310  69.970  1.00  0.00     0.156 A  
HETATM   22  N   UNL     1      -8.298  10.569  71.220  1.00  0.00     2.765 NA 
BRANCH  20  23
HETATM   23  C   UNL     1      -6.631   9.734  72.741  1.00  0.00     1.324 C  
HETATM   24  C   UNL     1      -5.268  10.419  72.573  1.00  0.00     0.196 C  
HETATM   25  C   UNL     1      -6.414   8.361  73.397  1.00  0.00    -0.124 C  
ENDBRANCH  20  23
BRANCH  21  26
HETATM   26  C   UNL     1      -9.753  11.250  69.482  1.00  0.00     0.404 A  
HETATM   27  C   UNL     1     -10.839  11.703  70.272  1.00  0.00     0.870 A  
HETATM   28  C   UNL     1     -11.871  12.457  69.701  1.00  0.00    -0.311 A  
HETATM   29 CL   UNL     1     -13.113  13.140  70.672  1.00  0.00     0.029 Cl 
HETATM   30  C   UNL     1     -11.907  12.662  68.315  1.00  0.00    -0.354 A  
HETATM   31  C   UNL     1     -10.830  12.209  67.578  1.00  0.00    -0.243 A  
HETATM   32  C   UNL     1      -9.712  11.668  68.183  1.00  0.00    -0.189 A  
HETATM   33  F   UNL     1      -8.589  11.624  67.470  1.00  0.00    -0.135 F  
BRANCH  31  34
HETATM   34  N   UNL     1     -10.782  12.305  66.155  1.00  0.00    -0.253 N  
HETATM   35  H   UNL     1     -11.256  11.640  65.544  1.00  0.00     0.000 HD 
BRANCH  34  36
HETATM   36  S   UNL     1      -9.881  13.602  65.555  1.00  0.00    -0.082 S  
HETATM   37  O   UNL     1      -8.598  13.140  65.079  1.00  0.00     2.072 OA 
HETATM   38  O   UNL     1     -10.801  14.331  64.709  1.00  0.00    -0.390 OA 
HETATM   39  C   UNL     1      -9.666  14.484  67.080  1.00  0.00    -0.245 C  
ENDBRANCH  34  36
ENDBRANCH  31  34
ENDBRANCH  21  26
ENDBRANCH  16  18
ENDBRANCH  10  12
ENDBRANCH   9  10
ENDBRANCH   7   9
ENDBRANCH   4   7
ENDBRANCH   2   3
TORSDOF 10
ENDMDL
MODEL      277
REMARK 921   NORMALIZED FREE ENERGY PREDICTED BY IDOCK:   11.83 KCAL/MOL
REMARK 922        TOTAL FREE ENERGY PREDICTED BY IDOCK:   16.79 KCAL/MOL
REMARK 923 INTER-LIGAND FREE ENERGY PREDICTED BY IDOCK:   16.57 KCAL/MOL
REMARK 924 INTRA-LIGAND FREE ENERGY PREDICTED BY IDOCK:    0.22 KCAL/MOL
REMARK 927      BINDING AFFINITY PREDICTED BY RF-SCORE:    0.00 PKD
ROOT
HETATM    1  C   UNL     1     -10.690  10.358  69.333  1.00  0.00    -0.244 C  
HETATM    2  O   UNL     1      -9.798  10.343  68.204  1.00  0.00    -0.148 OA 
ENDROOT
BRANCH   2   3
HETATM    3  C   UNL     1     -10.406  10.645  67.020  1.00  0.00    -0.231 C  
HETATM    4  N   UNL     1     -11.432  11.546  67.211  1.00  0.00    -0.295 N  
HETATM    5  O   UNL     1     -10.075  10.159  65.948  1.00  0.00    -0.258 OA 
HETATM    6  H   UNL     1     -11.618  11.883  68.156  1.00  0.00     0.000 HD 
BRANCH   4   7
HETATM    7  C   UNL     1     -12.273  12.041  66.105  1.00  0.00     0.427 C  
HETATM    8  C   UNL     1     -13.670  11.349  66.217  1.00  0.00    11.906 C  
BRANCH   7   9
HETATM    9  C   UNL     1     -12.536  13.604  66.047  1.00  0.00    -0.386 C  
BRANCH   9  10
HETATM   10  N   UNL     1     -12.116  14.562  67.123  1.00  0.00    -0.536 NA 
HETATM   11  H   UNL     1     -12.441  15.527  67.063  1.00  0.00     0.000 HD 
BRANCH  10  12
HETATM   12  C   UNL     1     -11.297  14.203  68.212  1.00  0.00    -0.291 A  
HETATM   13  N   UNL     1     -11.859  14.228  69.422  1.00  0.00    -0.306 NA 
HETATM   14  C   UNL     1     -11.037  14.010  70.454  1.00  0.00     0.336 A  
HETATM   15  C   UNL     1      -9.701  13.671  70.355  1.00  0.00     3.406 A  
HETATM   16  C   UNL     1      -9.138  13.615  69.093  1.00  0.00     0.491 A  
HETATM   17  N   UNL     1      -9.945  13.950  68.009  1.00  0.00    -0.234 NA 
BRANCH  16  18
HETATM   18  C   UNL     1      -7.656  13.200  69.003  1.00  0.00     0.133 A  
HETATM   19  C   UNL     1      -7.303  11.853  68.799  1.00  0.00    -0.105 A  
HETATM   20  N   UNL     1      -5.948  11.762  68.642  1.00  0.00    -0.049 NA 
HETATM   21  C   UNL     1      -6.332  13.843  68.927  1.00  0.00    -0.094 A  
HETATM   22  N   UNL     1      -5.345  12.936  68.753  1.00  0.00    -0.069 NA 
BRANCH  20  23
HETATM   23  C   UNL     1      -5.131  10.577  68.322  1.00  0.00    -0.034 C  
HETATM   24  C   UNL     1      -5.422  10.006  66.928  1.00  0.00    -0.045 C  
HETATM   25  C   UNL     1      -5.294   9.453  69.358  1.00  0.00    -0.035 C  
ENDBRANCH  20  23
BRANCH  21  26
HETATM   26  C   UNL     1      -5.865  15.224  69.052  1.00  0.00    -0.098 A  
HETATM   27  C   UNL     1      -5.738  15.893  70.294  1.00  0.00    -0.146 A  
HETATM   28  C   UNL     1      -5.460  17.264  70.341  1.00  0.00    -0.239 A  
HETATM   29 CL   UNL     1      -5.154  18.057  71.835  1.00  0.00     0.128 Cl 
HETATM   30  C   UNL     1      -5.434  18.016  69.159  1.00  0.00    -0.196 A  
HETATM   31  C   UNL     1      -5.559  17.330  67.966  1.00  0.00    -0.117 A  
HETATM   32  C   UNL     1      -5.604  15.950  67.925  1.00  0.00    -0.136 A  
HETATM   33  F   UNL     1      -5.330  15.362  66.762  1.00  0.00     0.415 F  
BRANCH  31  34
HETATM   34  N   UNL     1      -5.608  17.993  66.703  1.00  0.00    -0.139 N  
HETATM   35  H   UNL     1      -4.901  18.667  66.410  1.00  0.00     0.000 HD 
BRANCH  34  36
HETATM   36  S   UNL     1      -6.924  17.579  65.728  1.00  0.00     0.155 S  
HETATM   37  O   UNL     1      -7.474  18.760  65.106  1.00  0.00    -0.208 OA 
HETATM   38  O   UNL     1      -6.469  16.442  64.957  1.00  0.00     4.016 OA 
HETATM   39  C   UNL     1      -8.017  17.017  67.007  1.00  0.00    -0.203 C  
ENDBRANCH  34  36
ENDBRANCH  31  34
ENDBRANCH  21  26
ENDBRANCH  16  18
ENDBRANCH  10  12
ENDBRANCH   9  10
ENDBRANCH   7   9
ENDBRANCH   4   7
ENDBRANCH   2   3
TORSDOF 10
ENDMDL
MODEL      278
REMARK 921   NORMALIZED FREE ENERGY PREDICTED BY IDOCK:   13.43 KCAL/MOL
REMARK 922        TOTAL FREE ENERGY PREDICTED BY IDOCK:   19.32 KCAL/MOL
REMARK 923 INTER-LIGAND FREE ENERGY PREDICTED BY IDOCK:   20.17 KCAL/MOL
REMARK 924 INTRA-LIGAND FREE ENERGY PREDICTED BY IDOCK:   -0.85 KCAL/MOL
REMARK 927      BINDING AFFINITY PREDICTED BY RF-SCORE:    0.00 PKD
ROOT
HETATM    1  C   UNL     1      -9.670  20.161  62.703  1.00  0.00    17.201 C  
HETATM    2  O   UNL     1     -10.126  19.771  64.011  1.00  0.00     4.482 OA 
ENDROOT
BRANCH   2   3
HETATM    3  C   UNL     1      -9.231  20.041  65.006  1.00  0.00     1.685 C  
HETATM    4  N   UNL     1      -8.208  19.117  65.011  1.00  0.00     1.712 N  
HETATM    5  O   UNL     1      -9.349  20.977  65.785  1.00  0.00     0.786 OA 
HETATM    6  H   UNL     1      -8.215  18.376  64.309  1.00  0.00     0.000 HD 
BRANCH   4   7
HETATM    7  C   UNL     1      -7.105  19.156  65.988  1.00  0.00    -0.266 C  
HETATM    8  C   UNL     1      -5.891  18.387  65.374  1.00  0.00    -0.250 C  
BRANCH   7   9
HETATM    9  C   UNL     1      -6.574  20.589  66.416  1.00  0.00    -0.247 C  
BRANCH   9  10
HETATM   10  N   UNL     1      -6.440  21.038  67.841  1.00  0.00    -0.337 NA 
HETATM   11  H   UNL     1      -6.418  22.040  68.030  1.00  0.00     0.000 HD 
BRANCH  10  12
HETATM   12  C   UNL     1      -6.343  20.154  68.933  1.00  0.00    -0.323 A  
HETATM   13  N   UNL     1      -6.001  20.684  70.108  1.00  0.00    -0.476 NA 
HETATM   14  C   UNL     1      -5.789  19.816  71.103  1.00  0.00    -0.231 A  
HETATM   15  C   UNL     1      -5.990  18.451  71.030  1.00  0.00     0.510 A  
HETATM   16  C   UNL     1      -6.376  17.917  69.814  1.00  0.00    -0.122 A  
HETATM   17  N   UNL     1      -6.493  18.786  68.733  1.00  0.00    -0.243 NA 
BRANCH  16  18
HETATM   18  C   UNL     1      -6.629  16.397  69.763  1.00  0.00    -0.108 A  
HETATM   19  C   UNL     1      -5.582  15.490  70.016  1.00  0.00    -0.135 A  
HETATM   20  N   UNL     1      -6.082  14.217  70.024  1.00  0.00    -0.139 NA 
HETATM   21  C   UNL     1      -7.769  15.471  69.645  1.00  0.00    -0.138 A  
HETATM   22  N   UNL     1      -7.381  14.182  69.767  1.00  0.00     0.154 NA 
BRANCH  20  23
HETATM   23  C   UNL     1      -5.389  12.952  70.328  1.00  0.00    -0.121 C  
HETATM   24  C   UNL     1      -5.862  11.784  69.452  1.00  0.00    -0.074 C  
HETATM   25  C   UNL     1      -5.525  12.547  71.804  1.00  0.00     0.240 C  
ENDBRANCH  20  23
BRANCH  21  26
HETATM   26  C   UNL     1      -9.197  15.647  69.376  1.00  0.00    -0.279 A  
HETATM   27  C   UNL     1     -10.168  15.799  70.396  1.00  0.00     0.056 A  
HETATM   28  C   UNL     1     -11.533  15.784  70.090  1.00  0.00    -0.361 A  
HETATM   29 CL   UNL     1     -12.716  16.117  71.292  1.00  0.00    -0.126 Cl 
HETATM   30  C   UNL     1     -11.958  15.490  68.787  1.00  0.00    -0.265 A  
HETATM   31  C   UNL     1     -10.983  15.351  67.817  1.00  0.00    -0.311 A  
HETATM   32  C   UNL     1      -9.651  15.594  68.089  1.00  0.00    -0.196 A  
HETATM   33  F   UNL     1      -8.846  15.824  67.054  1.00  0.00    -0.187 F  
BRANCH  31  34
HETATM   34  N   UNL     1     -11.289  14.992  66.471  1.00  0.00    -0.319 N  
HETATM   35  H   UNL     1     -11.513  15.684  65.756  1.00  0.00     0.000 HD 
BRANCH  34  36
HETATM   36  S   UNL     1     -11.254  13.335  66.146  1.00  0.00    -0.303 S  
HETATM   37  O   UNL     1      -9.890  12.861  66.115  1.00  0.00    -0.268 OA 
HETATM   38  O   UNL     1     -12.248  12.764  67.030  1.00  0.00    -0.431 OA 
HETATM   39  C   UNL     1     -11.901  13.388  64.496  1.00  0.00    -0.398 C  
ENDBRANCH  34  36
ENDBRANCH  31  34
ENDBRANCH  21  26
ENDBRANCH  16  18
ENDBRANCH  10  12
ENDBRANCH   9  10
ENDBRANCH   7   9
ENDBRANCH   4   7
ENDBRANCH   2   3
TORSDOF 10
ENDMDL
MODEL      279
REMARK 921   NORMALIZED FREE ENERGY PREDICTED BY IDOCK:   13.93 KCAL/MOL
REMARK 922        TOTAL FREE ENERGY PREDICTED BY IDOCK:   20.12 KCAL/MOL
REMARK 923 INTER-LIGAND FREE ENERGY PREDICTED BY IDOCK:   19.98 KCAL/MOL
REMARK 924 INTRA-LIGAND FREE ENERGY PREDICTED BY IDOCK:    0.14 KCAL/MOL
REMARK 927      BINDING AFFINITY PREDICTED BY RF-SCORE:    0.00 PKD
ROOT
HETATM    1  C   UNL     1     -13.080  16.670  65.689  1.00  0.00     6.435 C  
HETATM    2  O   UNL     1     -12.282  17.201  64.616  1.00  0.00     1.509 OA 
ENDROOT
BRANCH   2   3
HETATM    3  C   UNL     1     -11.025  16.673  64.554  1.00  0.00     0.176 C  
HETATM    4  N   UNL     1     -11.019  15.503  63.826  1.00  0.00     0.530 N  
HETATM    5  O   UNL     1     -10.051  17.182  65.092  1.00  0.00    -0.370 OA 
HETATM    6  H   UNL     1     -11.897  15.173  63.422  1.00  0.00     0.000 HD 
BRANCH   4   7
HETATM    7  C   UNL     1      -9.797  14.708  63.606  1.00  0.00     5.564 C  
HETATM    8  C   UNL     1      -8.602  15.474  64.259  1.00  0.00     9.501 C  
BRANCH   7   9
HETATM    9  C   UNL     1      -9.781  13.236  64.197  1.00  0.00     0.802 C  
BRANCH   9  10
HETATM   10  N   UNL     1     -10.951  12.602  64.890  1.00  0.00    -0.283 NA 
HETATM   11  H   UNL     1     -11.534  11.957  64.357  1.00  0.00     0.000 HD 
BRANCH  10  12
HETATM   12  C   UNL     1     -11.291  12.850  66.235  1.00  0.00    -0.323 A  
HETATM   13  N   UNL     1     -11.430  14.127  66.595  1.00  0.00    -0.350 NA 
HETATM   14  C   UNL     1     -11.626  14.349  67.899  1.00  0.00    -0.345 A  
HETATM   15  C   UNL     1     -11.790  13.372  68.862  1.00  0.00    -0.373 A  
HETATM   16  C   UNL     1     -11.676  12.050  68.469  1.00  0.00    -0.332 A  
HETATM   17  N   UNL     1     -11.359  11.795  67.138  1.00  0.00    -0.366 NA 
BRANCH  16  18
HETATM   18  C   UNL     1     -11.898  10.975  69.552  1.00  0.00    -0.404 A  
HETATM   19  C   UNL     1     -13.137  10.872  70.213  1.00  0.00     0.097 A  
HETATM   20  N   UNL     1     -13.118   9.779  71.035  1.00  0.00    -0.328 NA 
HETATM   21  C   UNL     1     -11.197   9.800  70.101  1.00  0.00    -0.272 A  
HETATM   22  N   UNL     1     -11.954   9.148  71.011  1.00  0.00    -0.291 NA 
BRANCH  20  23
HETATM   23  C   UNL     1     -14.206   9.221  71.857  1.00  0.00    -0.142 C  
HETATM   24  C   UNL     1     -14.188   9.734  73.303  1.00  0.00     1.736 C  
HETATM   25  C   UNL     1     -14.197   7.684  71.880  1.00  0.00    -0.492 C  
ENDBRANCH  20  23
BRANCH  21  26
HETATM   26  C   UNL     1      -9.861   9.234  69.911  1.00  0.00    -0.219 A  
HETATM   27  C   UNL     1      -8.670   9.917  70.259  1.00  0.00    -0.073 A  
HETATM   28  C   UNL     1      -7.421   9.406  69.892  1.00  0.00    -0.100 A  
HETATM   29 CL   UNL     1      -5.965  10.140  70.436  1.00  0.00    -0.080 Cl 
HETATM   30  C   UNL     1      -7.339   8.279  69.062  1.00  0.00    -0.089 A  
HETATM   31  C   UNL     1      -8.521   7.637  68.745  1.00  0.00    -0.129 A  
HETATM   32  C   UNL     1      -9.726   8.020  69.301  1.00  0.00    -0.167 A  
HETATM   33  F   UNL     1     -10.725   7.140  69.266  1.00  0.00    -0.211 F  
BRANCH  31  34
HETATM   34  N   UNL     1      -8.571   6.518  67.860  1.00  0.00    -0.118 N  
HETATM   35  H   UNL     1      -8.212   5.599  68.119  1.00  0.00     0.000 HD 
BRANCH  34  36
HETATM   36  S   UNL     1      -9.268   6.827  66.353  1.00  0.00    -0.126 S  
HETATM   37  O   UNL     1     -10.116   5.726  65.961  1.00  0.00    -0.057 OA 
HETATM   38  O   UNL     1      -9.760   8.185  66.445  1.00  0.00    -0.227 OA 
HETATM   39  C   UNL     1      -7.783   6.809  65.382  1.00  0.00    -0.100 C  
ENDBRANCH  34  36
ENDBRANCH  31  34
ENDBRANCH  21  26
ENDBRANCH  16  18
ENDBRANCH  10  12
ENDBRANCH   9  10
ENDBRANCH   7   9
ENDBRANCH   4   7
ENDBRANCH   2   3
TORSDOF 10
ENDMDL
MODEL      280
REMARK 921   NORMALIZED FREE ENERGY PREDICTED BY IDOCK:   15.12 KCAL/MOL
REMARK 922        TOTAL FREE ENERGY PREDICTED BY IDOCK:   22.01 KCAL/MOL
REMARK 923 INTER-LIGAND FREE ENERGY PREDICTED BY IDOCK:   21.78 KCAL/MOL
REMARK 924 INTRA-LIGAND FREE ENERGY PREDICTED BY IDOCK:    0.23 KCAL/MOL
REMARK 927      BINDING AFFINITY PREDICTED BY RF-SCORE:    0.00 PKD
ROOT
HETATM    1  C   UNL     1     -12.630   9.324  66.352  1.00  0.00    12.270 C  
HETATM    2  O   UNL     1     -11.844   9.568  65.171  1.00  0.00     5.704 OA 
ENDROOT
BRANCH   2   3
HETATM    3  C   UNL     1     -10.498   9.550  65.396  1.00  0.00     0.821 C  
HETATM    4  N   UNL     1     -10.214   9.018  66.636  1.00  0.00    -0.275 N  
HETATM    5  O   UNL     1      -9.674   9.967  64.594  1.00  0.00    -0.303 OA 
HETATM    6  H   UNL     1     -10.988   8.701  67.221  1.00  0.00     0.000 HD 
BRANCH   4   7
HETATM    7  C   UNL     1      -8.839   8.887  67.150  1.00  0.00    -0.123 C  
HETATM    8  C   UNL     1      -8.862   7.863  68.330  1.00  0.00    -0.130 C  
BRANCH   7   9
HETATM    9  C   UNL     1      -7.734   8.386  66.127  1.00  0.00    -0.097 C  
BRANCH   9  10
HETATM   10  N   UNL     1      -6.365   8.990  66.016  1.00  0.00    -0.063 NA 
HETATM   11  H   UNL     1      -5.588   8.379  65.761  1.00  0.00     0.000 HD 
BRANCH  10  12
HETATM   12  C   UNL     1      -6.090  10.352  66.246  1.00  0.00    -0.090 A  
HETATM   13  N   UNL     1      -5.508  11.025  65.251  1.00  0.00    -0.174 NA 
HETATM   14  C   UNL     1      -5.140  12.280  65.530  1.00  0.00     2.808 A  
HETATM   15  C   UNL     1      -5.401  12.947  66.711  1.00  0.00     0.956 A  
HETATM   16  C   UNL     1      -6.035  12.248  67.723  1.00  0.00    -0.098 A  
HETATM   17  N   UNL     1      -6.327  10.906  67.499  1.00  0.00    -0.056 NA 
BRANCH  16  18
HETATM   18  C   UNL     1      -6.349  13.022  69.019  1.00  0.00    -0.099 A  
HETATM   19  C   UNL     1      -5.387  13.123  70.042  1.00  0.00    -0.100 A  
HETATM   20  N   UNL     1      -5.860  13.947  71.025  1.00  0.00    -0.211 NA 
HETATM   21  C   UNL     1      -7.407  13.898  69.553  1.00  0.00     0.216 A  
HETATM   22  N   UNL     1      -7.082  14.389  70.770  1.00  0.00     0.628 NA 
BRANCH  20  23
HETATM   23  C   UNL     1      -5.180  14.418  72.245  1.00  0.00    -0.188 C  
HETATM   24  C   UNL     1      -5.739  13.785  73.526  1.00  0.00     0.109 C  
HETATM   25  C   UNL     1      -5.228  15.948  72.391  1.00  0.00     0.681 C  
ENDBRANCH  20  23
BRANCH  21  26
HETATM   26  C   UNL     1      -8.732  14.297  69.076  1.00  0.00     0.060 A  
HETATM   27  C   UNL     1      -9.140  14.178  67.725  1.00  0.00    -0.190 A  
HETATM   28  C   UNL     1     -10.347  14.739  67.292  1.00  0.00    -0.247 A  
HETATM   29 CL   UNL     1     -10.927  14.475  65.696  1.00  0.00    -0.311 Cl 
HETATM   30  C   UNL     1     -11.103  15.536  68.162  1.00  0.00    -0.325 A  
HETATM   31  C   UNL     1     -10.676  15.627  69.473  1.00  0.00    -0.271 A  
HETATM   32  C   UNL     1      -9.610  14.884  69.942  1.00  0.00     0.233 A  
HETATM   33  F   UNL     1      -9.508  14.721  71.259  1.00  0.00     1.213 F  
BRANCH  31  34
HETATM   34  N   UNL     1     -11.328  16.455  70.435  1.00  0.00    -0.488 N  
HETATM   35  H   UNL     1     -11.166  17.461  70.491  1.00  0.00     0.000 HD 
BRANCH  34  36
HETATM   36  S   UNL     1     -12.387  15.649  71.474  1.00  0.00    -0.464 S  
HETATM   37  O   UNL     1     -11.867  14.342  71.801  1.00  0.00    -0.242 OA 
HETATM   38  O   UNL     1     -12.720  16.624  72.492  1.00  0.00     0.076 OA 
HETATM   39  C   UNL     1     -13.755  15.481  70.357  1.00  0.00     0.543 C  
ENDBRANCH  34  36
ENDBRANCH  31  34
ENDBRANCH  21  26
ENDBRANCH  16  18
ENDBRANCH  10  12
ENDBRANCH   9  10
ENDBRANCH   7   9
ENDBRANCH   4   7
ENDBRANCH   2   3
TORSDOF 10
ENDMDL
MODEL      281
REMARK 921   NORMALIZED FREE ENERGY PREDICTED BY IDOCK:   17.63 KCAL/MOL
REMARK 922        TOTAL FREE ENERGY PREDICTED BY IDOCK:   25.97 KCAL/MOL
REMARK 923 INTER-LIGAND FREE ENERGY PREDICTED BY IDOCK:   12.61 KCAL/MOL
REMARK 924 INTRA-LIGAND FREE ENERGY PREDICTED BY IDOCK:   13.36 KCAL/MOL
REMARK 927      BINDING AFFINITY PREDICTED BY RF-SCORE:    0.00 PKD
ROOT
HETATM    1  C   UNL     1     -10.105  16.790  70.128  1.00  0.00     0.622 C  
HETATM    2  O   UNL     1      -9.741  18.142  70.458  1.00  0.00     1.977 OA 
ENDROOT
BRANCH   2   3
HETATM    3  C   UNL     1      -8.394  18.361  70.464  1.00  0.00     3.776 C  
HETATM    4  N   UNL     1      -8.115  19.710  70.445  1.00  0.00     1.110 N  
HETATM    5  O   UNL     1      -7.564  17.462  70.472  1.00  0.00     2.441 OA 
HETATM    6  H   UNL     1      -8.893  20.371  70.438  1.00  0.00     0.000 HD 
BRANCH   4   7
HETATM    7  C   UNL     1      -6.739  20.239  70.434  1.00  0.00     0.100 C  
HETATM    8  C   UNL     1      -6.027  19.754  71.737  1.00  0.00    -0.190 C  
BRANCH   7   9
HETATM    9  C   UNL     1      -5.814  19.811  69.217  1.00  0.00    -0.251 C  
BRANCH   9  10
HETATM   10  N   UNL     1      -6.181  18.747  68.224  1.00  0.00    -0.206 NA 
HETATM   11  H   UNL     1      -5.439  18.145  67.868  1.00  0.00     0.000 HD 
BRANCH  10  12
HETATM   12  C   UNL     1      -7.493  18.534  67.756  1.00  0.00    -0.230 A  
HETATM   13  N   UNL     1      -8.043  19.516  67.039  1.00  0.00    -0.266 NA 
HETATM   14  C   UNL     1      -9.329  19.352  66.712  1.00  0.00    -0.333 A  
HETATM   15  C   UNL     1     -10.083  18.224  66.971  1.00  0.00    -0.370 A  
HETATM   16  C   UNL     1      -9.491  17.199  67.688  1.00  0.00    -0.241 A  
HETATM   17  N   UNL     1      -8.189  17.393  68.139  1.00  0.00    -0.230 NA 
BRANCH  16  18
HETATM   18  C   UNL     1     -10.338  15.935  67.935  1.00  0.00    -0.269 A  
HETATM   19  C   UNL     1     -10.725  15.578  69.241  1.00  0.00    -0.245 A  
HETATM   20  N   UNL     1     -11.557  14.495  69.184  1.00  0.00    -0.280 NA 
HETATM   21  C   UNL     1     -11.067  14.923  67.149  1.00  0.00    -0.332 A  
HETATM   22  N   UNL     1     -11.744  14.065  67.945  1.00  0.00    -0.342 NA 
BRANCH  20  23
HETATM   23  C   UNL     1     -12.278  13.822  70.280  1.00  0.00    -0.359 C  
HETATM   24  C   UNL     1     -12.331  12.298  70.114  1.00  0.00    -0.212 C  
HETATM   25  C   UNL     1     -13.711  14.350  70.451  1.00  0.00     0.641 C  
ENDBRANCH  20  23
BRANCH  21  26
HETATM   26  C   UNL     1     -11.168  14.627  65.720  1.00  0.00    -0.336 A  
HETATM   27  C   UNL     1     -12.161  15.185  64.878  1.00  0.00    -0.053 A  
HETATM   28  C   UNL     1     -12.321  14.731  63.564  1.00  0.00     0.730 A  
HETATM   29 CL   UNL     1     -13.416  15.500  62.486  1.00  0.00     6.058 Cl 
HETATM   30  C   UNL     1     -11.586  13.629  63.108  1.00  0.00     0.616 A  
HETATM   31  C   UNL     1     -10.624  13.111  63.955  1.00  0.00    -0.276 A  
HETATM   32  C   UNL     1     -10.321  13.714  65.161  1.00  0.00    -0.364 A  
HETATM   33  F   UNL     1      -9.153  13.408  65.722  1.00  0.00    -0.020 F  
BRANCH  31  34
HETATM   34  N   UNL     1      -9.857  11.954  63.627  1.00  0.00    -0.509 N  
HETATM   35  H   UNL     1      -9.408  11.834  62.718  1.00  0.00     0.000 HD 
BRANCH  34  36
HETATM   36  S   UNL     1      -9.745  10.797  64.852  1.00  0.00    -0.303 S  
HETATM   37  O   UNL     1      -9.468  11.436  66.117  1.00  0.00    -0.203 OA 
HETATM   38  O   UNL     1     -10.895   9.940  64.656  1.00  0.00     1.128 OA 
HETATM   39  C   UNL     1      -8.290   9.962  64.277  1.00  0.00    -0.166 C  
ENDBRANCH  34  36
ENDBRANCH  31  34
ENDBRANCH  21  26
ENDBRANCH  16  18
ENDBRANCH  10  12
ENDBRANCH   9  10
ENDBRANCH   7   9
ENDBRANCH   4   7
ENDBRANCH   2   3
TORSDOF 10
ENDMDL
MODEL      282
REMARK 921   NORMALIZED FREE ENERGY PREDICTED BY IDOCK:   17.91 KCAL/MOL
REMARK 922        TOTAL FREE ENERGY PREDICTED BY IDOCK:   26.42 KCAL/MOL
REMARK 923 INTER-LIGAND FREE ENERGY PREDICTED BY IDOCK:   25.28 KCAL/MOL
REMARK 924 INTRA-LIGAND FREE ENERGY PREDICTED BY IDOCK:    1.14 KCAL/MOL
REMARK 927      BINDING AFFINITY PREDICTED BY RF-SCORE:    0.00 PKD
ROOT
HETATM    1  C   UNL     1     -11.759   4.986  72.093  1.00  0.00     0.525 C  
HETATM    2  O   UNL     1     -12.325   5.779  73.152  1.00  0.00     0.410 OA 
ENDROOT
BRANCH   2   3
HETATM    3  C   UNL     1     -12.277   7.122  72.917  1.00  0.00     0.519 C  
HETATM    4  N   UNL     1     -12.151   7.823  74.097  1.00  0.00     4.058 N  
HETATM    5  O   UNL     1     -12.351   7.615  71.800  1.00  0.00    -0.299 OA 
HETATM    6  H   UNL     1     -12.099   7.302  74.973  1.00  0.00     0.000 HD 
BRANCH   4   7
HETATM    7  C   UNL     1     -12.088   9.296  74.145  1.00  0.00     9.469 C  
HETATM    8  C   UNL     1     -10.583   9.711  74.205  1.00  0.00    11.761 C  
BRANCH   7   9
HETATM    9  C   UNL     1     -12.735  10.083  72.929  1.00  0.00     1.524 C  
BRANCH   9  10
HETATM   10  N   UNL     1     -12.011  10.386  71.651  1.00  0.00    -0.212 NA 
HETATM   11  H   UNL     1     -11.503   9.628  71.194  1.00  0.00     0.000 HD 
BRANCH  10  12
HETATM   12  C   UNL     1     -11.992  11.658  71.046  1.00  0.00     0.067 A  
HETATM   13  N   UNL     1     -12.426  12.681  71.783  1.00  0.00     0.029 NA 
HETATM   14  C   UNL     1     -12.521  13.857  71.154  1.00  0.00    -0.372 A  
HETATM   15  C   UNL     1     -12.120  14.105  69.856  1.00  0.00    -0.405 A  
HETATM   16  C   UNL     1     -11.641  13.042  69.111  1.00  0.00    -0.316 A  
HETATM   17  N   UNL     1     -11.639  11.784  69.707  1.00  0.00    -0.306 NA 
BRANCH  16  18
HETATM   18  C   UNL     1     -11.165  13.347  67.677  1.00  0.00    -0.302 A  
HETATM   19  C   UNL     1     -11.166  14.668  67.190  1.00  0.00    -0.344 A  
HETATM   20  N   UNL     1     -10.597  14.689  65.947  1.00  0.00    -0.298 NA 
HETATM   21  C   UNL     1     -10.517  12.644  66.556  1.00  0.00    -0.247 A  
HETATM   22  N   UNL     1     -10.237  13.483  65.534  1.00  0.00    -0.298 NA 
BRANCH  20  23
HETATM   23  C   UNL     1     -10.302  15.847  65.084  1.00  0.00    -0.252 C  
HETATM   24  C   UNL     1      -8.810  16.204  65.049  1.00  0.00     2.711 C  
HETATM   25  C   UNL     1     -11.098  17.098  65.486  1.00  0.00     0.216 C  
ENDBRANCH  20  23
BRANCH  21  26
HETATM   26  C   UNL     1     -10.167  11.246  66.301  1.00  0.00    -0.280 A  
HETATM   27  C   UNL     1     -10.441  10.196  67.212  1.00  0.00    -0.313 A  
HETATM   28  C   UNL     1      -9.926   8.913  66.998  1.00  0.00    -0.233 A  
HETATM   29 CL   UNL     1     -10.373   7.597  68.010  1.00  0.00    -0.246 Cl 
HETATM   30  C   UNL     1      -9.027   8.682  65.948  1.00  0.00    -0.245 A  
HETATM   31  C   UNL     1      -8.785   9.728  65.078  1.00  0.00    -0.174 A  
HETATM   32  C   UNL     1      -9.476  10.921  65.169  1.00  0.00    -0.227 A  
HETATM   33  F   UNL     1      -9.483  11.709  64.095  1.00  0.00    -0.218 F  
BRANCH  31  34
HETATM   34  N   UNL     1      -7.845   9.633  64.009  1.00  0.00    -0.129 N  
HETATM   35  H   UNL     1      -7.840  10.284  63.223  1.00  0.00     0.000 HD 
BRANCH  34  36
HETATM   36  S   UNL     1      -6.739   8.363  64.140  1.00  0.00    -0.071 S  
HETATM   37  O   UNL     1      -5.497   8.714  63.491  1.00  0.00    -0.062 OA 
HETATM   38  O   UNL     1      -6.797   7.965  65.530  1.00  0.00    -0.054 OA 
HETATM   39  C   UNL     1      -7.608   7.171  63.154  1.00  0.00    -0.109 C  
ENDBRANCH  34  36
ENDBRANCH  31  34
ENDBRANCH  21  26
ENDBRANCH  16  18
ENDBRANCH  10  12
ENDBRANCH   9  10
ENDBRANCH   7   9
ENDBRANCH   4   7
ENDBRANCH   2   3
TORSDOF 10
ENDMDL
MODEL      283
REMARK 921   NORMALIZED FREE ENERGY PREDICTED BY IDOCK:   19.52 KCAL/MOL
REMARK 922        TOTAL FREE ENERGY PREDICTED BY IDOCK:   28.97 KCAL/MOL
REMARK 923 INTER-LIGAND FREE ENERGY PREDICTED BY IDOCK:   29.31 KCAL/MOL
REMARK 924 INTRA-LIGAND FREE ENERGY PREDICTED BY IDOCK:   -0.34 KCAL/MOL
REMARK 927      BINDING AFFINITY PREDICTED BY RF-SCORE:    0.00 PKD
ROOT
HETATM    1  C   UNL     1      -8.498   3.796  69.994  1.00  0.00    -0.059 C  
HETATM    2  O   UNL     1      -8.719   4.941  69.152  1.00  0.00    -0.087 OA 
ENDROOT
BRANCH   2   3
HETATM    3  C   UNL     1      -8.015   6.046  69.534  1.00  0.00    -0.106 C  
HETATM    4  N   UNL     1      -7.684   5.980  70.870  1.00  0.00    -0.096 N  
HETATM    5  O   UNL     1      -7.738   6.965  68.776  1.00  0.00    -0.105 OA 
HETATM    6  H   UNL     1      -7.971   5.159  71.406  1.00  0.00     0.000 HD 
BRANCH   4   7
HETATM    7  C   UNL     1      -6.932   7.045  71.558  1.00  0.00    -0.065 C  
HETATM    8  C   UNL     1      -5.593   7.265  70.785  1.00  0.00    -0.027 C  
BRANCH   7   9
HETATM    9  C   UNL     1      -7.637   8.463  71.672  1.00  0.00    -0.104 C  
BRANCH   9  10
HETATM   10  N   UNL     1      -7.092   9.717  71.055  1.00  0.00    -0.335 NA 
HETATM   11  H   UNL     1      -6.092   9.761  70.856  1.00  0.00     0.000 HD 
BRANCH  10  12
HETATM   12  C   UNL     1      -7.883  10.838  70.736  1.00  0.00     2.476 A  
HETATM   13  N   UNL     1      -8.848  11.159  71.599  1.00  0.00     8.681 NA 
HETATM   14  C   UNL     1      -9.668  12.145  71.220  1.00  0.00    11.056 A  
HETATM   15  C   UNL     1      -9.534  12.902  70.072  1.00  0.00     3.251 A  
HETATM   16  C   UNL     1      -8.509  12.580  69.201  1.00  0.00     0.639 A  
HETATM   17  N   UNL     1      -7.710  11.484  69.517  1.00  0.00     0.224 NA 
BRANCH  16  18
HETATM   18  C   UNL     1      -8.354  13.459  67.944  1.00  0.00    -0.166 A  
HETATM   19  C   UNL     1      -7.749  14.727  68.030  1.00  0.00    -0.125 A  
HETATM   20  N   UNL     1      -7.627  15.254  66.774  1.00  0.00    -0.028 NA 
HETATM   21  C   UNL     1      -8.542  13.345  66.487  1.00  0.00     0.206 A  
HETATM   22  N   UNL     1      -8.130  14.459  65.841  1.00  0.00     1.807 NA 
BRANCH  20  23
HETATM   23  C   UNL     1      -6.984  16.512  66.356  1.00  0.00     0.081 C  
HETATM   24  C   UNL     1      -7.173  17.648  67.370  1.00  0.00    -0.198 C  
HETATM   25  C   UNL     1      -7.473  16.994  64.981  1.00  0.00     3.799 C  
ENDBRANCH  20  23
BRANCH  21  26
HETATM   26  C   UNL     1      -9.117  12.321  65.614  1.00  0.00     0.193 A  
HETATM   27  C   UNL     1     -10.307  12.512  64.869  1.00  0.00    -0.323 A  
HETATM   28  C   UNL     1     -10.907  11.442  64.195  1.00  0.00    -0.365 A  
HETATM   29 CL   UNL     1     -12.262  11.688  63.167  1.00  0.00    -0.352 Cl 
HETATM   30  C   UNL     1     -10.407  10.143  64.355  1.00  0.00     0.297 A  
HETATM   31  C   UNL     1      -9.244   9.994  65.086  1.00  0.00    -0.222 A  
HETATM   32  C   UNL     1      -8.538  11.085  65.554  1.00  0.00    -0.102 A  
HETATM   33  F   UNL     1      -7.264  10.893  65.890  1.00  0.00    -0.142 F  
BRANCH  31  34
HETATM   34  N   UNL     1      -8.675   8.717  65.368  1.00  0.00    -0.206 N  
HETATM   35  H   UNL     1      -8.884   8.200  66.222  1.00  0.00     0.000 HD 
BRANCH  34  36
HETATM   36  S   UNL     1      -7.628   8.122  64.184  1.00  0.00    -0.136 S  
HETATM   37  O   UNL     1      -6.424   7.609  64.795  1.00  0.00    -0.044 OA 
HETATM   38  O   UNL     1      -8.463   7.309  63.326  1.00  0.00     0.105 OA 
HETATM   39  C   UNL     1      -7.273   9.657  63.369  1.00  0.00    -0.113 C  
ENDBRANCH  34  36
ENDBRANCH  31  34
ENDBRANCH  21  26
ENDBRANCH  16  18
ENDBRANCH  10  12
ENDBRANCH   9  10
ENDBRANCH   7   9
ENDBRANCH   4   7
ENDBRANCH   2   3
TORSDOF 10
ENDMDL
MODEL      284
REMARK 921   NORMALIZED FREE ENERGY PREDICTED BY IDOCK:   27.81 KCAL/MOL
REMARK 922        TOTAL FREE ENERGY PREDICTED BY IDOCK:   42.12 KCAL/MOL
REMARK 923 INTER-LIGAND FREE ENERGY PREDICTED BY IDOCK:   41.97 KCAL/MOL
REMARK 924 INTRA-LIGAND FREE ENERGY PREDICTED BY IDOCK:    0.15 KCAL/MOL
REMARK 927      BINDING AFFINITY PREDICTED BY RF-SCORE:    0.00 PKD
ROOT
HETATM    1  C   UNL     1      -8.503   4.793  70.201  1.00  0.00    -0.082 C  
HETATM    2  O   UNL     1      -8.690   5.940  69.352  1.00  0.00    -0.115 OA 
ENDROOT
BRANCH   2   3
HETATM    3  C   UNL     1      -7.965   7.030  69.736  1.00  0.00    -0.124 C  
HETATM    4  N   UNL     1      -7.658   6.969  71.078  1.00  0.00    -0.085 N  
HETATM    5  O   UNL     1      -7.651   7.934  68.974  1.00  0.00    -0.095 OA 
HETATM    6  H   UNL     1      -7.974   6.162  71.616  1.00  0.00     0.000 HD 
BRANCH   4   7
HETATM    7  C   UNL     1      -6.890   8.022  71.768  1.00  0.00    -0.067 C  
HETATM    8  C   UNL     1      -5.524   8.184  71.028  1.00  0.00    -0.029 C  
BRANCH   7   9
HETATM    9  C   UNL     1      -7.551   9.462  71.840  1.00  0.00     0.762 C  
BRANCH   9  10
HETATM   10  N   UNL     1      -6.953  10.687  71.211  1.00  0.00     0.468 NA 
HETATM   11  H   UNL     1      -5.948  10.696  71.036  1.00  0.00     0.000 HD 
BRANCH  10  12
HETATM   12  C   UNL     1      -7.701  11.824  70.848  1.00  0.00     5.513 A  
HETATM   13  N   UNL     1      -8.665  12.202  71.689  1.00  0.00    14.452 NA 
HETATM   14  C   UNL     1      -9.447  13.203  71.270  1.00  0.00    11.410 A  
HETATM   15  C   UNL     1      -9.272  13.921  70.103  1.00  0.00     2.444 A  
HETATM   16  C   UNL     1      -8.248  13.539  69.255  1.00  0.00     0.594 A  
HETATM   17  N   UNL     1      -7.491  12.428  69.614  1.00  0.00     0.568 NA 
BRANCH  16  18
HETATM   18  C   UNL     1      -8.047  14.376  67.976  1.00  0.00    -0.142 A  
HETATM   19  C   UNL     1      -7.403  15.626  68.033  1.00  0.00    -0.127 A  
HETATM   20  N   UNL     1      -7.247  16.111  66.764  1.00  0.00    -0.197 NA 
HETATM   21  C   UNL     1      -8.219  14.225  66.520  1.00  0.00     0.526 A  
HETATM   22  N   UNL     1      -7.762  15.305  65.848  1.00  0.00     1.746 NA 
BRANCH  20  23
HETATM   23  C   UNL     1      -6.557  17.335  66.319  1.00  0.00    -0.213 C  
HETATM   24  C   UNL     1      -6.615  18.466  67.355  1.00  0.00    -0.199 C  
HETATM   25  C   UNL     1      -7.100  17.863  64.982  1.00  0.00     1.575 C  
ENDBRANCH  20  23
BRANCH  21  26
HETATM   26  C   UNL     1      -8.815  13.194  65.669  1.00  0.00     0.992 A  
HETATM   27  C   UNL     1      -8.294  11.882  65.555  1.00  0.00     0.728 A  
HETATM   28  C   UNL     1      -8.795  10.996  64.595  1.00  0.00    -0.013 A  
HETATM   29 CL   UNL     1      -8.279   9.357  64.544  1.00  0.00    -0.137 Cl 
HETATM   30  C   UNL     1      -9.730  11.439  63.650  1.00  0.00    -0.337 A  
HETATM   31  C   UNL     1     -10.219  12.724  63.794  1.00  0.00    -0.139 A  
HETATM   32  C   UNL     1      -9.885  13.509  64.880  1.00  0.00    -0.013 A  
HETATM   33  F   UNL     1     -10.675  14.545  65.154  1.00  0.00    -0.314 F  
BRANCH  31  34
HETATM   34  N   UNL     1     -11.126  13.306  62.860  1.00  0.00     0.466 N  
HETATM   35  H   UNL     1     -10.811  13.825  62.040  1.00  0.00     0.000 HD 
BRANCH  34  36
HETATM   36  S   UNL     1     -12.762  13.075  63.211  1.00  0.00     0.396 S  
HETATM   37  O   UNL     1     -13.483  14.318  63.068  1.00  0.00     1.839 OA 
HETATM   38  O   UNL     1     -13.131  11.880  62.483  1.00  0.00     0.367 OA 
HETATM   39  C   UNL     1     -12.595  12.681  64.933  1.00  0.00    -0.450 C  
ENDBRANCH  34  36
ENDBRANCH  31  34
ENDBRANCH  21  26
ENDBRANCH  16  18
ENDBRANCH  10  12
ENDBRANCH   9  10
ENDBRANCH   7   9
ENDBRANCH   4   7
ENDBRANCH   2   3
TORSDOF 10
ENDMDL
MODEL      285
REMARK 921   NORMALIZED FREE ENERGY PREDICTED BY IDOCK:   33.17 KCAL/MOL
REMARK 922        TOTAL FREE ENERGY PREDICTED BY IDOCK:   50.60 KCAL/MOL
REMARK 923 INTER-LIGAND FREE ENERGY PREDICTED BY IDOCK:   46.35 KCAL/MOL
REMARK 924 INTRA-LIGAND FREE ENERGY PREDICTED BY IDOCK:    4.25 KCAL/MOL
REMARK 927      BINDING AFFINITY PREDICTED BY RF-SCORE:    0.00 PKD
ROOT
HETATM    1  C   UNL     1      -9.757   5.597  69.863  1.00  0.00    -0.168 C  
HETATM    2  O   UNL     1     -10.279   6.167  71.076  1.00  0.00    -0.187 OA 
ENDROOT
BRANCH   2   3
HETATM    3  C   UNL     1     -11.571   6.595  70.969  1.00  0.00    -0.346 C  
HETATM    4  N   UNL     1     -11.886   7.466  71.989  1.00  0.00    -0.291 N  
HETATM    5  O   UNL     1     -12.332   6.229  70.084  1.00  0.00     0.174 OA 
HETATM    6  H   UNL     1     -11.166   7.699  72.674  1.00  0.00     0.000 HD 
BRANCH   4   7
HETATM    7  C   UNL     1     -13.221   8.077  72.132  1.00  0.00    -0.185 C  
HETATM    8  C   UNL     1     -14.232   6.942  72.493  1.00  0.00     0.292 C  
BRANCH   7   9
HETATM    9  C   UNL     1     -13.380   9.206  73.235  1.00  0.00     1.169 C  
BRANCH   9  10
HETATM   10  N   UNL     1     -13.688  10.641  72.921  1.00  0.00     0.446 NA 
HETATM   11  H   UNL     1     -14.653  10.958  73.016  1.00  0.00     0.000 HD 
BRANCH  10  12
HETATM   12  C   UNL     1     -12.719  11.574  72.503  1.00  0.00     1.452 A  
HETATM   13  N   UNL     1     -11.588  11.081  71.996  1.00  0.00     2.039 NA 
HETATM   14  C   UNL     1     -10.631  11.974  71.723  1.00  0.00     9.007 A  
HETATM   15  C   UNL     1     -10.760  13.345  71.833  1.00  0.00     6.462 A  
HETATM   16  C   UNL     1     -11.951  13.846  72.330  1.00  0.00     0.748 A  
HETATM   17  N   UNL     1     -12.921  12.931  72.728  1.00  0.00    -0.016 NA 
BRANCH  16  18
HETATM   18  C   UNL     1     -12.088  15.379  72.410  1.00  0.00    -0.512 A  
HETATM   19  C   UNL     1     -12.555  15.994  73.588  1.00  0.00    -0.592 A  
HETATM   20  N   UNL     1     -12.477  17.352  73.447  1.00  0.00     1.100 NA 
HETATM   21  C   UNL     1     -11.734  16.563  71.607  1.00  0.00    -0.144 A  
HETATM   22  N   UNL     1     -12.024  17.713  72.256  1.00  0.00     2.449 NA 
BRANCH  20  23
HETATM   23  C   UNL     1     -12.770  18.403  74.439  1.00  0.00     4.401 C  
HETATM   24  C   UNL     1     -14.105  19.113  74.182  1.00  0.00    12.410 C  
HETATM   25  C   UNL     1     -11.657  19.460  74.520  1.00  0.00     5.999 C  
ENDBRANCH  20  23
BRANCH  21  26
HETATM   26  C   UNL     1     -11.192  16.752  70.261  1.00  0.00     0.181 A  
HETATM   27  C   UNL     1     -11.019  18.025  69.663  1.00  0.00     1.467 A  
HETATM   28  C   UNL     1     -10.668  18.137  68.313  1.00  0.00    -0.151 A  
HETATM   29 CL   UNL     1     -10.306  19.666  67.615  1.00  0.00    -0.552 Cl 
HETATM   30  C   UNL     1     -10.610  16.994  67.505  1.00  0.00    -0.310 A  
HETATM   31  C   UNL     1     -10.782  15.770  68.122  1.00  0.00    -0.285 A  
HETATM   32  C   UNL     1     -10.901  15.660  69.493  1.00  0.00    -0.271 A  
HETATM   33  F   UNL     1     -10.669  14.466  70.036  1.00  0.00    -0.180 F  
BRANCH  31  34
HETATM   34  N   UNL     1     -10.806  14.543  67.394  1.00  0.00    -0.285 N  
HETATM   35  H   UNL     1     -10.185  14.361  66.606  1.00  0.00     0.000 HD 
BRANCH  34  36
HETATM   36  S   UNL     1     -11.938  13.412  67.935  1.00  0.00    -0.269 S  
HETATM   37  O   UNL     1     -11.413  12.074  67.793  1.00  0.00    -0.282 OA 
HETATM   38  O   UNL     1     -12.399  13.929  69.205  1.00  0.00    -0.323 OA 
HETATM   39  C   UNL     1     -13.182  13.695  66.703  1.00  0.00     1.903 C  
ENDBRANCH  34  36
ENDBRANCH  31  34
ENDBRANCH  21  26
ENDBRANCH  16  18
ENDBRANCH  10  12
ENDBRANCH   9  10
ENDBRANCH   7   9
ENDBRANCH   4   7
ENDBRANCH   2   3
TORSDOF 10
ENDMDL
MODEL      286
REMARK 921   NORMALIZED FREE ENERGY PREDICTED BY IDOCK:   33.25 KCAL/MOL
REMARK 922        TOTAL FREE ENERGY PREDICTED BY IDOCK:   50.74 KCAL/MOL
REMARK 923 INTER-LIGAND FREE ENERGY PREDICTED BY IDOCK:   37.30 KCAL/MOL
REMARK 924 INTRA-LIGAND FREE ENERGY PREDICTED BY IDOCK:   13.44 KCAL/MOL
REMARK 927      BINDING AFFINITY PREDICTED BY RF-SCORE:    0.00 PKD
ROOT
HETATM    1  C   UNL     1     -10.147  11.774  67.491  1.00  0.00    -0.192 C  
HETATM    2  O   UNL     1     -10.680  12.437  66.331  1.00  0.00    -0.239 OA 
ENDROOT
BRANCH   2   3
HETATM    3  C   UNL     1     -10.889  11.604  65.271  1.00  0.00    -0.283 C  
HETATM    4  N   UNL     1     -11.257  10.347  65.700  1.00  0.00     0.568 N  
HETATM    5  O   UNL     1     -10.750  11.947  64.105  1.00  0.00    -0.294 OA 
HETATM    6  H   UNL     1     -11.341  10.176  66.702  1.00  0.00     0.000 HD 
BRANCH   4   7
HETATM    7  C   UNL     1     -11.535   9.237  64.769  1.00  0.00     8.201 C  
HETATM    8  C   UNL     1     -11.455   9.800  63.313  1.00  0.00     6.992 C  
BRANCH   7   9
HETATM    9  C   UNL     1     -10.563   7.985  64.832  1.00  0.00     6.183 C  
BRANCH   9  10
HETATM   10  N   UNL     1      -9.459   7.836  65.838  1.00  0.00    -0.416 NA 
HETATM   11  H   UNL     1      -8.952   6.951  65.868  1.00  0.00     0.000 HD 
BRANCH  10  12
HETATM   12  C   UNL     1      -9.085   8.848  66.744  1.00  0.00    -0.143 A  
HETATM   13  N   UNL     1      -9.082  10.099  66.280  1.00  0.00    -0.151 NA 
HETATM   14  C   UNL     1      -8.604  11.031  67.112  1.00  0.00    -0.136 A  
HETATM   15  C   UNL     1      -8.214  10.812  68.419  1.00  0.00    -0.129 A  
HETATM   16  C   UNL     1      -8.253   9.515  68.899  1.00  0.00    -0.116 A  
HETATM   17  N   UNL     1      -8.639   8.510  68.016  1.00  0.00    -0.134 NA 
BRANCH  16  18
HETATM   18  C   UNL     1      -7.848   9.298  70.370  1.00  0.00    -0.158 A  
HETATM   19  C   UNL     1      -7.263  10.342  71.112  1.00  0.00     1.510 A  
HETATM   20  N   UNL     1      -7.104   9.939  72.408  1.00  0.00     1.180 NA 
HETATM   21  C   UNL     1      -8.003   8.274  71.419  1.00  0.00    -0.119 A  
HETATM   22  N   UNL     1      -7.506   8.693  72.604  1.00  0.00    -0.344 NA 
BRANCH  20  23
HETATM   23  C   UNL     1      -6.617  10.713  73.565  1.00  0.00     3.693 C  
HETATM   24  C   UNL     1      -7.599  11.802  74.015  1.00  0.00    12.419 C  
HETATM   25  C   UNL     1      -5.248  11.361  73.303  1.00  0.00     0.674 C  
ENDBRANCH  20  23
BRANCH  21  26
HETATM   26  C   UNL     1      -8.525   6.907  71.433  1.00  0.00    -0.119 A  
HETATM   27  C   UNL     1      -9.154   6.326  72.561  1.00  0.00    -0.141 A  
HETATM   28  C   UNL     1      -9.471   4.963  72.579  1.00  0.00    -0.139 A  
HETATM   29 CL   UNL     1     -10.369   4.277  73.874  1.00  0.00    -0.231 Cl 
HETATM   30  C   UNL     1      -9.052   4.131  71.532  1.00  0.00    -0.175 A  
HETATM   31  C   UNL     1      -8.444   4.732  70.447  1.00  0.00    -0.090 A  
HETATM   32  C   UNL     1      -8.343   6.106  70.342  1.00  0.00    -0.125 A  
HETATM   33  F   UNL     1      -8.115   6.613  69.132  1.00  0.00    -0.108 F  
BRANCH  31  34
HETATM   34  N   UNL     1      -7.921   3.984  69.351  1.00  0.00    -0.056 N  
HETATM   35  H   UNL     1      -8.518   3.472  68.701  1.00  0.00     0.000 HD 
BRANCH  34  36
HETATM   36  S   UNL     1      -6.238   4.005  69.207  1.00  0.00    -0.029 S  
HETATM   37  O   UNL     1      -5.799   5.274  68.677  1.00  0.00    -0.015 OA 
HETATM   38  O   UNL     1      -5.753   3.487  70.469  1.00  0.00    -0.012 OA 
HETATM   39  C   UNL     1      -6.077   2.753  67.961  1.00  0.00    -0.024 C  
ENDBRANCH  34  36
ENDBRANCH  31  34
ENDBRANCH  21  26
ENDBRANCH  16  18
ENDBRANCH  10  12
ENDBRANCH   9  10
ENDBRANCH   7   9
ENDBRANCH   4   7
ENDBRANCH   2   3
TORSDOF 10
ENDMDL
MODEL      287
REMARK 921   NORMALIZED FREE ENERGY PREDICTED BY IDOCK:   40.35 KCAL/MOL
REMARK 922        TOTAL FREE ENERGY PREDICTED BY IDOCK:   61.98 KCAL/MOL
REMARK 923 INTER-LIGAND FREE ENERGY PREDICTED BY IDOCK:   61.00 KCAL/MOL
REMARK 924 INTRA-LIGAND FREE ENERGY PREDICTED BY IDOCK:    0.97 KCAL/MOL
REMARK 927      BINDING AFFINITY PREDICTED BY RF-SCORE:    0.00 PKD
ROOT
HETATM    1  C   UNL     1      -8.110   5.736  70.928  1.00  0.00    -0.119 C  
HETATM    2  O   UNL     1      -8.330   6.914  70.131  1.00  0.00    -0.131 OA 
ENDROOT
BRANCH   2   3
HETATM    3  C   UNL     1      -7.655   8.012  70.579  1.00  0.00    -0.076 C  
HETATM    4  N   UNL     1      -7.351   7.889  71.918  1.00  0.00    -0.070 N  
HETATM    5  O   UNL     1      -7.380   8.971  69.871  1.00  0.00    -0.053 OA 
HETATM    6  H   UNL     1      -7.633   7.040  72.408  1.00  0.00     0.000 HD 
BRANCH   4   7
HETATM    7  C   UNL     1      -6.634   8.935  72.671  1.00  0.00     0.110 C  
HETATM    8  C   UNL     1      -5.296   9.234  71.922  1.00  0.00    -0.070 C  
BRANCH   7   9
HETATM    9  C   UNL     1      -7.378  10.324  72.857  1.00  0.00     4.878 C  
BRANCH   9  10
HETATM   10  N   UNL     1      -6.865  11.625  72.315  1.00  0.00     4.807 NA 
HETATM   11  H   UNL     1      -5.865  11.708  72.128  1.00  0.00     0.000 HD 
BRANCH  10  12
HETATM   12  C   UNL     1      -7.685  12.739  72.050  1.00  0.00    12.132 A  
HETATM   13  N   UNL     1      -8.662  12.989  72.924  1.00  0.00    17.136 NA 
HETATM   14  C   UNL     1      -9.508  13.970  72.592  1.00  0.00    10.219 A  
HETATM   15  C   UNL     1      -9.390  14.789  71.486  1.00  0.00     3.968 A  
HETATM   16  C   UNL     1      -8.353  14.540  70.603  1.00  0.00     2.331 A  
HETATM   17  N   UNL     1      -7.526  13.452  70.867  1.00  0.00     2.791 NA 
BRANCH  16  18
HETATM   18  C   UNL     1      -8.218  15.487  69.395  1.00  0.00    -0.247 A  
HETATM   19  C   UNL     1      -7.652  16.767  69.550  1.00  0.00     0.178 A  
HETATM   20  N   UNL     1      -7.540  17.361  68.323  1.00  0.00    -0.224 NA 
HETATM   21  C   UNL     1      -8.394  15.443  67.932  1.00  0.00    -0.144 A  
HETATM   22  N   UNL     1      -8.013  16.600  67.347  1.00  0.00    -0.158 NA 
BRANCH  20  23
HETATM   23  C   UNL     1      -6.932  18.658  67.975  1.00  0.00    -0.234 C  
HETATM   24  C   UNL     1      -7.737  19.433  66.923  1.00  0.00    -0.270 C  
HETATM   25  C   UNL     1      -5.484  18.515  67.480  1.00  0.00    -0.147 C  
ENDBRANCH  20  23
BRANCH  21  26
HETATM   26  C   UNL     1      -8.933  14.448  67.004  1.00  0.00    -0.257 A  
HETATM   27  C   UNL     1      -9.062  14.672  65.611  1.00  0.00     0.472 A  
HETATM   28  C   UNL     1      -9.747  13.759  64.802  1.00  0.00     0.305 A  
HETATM   29 CL   UNL     1      -9.782  13.941  63.093  1.00  0.00     5.780 Cl 
HETATM   30  C   UNL     1     -10.423  12.677  65.380  1.00  0.00    -0.306 A  
HETATM   31  C   UNL     1     -10.272  12.487  66.741  1.00  0.00    -0.231 A  
HETATM   32  C   UNL     1      -9.409  13.263  67.489  1.00  0.00    -0.218 A  
HETATM   33  F   UNL     1      -9.023  12.786  68.671  1.00  0.00    -0.170 F  
BRANCH  31  34
HETATM   34  N   UNL     1     -10.959  11.458  67.451  1.00  0.00    -0.256 N  
HETATM   35  H   UNL     1     -11.871  11.605  67.883  1.00  0.00     0.000 HD 
BRANCH  34  36
HETATM   36  S   UNL     1     -10.150   9.977  67.525  1.00  0.00    -0.211 S  
HETATM   37  O   UNL     1     -10.389   9.342  68.800  1.00  0.00    -0.201 OA 
HETATM   38  O   UNL     1     -10.456   9.325  66.270  1.00  0.00    -0.188 OA 
HETATM   39  C   UNL     1      -8.489  10.595  67.473  1.00  0.00    -0.121 C  
ENDBRANCH  34  36
ENDBRANCH  31  34
ENDBRANCH  21  26
ENDBRANCH  16  18
ENDBRANCH  10  12
ENDBRANCH   9  10
ENDBRANCH   7   9
ENDBRANCH   4   7
ENDBRANCH   2   3
TORSDOF 10
ENDMDL
MODEL      288
REMARK 921   NORMALIZED FREE ENERGY PREDICTED BY IDOCK:   72.41 KCAL/MOL
REMARK 922        TOTAL FREE ENERGY PREDICTED BY IDOCK:  112.78 KCAL/MOL
REMARK 923 INTER-LIGAND FREE ENERGY PREDICTED BY IDOCK:  112.19 KCAL/MOL
REMARK 924 INTRA-LIGAND FREE ENERGY PREDICTED BY IDOCK:    0.59 KCAL/MOL
REMARK 927      BINDING AFFINITY PREDICTED BY RF-SCORE:    0.00 PKD
ROOT
HETATM    1  C   UNL     1     -14.132   5.650  70.936  1.00  0.00     5.504 C  
HETATM    2  O   UNL     1     -13.724   6.256  69.697  1.00  0.00     5.237 OA 
ENDROOT
BRANCH   2   3
HETATM    3  C   UNL     1     -12.925   5.456  68.932  1.00  0.00    13.132 C  
HETATM    4  N   UNL     1     -11.681   5.312  69.507  1.00  0.00     2.505 N  
HETATM    5  O   UNL     1     -13.284   4.956  67.875  1.00  0.00    16.322 OA 
HETATM    6  H   UNL     1     -11.494   5.779  70.395  1.00  0.00     0.000 HD 
BRANCH   4   7
HETATM    7  C   UNL     1     -10.607   4.510  68.891  1.00  0.00     0.833 C  
HETATM    8  C   UNL     1     -10.961   3.001  69.089  1.00  0.00     5.538 C  
BRANCH   7   9
HETATM    9  C   UNL     1     -10.350   4.724  67.340  1.00  0.00    -0.019 C  
BRANCH   9  10
HETATM   10  N   UNL     1      -9.232   5.557  66.787  1.00  0.00    -0.126 NA 
HETATM   11  H   UNL     1      -8.778   5.244  65.928  1.00  0.00     0.000 HD 
BRANCH  10  12
HETATM   12  C   UNL     1      -8.772   6.746  67.387  1.00  0.00    -0.119 A  
HETATM   13  N   UNL     1      -8.366   7.716  66.567  1.00  0.00    -0.124 NA 
HETATM   14  C   UNL     1      -7.816   8.785  67.151  1.00  0.00    -0.096 A  
HETATM   15  C   UNL     1      -7.728   8.996  68.514  1.00  0.00    -0.097 A  
HETATM   16  C   UNL     1      -8.183   7.996  69.355  1.00  0.00    -0.122 A  
HETATM   17  N   UNL     1      -8.656   6.824  68.770  1.00  0.00    -0.123 NA 
BRANCH  16  18
HETATM   18  C   UNL     1      -8.110   8.266  70.871  1.00  0.00    -0.105 A  
HETATM   19  C   UNL     1      -7.463   7.356  71.728  1.00  0.00    -0.083 A  
HETATM   20  N   UNL     1      -7.433   7.873  72.993  1.00  0.00    -0.109 NA 
HETATM   21  C   UNL     1      -8.425   9.353  71.815  1.00  0.00     0.796 A  
HETATM   22  N   UNL     1      -8.037   9.049  73.074  1.00  0.00    -0.022 NA 
BRANCH  20  23
HETATM   23  C   UNL     1      -6.791   7.326  74.202  1.00  0.00    -0.080 C  
HETATM   24  C   UNL     1      -5.429   7.968  74.499  1.00  0.00    -0.074 C  
HETATM   25  C   UNL     1      -6.612   5.801  74.134  1.00  0.00    -0.075 C  
ENDBRANCH  20  23
BRANCH  21  26
HETATM   26  C   UNL     1      -9.102  10.644  71.688  1.00  0.00     6.751 A  
HETATM   27  C   UNL     1      -9.109  11.623  72.711  1.00  0.00    22.385 A  
HETATM   28  C   UNL     1      -9.919  12.759  72.607  1.00  0.00    18.235 A  
HETATM   29 CL   UNL     1      -9.825  14.026  73.765  1.00  0.00     7.782 Cl 
HETATM   30  C   UNL     1     -10.829  12.878  71.548  1.00  0.00     5.764 A  
HETATM   31  C   UNL     1     -10.793  11.905  70.567  1.00  0.00     1.876 A  
HETATM   32  C   UNL     1      -9.833  10.912  70.566  1.00  0.00     1.922 A  
HETATM   33  F   UNL     1      -9.615  10.271  69.420  1.00  0.00    -0.193 F  
BRANCH  31  34
HETATM   34  N   UNL     1     -11.711  11.886  69.475  1.00  0.00    -0.322 N  
HETATM   35  H   UNL     1     -12.480  11.218  69.417  1.00  0.00     0.000 HD 
BRANCH  34  36
HETATM   36  S   UNL     1     -11.430  13.049  68.283  1.00  0.00    -0.336 S  
HETATM   37  O   UNL     1     -12.680  13.481  67.703  1.00  0.00     0.292 OA 
HETATM   38  O   UNL     1     -10.498  13.978  68.885  1.00  0.00    -0.236 OA 
HETATM   39  C   UNL     1     -10.563  12.020  67.127  1.00  0.00    -0.224 C  
ENDBRANCH  34  36
ENDBRANCH  31  34
ENDBRANCH  21  26
ENDBRANCH  16  18
ENDBRANCH  10  12
ENDBRANCH   9  10
ENDBRANCH   7   9
ENDBRANCH   4   7
ENDBRANCH   2   3
TORSDOF 10
ENDMDL
