MODEL        1
REMARK 921   NORMALIZED FREE ENERGY PREDICTED BY IDOCK:   -6.36 KCAL/MOL
REMARK 922        TOTAL FREE ENERGY PREDICTED BY IDOCK:   -7.87 KCAL/MOL
REMARK 923 INTER-LIGAND FREE ENERGY PREDICTED BY IDOCK:   -7.48 KCAL/MOL
REMARK 924 INTRA-LIGAND FREE ENERGY PREDICTED BY IDOCK:   -0.39 KCAL/MOL
REMARK 927      BINDING AFFINITY PREDICTED BY RF-SCORE:    0.00 PKD
ROOT
HETATM    1  C   UNL     1     -13.467  12.981  72.043  1.00  0.00    -0.492 C  
HETATM    2  S   UNL     1     -12.940  11.316  71.555  1.00  0.00    -0.333 SA 
ENDROOT
BRANCH   2   3
HETATM    3  C   UNL     1     -12.232  11.687  69.962  1.00  0.00    -0.263 A  
HETATM    4  C   UNL     1     -12.023  13.006  69.557  1.00  0.00    -0.350 A  
HETATM    5  C   UNL     1     -11.466  13.277  68.305  1.00  0.00    -0.351 A  
HETATM    6  C   UNL     1     -11.106  12.232  67.440  1.00  0.00    -0.333 A  
HETATM    7  C   UNL     1     -11.841  10.642  69.118  1.00  0.00    -0.287 A  
HETATM    8  C   UNL     1     -11.273  10.909  67.865  1.00  0.00    -0.387 A  
BRANCH   6   9
HETATM    9  C   UNL     1     -10.486  12.606  66.141  1.00  0.00    -0.258 C  
HETATM   10  O   UNL     1      -9.413  12.086  65.839  1.00  0.00    -0.234 OA 
BRANCH   9  11
HETATM   11  C   UNL     1     -11.120  13.617  65.253  1.00  0.00    -0.301 C  
HETATM   12  C   UNL     1     -11.957  13.368  64.223  1.00  0.00    -0.430 C  
HETATM   13  C   UNL     1     -12.522  12.108  63.672  1.00  0.00    -0.658 C  
HETATM   14  N   UNL     1     -12.273  14.571  63.626  1.00  0.00    -1.062 N  
HETATM   15  H   UNL     1     -12.898  14.684  62.828  1.00  0.00     0.000 HD 
HETATM   16  C   UNL     1     -11.608  15.607  64.281  1.00  0.00    -0.189 C  
HETATM   17  N   UNL     1     -10.893  14.977  65.302  1.00  0.00    -0.359 NA 
HETATM   18  O   UNL     1     -11.635  16.794  64.020  1.00  0.00    -1.195 OA 
ENDBRANCH   9  11
ENDBRANCH   6   9
ENDBRANCH   2   3
TORSDOF 3
ENDMDL
MODEL        2
REMARK 921   NORMALIZED FREE ENERGY PREDICTED BY IDOCK:   -6.30 KCAL/MOL
REMARK 922        TOTAL FREE ENERGY PREDICTED BY IDOCK:   -7.80 KCAL/MOL
REMARK 923 INTER-LIGAND FREE ENERGY PREDICTED BY IDOCK:   -7.54 KCAL/MOL
REMARK 924 INTRA-LIGAND FREE ENERGY PREDICTED BY IDOCK:   -0.26 KCAL/MOL
REMARK 927      BINDING AFFINITY PREDICTED BY RF-SCORE:    0.00 PKD
ROOT
HETATM    1  C   UNL     1     -13.914  15.465  72.322  1.00  0.00    -0.562 C  
HETATM    2  S   UNL     1     -13.340  13.749  72.439  1.00  0.00    -0.544 SA 
ENDROOT
BRANCH   2   3
HETATM    3  C   UNL     1     -12.580  13.584  70.836  1.00  0.00    -0.337 A  
HETATM    4  C   UNL     1     -12.229  12.331  70.332  1.00  0.00    -0.371 A  
HETATM    5  C   UNL     1     -11.634  12.222  69.072  1.00  0.00    -0.368 A  
HETATM    6  C   UNL     1     -11.385  13.364  68.296  1.00  0.00    -0.330 A  
HETATM    7  C   UNL     1     -12.366  14.722  70.051  1.00  0.00    -0.365 A  
HETATM    8  C   UNL     1     -11.779  14.616  68.783  1.00  0.00    -0.357 A  
BRANCH   6   9
HETATM    9  C   UNL     1     -10.782  13.157  66.952  1.00  0.00    -0.263 C  
HETATM   10  O   UNL     1      -9.874  12.336  66.844  1.00  0.00    -0.203 OA 
BRANCH   9  11
HETATM   11  C   UNL     1     -11.232  13.957  65.781  1.00  0.00    -0.303 C  
HETATM   12  C   UNL     1     -11.861  13.486  64.684  1.00  0.00    -0.394 C  
HETATM   13  C   UNL     1     -12.320  12.126  64.295  1.00  0.00    -0.466 C  
HETATM   14  N   UNL     1     -12.052  14.540  63.813  1.00  0.00    -0.956 N  
HETATM   15  H   UNL     1     -12.515  14.477  62.906  1.00  0.00     0.000 HD 
HETATM   16  C   UNL     1     -11.516  15.704  64.364  1.00  0.00    -0.262 C  
HETATM   17  N   UNL     1     -11.010  15.306  65.604  1.00  0.00    -0.343 NA 
HETATM   18  O   UNL     1     -11.486  16.816  63.875  1.00  0.00    -1.116 OA 
ENDBRANCH   9  11
ENDBRANCH   6   9
ENDBRANCH   2   3
TORSDOF 3
ENDMDL
MODEL        3
REMARK 921   NORMALIZED FREE ENERGY PREDICTED BY IDOCK:   -6.26 KCAL/MOL
REMARK 922        TOTAL FREE ENERGY PREDICTED BY IDOCK:   -7.75 KCAL/MOL
REMARK 923 INTER-LIGAND FREE ENERGY PREDICTED BY IDOCK:   -7.34 KCAL/MOL
REMARK 924 INTRA-LIGAND FREE ENERGY PREDICTED BY IDOCK:   -0.40 KCAL/MOL
REMARK 927      BINDING AFFINITY PREDICTED BY RF-SCORE:    0.00 PKD
ROOT
HETATM    1  C   UNL     1     -13.485  15.681  72.690  1.00  0.00    -0.566 C  
HETATM    2  S   UNL     1     -13.453  13.892  72.400  1.00  0.00    -0.594 SA 
ENDROOT
BRANCH   2   3
HETATM    3  C   UNL     1     -12.604  13.863  70.834  1.00  0.00    -0.361 A  
HETATM    4  C   UNL     1     -12.372  15.039  70.119  1.00  0.00    -0.380 A  
HETATM    5  C   UNL     1     -11.702  14.996  68.893  1.00  0.00    -0.354 A  
HETATM    6  C   UNL     1     -11.252  13.777  68.365  1.00  0.00    -0.300 A  
HETATM    7  C   UNL     1     -12.125  12.649  70.328  1.00  0.00    -0.372 A  
HETATM    8  C   UNL     1     -11.444  12.603  69.104  1.00  0.00    -0.359 A  
BRANCH   6   9
HETATM    9  C   UNL     1     -10.517  13.823  67.073  1.00  0.00    -0.274 C  
HETATM   10  O   UNL     1      -9.306  14.032  67.102  1.00  0.00    -0.222 OA 
BRANCH   9  11
HETATM   11  C   UNL     1     -11.234  13.670  65.779  1.00  0.00    -0.295 C  
HETATM   12  C   UNL     1     -11.412  14.627  64.843  1.00  0.00    -0.401 C  
HETATM   13  C   UNL     1     -10.969  16.043  64.759  1.00  0.00    -0.373 C  
HETATM   14  N   UNL     1     -12.175  14.094  63.824  1.00  0.00    -0.991 N  
HETATM   15  H   UNL     1     -12.456  14.590  62.978  1.00  0.00     0.000 HD 
HETATM   16  C   UNL     1     -12.504  12.773  64.128  1.00  0.00    -0.369 C  
HETATM   17  N   UNL     1     -11.895  12.533  65.362  1.00  0.00    -0.409 NA 
HETATM   18  O   UNL     1     -13.176  12.001  63.473  1.00  0.00    -0.724 OA 
ENDBRANCH   9  11
ENDBRANCH   6   9
ENDBRANCH   2   3
TORSDOF 3
ENDMDL
MODEL        4
REMARK 921   NORMALIZED FREE ENERGY PREDICTED BY IDOCK:   -6.21 KCAL/MOL
REMARK 922        TOTAL FREE ENERGY PREDICTED BY IDOCK:   -7.69 KCAL/MOL
REMARK 923 INTER-LIGAND FREE ENERGY PREDICTED BY IDOCK:   -7.38 KCAL/MOL
REMARK 924 INTRA-LIGAND FREE ENERGY PREDICTED BY IDOCK:   -0.31 KCAL/MOL
REMARK 927      BINDING AFFINITY PREDICTED BY RF-SCORE:    0.00 PKD
ROOT
HETATM    1  C   UNL     1     -13.172   9.884  71.697  1.00  0.00    -0.421 C  
HETATM    2  S   UNL     1     -12.879  11.670  71.805  1.00  0.00    -0.215 SA 
ENDROOT
BRANCH   2   3
HETATM    3  C   UNL     1     -12.205  11.957  70.181  1.00  0.00    -0.241 A  
HETATM    4  C   UNL     1     -11.841  10.893  69.355  1.00  0.00    -0.400 A  
HETATM    5  C   UNL     1     -11.315  11.138  68.084  1.00  0.00    -0.377 A  
HETATM    6  C   UNL     1     -11.149  12.451  67.618  1.00  0.00    -0.306 A  
HETATM    7  C   UNL     1     -12.075  13.267  69.707  1.00  0.00    -0.355 A  
HETATM    8  C   UNL     1     -11.558  13.516  68.428  1.00  0.00    -0.378 A  
BRANCH   6   9
HETATM    9  C   UNL     1     -10.617  12.623  66.240  1.00  0.00    -0.252 C  
HETATM   10  O   UNL     1      -9.682  11.908  65.886  1.00  0.00    -0.231 OA 
BRANCH   9  11
HETATM   11  C   UNL     1     -11.168  13.665  65.332  1.00  0.00    -0.298 C  
HETATM   12  C   UNL     1     -11.933  13.454  64.241  1.00  0.00    -0.430 C  
HETATM   13  C   UNL     1     -12.481  12.217  63.623  1.00  0.00    -0.647 C  
HETATM   14  N   UNL     1     -12.184  14.675  63.649  1.00  0.00    -1.049 N  
HETATM   15  H   UNL     1     -12.748  14.818  62.811  1.00  0.00     0.000 HD 
HETATM   16  C   UNL     1     -11.548  15.684  64.373  1.00  0.00    -0.249 C  
HETATM   17  N   UNL     1     -10.920  15.019  65.428  1.00  0.00    -0.352 NA 
HETATM   18  O   UNL     1     -11.535  16.876  64.137  1.00  0.00    -1.174 OA 
ENDBRANCH   9  11
ENDBRANCH   6   9
ENDBRANCH   2   3
TORSDOF 3
ENDMDL
MODEL        5
REMARK 921   NORMALIZED FREE ENERGY PREDICTED BY IDOCK:   -6.02 KCAL/MOL
REMARK 922        TOTAL FREE ENERGY PREDICTED BY IDOCK:   -7.47 KCAL/MOL
REMARK 923 INTER-LIGAND FREE ENERGY PREDICTED BY IDOCK:   -7.16 KCAL/MOL
REMARK 924 INTRA-LIGAND FREE ENERGY PREDICTED BY IDOCK:   -0.31 KCAL/MOL
REMARK 927      BINDING AFFINITY PREDICTED BY RF-SCORE:    0.00 PKD
ROOT
HETATM    1  C   UNL     1     -11.455   8.568  70.580  1.00  0.00    -0.228 C  
HETATM    2  S   UNL     1     -12.350   9.789  71.579  1.00  0.00    -0.429 SA 
ENDROOT
BRANCH   2   3
HETATM    3  C   UNL     1     -12.168  11.217  70.529  1.00  0.00    -0.383 A  
HETATM    4  C   UNL     1     -12.434  12.501  71.007  1.00  0.00    -0.353 A  
HETATM    5  C   UNL     1     -12.284  13.608  70.168  1.00  0.00    -0.413 A  
HETATM    6  C   UNL     1     -11.863  13.449  68.839  1.00  0.00    -0.373 A  
HETATM    7  C   UNL     1     -11.714  11.057  69.215  1.00  0.00    -0.397 A  
HETATM    8  C   UNL     1     -11.552  12.166  68.374  1.00  0.00    -0.381 A  
BRANCH   6   9
HETATM    9  C   UNL     1     -11.695  14.682  68.025  1.00  0.00    -0.342 C  
HETATM   10  O   UNL     1     -11.712  15.766  68.604  1.00  0.00    -0.375 OA 
BRANCH   9  11
HETATM   11  C   UNL     1     -11.557  14.609  66.545  1.00  0.00    -0.344 C  
HETATM   12  C   UNL     1     -10.530  15.087  65.811  1.00  0.00    -0.337 C  
HETATM   13  C   UNL     1      -9.264  15.771  66.183  1.00  0.00    -0.385 C  
HETATM   14  N   UNL     1     -10.816  14.868  64.479  1.00  0.00    -0.628 N  
HETATM   15  H   UNL     1     -10.209  15.118  63.699  1.00  0.00     0.000 HD 
HETATM   16  C   UNL     1     -12.062  14.250  64.364  1.00  0.00    -0.468 C  
HETATM   17  N   UNL     1     -12.502  14.097  65.681  1.00  0.00    -0.472 NA 
HETATM   18  O   UNL     1     -12.642  13.924  63.347  1.00  0.00    -0.853 OA 
ENDBRANCH   9  11
ENDBRANCH   6   9
ENDBRANCH   2   3
TORSDOF 3
ENDMDL
MODEL        6
REMARK 921   NORMALIZED FREE ENERGY PREDICTED BY IDOCK:   -5.84 KCAL/MOL
REMARK 922        TOTAL FREE ENERGY PREDICTED BY IDOCK:   -7.25 KCAL/MOL
REMARK 923 INTER-LIGAND FREE ENERGY PREDICTED BY IDOCK:   -6.98 KCAL/MOL
REMARK 924 INTRA-LIGAND FREE ENERGY PREDICTED BY IDOCK:   -0.27 KCAL/MOL
REMARK 927      BINDING AFFINITY PREDICTED BY RF-SCORE:    0.00 PKD
ROOT
HETATM    1  C   UNL     1     -13.756  15.782  72.828  1.00  0.00    -0.560 C  
HETATM    2  S   UNL     1     -12.030  16.057  72.346  1.00  0.00    -0.570 SA 
ENDROOT
BRANCH   2   3
HETATM    3  C   UNL     1     -11.934  14.950  70.953  1.00  0.00    -0.316 A  
HETATM    4  C   UNL     1     -12.346  13.621  71.060  1.00  0.00    -0.436 A  
HETATM    5  C   UNL     1     -12.264  12.769  69.956  1.00  0.00    -0.279 A  
HETATM    6  C   UNL     1     -11.772  13.233  68.727  1.00  0.00    -0.366 A  
HETATM    7  C   UNL     1     -11.476  15.427  69.720  1.00  0.00    -0.338 A  
HETATM    8  C   UNL     1     -11.402  14.578  68.607  1.00  0.00    -0.300 A  
BRANCH   6   9
HETATM    9  C   UNL     1     -11.752  12.271  67.593  1.00  0.00    -0.334 C  
HETATM   10  O   UNL     1     -11.766  11.069  67.852  1.00  0.00    -0.551 OA 
BRANCH   9  11
HETATM   11  C   UNL     1     -11.668  12.748  66.186  1.00  0.00    -0.403 C  
HETATM   12  C   UNL     1     -10.675  12.487  65.310  1.00  0.00    -0.286 C  
HETATM   13  C   UNL     1      -9.433  11.676  65.412  1.00  0.00    -0.190 C  
HETATM   14  N   UNL     1     -10.950  13.160  64.137  1.00  0.00    -0.439 N  
HETATM   15  H   UNL     1     -10.374  13.135  63.296  1.00  0.00     0.000 HD 
HETATM   16  C   UNL     1     -12.137  13.879  64.278  1.00  0.00    -0.440 C  
HETATM   17  N   UNL     1     -12.567  13.597  65.577  1.00  0.00    -0.499 NA 
HETATM   18  O   UNL     1     -12.677  14.597  63.460  1.00  0.00    -0.670 OA 
ENDBRANCH   9  11
ENDBRANCH   6   9
ENDBRANCH   2   3
TORSDOF 3
ENDMDL
MODEL        7
REMARK 921   NORMALIZED FREE ENERGY PREDICTED BY IDOCK:   -5.80 KCAL/MOL
REMARK 922        TOTAL FREE ENERGY PREDICTED BY IDOCK:   -7.20 KCAL/MOL
REMARK 923 INTER-LIGAND FREE ENERGY PREDICTED BY IDOCK:   -6.81 KCAL/MOL
REMARK 924 INTRA-LIGAND FREE ENERGY PREDICTED BY IDOCK:   -0.39 KCAL/MOL
REMARK 927      BINDING AFFINITY PREDICTED BY RF-SCORE:    0.00 PKD
ROOT
HETATM    1  C   UNL     1     -13.248   9.244  72.053  1.00  0.00    -0.447 C  
HETATM    2  S   UNL     1     -11.556   9.234  71.400  1.00  0.00    -0.395 SA 
ENDROOT
BRANCH   2   3
HETATM    3  C   UNL     1     -11.610  10.723  70.423  1.00  0.00    -0.339 A  
HETATM    4  C   UNL     1     -11.105  10.749  69.122  1.00  0.00    -0.304 A  
HETATM    5  C   UNL     1     -11.157  11.926  68.371  1.00  0.00    -0.292 A  
HETATM    6  C   UNL     1     -11.717  13.095  68.909  1.00  0.00    -0.368 A  
HETATM    7  C   UNL     1     -12.202  11.876  70.950  1.00  0.00    -0.351 A  
HETATM    8  C   UNL     1     -12.265  13.056  70.196  1.00  0.00    -0.342 A  
BRANCH   6   9
HETATM    9  C   UNL     1     -11.767  14.294  68.030  1.00  0.00    -0.351 C  
HETATM   10  O   UNL     1     -12.005  15.383  68.549  1.00  0.00    -0.316 OA 
BRANCH   9  11
HETATM   11  C   UNL     1     -11.581  14.173  66.559  1.00  0.00    -0.375 C  
HETATM   12  C   UNL     1     -10.490  14.543  65.856  1.00  0.00    -0.312 C  
HETATM   13  C   UNL     1      -9.184  15.125  66.262  1.00  0.00    -0.336 C  
HETATM   14  N   UNL     1     -10.744  14.315  64.518  1.00  0.00    -0.613 N  
HETATM   15  H   UNL     1     -10.090  14.494  63.757  1.00  0.00     0.000 HD 
HETATM   16  C   UNL     1     -12.033  13.804  64.368  1.00  0.00    -0.445 C  
HETATM   17  N   UNL     1     -12.534  13.722  65.669  1.00  0.00    -0.486 NA 
HETATM   18  O   UNL     1     -12.601  13.503  63.337  1.00  0.00    -0.740 OA 
ENDBRANCH   9  11
ENDBRANCH   6   9
ENDBRANCH   2   3
TORSDOF 3
ENDMDL
MODEL        8
REMARK 921   NORMALIZED FREE ENERGY PREDICTED BY IDOCK:   -5.65 KCAL/MOL
REMARK 922        TOTAL FREE ENERGY PREDICTED BY IDOCK:   -7.03 KCAL/MOL
REMARK 923 INTER-LIGAND FREE ENERGY PREDICTED BY IDOCK:   -6.63 KCAL/MOL
REMARK 924 INTRA-LIGAND FREE ENERGY PREDICTED BY IDOCK:   -0.41 KCAL/MOL
REMARK 927      BINDING AFFINITY PREDICTED BY RF-SCORE:    0.00 PKD
ROOT
HETATM    1  C   UNL     1     -13.422  13.913  72.579  1.00  0.00    -0.572 C  
HETATM    2  S   UNL     1     -12.206  15.251  72.446  1.00  0.00    -0.418 SA 
ENDROOT
BRANCH   2   3
HETATM    3  C   UNL     1     -11.894  15.192  70.693  1.00  0.00    -0.325 A  
HETATM    4  C   UNL     1     -11.260  16.248  70.038  1.00  0.00    -0.324 A  
HETATM    5  C   UNL     1     -11.023  16.182  68.663  1.00  0.00    -0.336 A  
HETATM    6  C   UNL     1     -11.414  15.057  67.921  1.00  0.00    -0.354 A  
HETATM    7  C   UNL     1     -12.254  14.052  69.964  1.00  0.00    -0.414 A  
HETATM    8  C   UNL     1     -12.008  13.978  68.586  1.00  0.00    -0.389 A  
BRANCH   6   9
HETATM    9  C   UNL     1     -11.092  15.051  66.469  1.00  0.00    -0.329 C  
HETATM   10  O   UNL     1     -10.586  16.061  65.984  1.00  0.00    -0.323 OA 
BRANCH   9  11
HETATM   11  C   UNL     1     -11.418  13.875  65.618  1.00  0.00    -0.318 C  
HETATM   12  C   UNL     1     -10.735  12.712  65.563  1.00  0.00    -0.274 C  
HETATM   13  C   UNL     1      -9.536  12.217  66.290  1.00  0.00    -0.246 C  
HETATM   14  N   UNL     1     -11.330  11.909  64.612  1.00  0.00    -0.312 N  
HETATM   15  H   UNL     1     -11.030  10.966  64.366  1.00  0.00     0.000 HD 
HETATM   16  C   UNL     1     -12.406  12.586  64.037  1.00  0.00    -0.469 C  
HETATM   17  N   UNL     1     -12.439  13.818  64.693  1.00  0.00    -0.608 NA 
HETATM   18  O   UNL     1     -13.148  12.197  63.156  1.00  0.00    -0.615 OA 
ENDBRANCH   9  11
ENDBRANCH   6   9
ENDBRANCH   2   3
TORSDOF 3
ENDMDL
MODEL        9
REMARK 921   NORMALIZED FREE ENERGY PREDICTED BY IDOCK:   -5.62 KCAL/MOL
REMARK 922        TOTAL FREE ENERGY PREDICTED BY IDOCK:   -7.00 KCAL/MOL
REMARK 923 INTER-LIGAND FREE ENERGY PREDICTED BY IDOCK:   -6.59 KCAL/MOL
REMARK 924 INTRA-LIGAND FREE ENERGY PREDICTED BY IDOCK:   -0.41 KCAL/MOL
REMARK 927      BINDING AFFINITY PREDICTED BY RF-SCORE:    0.00 PKD
ROOT
HETATM    1  C   UNL     1     -10.130   8.704  71.970  1.00  0.00    -0.331 C  
HETATM    2  S   UNL     1     -11.035   8.173  70.491  1.00  0.00    -0.240 SA 
ENDROOT
BRANCH   2   3
HETATM    3  C   UNL     1     -11.267   9.755  69.704  1.00  0.00    -0.178 A  
HETATM    4  C   UNL     1     -11.719  10.859  70.428  1.00  0.00    -0.444 A  
HETATM    5  C   UNL     1     -11.893  12.092  69.793  1.00  0.00    -0.397 A  
HETATM    6  C   UNL     1     -11.614  12.240  68.426  1.00  0.00    -0.377 A  
HETATM    7  C   UNL     1     -10.953   9.907  68.349  1.00  0.00    -0.235 A  
HETATM    8  C   UNL     1     -11.116  11.144  67.711  1.00  0.00    -0.344 A  
BRANCH   6   9
HETATM    9  C   UNL     1     -11.791  13.594  67.836  1.00  0.00    -0.366 C  
HETATM   10  O   UNL     1     -12.125  14.512  68.583  1.00  0.00    -0.296 OA 
BRANCH   9  11
HETATM   11  C   UNL     1     -11.618  13.821  66.376  1.00  0.00    -0.360 C  
HETATM   12  C   UNL     1     -10.563  14.414  65.777  1.00  0.00    -0.318 C  
HETATM   13  C   UNL     1      -9.293  14.975  66.308  1.00  0.00    -0.341 C  
HETATM   14  N   UNL     1     -10.819  14.478  64.423  1.00  0.00    -0.609 N  
HETATM   15  H   UNL     1     -10.188  14.867  63.723  1.00  0.00     0.000 HD 
HETATM   16  C   UNL     1     -12.074  13.928  64.158  1.00  0.00    -0.425 C  
HETATM   17  N   UNL     1     -12.551  13.521  65.406  1.00  0.00    -0.536 NA 
HETATM   18  O   UNL     1     -12.634  13.831  63.084  1.00  0.00    -0.793 OA 
ENDBRANCH   9  11
ENDBRANCH   6   9
ENDBRANCH   2   3
TORSDOF 3
ENDMDL
MODEL       10
REMARK 921   NORMALIZED FREE ENERGY PREDICTED BY IDOCK:   -5.62 KCAL/MOL
REMARK 922        TOTAL FREE ENERGY PREDICTED BY IDOCK:   -7.00 KCAL/MOL
REMARK 923 INTER-LIGAND FREE ENERGY PREDICTED BY IDOCK:   -6.56 KCAL/MOL
REMARK 924 INTRA-LIGAND FREE ENERGY PREDICTED BY IDOCK:   -0.44 KCAL/MOL
REMARK 927      BINDING AFFINITY PREDICTED BY RF-SCORE:    0.00 PKD
ROOT
HETATM    1  C   UNL     1     -10.429  18.864  66.183  1.00  0.00    -0.457 C  
HETATM    2  S   UNL     1     -10.333  18.111  67.830  1.00  0.00    -0.408 SA 
ENDROOT
BRANCH   2   3
HETATM    3  C   UNL     1     -10.617  16.408  67.391  1.00  0.00    -0.306 A  
HETATM    4  C   UNL     1     -11.414  15.583  68.186  1.00  0.00    -0.332 A  
HETATM    5  C   UNL     1     -11.626  14.250  67.825  1.00  0.00    -0.383 A  
HETATM    6  C   UNL     1     -11.047  13.722  66.661  1.00  0.00    -0.316 A  
HETATM    7  C   UNL     1     -10.067  15.896  66.211  1.00  0.00    -0.317 A  
HETATM    8  C   UNL     1     -10.286  14.562  65.840  1.00  0.00    -0.339 A  
BRANCH   6   9
HETATM    9  C   UNL     1     -11.352  12.305  66.330  1.00  0.00    -0.345 C  
HETATM   10  O   UNL     1     -12.008  11.649  67.136  1.00  0.00    -0.614 OA 
BRANCH   9  11
HETATM   11  C   UNL     1     -10.836  11.683  65.080  1.00  0.00    -0.288 C  
HETATM   12  C   UNL     1     -11.410  11.742  63.860  1.00  0.00    -0.411 C  
HETATM   13  C   UNL     1     -12.638  12.414  63.360  1.00  0.00    -0.481 C  
HETATM   14  N   UNL     1     -10.646  10.990  62.990  1.00  0.00    -0.805 N  
HETATM   15  H   UNL     1     -10.839  10.865  61.996  1.00  0.00     0.000 HD 
HETATM   16  C   UNL     1      -9.572  10.427  63.678  1.00  0.00    -0.310 C  
HETATM   17  N   UNL     1      -9.716  10.884  64.990  1.00  0.00    -0.246 NA 
HETATM   18  O   UNL     1      -8.706   9.696  63.241  1.00  0.00    -0.200 OA 
ENDBRANCH   9  11
ENDBRANCH   6   9
ENDBRANCH   2   3
TORSDOF 3
ENDMDL
MODEL       11
REMARK 921   NORMALIZED FREE ENERGY PREDICTED BY IDOCK:   -5.60 KCAL/MOL
REMARK 922        TOTAL FREE ENERGY PREDICTED BY IDOCK:   -6.97 KCAL/MOL
REMARK 923 INTER-LIGAND FREE ENERGY PREDICTED BY IDOCK:   -6.59 KCAL/MOL
REMARK 924 INTRA-LIGAND FREE ENERGY PREDICTED BY IDOCK:   -0.38 KCAL/MOL
REMARK 927      BINDING AFFINITY PREDICTED BY RF-SCORE:    0.00 PKD
ROOT
HETATM    1  C   UNL     1     -12.400  16.091  72.945  1.00  0.00    -0.508 C  
HETATM    2  S   UNL     1     -13.798  15.509  71.947  1.00  0.00    -0.448 SA 
ENDROOT
BRANCH   2   3
HETATM    3  C   UNL     1     -13.191  13.893  71.506  1.00  0.00    -0.352 A  
HETATM    4  C   UNL     1     -12.282  13.726  70.460  1.00  0.00    -0.440 A  
HETATM    5  C   UNL     1     -11.817  12.450  70.130  1.00  0.00    -0.341 A  
HETATM    6  C   UNL     1     -12.250  11.323  70.843  1.00  0.00    -0.460 A  
HETATM    7  C   UNL     1     -13.599  12.775  72.243  1.00  0.00    -0.563 A  
HETATM    8  C   UNL     1     -13.126  11.495  71.921  1.00  0.00    -0.492 A  
BRANCH   6   9
HETATM    9  C   UNL     1     -11.679  10.007  70.451  1.00  0.00    -0.286 C  
HETATM   10  O   UNL     1     -11.402   9.824  69.267  1.00  0.00    -0.144 OA 
BRANCH   9  11
HETATM   11  C   UNL     1     -11.492   8.924  71.454  1.00  0.00    -0.311 C  
HETATM   12  C   UNL     1     -12.430   8.048  71.872  1.00  0.00    -0.330 C  
HETATM   13  C   UNL     1     -13.853   7.845  71.493  1.00  0.00    -0.415 C  
HETATM   14  N   UNL     1     -11.867   7.248  72.846  1.00  0.00    -0.545 N  
HETATM   15  H   UNL     1     -12.345   6.490  73.332  1.00  0.00     0.000 HD 
HETATM   16  C   UNL     1     -10.546   7.638  73.064  1.00  0.00    -0.375 C  
HETATM   17  N   UNL     1     -10.337   8.691  72.171  1.00  0.00    -0.335 NA 
HETATM   18  O   UNL     1      -9.751   7.172  73.857  1.00  0.00    -0.250 OA 
ENDBRANCH   9  11
ENDBRANCH   6   9
ENDBRANCH   2   3
TORSDOF 3
ENDMDL
MODEL       12
REMARK 921   NORMALIZED FREE ENERGY PREDICTED BY IDOCK:   -5.58 KCAL/MOL
REMARK 922        TOTAL FREE ENERGY PREDICTED BY IDOCK:   -6.95 KCAL/MOL
REMARK 923 INTER-LIGAND FREE ENERGY PREDICTED BY IDOCK:   -6.52 KCAL/MOL
REMARK 924 INTRA-LIGAND FREE ENERGY PREDICTED BY IDOCK:   -0.43 KCAL/MOL
REMARK 927      BINDING AFFINITY PREDICTED BY RF-SCORE:    0.00 PKD
ROOT
HETATM    1  C   UNL     1     -10.728  19.419  66.968  1.00  0.00    -0.474 C  
HETATM    2  S   UNL     1     -10.006  18.569  68.398  1.00  0.00    -0.392 SA 
ENDROOT
BRANCH   2   3
HETATM    3  C   UNL     1     -10.510  16.900  68.032  1.00  0.00    -0.347 A  
HETATM    4  C   UNL     1     -11.186  16.129  68.978  1.00  0.00    -0.347 A  
HETATM    5  C   UNL     1     -11.574  14.821  68.672  1.00  0.00    -0.345 A  
HETATM    6  C   UNL     1     -11.293  14.267  67.414  1.00  0.00    -0.349 A  
HETATM    7  C   UNL     1     -10.259  16.364  66.764  1.00  0.00    -0.285 A  
HETATM    8  C   UNL     1     -10.655  15.056  66.450  1.00  0.00    -0.310 A  
BRANCH   6   9
HETATM    9  C   UNL     1     -11.772  12.882  67.157  1.00  0.00    -0.377 C  
HETATM   10  O   UNL     1     -12.054  12.177  68.124  1.00  0.00    -0.447 OA 
BRANCH   9  11
HETATM   11  C   UNL     1     -11.861  12.349  65.771  1.00  0.00    -0.406 C  
HETATM   12  C   UNL     1     -10.882  11.712  65.093  1.00  0.00    -0.288 C  
HETATM   13  C   UNL     1      -9.496  11.320  65.463  1.00  0.00    -0.255 C  
HETATM   14  N   UNL     1     -11.350  11.431  63.826  1.00  0.00    -0.524 N  
HETATM   15  H   UNL     1     -10.826  10.944  63.100  1.00  0.00     0.000 HD 
HETATM   16  C   UNL     1     -12.651  11.917  63.690  1.00  0.00    -0.439 C  
HETATM   17  N   UNL     1     -12.946  12.485  64.931  1.00  0.00    -0.805 NA 
HETATM   18  O   UNL     1     -13.368  11.866  62.710  1.00  0.00    -0.129 OA 
ENDBRANCH   9  11
ENDBRANCH   6   9
ENDBRANCH   2   3
TORSDOF 3
ENDMDL
MODEL       13
REMARK 921   NORMALIZED FREE ENERGY PREDICTED BY IDOCK:   -5.54 KCAL/MOL
REMARK 922        TOTAL FREE ENERGY PREDICTED BY IDOCK:   -6.90 KCAL/MOL
REMARK 923 INTER-LIGAND FREE ENERGY PREDICTED BY IDOCK:   -6.66 KCAL/MOL
REMARK 924 INTRA-LIGAND FREE ENERGY PREDICTED BY IDOCK:   -0.24 KCAL/MOL
REMARK 927      BINDING AFFINITY PREDICTED BY RF-SCORE:    0.00 PKD
ROOT
HETATM    1  C   UNL     1      -5.931  16.347  68.876  1.00  0.00    -0.134 C  
HETATM    2  S   UNL     1      -7.079  17.745  68.997  1.00  0.00    -0.187 SA 
ENDROOT
BRANCH   2   3
HETATM    3  C   UNL     1      -8.295  17.231  67.799  1.00  0.00    -0.212 A  
HETATM    4  C   UNL     1      -9.528  17.877  67.703  1.00  0.00    -0.260 A  
HETATM    5  C   UNL     1     -10.467  17.459  66.756  1.00  0.00    -0.257 A  
HETATM    6  C   UNL     1     -10.187  16.392  65.890  1.00  0.00    -0.379 A  
HETATM    7  C   UNL     1      -7.996  16.189  66.913  1.00  0.00    -0.279 A  
HETATM    8  C   UNL     1      -8.932  15.775  65.956  1.00  0.00    -0.322 A  
BRANCH   6   9
HETATM    9  C   UNL     1     -11.227  16.035  64.888  1.00  0.00    -0.312 C  
HETATM   10  O   UNL     1     -11.636  16.919  64.137  1.00  0.00    -1.091 OA 
BRANCH   9  11
HETATM   11  C   UNL     1     -11.792  14.660  64.829  1.00  0.00    -0.440 C  
HETATM   12  C   UNL     1     -12.026  13.844  65.878  1.00  0.00    -0.407 C  
HETATM   13  C   UNL     1     -11.849  14.018  67.344  1.00  0.00    -0.445 C  
HETATM   14  N   UNL     1     -12.498  12.643  65.390  1.00  0.00    -0.452 N  
HETATM   15  H   UNL     1     -12.769  11.842  65.961  1.00  0.00     0.000 HD 
HETATM   16  C   UNL     1     -12.549  12.692  63.997  1.00  0.00    -0.338 C  
HETATM   17  N   UNL     1     -12.102  13.975  63.673  1.00  0.00    -0.520 NA 
HETATM   18  O   UNL     1     -12.897  11.814  63.232  1.00  0.00    -0.627 OA 
ENDBRANCH   9  11
ENDBRANCH   6   9
ENDBRANCH   2   3
TORSDOF 3
ENDMDL
MODEL       14
REMARK 921   NORMALIZED FREE ENERGY PREDICTED BY IDOCK:   -5.54 KCAL/MOL
REMARK 922        TOTAL FREE ENERGY PREDICTED BY IDOCK:   -6.90 KCAL/MOL
REMARK 923 INTER-LIGAND FREE ENERGY PREDICTED BY IDOCK:   -6.44 KCAL/MOL
REMARK 924 INTRA-LIGAND FREE ENERGY PREDICTED BY IDOCK:   -0.46 KCAL/MOL
REMARK 927      BINDING AFFINITY PREDICTED BY RF-SCORE:    0.00 PKD
ROOT
HETATM    1  C   UNL     1     -10.551  19.398  67.408  1.00  0.00    -0.488 C  
HETATM    2  S   UNL     1      -9.937  18.047  68.449  1.00  0.00    -0.395 SA 
ENDROOT
BRANCH   2   3
HETATM    3  C   UNL     1     -10.544  16.657  67.515  1.00  0.00    -0.311 A  
HETATM    4  C   UNL     1     -11.294  15.651  68.126  1.00  0.00    -0.340 A  
HETATM    5  C   UNL     1     -11.762  14.569  67.375  1.00  0.00    -0.425 A  
HETATM    6  C   UNL     1     -11.491  14.479  66.002  1.00  0.00    -0.348 A  
HETATM    7  C   UNL     1     -10.302  16.590  66.138  1.00  0.00    -0.344 A  
HETATM    8  C   UNL     1     -10.780  15.511  65.380  1.00  0.00    -0.422 A  
BRANCH   6   9
HETATM    9  C   UNL     1     -12.058  13.314  65.270  1.00  0.00    -0.418 C  
HETATM   10  O   UNL     1     -13.270  13.292  65.066  1.00  0.00    -0.698 OA 
BRANCH   9  11
HETATM   11  C   UNL     1     -11.190  12.185  64.840  1.00  0.00    -0.323 C  
HETATM   12  C   UNL     1     -10.670  11.226  65.635  1.00  0.00    -0.217 C  
HETATM   13  C   UNL     1     -10.792  10.956  67.092  1.00  0.00    -0.337 C  
HETATM   14  N   UNL     1      -9.881  10.404  64.857  1.00  0.00    -0.312 N  
HETATM   15  H   UNL     1      -9.372   9.587  65.193  1.00  0.00     0.000 HD 
HETATM   16  C   UNL     1      -9.885  10.863  63.539  1.00  0.00    -0.359 C  
HETATM   17  N   UNL     1     -10.720  11.983  63.559  1.00  0.00    -0.433 NA 
HETATM   18  O   UNL     1      -9.291  10.401  62.586  1.00  0.00    -0.270 OA 
ENDBRANCH   9  11
ENDBRANCH   6   9
ENDBRANCH   2   3
TORSDOF 3
ENDMDL
MODEL       15
REMARK 921   NORMALIZED FREE ENERGY PREDICTED BY IDOCK:   -5.52 KCAL/MOL
REMARK 922        TOTAL FREE ENERGY PREDICTED BY IDOCK:   -6.88 KCAL/MOL
REMARK 923 INTER-LIGAND FREE ENERGY PREDICTED BY IDOCK:   -6.58 KCAL/MOL
REMARK 924 INTRA-LIGAND FREE ENERGY PREDICTED BY IDOCK:   -0.30 KCAL/MOL
REMARK 927      BINDING AFFINITY PREDICTED BY RF-SCORE:    0.00 PKD
ROOT
HETATM    1  C   UNL     1      -7.284   7.422  67.403  1.00  0.00    -0.093 C  
HETATM    2  S   UNL     1      -7.488   7.898  65.665  1.00  0.00    -0.084 SA 
ENDROOT
BRANCH   2   3
HETATM    3  C   UNL     1      -8.668   9.219  65.859  1.00  0.00    -0.154 A  
HETATM    4  C   UNL     1      -9.678   9.147  66.819  1.00  0.00    -0.271 A  
HETATM    5  C   UNL     1     -10.593  10.194  66.956  1.00  0.00    -0.290 A  
HETATM    6  C   UNL     1     -10.510  11.330  66.137  1.00  0.00    -0.305 A  
HETATM    7  C   UNL     1      -8.559  10.366  65.064  1.00  0.00    -0.190 A  
HETATM    8  C   UNL     1      -9.469  11.423  65.206  1.00  0.00    -0.233 A  
BRANCH   6   9
HETATM    9  C   UNL     1     -11.501  12.414  66.373  1.00  0.00    -0.373 C  
HETATM   10  O   UNL     1     -12.118  12.414  67.436  1.00  0.00    -0.505 OA 
BRANCH   9  11
HETATM   11  C   UNL     1     -11.773  13.442  65.332  1.00  0.00    -0.331 C  
HETATM   12  C   UNL     1     -12.225  13.214  64.081  1.00  0.00    -0.398 C  
HETATM   13  C   UNL     1     -12.608  11.970  63.363  1.00  0.00    -0.592 C  
HETATM   14  N   UNL     1     -12.289  14.424  63.420  1.00  0.00    -1.088 N  
HETATM   15  H   UNL     1     -12.607  14.554  62.461  1.00  0.00     0.000 HD 
HETATM   16  C   UNL     1     -11.851  15.442  64.268  1.00  0.00    -0.199 C  
HETATM   17  N   UNL     1     -11.537  14.794  65.465  1.00  0.00    -0.330 NA 
HETATM   18  O   UNL     1     -11.756  16.629  64.023  1.00  0.00    -1.143 OA 
ENDBRANCH   9  11
ENDBRANCH   6   9
ENDBRANCH   2   3
TORSDOF 3
ENDMDL
MODEL       16
REMARK 921   NORMALIZED FREE ENERGY PREDICTED BY IDOCK:   -5.52 KCAL/MOL
REMARK 922        TOTAL FREE ENERGY PREDICTED BY IDOCK:   -6.88 KCAL/MOL
REMARK 923 INTER-LIGAND FREE ENERGY PREDICTED BY IDOCK:   -6.49 KCAL/MOL
REMARK 924 INTRA-LIGAND FREE ENERGY PREDICTED BY IDOCK:   -0.39 KCAL/MOL
REMARK 927      BINDING AFFINITY PREDICTED BY RF-SCORE:    0.00 PKD
ROOT
HETATM    1  C   UNL     1     -10.487  19.564  65.957  1.00  0.00    -0.516 C  
HETATM    2  S   UNL     1     -10.155  19.038  67.660  1.00  0.00    -0.399 SA 
ENDROOT
BRANCH   2   3
HETATM    3  C   UNL     1     -10.629  17.325  67.536  1.00  0.00    -0.329 A  
HETATM    4  C   UNL     1     -10.408  16.600  66.365  1.00  0.00    -0.310 A  
HETATM    5  C   UNL     1     -10.786  15.257  66.288  1.00  0.00    -0.312 A  
HETATM    6  C   UNL     1     -11.388  14.618  67.382  1.00  0.00    -0.368 A  
HETATM    7  C   UNL     1     -11.196  16.682  68.642  1.00  0.00    -0.235 A  
HETATM    8  C   UNL     1     -11.567  15.332  68.572  1.00  0.00    -0.368 A  
BRANCH   6   9
HETATM    9  C   UNL     1     -11.726  13.177  67.229  1.00  0.00    -0.374 C  
HETATM   10  O   UNL     1     -11.914  12.515  68.247  1.00  0.00    -0.328 OA 
BRANCH   9  11
HETATM   11  C   UNL     1     -11.787  12.544  65.884  1.00  0.00    -0.430 C  
HETATM   12  C   UNL     1     -10.797  11.855  65.277  1.00  0.00    -0.297 C  
HETATM   13  C   UNL     1      -9.423  11.486  65.706  1.00  0.00    -0.255 C  
HETATM   14  N   UNL     1     -11.239  11.485  64.023  1.00  0.00    -0.364 N  
HETATM   15  H   UNL     1     -10.701  10.944  63.347  1.00  0.00     0.000 HD 
HETATM   16  C   UNL     1     -12.533  11.966  63.823  1.00  0.00    -0.427 C  
HETATM   17  N   UNL     1     -12.852  12.625  65.012  1.00  0.00    -0.816 NA 
HETATM   18  O   UNL     1     -13.228  11.847  62.833  1.00  0.00    -0.358 OA 
ENDBRANCH   9  11
ENDBRANCH   6   9
ENDBRANCH   2   3
TORSDOF 3
ENDMDL
MODEL       17
REMARK 921   NORMALIZED FREE ENERGY PREDICTED BY IDOCK:   -5.48 KCAL/MOL
REMARK 922        TOTAL FREE ENERGY PREDICTED BY IDOCK:   -6.84 KCAL/MOL
REMARK 923 INTER-LIGAND FREE ENERGY PREDICTED BY IDOCK:   -6.75 KCAL/MOL
REMARK 924 INTRA-LIGAND FREE ENERGY PREDICTED BY IDOCK:   -0.08 KCAL/MOL
REMARK 927      BINDING AFFINITY PREDICTED BY RF-SCORE:    0.00 PKD
ROOT
HETATM    1  C   UNL     1     -10.656  11.210  63.552  1.00  0.00    -0.324 C  
HETATM    2  S   UNL     1     -11.834  12.584  63.659  1.00  0.00    -0.559 SA 
ENDROOT
BRANCH   2   3
HETATM    3  C   UNL     1     -11.776  12.885  65.415  1.00  0.00    -0.375 A  
HETATM    4  C   UNL     1     -12.166  14.114  65.947  1.00  0.00    -0.458 A  
HETATM    5  C   UNL     1     -12.114  14.331  67.327  1.00  0.00    -0.390 A  
HETATM    6  C   UNL     1     -11.674  13.320  68.195  1.00  0.00    -0.397 A  
HETATM    7  C   UNL     1     -11.370  11.862  66.279  1.00  0.00    -0.394 A  
HETATM    8  C   UNL     1     -11.326  12.072  67.664  1.00  0.00    -0.375 A  
BRANCH   6   9
HETATM    9  C   UNL     1     -11.683  13.620  69.652  1.00  0.00    -0.320 C  
HETATM   10  O   UNL     1     -11.067  14.609  70.044  1.00  0.00    -0.235 OA 
BRANCH   9  11
HETATM   11  C   UNL     1     -12.378  12.722  70.613  1.00  0.00    -0.297 C  
HETATM   12  C   UNL     1     -13.229  13.099  71.590  1.00  0.00    -0.346 C  
HETATM   13  C   UNL     1     -13.759  14.425  72.003  1.00  0.00    -0.533 C  
HETATM   14  N   UNL     1     -13.606  11.970  72.290  1.00  0.00    -0.504 N  
HETATM   15  H   UNL     1     -14.254  11.956  73.077  1.00  0.00     0.000 HD 
HETATM   16  C   UNL     1     -12.965  10.853  71.755  1.00  0.00    -0.451 C  
HETATM   17  N   UNL     1     -12.202  11.356  70.699  1.00  0.00    -0.381 NA 
HETATM   18  O   UNL     1     -13.044   9.698  72.126  1.00  0.00    -0.414 OA 
ENDBRANCH   9  11
ENDBRANCH   6   9
ENDBRANCH   2   3
TORSDOF 3
ENDMDL
MODEL       18
REMARK 921   NORMALIZED FREE ENERGY PREDICTED BY IDOCK:   -5.47 KCAL/MOL
REMARK 922        TOTAL FREE ENERGY PREDICTED BY IDOCK:   -6.82 KCAL/MOL
REMARK 923 INTER-LIGAND FREE ENERGY PREDICTED BY IDOCK:   -6.35 KCAL/MOL
REMARK 924 INTRA-LIGAND FREE ENERGY PREDICTED BY IDOCK:   -0.47 KCAL/MOL
REMARK 927      BINDING AFFINITY PREDICTED BY RF-SCORE:    0.00 PKD
ROOT
HETATM    1  C   UNL     1     -10.882  19.036  67.342  1.00  0.00    -0.409 C  
HETATM    2  S   UNL     1      -9.869  17.732  68.092  1.00  0.00    -0.346 SA 
ENDROOT
BRANCH   2   3
HETATM    3  C   UNL     1     -10.523  16.318  67.228  1.00  0.00    -0.300 A  
HETATM    4  C   UNL     1     -10.221  16.093  65.884  1.00  0.00    -0.381 A  
HETATM    5  C   UNL     1     -10.743  14.977  65.224  1.00  0.00    -0.406 A  
HETATM    6  C   UNL     1     -11.572  14.068  65.898  1.00  0.00    -0.350 A  
HETATM    7  C   UNL     1     -11.320  15.395  67.914  1.00  0.00    -0.328 A  
HETATM    8  C   UNL     1     -11.836  14.269  67.258  1.00  0.00    -0.444 A  
BRANCH   6   9
HETATM    9  C   UNL     1     -12.055  12.888  65.133  1.00  0.00    -0.445 C  
HETATM   10  O   UNL     1     -13.263  12.781  64.934  1.00  0.00    -0.808 OA 
BRANCH   9  11
HETATM   11  C   UNL     1     -11.108  11.841  64.663  1.00  0.00    -0.303 C  
HETATM   12  C   UNL     1     -10.503  10.907  65.427  1.00  0.00    -0.223 C  
HETATM   13  C   UNL     1     -10.580  10.593  66.878  1.00  0.00    -0.311 C  
HETATM   14  N   UNL     1      -9.664  10.168  64.618  1.00  0.00    -0.314 N  
HETATM   15  H   UNL     1      -9.088   9.386  64.927  1.00  0.00     0.000 HD 
HETATM   16  C   UNL     1      -9.725  10.656  63.313  1.00  0.00    -0.340 C  
HETATM   17  N   UNL     1     -10.644  11.706  63.371  1.00  0.00    -0.406 NA 
HETATM   18  O   UNL     1      -9.111  10.264  62.340  1.00  0.00    -0.236 OA 
ENDBRANCH   9  11
ENDBRANCH   6   9
ENDBRANCH   2   3
TORSDOF 3
ENDMDL
MODEL       19
REMARK 921   NORMALIZED FREE ENERGY PREDICTED BY IDOCK:   -5.45 KCAL/MOL
REMARK 922        TOTAL FREE ENERGY PREDICTED BY IDOCK:   -6.80 KCAL/MOL
REMARK 923 INTER-LIGAND FREE ENERGY PREDICTED BY IDOCK:   -6.41 KCAL/MOL
REMARK 924 INTRA-LIGAND FREE ENERGY PREDICTED BY IDOCK:   -0.39 KCAL/MOL
REMARK 927      BINDING AFFINITY PREDICTED BY RF-SCORE:    0.00 PKD
ROOT
HETATM    1  C   UNL     1     -10.418  19.754  66.804  1.00  0.00    -0.489 C  
HETATM    2  S   UNL     1      -9.882  18.583  68.081  1.00  0.00    -0.366 SA 
ENDROOT
BRANCH   2   3
HETATM    3  C   UNL     1     -10.507  17.072  67.374  1.00  0.00    -0.322 A  
HETATM    4  C   UNL     1     -11.147  16.118  68.166  1.00  0.00    -0.332 A  
HETATM    5  C   UNL     1     -11.632  14.939  67.593  1.00  0.00    -0.357 A  
HETATM    6  C   UNL     1     -11.487  14.698  66.218  1.00  0.00    -0.351 A  
HETATM    7  C   UNL     1     -10.392  16.852  65.997  1.00  0.00    -0.335 A  
HETATM    8  C   UNL     1     -10.887  15.676  65.416  1.00  0.00    -0.394 A  
BRANCH   6   9
HETATM    9  C   UNL     1     -12.063  13.436  65.682  1.00  0.00    -0.434 C  
HETATM   10  O   UNL     1     -13.138  13.495  65.089  1.00  0.00    -0.737 OA 
BRANCH   9  11
HETATM   11  C   UNL     1     -11.382  12.131  65.900  1.00  0.00    -0.356 C  
HETATM   12  C   UNL     1     -10.622  11.465  65.006  1.00  0.00    -0.299 C  
HETATM   13  C   UNL     1     -10.201  11.779  63.615  1.00  0.00    -0.461 C  
HETATM   14  N   UNL     1     -10.226  10.275  65.581  1.00  0.00    -0.261 N  
HETATM   15  H   UNL     1      -9.632   9.575  65.136  1.00  0.00     0.000 HD 
HETATM   16  C   UNL     1     -10.762  10.175  66.865  1.00  0.00    -0.161 C  
HETATM   17  N   UNL     1     -11.481  11.360  67.039  1.00  0.00    -0.487 NA 
HETATM   18  O   UNL     1     -10.639   9.261  67.657  1.00  0.00    -0.263 OA 
ENDBRANCH   9  11
ENDBRANCH   6   9
ENDBRANCH   2   3
TORSDOF 3
ENDMDL
MODEL       20
REMARK 921   NORMALIZED FREE ENERGY PREDICTED BY IDOCK:   -5.44 KCAL/MOL
REMARK 922        TOTAL FREE ENERGY PREDICTED BY IDOCK:   -6.78 KCAL/MOL
REMARK 923 INTER-LIGAND FREE ENERGY PREDICTED BY IDOCK:   -6.44 KCAL/MOL
REMARK 924 INTRA-LIGAND FREE ENERGY PREDICTED BY IDOCK:   -0.35 KCAL/MOL
REMARK 927      BINDING AFFINITY PREDICTED BY RF-SCORE:    0.00 PKD
ROOT
HETATM    1  C   UNL     1     -10.606  18.637  66.853  1.00  0.00    -0.385 C  
HETATM    2  S   UNL     1     -10.165  17.737  68.363  1.00  0.00    -0.387 SA 
ENDROOT
BRANCH   2   3
HETATM    3  C   UNL     1     -10.503  16.073  67.823  1.00  0.00    -0.298 A  
HETATM    4  C   UNL     1      -9.721  15.461  66.842  1.00  0.00    -0.241 A  
HETATM    5  C   UNL     1     -10.002  14.155  66.433  1.00  0.00    -0.302 A  
HETATM    6  C   UNL     1     -11.067  13.440  66.999  1.00  0.00    -0.310 A  
HETATM    7  C   UNL     1     -11.545  15.351  68.416  1.00  0.00    -0.368 A  
HETATM    8  C   UNL     1     -11.823  14.037  68.015  1.00  0.00    -0.403 A  
BRANCH   6   9
HETATM    9  C   UNL     1     -11.275  12.043  66.533  1.00  0.00    -0.334 C  
HETATM   10  O   UNL     1     -11.832  11.254  67.294  1.00  0.00    -0.562 OA 
BRANCH   9  11
HETATM   11  C   UNL     1     -10.780  11.599  65.202  1.00  0.00    -0.296 C  
HETATM   12  C   UNL     1     -11.225  12.022  64.000  1.00  0.00    -0.397 C  
HETATM   13  C   UNL     1     -12.256  13.017  63.604  1.00  0.00    -0.568 C  
HETATM   14  N   UNL     1     -10.545  11.325  63.021  1.00  0.00    -0.771 N  
HETATM   15  H   UNL     1     -10.671  11.449  62.017  1.00  0.00     0.000 HD 
HETATM   16  C   UNL     1      -9.660  10.427  63.617  1.00  0.00    -0.310 C  
HETATM   17  N   UNL     1      -9.828  10.624  64.990  1.00  0.00    -0.268 NA 
HETATM   18  O   UNL     1      -8.913   9.640  63.069  1.00  0.00    -0.239 OA 
ENDBRANCH   9  11
ENDBRANCH   6   9
ENDBRANCH   2   3
TORSDOF 3
ENDMDL
MODEL       21
REMARK 921   NORMALIZED FREE ENERGY PREDICTED BY IDOCK:   -5.44 KCAL/MOL
REMARK 922        TOTAL FREE ENERGY PREDICTED BY IDOCK:   -6.78 KCAL/MOL
REMARK 923 INTER-LIGAND FREE ENERGY PREDICTED BY IDOCK:   -6.78 KCAL/MOL
REMARK 924 INTRA-LIGAND FREE ENERGY PREDICTED BY IDOCK:    0.00 KCAL/MOL
REMARK 927      BINDING AFFINITY PREDICTED BY RF-SCORE:    0.00 PKD
ROOT
HETATM    1  C   UNL     1     -11.977   6.517  71.057  1.00  0.00    -0.297 C  
HETATM    2  S   UNL     1     -10.906   7.660  70.144  1.00  0.00    -0.238 SA 
ENDROOT
BRANCH   2   3
HETATM    3  C   UNL     1     -11.604   9.209  70.681  1.00  0.00    -0.235 A  
HETATM    4  C   UNL     1     -11.234  10.412  70.078  1.00  0.00    -0.385 A  
HETATM    5  C   UNL     1     -11.793  11.616  70.513  1.00  0.00    -0.328 A  
HETATM    6  C   UNL     1     -12.734  11.635  71.554  1.00  0.00    -0.423 A  
HETATM    7  C   UNL     1     -12.568   9.219  71.695  1.00  0.00    -0.446 A  
HETATM    8  C   UNL     1     -13.139  10.424  72.126  1.00  0.00    -0.427 A  
BRANCH   6   9
HETATM    9  C   UNL     1     -13.307  12.955  71.931  1.00  0.00    -0.435 C  
HETATM   10  O   UNL     1     -14.384  12.971  72.525  1.00  0.00    -0.548 OA 
BRANCH   9  11
HETATM   11  C   UNL     1     -12.623  14.222  71.556  1.00  0.00    -0.354 C  
HETATM   12  C   UNL     1     -12.232  15.201  72.399  1.00  0.00    -0.374 C  
HETATM   13  C   UNL     1     -12.309  15.343  73.877  1.00  0.00    -0.764 C  
HETATM   14  N   UNL     1     -11.690  16.223  71.648  1.00  0.00    -0.610 N  
HETATM   15  H   UNL     1     -11.302  17.088  72.024  1.00  0.00     0.000 HD 
HETATM   16  C   UNL     1     -11.753  15.892  70.294  1.00  0.00    -0.340 C  
HETATM   17  N   UNL     1     -12.342  14.626  70.268  1.00  0.00    -0.334 NA 
HETATM   18  O   UNL     1     -11.386  16.557  69.345  1.00  0.00    -0.248 OA 
ENDBRANCH   9  11
ENDBRANCH   6   9
ENDBRANCH   2   3
TORSDOF 3
ENDMDL
MODEL       22
REMARK 921   NORMALIZED FREE ENERGY PREDICTED BY IDOCK:   -5.42 KCAL/MOL
REMARK 922        TOTAL FREE ENERGY PREDICTED BY IDOCK:   -6.76 KCAL/MOL
REMARK 923 INTER-LIGAND FREE ENERGY PREDICTED BY IDOCK:   -6.32 KCAL/MOL
REMARK 924 INTRA-LIGAND FREE ENERGY PREDICTED BY IDOCK:   -0.44 KCAL/MOL
REMARK 927      BINDING AFFINITY PREDICTED BY RF-SCORE:    0.00 PKD
ROOT
HETATM    1  C   UNL     1     -13.938   8.676  72.107  1.00  0.00    -0.435 C  
HETATM    2  S   UNL     1     -12.150   8.414  72.248  1.00  0.00    -0.382 SA 
ENDROOT
BRANCH   2   3
HETATM    3  C   UNL     1     -11.585   9.569  71.013  1.00  0.00    -0.344 A  
HETATM    4  C   UNL     1     -10.444   9.310  70.254  1.00  0.00    -0.271 A  
HETATM    5  C   UNL     1     -10.018  10.228  69.290  1.00  0.00    -0.244 A  
HETATM    6  C   UNL     1     -10.730  11.417  69.069  1.00  0.00    -0.245 A  
HETATM    7  C   UNL     1     -12.318  10.736  70.772  1.00  0.00    -0.480 A  
HETATM    8  C   UNL     1     -11.900  11.654  69.798  1.00  0.00    -0.428 A  
BRANCH   6   9
HETATM    9  C   UNL     1     -10.230  12.322  68.000  1.00  0.00    -0.206 C  
HETATM   10  O   UNL     1      -9.051  12.670  68.039  1.00  0.00    -0.194 OA 
BRANCH   9  11
HETATM   11  C   UNL     1     -11.142  12.831  66.940  1.00  0.00    -0.270 C  
HETATM   12  C   UNL     1     -11.764  14.029  66.926  1.00  0.00    -0.410 C  
HETATM   13  C   UNL     1     -11.741  15.183  67.864  1.00  0.00    -0.275 C  
HETATM   14  N   UNL     1     -12.559  14.087  65.800  1.00  0.00    -0.503 N  
HETATM   15  H   UNL     1     -13.136  14.882  65.528  1.00  0.00     0.000 HD 
HETATM   16  C   UNL     1     -12.453  12.890  65.091  1.00  0.00    -0.501 C  
HETATM   17  N   UNL     1     -11.551  12.121  65.831  1.00  0.00    -0.399 NA 
HETATM   18  O   UNL     1     -13.021  12.578  64.063  1.00  0.00    -0.733 OA 
ENDBRANCH   9  11
ENDBRANCH   6   9
ENDBRANCH   2   3
TORSDOF 3
ENDMDL
MODEL       23
REMARK 921   NORMALIZED FREE ENERGY PREDICTED BY IDOCK:   -5.42 KCAL/MOL
REMARK 922        TOTAL FREE ENERGY PREDICTED BY IDOCK:   -6.76 KCAL/MOL
REMARK 923 INTER-LIGAND FREE ENERGY PREDICTED BY IDOCK:   -6.51 KCAL/MOL
REMARK 924 INTRA-LIGAND FREE ENERGY PREDICTED BY IDOCK:   -0.25 KCAL/MOL
REMARK 927      BINDING AFFINITY PREDICTED BY RF-SCORE:    0.00 PKD
ROOT
HETATM    1  C   UNL     1     -10.427  11.694  63.330  1.00  0.00    -0.426 C  
HETATM    2  S   UNL     1     -11.730  12.925  63.602  1.00  0.00    -0.503 SA 
ENDROOT
BRANCH   2   3
HETATM    3  C   UNL     1     -11.789  12.902  65.382  1.00  0.00    -0.403 A  
HETATM    4  C   UNL     1     -11.252  11.837  66.107  1.00  0.00    -0.363 A  
HETATM    5  C   UNL     1     -11.307  11.839  67.503  1.00  0.00    -0.377 A  
HETATM    6  C   UNL     1     -11.898  12.906  68.196  1.00  0.00    -0.380 A  
HETATM    7  C   UNL     1     -12.347  13.985  66.070  1.00  0.00    -0.504 A  
HETATM    8  C   UNL     1     -12.395  13.995  67.471  1.00  0.00    -0.112 A  
BRANCH   6   9
HETATM    9  C   UNL     1     -11.882  12.846  69.682  1.00  0.00    -0.320 C  
HETATM   10  O   UNL     1     -11.623  11.769  70.216  1.00  0.00    -0.260 OA 
BRANCH   9  11
HETATM   11  C   UNL     1     -12.219  14.042  70.500  1.00  0.00    -0.365 C  
HETATM   12  C   UNL     1     -11.529  15.201  70.547  1.00  0.00    -0.304 C  
HETATM   13  C   UNL     1     -10.308  15.671  69.841  1.00  0.00    -0.322 C  
HETATM   14  N   UNL     1     -12.141  16.029  71.466  1.00  0.00    -0.533 N  
HETATM   15  H   UNL     1     -11.839  16.974  71.699  1.00  0.00     0.000 HD 
HETATM   16  C   UNL     1     -13.237  15.373  72.028  1.00  0.00    -0.429 C  
HETATM   17  N   UNL     1     -13.263  14.127  71.397  1.00  0.00    -0.345 NA 
HETATM   18  O   UNL     1     -13.997  15.786  72.881  1.00  0.00    -0.568 OA 
ENDBRANCH   9  11
ENDBRANCH   6   9
ENDBRANCH   2   3
TORSDOF 3
ENDMDL
MODEL       24
REMARK 921   NORMALIZED FREE ENERGY PREDICTED BY IDOCK:   -5.42 KCAL/MOL
REMARK 922        TOTAL FREE ENERGY PREDICTED BY IDOCK:   -6.76 KCAL/MOL
REMARK 923 INTER-LIGAND FREE ENERGY PREDICTED BY IDOCK:   -6.58 KCAL/MOL
REMARK 924 INTRA-LIGAND FREE ENERGY PREDICTED BY IDOCK:   -0.18 KCAL/MOL
REMARK 927      BINDING AFFINITY PREDICTED BY RF-SCORE:    0.00 PKD
ROOT
HETATM    1  C   UNL     1     -11.639   6.539  70.314  1.00  0.00    -0.409 C  
HETATM    2  S   UNL     1     -11.459   7.451  71.871  1.00  0.00    -0.276 SA 
ENDROOT
BRANCH   2   3
HETATM    3  C   UNL     1     -11.663   9.114  71.262  1.00  0.00    -0.326 A  
HETATM    4  C   UNL     1     -10.823   9.626  70.272  1.00  0.00    -0.339 A  
HETATM    5  C   UNL     1     -10.999  10.932  69.807  1.00  0.00    -0.290 A  
HETATM    6  C   UNL     1     -12.020  11.744  70.323  1.00  0.00    -0.429 A  
HETATM    7  C   UNL     1     -12.705   9.908  71.754  1.00  0.00    -0.523 A  
HETATM    8  C   UNL     1     -12.891  11.215  71.282  1.00  0.00    -0.515 A  
BRANCH   6   9
HETATM    9  C   UNL     1     -12.162  13.108  69.748  1.00  0.00    -0.202 C  
HETATM   10  O   UNL     1     -12.120  13.229  68.525  1.00  0.00    -0.341 OA 
BRANCH   9  11
HETATM   11  C   UNL     1     -12.302  14.299  70.628  1.00  0.00    -0.361 C  
HETATM   12  C   UNL     1     -11.454  15.347  70.700  1.00  0.00    -0.332 C  
HETATM   13  C   UNL     1     -10.202  15.677  69.969  1.00  0.00    -0.277 C  
HETATM   14  N   UNL     1     -11.915  16.207  71.676  1.00  0.00    -0.597 N  
HETATM   15  H   UNL     1     -11.476  17.089  71.938  1.00  0.00     0.000 HD 
HETATM   16  C   UNL     1     -13.074  15.683  72.250  1.00  0.00    -0.456 C  
HETATM   17  N   UNL     1     -13.295  14.485  71.567  1.00  0.00    -0.344 NA 
HETATM   18  O   UNL     1     -13.742  16.157  73.148  1.00  0.00    -0.564 OA 
ENDBRANCH   9  11
ENDBRANCH   6   9
ENDBRANCH   2   3
TORSDOF 3
ENDMDL
MODEL       25
REMARK 921   NORMALIZED FREE ENERGY PREDICTED BY IDOCK:   -5.41 KCAL/MOL
REMARK 922        TOTAL FREE ENERGY PREDICTED BY IDOCK:   -6.75 KCAL/MOL
REMARK 923 INTER-LIGAND FREE ENERGY PREDICTED BY IDOCK:   -6.33 KCAL/MOL
REMARK 924 INTRA-LIGAND FREE ENERGY PREDICTED BY IDOCK:   -0.43 KCAL/MOL
REMARK 927      BINDING AFFINITY PREDICTED BY RF-SCORE:    0.00 PKD
ROOT
HETATM    1  C   UNL     1     -10.374  10.860  64.302  1.00  0.00    -0.368 C  
HETATM    2  S   UNL     1     -11.552  12.093  63.687  1.00  0.00    -0.500 SA 
ENDROOT
BRANCH   2   3
HETATM    3  C   UNL     1     -11.409  13.308  64.983  1.00  0.00    -0.305 A  
HETATM    4  C   UNL     1     -12.153  13.196  66.159  1.00  0.00    -0.479 A  
HETATM    5  C   UNL     1     -12.026  14.158  67.165  1.00  0.00    -0.460 A  
HETATM    6  C   UNL     1     -11.152  15.244  67.011  1.00  0.00    -0.305 A  
HETATM    7  C   UNL     1     -10.509  14.370  64.841  1.00  0.00    -0.448 A  
HETATM    8  C   UNL     1     -10.372  15.331  65.852  1.00  0.00    -0.346 A  
BRANCH   6   9
HETATM    9  C   UNL     1     -11.050  16.203  68.144  1.00  0.00    -0.332 C  
HETATM   10  O   UNL     1     -11.677  15.954  69.172  1.00  0.00    -0.376 OA 
BRANCH   9  11
HETATM   11  C   UNL     1     -10.251  17.452  68.019  1.00  0.00    -0.345 C  
HETATM   12  C   UNL     1      -8.951  17.608  68.346  1.00  0.00    -0.280 C  
HETATM   13  C   UNL     1      -7.928  16.665  68.872  1.00  0.00    -0.236 C  
HETATM   14  N   UNL     1      -8.609  18.928  68.133  1.00  0.00    -0.305 N  
HETATM   15  H   UNL     1      -7.684  19.328  68.286  1.00  0.00     0.000 HD 
HETATM   16  C   UNL     1      -9.725  19.631  67.677  1.00  0.00    -0.358 C  
HETATM   17  N   UNL     1     -10.741  18.675  67.611  1.00  0.00    -0.417 NA 
HETATM   18  O   UNL     1      -9.801  20.812  67.402  1.00  0.00    -0.464 OA 
ENDBRANCH   9  11
ENDBRANCH   6   9
ENDBRANCH   2   3
TORSDOF 3
ENDMDL
MODEL       26
REMARK 921   NORMALIZED FREE ENERGY PREDICTED BY IDOCK:   -5.37 KCAL/MOL
REMARK 922        TOTAL FREE ENERGY PREDICTED BY IDOCK:   -6.71 KCAL/MOL
REMARK 923 INTER-LIGAND FREE ENERGY PREDICTED BY IDOCK:   -6.28 KCAL/MOL
REMARK 924 INTRA-LIGAND FREE ENERGY PREDICTED BY IDOCK:   -0.43 KCAL/MOL
REMARK 927      BINDING AFFINITY PREDICTED BY RF-SCORE:    0.00 PKD
ROOT
HETATM    1  C   UNL     1      -6.441   9.263  64.211  1.00  0.00    -0.086 C  
HETATM    2  S   UNL     1      -7.962   8.546  63.531  1.00  0.00    -0.157 SA 
ENDROOT
BRANCH   2   3
HETATM    3  C   UNL     1      -9.120   9.818  63.996  1.00  0.00    -0.237 A  
HETATM    4  C   UNL     1      -9.492  10.000  65.329  1.00  0.00    -0.323 A  
HETATM    5  C   UNL     1     -10.401  11.004  65.673  1.00  0.00    -0.311 A  
HETATM    6  C   UNL     1     -10.948  11.843  64.691  1.00  0.00    -0.370 A  
HETATM    7  C   UNL     1      -9.635  10.676  63.018  1.00  0.00    -0.379 A  
HETATM    8  C   UNL     1     -10.539  11.691  63.362  1.00  0.00    -0.472 A  
BRANCH   6   9
HETATM    9  C   UNL     1     -11.879  12.910  65.147  1.00  0.00    -0.380 C  
HETATM   10  O   UNL     1     -13.087  12.723  65.009  1.00  0.00    -0.811 OA 
BRANCH   9  11
HETATM   11  C   UNL     1     -11.364  14.187  65.710  1.00  0.00    -0.317 C  
HETATM   12  C   UNL     1     -11.364  14.548  67.010  1.00  0.00    -0.349 C  
HETATM   13  C   UNL     1     -11.810  13.851  68.245  1.00  0.00    -0.412 C  
HETATM   14  N   UNL     1     -10.851  15.826  67.102  1.00  0.00    -0.315 N  
HETATM   15  H   UNL     1     -10.724  16.348  67.968  1.00  0.00     0.000 HD 
HETATM   16  C   UNL     1     -10.534  16.294  65.826  1.00  0.00    -0.364 C  
HETATM   17  N   UNL     1     -10.864  15.239  64.972  1.00  0.00    -0.419 NA 
HETATM   18  O   UNL     1     -10.079  17.378  65.521  1.00  0.00    -0.579 OA 
ENDBRANCH   9  11
ENDBRANCH   6   9
ENDBRANCH   2   3
TORSDOF 3
ENDMDL
MODEL       27
REMARK 921   NORMALIZED FREE ENERGY PREDICTED BY IDOCK:   -5.35 KCAL/MOL
REMARK 922        TOTAL FREE ENERGY PREDICTED BY IDOCK:   -6.67 KCAL/MOL
REMARK 923 INTER-LIGAND FREE ENERGY PREDICTED BY IDOCK:   -6.43 KCAL/MOL
REMARK 924 INTRA-LIGAND FREE ENERGY PREDICTED BY IDOCK:   -0.24 KCAL/MOL
REMARK 927      BINDING AFFINITY PREDICTED BY RF-SCORE:    0.00 PKD
ROOT
HETATM    1  C   UNL     1      -6.335  17.215  69.592  1.00  0.00    -0.209 C  
HETATM    2  S   UNL     1      -7.155  18.068  68.218  1.00  0.00    -0.250 SA 
ENDROOT
BRANCH   2   3
HETATM    3  C   UNL     1      -8.453  16.896  67.877  1.00  0.00    -0.203 A  
HETATM    4  C   UNL     1      -9.788  17.205  68.137  1.00  0.00    -0.281 A  
HETATM    5  C   UNL     1     -10.792  16.272  67.861  1.00  0.00    -0.330 A  
HETATM    6  C   UNL     1     -10.475  15.018  67.318  1.00  0.00    -0.265 A  
HETATM    7  C   UNL     1      -8.135  15.660  67.302  1.00  0.00    -0.224 A  
HETATM    8  C   UNL     1      -9.140  14.727  67.014  1.00  0.00    -0.257 A  
BRANCH   6   9
HETATM    9  C   UNL     1     -11.606  14.099  67.020  1.00  0.00    -0.382 C  
HETATM   10  O   UNL     1     -12.237  13.631  67.966  1.00  0.00    -0.323 OA 
BRANCH   9  11
HETATM   11  C   UNL     1     -11.933  13.717  65.620  1.00  0.00    -0.395 C  
HETATM   12  C   UNL     1     -11.900  14.526  64.540  1.00  0.00    -0.446 C  
HETATM   13  C   UNL     1     -11.529  15.955  64.368  1.00  0.00    -0.268 C  
HETATM   14  N   UNL     1     -12.326  13.800  63.446  1.00  0.00    -1.100 N  
HETATM   15  H   UNL     1     -12.392  14.157  62.493  1.00  0.00     0.000 HD 
HETATM   16  C   UNL     1     -12.654  12.504  63.845  1.00  0.00    -0.387 C  
HETATM   17  N   UNL     1     -12.392  12.481  65.217  1.00  0.00    -0.612 NA 
HETATM   18  O   UNL     1     -13.079  11.597  63.157  1.00  0.00    -0.497 OA 
ENDBRANCH   9  11
ENDBRANCH   6   9
ENDBRANCH   2   3
TORSDOF 3
ENDMDL
MODEL       28
REMARK 921   NORMALIZED FREE ENERGY PREDICTED BY IDOCK:   -5.30 KCAL/MOL
REMARK 922        TOTAL FREE ENERGY PREDICTED BY IDOCK:   -6.63 KCAL/MOL
REMARK 923 INTER-LIGAND FREE ENERGY PREDICTED BY IDOCK:   -6.15 KCAL/MOL
REMARK 924 INTRA-LIGAND FREE ENERGY PREDICTED BY IDOCK:   -0.47 KCAL/MOL
REMARK 927      BINDING AFFINITY PREDICTED BY RF-SCORE:    0.00 PKD
ROOT
HETATM    1  C   UNL     1     -10.150  10.142  65.770  1.00  0.00    -0.254 C  
HETATM    2  S   UNL     1     -11.140  10.853  67.112  1.00  0.00    -0.169 SA 
ENDROOT
BRANCH   2   3
HETATM    3  C   UNL     1     -11.028  12.578  66.677  1.00  0.00    -0.266 A  
HETATM    4  C   UNL     1     -10.376  12.985  65.512  1.00  0.00    -0.304 A  
HETATM    5  C   UNL     1     -10.300  14.342  65.187  1.00  0.00    -0.447 A  
HETATM    6  C   UNL     1     -10.879  15.312  66.020  1.00  0.00    -0.331 A  
HETATM    7  C   UNL     1     -11.638  13.538  67.491  1.00  0.00    -0.385 A  
HETATM    8  C   UNL     1     -11.573  14.899  67.163  1.00  0.00    -0.327 A  
BRANCH   6   9
HETATM    9  C   UNL     1     -10.785  16.730  65.582  1.00  0.00    -0.192 C  
HETATM   10  O   UNL     1     -11.168  17.014  64.449  1.00  0.00    -1.167 OA 
BRANCH   9  11
HETATM   11  C   UNL     1     -10.199  17.768  66.472  1.00  0.00    -0.358 C  
HETATM   12  C   UNL     1      -8.887  17.955  66.730  1.00  0.00    -0.258 C  
HETATM   13  C   UNL     1      -7.661  17.273  66.238  1.00  0.00    -0.360 C  
HETATM   14  N   UNL     1      -8.771  18.980  67.646  1.00  0.00    -0.286 N  
HETATM   15  H   UNL     1      -7.892  19.343  68.014  1.00  0.00     0.000 HD 
HETATM   16  C   UNL     1     -10.040  19.444  67.991  1.00  0.00    -0.412 C  
HETATM   17  N   UNL     1     -10.918  18.665  67.234  1.00  0.00    -0.299 NA 
HETATM   18  O   UNL     1     -10.325  20.324  68.779  1.00  0.00    -0.340 OA 
ENDBRANCH   9  11
ENDBRANCH   6   9
ENDBRANCH   2   3
TORSDOF 3
ENDMDL
MODEL       29
REMARK 921   NORMALIZED FREE ENERGY PREDICTED BY IDOCK:   -5.27 KCAL/MOL
REMARK 922        TOTAL FREE ENERGY PREDICTED BY IDOCK:   -6.59 KCAL/MOL
REMARK 923 INTER-LIGAND FREE ENERGY PREDICTED BY IDOCK:   -6.15 KCAL/MOL
REMARK 924 INTRA-LIGAND FREE ENERGY PREDICTED BY IDOCK:   -0.44 KCAL/MOL
REMARK 927      BINDING AFFINITY PREDICTED BY RF-SCORE:    0.00 PKD
ROOT
HETATM    1  C   UNL     1     -10.171  11.543  63.357  1.00  0.00    -0.420 C  
HETATM    2  S   UNL     1     -11.843  12.232  63.488  1.00  0.00    -0.512 SA 
ENDROOT
BRANCH   2   3
HETATM    3  C   UNL     1     -11.591  13.357  64.847  1.00  0.00    -0.330 A  
HETATM    4  C   UNL     1     -12.351  13.260  66.013  1.00  0.00    -0.449 A  
HETATM    5  C   UNL     1     -12.137  14.152  67.068  1.00  0.00    -0.449 A  
HETATM    6  C   UNL     1     -11.157  15.151  66.973  1.00  0.00    -0.328 A  
HETATM    7  C   UNL     1     -10.588  14.330  64.762  1.00  0.00    -0.434 A  
HETATM    8  C   UNL     1     -10.364  15.219  65.823  1.00  0.00    -0.364 A  
BRANCH   6   9
HETATM    9  C   UNL     1     -10.969  16.035  68.155  1.00  0.00    -0.339 C  
HETATM   10  O   UNL     1     -11.809  15.991  69.052  1.00  0.00    -0.362 OA 
BRANCH   9  11
HETATM   11  C   UNL     1      -9.824  16.982  68.227  1.00  0.00    -0.278 C  
HETATM   12  C   UNL     1      -9.824  18.272  67.828  1.00  0.00    -0.318 C  
HETATM   13  C   UNL     1     -10.882  19.144  67.253  1.00  0.00    -0.529 C  
HETATM   14  N   UNL     1      -8.554  18.779  68.014  1.00  0.00    -0.289 N  
HETATM   15  H   UNL     1      -8.267  19.735  67.808  1.00  0.00     0.000 HD 
HETATM   16  C   UNL     1      -7.724  17.782  68.527  1.00  0.00    -0.289 C  
HETATM   17  N   UNL     1      -8.552  16.664  68.654  1.00  0.00    -0.244 NA 
HETATM   18  O   UNL     1      -6.542  17.861  68.797  1.00  0.00    -0.216 OA 
ENDBRANCH   9  11
ENDBRANCH   6   9
ENDBRANCH   2   3
TORSDOF 3
ENDMDL
MODEL       30
REMARK 921   NORMALIZED FREE ENERGY PREDICTED BY IDOCK:   -5.27 KCAL/MOL
REMARK 922        TOTAL FREE ENERGY PREDICTED BY IDOCK:   -6.58 KCAL/MOL
REMARK 923 INTER-LIGAND FREE ENERGY PREDICTED BY IDOCK:   -6.20 KCAL/MOL
REMARK 924 INTRA-LIGAND FREE ENERGY PREDICTED BY IDOCK:   -0.38 KCAL/MOL
REMARK 927      BINDING AFFINITY PREDICTED BY RF-SCORE:    0.00 PKD
ROOT
HETATM    1  C   UNL     1      -6.013  19.465  67.495  1.00  0.00    -0.193 C  
HETATM    2  S   UNL     1      -7.507  19.320  68.512  1.00  0.00    -0.336 SA 
ENDROOT
BRANCH   2   3
HETATM    3  C   UNL     1      -8.504  18.318  67.427  1.00  0.00    -0.249 A  
HETATM    4  C   UNL     1      -8.131  17.011  67.109  1.00  0.00    -0.216 A  
HETATM    5  C   UNL     1      -8.927  16.240  66.257  1.00  0.00    -0.366 A  
HETATM    6  C   UNL     1     -10.110  16.764  65.713  1.00  0.00    -0.276 A  
HETATM    7  C   UNL     1      -9.701  18.831  66.916  1.00  0.00    -0.344 A  
HETATM    8  C   UNL     1     -10.508  18.058  66.069  1.00  0.00    -0.317 A  
BRANCH   6   9
HETATM    9  C   UNL     1     -10.917  15.865  64.846  1.00  0.00    -0.411 C  
HETATM   10  O   UNL     1     -11.599  16.375  63.959  1.00  0.00    -1.071 OA 
BRANCH   9  11
HETATM   11  C   UNL     1     -10.938  14.395  65.076  1.00  0.00    -0.389 C  
HETATM   12  C   UNL     1     -11.395  13.763  66.177  1.00  0.00    -0.314 C  
HETATM   13  C   UNL     1     -12.017  14.258  67.434  1.00  0.00    -0.426 C  
HETATM   14  N   UNL     1     -11.184  12.409  66.014  1.00  0.00    -0.318 N  
HETATM   15  H   UNL     1     -11.442  11.688  66.687  1.00  0.00     0.000 HD 
HETATM   16  C   UNL     1     -10.562  12.178  64.787  1.00  0.00    -0.296 C  
HETATM   17  N   UNL     1     -10.423  13.446  64.218  1.00  0.00    -0.397 NA 
HETATM   18  O   UNL     1     -10.210  11.114  64.317  1.00  0.00    -0.286 OA 
ENDBRANCH   9  11
ENDBRANCH   6   9
ENDBRANCH   2   3
TORSDOF 3
ENDMDL
MODEL       31
REMARK 921   NORMALIZED FREE ENERGY PREDICTED BY IDOCK:   -5.25 KCAL/MOL
REMARK 922        TOTAL FREE ENERGY PREDICTED BY IDOCK:   -6.56 KCAL/MOL
REMARK 923 INTER-LIGAND FREE ENERGY PREDICTED BY IDOCK:   -6.56 KCAL/MOL
REMARK 924 INTRA-LIGAND FREE ENERGY PREDICTED BY IDOCK:    0.00 KCAL/MOL
REMARK 927      BINDING AFFINITY PREDICTED BY RF-SCORE:    0.00 PKD
ROOT
HETATM    1  C   UNL     1     -10.206  11.665  63.180  1.00  0.00    -0.354 C  
HETATM    2  S   UNL     1     -11.380  12.842  63.905  1.00  0.00    -0.466 SA 
ENDROOT
BRANCH   2   3
HETATM    3  C   UNL     1     -11.319  12.308  65.604  1.00  0.00    -0.350 A  
HETATM    4  C   UNL     1     -10.615  11.161  65.973  1.00  0.00    -0.298 A  
HETATM    5  C   UNL     1     -10.579  10.759  67.311  1.00  0.00    -0.304 A  
HETATM    6  C   UNL     1     -11.242  11.500  68.301  1.00  0.00    -0.322 A  
HETATM    7  C   UNL     1     -11.953  13.070  66.592  1.00  0.00    -0.453 A  
HETATM    8  C   UNL     1     -11.909  12.676  67.937  1.00  0.00    -0.388 A  
BRANCH   6   9
HETATM    9  C   UNL     1     -11.123  11.025  69.705  1.00  0.00    -0.256 C  
HETATM   10  O   UNL     1     -10.214  10.242  69.976  1.00  0.00    -0.246 OA 
BRANCH   9  11
HETATM   11  C   UNL     1     -12.103  11.445  70.741  1.00  0.00    -0.332 C  
HETATM   12  C   UNL     1     -12.830  10.629  71.534  1.00  0.00    -0.462 C  
HETATM   13  C   UNL     1     -12.887   9.150  71.669  1.00  0.00    -0.431 C  
HETATM   14  N   UNL     1     -13.657  11.413  72.314  1.00  0.00    -0.450 N  
HETATM   15  H   UNL     1     -14.309  11.063  73.014  1.00  0.00     0.000 HD 
HETATM   16  C   UNL     1     -13.461  12.757  71.996  1.00  0.00    -0.444 C  
HETATM   17  N   UNL     1     -12.476  12.746  71.006  1.00  0.00    -0.347 NA 
HETATM   18  O   UNL     1     -14.025  13.725  72.467  1.00  0.00    -0.655 OA 
ENDBRANCH   9  11
ENDBRANCH   6   9
ENDBRANCH   2   3
TORSDOF 3
ENDMDL
MODEL       32
REMARK 921   NORMALIZED FREE ENERGY PREDICTED BY IDOCK:   -5.24 KCAL/MOL
REMARK 922        TOTAL FREE ENERGY PREDICTED BY IDOCK:   -6.55 KCAL/MOL
REMARK 923 INTER-LIGAND FREE ENERGY PREDICTED BY IDOCK:   -6.11 KCAL/MOL
REMARK 924 INTRA-LIGAND FREE ENERGY PREDICTED BY IDOCK:   -0.44 KCAL/MOL
REMARK 927      BINDING AFFINITY PREDICTED BY RF-SCORE:    0.00 PKD
ROOT
HETATM    1  C   UNL     1     -11.600   8.633  71.996  1.00  0.00    -0.370 C  
HETATM    2  S   UNL     1     -13.230   9.426  72.054  1.00  0.00    -0.474 SA 
ENDROOT
BRANCH   2   3
HETATM    3  C   UNL     1     -12.817  11.000  71.330  1.00  0.00    -0.443 A  
HETATM    4  C   UNL     1     -13.209  12.195  71.935  1.00  0.00    -0.474 A  
HETATM    5  C   UNL     1     -12.874  13.421  71.351  1.00  0.00    -0.420 A  
HETATM    6  C   UNL     1     -12.140  13.469  70.157  1.00  0.00    -0.425 A  
HETATM    7  C   UNL     1     -12.053  11.044  70.158  1.00  0.00    -0.438 A  
HETATM    8  C   UNL     1     -11.707  12.271  69.576  1.00  0.00    -0.398 A  
BRANCH   6   9
HETATM    9  C   UNL     1     -11.795  14.814  69.623  1.00  0.00    -0.319 C  
HETATM   10  O   UNL     1     -12.252  15.800  70.196  1.00  0.00    -0.374 OA 
BRANCH   9  11
HETATM   11  C   UNL     1     -10.959  14.960  68.401  1.00  0.00    -0.261 C  
HETATM   12  C   UNL     1      -9.633  15.210  68.362  1.00  0.00    -0.212 C  
HETATM   13  C   UNL     1      -8.613  15.385  69.429  1.00  0.00    -0.249 C  
HETATM   14  N   UNL     1      -9.257  15.327  67.039  1.00  0.00    -0.208 N  
HETATM   15  H   UNL     1      -8.309  15.505  66.711  1.00  0.00     0.000 HD 
HETATM   16  C   UNL     1     -10.375  15.164  66.220  1.00  0.00    -0.294 C  
HETATM   17  N   UNL     1     -11.429  14.930  67.105  1.00  0.00    -0.353 NA 
HETATM   18  O   UNL     1     -10.425  15.218  65.007  1.00  0.00    -0.399 OA 
ENDBRANCH   9  11
ENDBRANCH   6   9
ENDBRANCH   2   3
TORSDOF 3
ENDMDL
MODEL       33
REMARK 921   NORMALIZED FREE ENERGY PREDICTED BY IDOCK:   -5.23 KCAL/MOL
REMARK 922        TOTAL FREE ENERGY PREDICTED BY IDOCK:   -6.53 KCAL/MOL
REMARK 923 INTER-LIGAND FREE ENERGY PREDICTED BY IDOCK:   -6.10 KCAL/MOL
REMARK 924 INTRA-LIGAND FREE ENERGY PREDICTED BY IDOCK:   -0.44 KCAL/MOL
REMARK 927      BINDING AFFINITY PREDICTED BY RF-SCORE:    0.00 PKD
ROOT
HETATM    1  C   UNL     1     -10.768  11.569  63.505  1.00  0.00    -0.414 C  
HETATM    2  S   UNL     1     -11.992  12.905  63.580  1.00  0.00    -0.549 SA 
ENDROOT
BRANCH   2   3
HETATM    3  C   UNL     1     -11.118  14.045  64.635  1.00  0.00    -0.382 A  
HETATM    4  C   UNL     1     -10.208  13.589  65.589  1.00  0.00    -0.306 A  
HETATM    5  C   UNL     1      -9.531  14.499  66.406  1.00  0.00    -0.316 A  
HETATM    6  C   UNL     1      -9.753  15.878  66.279  1.00  0.00    -0.332 A  
HETATM    7  C   UNL     1     -11.316  15.421  64.480  1.00  0.00    -0.321 A  
HETATM    8  C   UNL     1     -10.631  16.338  65.291  1.00  0.00    -0.357 A  
BRANCH   6   9
HETATM    9  C   UNL     1      -8.965  16.780  67.162  1.00  0.00    -0.204 C  
HETATM   10  O   UNL     1      -8.690  16.387  68.295  1.00  0.00    -0.190 OA 
BRANCH   9  11
HETATM   11  C   UNL     1      -8.564  18.138  66.707  1.00  0.00    -0.259 C  
HETATM   12  C   UNL     1      -9.181  19.299  67.010  1.00  0.00    -0.307 C  
HETATM   13  C   UNL     1     -10.360  19.618  67.858  1.00  0.00    -0.583 C  
HETATM   14  N   UNL     1      -8.529  20.318  66.345  1.00  0.00    -0.532 N  
HETATM   15  H   UNL     1      -8.774  21.306  66.399  1.00  0.00     0.000 HD 
HETATM   16  C   UNL     1      -7.485  19.788  65.587  1.00  0.00    -0.251 C  
HETATM   17  N   UNL     1      -7.529  18.415  65.838  1.00  0.00    -0.484 NA 
HETATM   18  O   UNL     1      -6.711  20.383  64.863  1.00  0.00    -0.311 OA 
ENDBRANCH   9  11
ENDBRANCH   6   9
ENDBRANCH   2   3
TORSDOF 3
ENDMDL
MODEL       34
REMARK 921   NORMALIZED FREE ENERGY PREDICTED BY IDOCK:   -5.23 KCAL/MOL
REMARK 922        TOTAL FREE ENERGY PREDICTED BY IDOCK:   -6.53 KCAL/MOL
REMARK 923 INTER-LIGAND FREE ENERGY PREDICTED BY IDOCK:   -6.10 KCAL/MOL
REMARK 924 INTRA-LIGAND FREE ENERGY PREDICTED BY IDOCK:   -0.43 KCAL/MOL
REMARK 927      BINDING AFFINITY PREDICTED BY RF-SCORE:    0.00 PKD
ROOT
HETATM    1  C   UNL     1      -8.316   8.397  64.778  1.00  0.00    -0.141 C  
HETATM    2  S   UNL     1      -8.628   9.407  63.305  1.00  0.00    -0.201 SA 
ENDROOT
BRANCH   2   3
HETATM    3  C   UNL     1      -9.701  10.639  64.015  1.00  0.00    -0.315 A  
HETATM    4  C   UNL     1     -10.006  10.629  65.377  1.00  0.00    -0.343 A  
HETATM    5  C   UNL     1     -10.849  11.605  65.916  1.00  0.00    -0.339 A  
HETATM    6  C   UNL     1     -11.397  12.608  65.101  1.00  0.00    -0.343 A  
HETATM    7  C   UNL     1     -10.216  11.658  63.206  1.00  0.00    -0.445 A  
HETATM    8  C   UNL     1     -11.053  12.645  63.745  1.00  0.00    -0.504 A  
BRANCH   6   9
HETATM    9  C   UNL     1     -12.254  13.629  65.760  1.00  0.00    -0.464 C  
HETATM   10  O   UNL     1     -13.311  13.939  65.214  1.00  0.00    -0.732 OA 
BRANCH   9  11
HETATM   11  C   UNL     1     -11.823  14.292  67.020  1.00  0.00    -0.428 C  
HETATM   12  C   UNL     1     -11.021  15.373  67.123  1.00  0.00    -0.317 C  
HETATM   13  C   UNL     1     -10.363  16.234  66.105  1.00  0.00    -0.352 C  
HETATM   14  N   UNL     1     -10.822  15.635  68.463  1.00  0.00    -0.268 N  
HETATM   15  H   UNL     1     -10.265  16.403  68.836  1.00  0.00     0.000 HD 
HETATM   16  C   UNL     1     -11.500  14.687  69.229  1.00  0.00    -0.291 C  
HETATM   17  N   UNL     1     -12.124  13.858  68.294  1.00  0.00    -0.346 NA 
HETATM   18  O   UNL     1     -11.537  14.594  70.441  1.00  0.00    -0.269 OA 
ENDBRANCH   9  11
ENDBRANCH   6   9
ENDBRANCH   2   3
TORSDOF 3
ENDMDL
MODEL       35
REMARK 921   NORMALIZED FREE ENERGY PREDICTED BY IDOCK:   -5.22 KCAL/MOL
REMARK 922        TOTAL FREE ENERGY PREDICTED BY IDOCK:   -6.53 KCAL/MOL
REMARK 923 INTER-LIGAND FREE ENERGY PREDICTED BY IDOCK:   -6.16 KCAL/MOL
REMARK 924 INTRA-LIGAND FREE ENERGY PREDICTED BY IDOCK:   -0.37 KCAL/MOL
REMARK 927      BINDING AFFINITY PREDICTED BY RF-SCORE:    0.00 PKD
ROOT
HETATM    1  C   UNL     1     -10.614  12.731  65.352  1.00  0.00    -0.287 C  
HETATM    2  S   UNL     1     -10.959  14.088  66.504  1.00  0.00    -0.310 SA 
ENDROOT
BRANCH   2   3
HETATM    3  C   UNL     1     -11.447  13.143  67.933  1.00  0.00    -0.308 A  
HETATM    4  C   UNL     1     -11.812  13.774  69.123  1.00  0.00    -0.398 A  
HETATM    5  C   UNL     1     -12.193  13.015  70.233  1.00  0.00    -0.368 A  
HETATM    6  C   UNL     1     -12.218  11.614  70.168  1.00  0.00    -0.367 A  
HETATM    7  C   UNL     1     -11.505  11.748  67.853  1.00  0.00    -0.387 A  
HETATM    8  C   UNL     1     -11.897  10.983  68.961  1.00  0.00    -0.399 A  
BRANCH   6   9
HETATM    9  C   UNL     1     -12.670  10.884  71.382  1.00  0.00    -0.434 C  
HETATM   10  O   UNL     1     -13.451  11.452  72.143  1.00  0.00    -0.397 OA 
BRANCH   9  11
HETATM   11  C   UNL     1     -12.155   9.524  71.693  1.00  0.00    -0.398 C  
HETATM   12  C   UNL     1     -12.893   8.406  71.864  1.00  0.00    -0.353 C  
HETATM   13  C   UNL     1     -14.354   8.147  71.781  1.00  0.00    -0.582 C  
HETATM   14  N   UNL     1     -12.039   7.373  72.193  1.00  0.00    -0.393 N  
HETATM   15  H   UNL     1     -12.322   6.410  72.368  1.00  0.00     0.000 HD 
HETATM   16  C   UNL     1     -10.729   7.850  72.248  1.00  0.00    -0.283 C  
HETATM   17  N   UNL     1     -10.833   9.205  71.926  1.00  0.00    -0.347 NA 
HETATM   18  O   UNL     1      -9.720   7.230  72.523  1.00  0.00    -0.148 OA 
ENDBRANCH   9  11
ENDBRANCH   6   9
ENDBRANCH   2   3
TORSDOF 3
ENDMDL
MODEL       36
REMARK 921   NORMALIZED FREE ENERGY PREDICTED BY IDOCK:   -5.19 KCAL/MOL
REMARK 922        TOTAL FREE ENERGY PREDICTED BY IDOCK:   -6.49 KCAL/MOL
REMARK 923 INTER-LIGAND FREE ENERGY PREDICTED BY IDOCK:   -6.04 KCAL/MOL
REMARK 924 INTRA-LIGAND FREE ENERGY PREDICTED BY IDOCK:   -0.45 KCAL/MOL
REMARK 927      BINDING AFFINITY PREDICTED BY RF-SCORE:    0.00 PKD
ROOT
HETATM    1  C   UNL     1      -8.718   7.211  66.957  1.00  0.00    -0.123 C  
HETATM    2  S   UNL     1      -8.235   7.941  65.369  1.00  0.00    -0.137 SA 
ENDROOT
BRANCH   2   3
HETATM    3  C   UNL     1      -9.307   9.364  65.362  1.00  0.00    -0.247 A  
HETATM    4  C   UNL     1      -9.533  10.090  64.191  1.00  0.00    -0.314 A  
HETATM    5  C   UNL     1     -10.377  11.203  64.206  1.00  0.00    -0.413 A  
HETATM    6  C   UNL     1     -11.011  11.605  65.391  1.00  0.00    -0.328 A  
HETATM    7  C   UNL     1      -9.965   9.741  66.538  1.00  0.00    -0.304 A  
HETATM    8  C   UNL     1     -10.821  10.850  66.554  1.00  0.00    -0.234 A  
BRANCH   6   9
HETATM    9  C   UNL     1     -11.923  12.778  65.312  1.00  0.00    -0.429 C  
HETATM   10  O   UNL     1     -13.047  12.609  64.844  1.00  0.00    -0.850 OA 
BRANCH   9  11
HETATM   11  C   UNL     1     -11.470  14.129  65.741  1.00  0.00    -0.327 C  
HETATM   12  C   UNL     1     -11.454  14.605  67.004  1.00  0.00    -0.368 C  
HETATM   13  C   UNL     1     -11.821  13.997  68.311  1.00  0.00    -0.406 C  
HETATM   14  N   UNL     1     -11.018  15.914  66.965  1.00  0.00    -0.248 N  
HETATM   15  H   UNL     1     -10.898  16.518  67.777  1.00  0.00     0.000 HD 
HETATM   16  C   UNL     1     -10.768  16.283  65.643  1.00  0.00    -0.286 C  
HETATM   17  N   UNL     1     -11.058  15.138  64.897  1.00  0.00    -0.410 NA 
HETATM   18  O   UNL     1     -10.390  17.360  65.228  1.00  0.00    -0.616 OA 
ENDBRANCH   9  11
ENDBRANCH   6   9
ENDBRANCH   2   3
TORSDOF 3
ENDMDL
MODEL       37
REMARK 921   NORMALIZED FREE ENERGY PREDICTED BY IDOCK:   -5.19 KCAL/MOL
REMARK 922        TOTAL FREE ENERGY PREDICTED BY IDOCK:   -6.49 KCAL/MOL
REMARK 923 INTER-LIGAND FREE ENERGY PREDICTED BY IDOCK:   -6.38 KCAL/MOL
REMARK 924 INTRA-LIGAND FREE ENERGY PREDICTED BY IDOCK:   -0.11 KCAL/MOL
REMARK 927      BINDING AFFINITY PREDICTED BY RF-SCORE:    0.00 PKD
ROOT
HETATM    1  C   UNL     1      -6.689  20.617  67.129  1.00  0.00    -0.294 C  
HETATM    2  S   UNL     1      -7.581  19.774  68.464  1.00  0.00    -0.263 SA 
ENDROOT
BRANCH   2   3
HETATM    3  C   UNL     1      -8.564  18.647  67.495  1.00  0.00    -0.269 A  
HETATM    4  C   UNL     1      -9.878  18.956  67.144  1.00  0.00    -0.368 A  
HETATM    5  C   UNL     1     -10.632  18.060  66.382  1.00  0.00    -0.259 A  
HETATM    6  C   UNL     1     -10.082  16.842  65.957  1.00  0.00    -0.350 A  
HETATM    7  C   UNL     1      -7.999  17.449  67.042  1.00  0.00    -0.241 A  
HETATM    8  C   UNL     1      -8.749  16.552  66.269  1.00  0.00    -0.369 A  
BRANCH   6   9
HETATM    9  C   UNL     1     -10.940  15.961  65.119  1.00  0.00    -0.377 C  
HETATM   10  O   UNL     1     -11.342  16.398  64.043  1.00  0.00    -0.964 OA 
BRANCH   9  11
HETATM   11  C   UNL     1     -11.340  14.609  65.592  1.00  0.00    -0.338 C  
HETATM   12  C   UNL     1     -11.724  13.571  64.819  1.00  0.00    -0.370 C  
HETATM   13  C   UNL     1     -11.846  13.407  63.347  1.00  0.00    -0.325 C  
HETATM   14  N   UNL     1     -12.065  12.521  65.648  1.00  0.00    -0.434 N  
HETATM   15  H   UNL     1     -12.381  11.604  65.336  1.00  0.00     0.000 HD 
HETATM   16  C   UNL     1     -11.909  12.908  66.980  1.00  0.00    -0.374 C  
HETATM   17  N   UNL     1     -11.449  14.225  66.912  1.00  0.00    -0.346 NA 
HETATM   18  O   UNL     1     -12.130  12.252  67.978  1.00  0.00    -0.439 OA 
ENDBRANCH   9  11
ENDBRANCH   6   9
ENDBRANCH   2   3
TORSDOF 3
ENDMDL
MODEL       38
REMARK 921   NORMALIZED FREE ENERGY PREDICTED BY IDOCK:   -5.17 KCAL/MOL
REMARK 922        TOTAL FREE ENERGY PREDICTED BY IDOCK:   -6.46 KCAL/MOL
REMARK 923 INTER-LIGAND FREE ENERGY PREDICTED BY IDOCK:   -6.11 KCAL/MOL
REMARK 924 INTRA-LIGAND FREE ENERGY PREDICTED BY IDOCK:   -0.35 KCAL/MOL
REMARK 927      BINDING AFFINITY PREDICTED BY RF-SCORE:    0.00 PKD
ROOT
HETATM    1  C   UNL     1      -8.944   7.688  73.703  1.00  0.00    -0.256 C  
HETATM    2  S   UNL     1     -10.648   7.223  73.292  1.00  0.00    -0.383 SA 
ENDROOT
BRANCH   2   3
HETATM    3  C   UNL     1     -11.017   8.489  72.094  1.00  0.00    -0.357 A  
HETATM    4  C   UNL     1     -10.067   8.889  71.154  1.00  0.00    -0.341 A  
HETATM    5  C   UNL     1     -10.376   9.883  70.221  1.00  0.00    -0.339 A  
HETATM    6  C   UNL     1     -11.642  10.490  70.213  1.00  0.00    -0.417 A  
HETATM    7  C   UNL     1     -12.292   9.065  72.067  1.00  0.00    -0.455 A  
HETATM    8  C   UNL     1     -12.609  10.055  71.126  1.00  0.00    -0.480 A  
BRANCH   6   9
HETATM    9  C   UNL     1     -11.901  11.512  69.165  1.00  0.00    -0.340 C  
HETATM   10  O   UNL     1     -12.147  11.124  68.024  1.00  0.00    -0.635 OA 
BRANCH   9  11
HETATM   11  C   UNL     1     -11.816  12.965  69.475  1.00  0.00    -0.320 C  
HETATM   12  C   UNL     1     -10.962  13.853  68.926  1.00  0.00    -0.263 C  
HETATM   13  C   UNL     1      -9.910  13.721  67.883  1.00  0.00    -0.232 C  
HETATM   14  N   UNL     1     -11.171  15.078  69.526  1.00  0.00    -0.261 N  
HETATM   15  H   UNL     1     -10.671  15.937  69.298  1.00  0.00     0.000 HD 
HETATM   16  C   UNL     1     -12.171  14.960  70.491  1.00  0.00    -0.329 C  
HETATM   17  N   UNL     1     -12.560  13.620  70.434  1.00  0.00    -0.270 NA 
HETATM   18  O   UNL     1     -12.605  15.826  71.226  1.00  0.00    -0.437 OA 
ENDBRANCH   9  11
ENDBRANCH   6   9
ENDBRANCH   2   3
TORSDOF 3
ENDMDL
MODEL       39
REMARK 921   NORMALIZED FREE ENERGY PREDICTED BY IDOCK:   -5.14 KCAL/MOL
REMARK 922        TOTAL FREE ENERGY PREDICTED BY IDOCK:   -6.43 KCAL/MOL
REMARK 923 INTER-LIGAND FREE ENERGY PREDICTED BY IDOCK:   -6.06 KCAL/MOL
REMARK 924 INTRA-LIGAND FREE ENERGY PREDICTED BY IDOCK:   -0.37 KCAL/MOL
REMARK 927      BINDING AFFINITY PREDICTED BY RF-SCORE:    0.00 PKD
ROOT
HETATM    1  C   UNL     1     -11.692   6.674  71.194  1.00  0.00    -0.346 C  
HETATM    2  S   UNL     1     -11.984   8.202  72.126  1.00  0.00    -0.378 SA 
ENDROOT
BRANCH   2   3
HETATM    3  C   UNL     1     -11.671   9.395  70.839  1.00  0.00    -0.308 A  
HETATM    4  C   UNL     1     -12.263  10.659  70.870  1.00  0.00    -0.497 A  
HETATM    5  C   UNL     1     -12.004  11.581  69.852  1.00  0.00    -0.426 A  
HETATM    6  C   UNL     1     -11.147  11.254  68.790  1.00  0.00    -0.288 A  
HETATM    7  C   UNL     1     -10.788   9.078  69.801  1.00  0.00    -0.215 A  
HETATM    8  C   UNL     1     -10.518  10.004  68.784  1.00  0.00    -0.229 A  
BRANCH   6   9
HETATM    9  C   UNL     1     -10.897  12.305  67.768  1.00  0.00    -0.221 C  
HETATM   10  O   UNL     1     -10.488  13.400  68.150  1.00  0.00    -0.231 OA 
BRANCH   9  11
HETATM   11  C   UNL     1     -11.179  12.055  66.329  1.00  0.00    -0.342 C  
HETATM   12  C   UNL     1     -10.376  11.414  65.454  1.00  0.00    -0.279 C  
HETATM   13  C   UNL     1      -9.051  10.756  65.605  1.00  0.00    -0.215 C  
HETATM   14  N   UNL     1     -10.980  11.445  64.214  1.00  0.00    -0.345 N  
HETATM   15  H   UNL     1     -10.601  11.027  63.365  1.00  0.00     0.000 HD 
HETATM   16  C   UNL     1     -12.187  12.139  64.300  1.00  0.00    -0.377 C  
HETATM   17  N   UNL     1     -12.287  12.507  65.643  1.00  0.00    -0.638 NA 
HETATM   18  O   UNL     1     -12.975  12.378  63.406  1.00  0.00    -0.723 OA 
ENDBRANCH   9  11
ENDBRANCH   6   9
ENDBRANCH   2   3
TORSDOF 3
ENDMDL
MODEL       40
REMARK 921   NORMALIZED FREE ENERGY PREDICTED BY IDOCK:   -5.12 KCAL/MOL
REMARK 922        TOTAL FREE ENERGY PREDICTED BY IDOCK:   -6.41 KCAL/MOL
REMARK 923 INTER-LIGAND FREE ENERGY PREDICTED BY IDOCK:   -6.18 KCAL/MOL
REMARK 924 INTRA-LIGAND FREE ENERGY PREDICTED BY IDOCK:   -0.23 KCAL/MOL
REMARK 927      BINDING AFFINITY PREDICTED BY RF-SCORE:    0.00 PKD
ROOT
HETATM    1  C   UNL     1     -10.681   5.613  72.191  1.00  0.00    -0.234 C  
HETATM    2  S   UNL     1     -10.728   6.991  73.369  1.00  0.00    -0.305 SA 
ENDROOT
BRANCH   2   3
HETATM    3  C   UNL     1     -11.097   8.324  72.246  1.00  0.00    -0.359 A  
HETATM    4  C   UNL     1     -10.104   8.882  71.439  1.00  0.00    -0.379 A  
HETATM    5  C   UNL     1     -10.413   9.926  70.564  1.00  0.00    -0.330 A  
HETATM    6  C   UNL     1     -11.721  10.427  70.480  1.00  0.00    -0.434 A  
HETATM    7  C   UNL     1     -12.410   8.796  72.139  1.00  0.00    -0.458 A  
HETATM    8  C   UNL     1     -12.726   9.837  71.255  1.00  0.00    -0.464 A  
BRANCH   6   9
HETATM    9  C   UNL     1     -11.973  11.514  69.497  1.00  0.00    -0.335 C  
HETATM   10  O   UNL     1     -12.259  11.198  68.343  1.00  0.00    -0.610 OA 
BRANCH   9  11
HETATM   11  C   UNL     1     -11.834  12.944  69.885  1.00  0.00    -0.303 C  
HETATM   12  C   UNL     1     -12.504  13.574  70.873  1.00  0.00    -0.369 C  
HETATM   13  C   UNL     1     -13.509  13.105  71.863  1.00  0.00    -0.513 C  
HETATM   14  N   UNL     1     -12.127  14.902  70.868  1.00  0.00    -0.293 N  
HETATM   15  H   UNL     1     -12.467  15.612  71.515  1.00  0.00     0.000 HD 
HETATM   16  C   UNL     1     -11.209  15.123  69.840  1.00  0.00    -0.283 C  
HETATM   17  N   UNL     1     -11.042  13.872  69.242  1.00  0.00    -0.242 NA 
HETATM   18  O   UNL     1     -10.677  16.170  69.527  1.00  0.00    -0.265 OA 
ENDBRANCH   9  11
ENDBRANCH   6   9
ENDBRANCH   2   3
TORSDOF 3
ENDMDL
MODEL       41
REMARK 921   NORMALIZED FREE ENERGY PREDICTED BY IDOCK:   -5.12 KCAL/MOL
REMARK 922        TOTAL FREE ENERGY PREDICTED BY IDOCK:   -6.40 KCAL/MOL
REMARK 923 INTER-LIGAND FREE ENERGY PREDICTED BY IDOCK:   -5.97 KCAL/MOL
REMARK 924 INTRA-LIGAND FREE ENERGY PREDICTED BY IDOCK:   -0.43 KCAL/MOL
REMARK 927      BINDING AFFINITY PREDICTED BY RF-SCORE:    0.00 PKD
ROOT
HETATM    1  C   UNL     1     -12.707  15.452  71.413  1.00  0.00    -0.420 C  
HETATM    2  S   UNL     1     -11.914  14.625  70.007  1.00  0.00    -0.341 SA 
ENDROOT
BRANCH   2   3
HETATM    3  C   UNL     1     -12.191  12.927  70.471  1.00  0.00    -0.314 A  
HETATM    4  C   UNL     1     -13.005  12.601  71.557  1.00  0.00    -0.380 A  
HETATM    5  C   UNL     1     -13.211  11.263  71.905  1.00  0.00    -0.491 A  
HETATM    6  C   UNL     1     -12.610  10.231  71.169  1.00  0.00    -0.501 A  
HETATM    7  C   UNL     1     -11.619  11.900  69.713  1.00  0.00    -0.359 A  
HETATM    8  C   UNL     1     -11.831  10.556  70.052  1.00  0.00    -0.388 A  
BRANCH   6   9
HETATM    9  C   UNL     1     -12.910   8.834  71.583  1.00  0.00    -0.348 C  
HETATM   10  O   UNL     1     -14.085   8.474  71.596  1.00  0.00    -0.400 OA 
BRANCH   9  11
HETATM   11  C   UNL     1     -11.824   7.915  72.017  1.00  0.00    -0.318 C  
HETATM   12  C   UNL     1     -11.271   6.926  71.284  1.00  0.00    -0.268 C  
HETATM   13  C   UNL     1     -11.502   6.459  69.891  1.00  0.00    -0.483 C  
HETATM   14  N   UNL     1     -10.341   6.276  72.070  1.00  0.00    -0.200 N  
HETATM   15  H   UNL     1      -9.762   5.493  71.770  1.00  0.00     0.000 HD 
HETATM   16  C   UNL     1     -10.317   6.855  73.339  1.00  0.00    -0.308 C  
HETATM   17  N   UNL     1     -11.258   7.886  73.274  1.00  0.00    -0.249 NA 
HETATM   18  O   UNL     1      -9.637   6.534  74.294  1.00  0.00    -0.206 OA 
ENDBRANCH   9  11
ENDBRANCH   6   9
ENDBRANCH   2   3
TORSDOF 3
ENDMDL
MODEL       42
REMARK 921   NORMALIZED FREE ENERGY PREDICTED BY IDOCK:   -5.07 KCAL/MOL
REMARK 922        TOTAL FREE ENERGY PREDICTED BY IDOCK:   -6.35 KCAL/MOL
REMARK 923 INTER-LIGAND FREE ENERGY PREDICTED BY IDOCK:   -5.95 KCAL/MOL
REMARK 924 INTRA-LIGAND FREE ENERGY PREDICTED BY IDOCK:   -0.40 KCAL/MOL
REMARK 927      BINDING AFFINITY PREDICTED BY RF-SCORE:    0.00 PKD
ROOT
HETATM    1  C   UNL     1     -13.837  14.019  72.073  1.00  0.00    -0.490 C  
HETATM    2  S   UNL     1     -13.201  12.322  72.060  1.00  0.00    -0.254 SA 
ENDROOT
BRANCH   2   3
HETATM    3  C   UNL     1     -12.269  12.369  70.542  1.00  0.00    -0.295 A  
HETATM    4  C   UNL     1     -11.745  11.203  69.983  1.00  0.00    -0.438 A  
HETATM    5  C   UNL     1     -11.018  11.260  68.791  1.00  0.00    -0.270 A  
HETATM    6  C   UNL     1     -10.808  12.484  68.138  1.00  0.00    -0.248 A  
HETATM    7  C   UNL     1     -12.093  13.587  69.876  1.00  0.00    -0.408 A  
HETATM    8  C   UNL     1     -11.373  13.647  68.674  1.00  0.00    -0.321 A  
BRANCH   6   9
HETATM    9  C   UNL     1     -10.055  12.453  66.856  1.00  0.00    -0.219 C  
HETATM   10  O   UNL     1      -8.836  12.607  66.895  1.00  0.00    -0.210 OA 
BRANCH   9  11
HETATM   11  C   UNL     1     -10.762  12.289  65.557  1.00  0.00    -0.279 C  
HETATM   12  C   UNL     1     -10.623  11.262  64.693  1.00  0.00    -0.327 C  
HETATM   13  C   UNL     1      -9.810  10.018  64.734  1.00  0.00    -0.325 C  
HETATM   14  N   UNL     1     -11.410  11.520  63.589  1.00  0.00    -0.581 N  
HETATM   15  H   UNL     1     -11.508  10.907  62.780  1.00  0.00     0.000 HD 
HETATM   16  C   UNL     1     -12.051  12.749  63.749  1.00  0.00    -0.517 C  
HETATM   17  N   UNL     1     -11.626  13.207  64.998  1.00  0.00    -0.314 NA 
HETATM   18  O   UNL     1     -12.805  13.304  62.975  1.00  0.00    -0.454 OA 
ENDBRANCH   9  11
ENDBRANCH   6   9
ENDBRANCH   2   3
TORSDOF 3
ENDMDL
MODEL       43
REMARK 921   NORMALIZED FREE ENERGY PREDICTED BY IDOCK:   -5.04 KCAL/MOL
REMARK 922        TOTAL FREE ENERGY PREDICTED BY IDOCK:   -6.32 KCAL/MOL
REMARK 923 INTER-LIGAND FREE ENERGY PREDICTED BY IDOCK:   -5.99 KCAL/MOL
REMARK 924 INTRA-LIGAND FREE ENERGY PREDICTED BY IDOCK:   -0.33 KCAL/MOL
REMARK 927      BINDING AFFINITY PREDICTED BY RF-SCORE:    0.00 PKD
ROOT
HETATM    1  C   UNL     1      -5.300  12.280  69.530  1.00  0.00    -0.071 C  
HETATM    2  S   UNL     1      -5.429  11.492  67.902  1.00  0.00    -0.049 SA 
ENDROOT
BRANCH   2   3
HETATM    3  C   UNL     1      -7.143  11.829  67.548  1.00  0.00    -0.113 A  
HETATM    4  C   UNL     1      -7.640  13.133  67.576  1.00  0.00    -0.166 A  
HETATM    5  C   UNL     1      -8.987  13.377  67.294  1.00  0.00    -0.221 A  
HETATM    6  C   UNL     1      -9.856  12.321  66.976  1.00  0.00    -0.211 A  
HETATM    7  C   UNL     1      -7.996  10.778  67.196  1.00  0.00    -0.124 A  
HETATM    8  C   UNL     1      -9.345  11.020  66.902  1.00  0.00    -0.189 A  
BRANCH   6   9
HETATM    9  C   UNL     1     -11.265  12.671  66.654  1.00  0.00    -0.300 C  
HETATM   10  O   UNL     1     -12.157  12.170  67.334  1.00  0.00    -0.553 OA 
BRANCH   9  11
HETATM   11  C   UNL     1     -11.588  13.564  65.509  1.00  0.00    -0.320 C  
HETATM   12  C   UNL     1     -12.007  13.178  64.285  1.00  0.00    -0.411 C  
HETATM   13  C   UNL     1     -12.300  11.844  63.699  1.00  0.00    -0.591 C  
HETATM   14  N   UNL     1     -12.140  14.306  63.501  1.00  0.00    -0.980 N  
HETATM   15  H   UNL     1     -12.453  14.314  62.530  1.00  0.00     0.000 HD 
HETATM   16  C   UNL     1     -11.781  15.434  64.240  1.00  0.00    -0.206 C  
HETATM   17  N   UNL     1     -11.442  14.936  65.500  1.00  0.00    -0.335 NA 
HETATM   18  O   UNL     1     -11.759  16.592  63.872  1.00  0.00    -1.148 OA 
ENDBRANCH   9  11
ENDBRANCH   6   9
ENDBRANCH   2   3
TORSDOF 3
ENDMDL
MODEL       44
REMARK 921   NORMALIZED FREE ENERGY PREDICTED BY IDOCK:   -5.04 KCAL/MOL
REMARK 922        TOTAL FREE ENERGY PREDICTED BY IDOCK:   -6.31 KCAL/MOL
REMARK 923 INTER-LIGAND FREE ENERGY PREDICTED BY IDOCK:   -5.88 KCAL/MOL
REMARK 924 INTRA-LIGAND FREE ENERGY PREDICTED BY IDOCK:   -0.44 KCAL/MOL
REMARK 927      BINDING AFFINITY PREDICTED BY RF-SCORE:    0.00 PKD
ROOT
HETATM    1  C   UNL     1     -10.362   8.357  71.972  1.00  0.00    -0.304 C  
HETATM    2  S   UNL     1     -11.789   9.443  71.704  1.00  0.00    -0.394 SA 
ENDROOT
BRANCH   2   3
HETATM    3  C   UNL     1     -11.429   9.998  70.049  1.00  0.00    -0.248 A  
HETATM    4  C   UNL     1     -10.633   9.237  69.192  1.00  0.00    -0.228 A  
HETATM    5  C   UNL     1     -10.363   9.689  67.898  1.00  0.00    -0.271 A  
HETATM    6  C   UNL     1     -10.888  10.907  67.440  1.00  0.00    -0.333 A  
HETATM    7  C   UNL     1     -11.985  11.195  69.585  1.00  0.00    -0.429 A  
HETATM    8  C   UNL     1     -11.724  11.647  68.284  1.00  0.00    -0.374 A  
BRANCH   6   9
HETATM    9  C   UNL     1     -10.583  11.297  66.038  1.00  0.00    -0.258 C  
HETATM   10  O   UNL     1     -10.046  10.466  65.308  1.00  0.00    -0.293 OA 
BRANCH   9  11
HETATM   11  C   UNL     1     -10.873  12.671  65.545  1.00  0.00    -0.279 C  
HETATM   12  C   UNL     1     -10.171  13.788  65.827  1.00  0.00    -0.311 C  
HETATM   13  C   UNL     1      -8.945  14.026  66.633  1.00  0.00    -0.177 C  
HETATM   14  N   UNL     1     -10.801  14.856  65.221  1.00  0.00    -0.359 N  
HETATM   15  H   UNL     1     -10.483  15.824  65.257  1.00  0.00     0.000 HD 
HETATM   16  C   UNL     1     -11.941  14.407  64.553  1.00  0.00    -0.472 C  
HETATM   17  N   UNL     1     -11.958  13.028  64.772  1.00  0.00    -0.372 NA 
HETATM   18  O   UNL     1     -12.747  15.067  63.926  1.00  0.00    -0.775 OA 
ENDBRANCH   9  11
ENDBRANCH   6   9
ENDBRANCH   2   3
TORSDOF 3
ENDMDL
MODEL       45
REMARK 921   NORMALIZED FREE ENERGY PREDICTED BY IDOCK:   -5.03 KCAL/MOL
REMARK 922        TOTAL FREE ENERGY PREDICTED BY IDOCK:   -6.31 KCAL/MOL
REMARK 923 INTER-LIGAND FREE ENERGY PREDICTED BY IDOCK:   -5.87 KCAL/MOL
REMARK 924 INTRA-LIGAND FREE ENERGY PREDICTED BY IDOCK:   -0.44 KCAL/MOL
REMARK 927      BINDING AFFINITY PREDICTED BY RF-SCORE:    0.00 PKD
ROOT
HETATM    1  C   UNL     1      -5.901  19.527  67.278  1.00  0.00    -0.178 C  
HETATM    2  S   UNL     1      -7.492  20.387  67.142  1.00  0.00    -0.322 SA 
ENDROOT
BRANCH   2   3
HETATM    3  C   UNL     1      -8.593  19.007  67.387  1.00  0.00    -0.278 A  
HETATM    4  C   UNL     1      -8.520  18.224  68.540  1.00  0.00    -0.325 A  
HETATM    5  C   UNL     1      -9.394  17.147  68.714  1.00  0.00    -0.252 A  
HETATM    6  C   UNL     1     -10.355  16.839  67.740  1.00  0.00    -0.318 A  
HETATM    7  C   UNL     1      -9.573  18.725  66.429  1.00  0.00    -0.354 A  
HETATM    8  C   UNL     1     -10.458  17.652  66.605  1.00  0.00    -0.286 A  
BRANCH   6   9
HETATM    9  C   UNL     1     -11.268  15.699  68.020  1.00  0.00    -0.339 C  
HETATM   10  O   UNL     1     -11.905  15.711  69.071  1.00  0.00    -0.376 OA 
BRANCH   9  11
HETATM   11  C   UNL     1     -11.372  14.552  67.077  1.00  0.00    -0.349 C  
HETATM   12  C   UNL     1     -10.366  13.741  66.688  1.00  0.00    -0.279 C  
HETATM   13  C   UNL     1      -8.925  13.685  67.051  1.00  0.00    -0.244 C  
HETATM   14  N   UNL     1     -10.869  12.844  65.768  1.00  0.00    -0.266 N  
HETATM   15  H   UNL     1     -10.332  12.106  65.314  1.00  0.00     0.000 HD 
HETATM   16  C   UNL     1     -12.223  13.103  65.555  1.00  0.00    -0.461 C  
HETATM   17  N   UNL     1     -12.512  14.181  66.395  1.00  0.00    -0.416 NA 
HETATM   18  O   UNL     1     -12.983  12.527  64.802  1.00  0.00    -0.827 OA 
ENDBRANCH   9  11
ENDBRANCH   6   9
ENDBRANCH   2   3
TORSDOF 3
ENDMDL
MODEL       46
REMARK 921   NORMALIZED FREE ENERGY PREDICTED BY IDOCK:   -5.00 KCAL/MOL
REMARK 922        TOTAL FREE ENERGY PREDICTED BY IDOCK:   -6.26 KCAL/MOL
REMARK 923 INTER-LIGAND FREE ENERGY PREDICTED BY IDOCK:   -5.87 KCAL/MOL
REMARK 924 INTRA-LIGAND FREE ENERGY PREDICTED BY IDOCK:   -0.39 KCAL/MOL
REMARK 927      BINDING AFFINITY PREDICTED BY RF-SCORE:    0.00 PKD
ROOT
HETATM    1  C   UNL     1      -8.691  18.464  66.517  1.00  0.00    -0.278 C  
HETATM    2  S   UNL     1     -10.005  18.157  67.728  1.00  0.00    -0.345 SA 
ENDROOT
BRANCH   2   3
HETATM    3  C   UNL     1     -10.617  16.602  67.109  1.00  0.00    -0.264 A  
HETATM    4  C   UNL     1     -10.316  16.174  65.816  1.00  0.00    -0.398 A  
HETATM    5  C   UNL     1     -10.805  14.950  65.350  1.00  0.00    -0.379 A  
HETATM    6  C   UNL     1     -11.599  14.136  66.171  1.00  0.00    -0.377 A  
HETATM    7  C   UNL     1     -11.379  15.777  67.944  1.00  0.00    -0.277 A  
HETATM    8  C   UNL     1     -11.862  14.544  67.483  1.00  0.00    -0.404 A  
BRANCH   6   9
HETATM    9  C   UNL     1     -12.047  12.833  65.610  1.00  0.00    -0.459 C  
HETATM   10  O   UNL     1     -13.120  12.799  65.010  1.00  0.00    -0.811 OA 
BRANCH   9  11
HETATM   11  C   UNL     1     -11.245  11.597  65.811  1.00  0.00    -0.230 C  
HETATM   12  C   UNL     1     -11.087  10.924  66.970  1.00  0.00    -0.202 C  
HETATM   13  C   UNL     1     -11.633  11.136  68.337  1.00  0.00    -0.376 C  
HETATM   14  N   UNL     1     -10.226   9.870  66.741  1.00  0.00    -0.233 N  
HETATM   15  H   UNL     1      -9.935   9.186  67.439  1.00  0.00     0.000 HD 
HETATM   16  C   UNL     1      -9.814   9.885  65.408  1.00  0.00    -0.313 C  
HETATM   17  N   UNL     1     -10.475  10.980  64.848  1.00  0.00    -0.314 NA 
HETATM   18  O   UNL     1      -9.046   9.122  64.856  1.00  0.00    -0.210 OA 
ENDBRANCH   9  11
ENDBRANCH   6   9
ENDBRANCH   2   3
TORSDOF 3
ENDMDL
MODEL       47
REMARK 921   NORMALIZED FREE ENERGY PREDICTED BY IDOCK:   -4.98 KCAL/MOL
REMARK 922        TOTAL FREE ENERGY PREDICTED BY IDOCK:   -6.25 KCAL/MOL
REMARK 923 INTER-LIGAND FREE ENERGY PREDICTED BY IDOCK:   -5.83 KCAL/MOL
REMARK 924 INTRA-LIGAND FREE ENERGY PREDICTED BY IDOCK:   -0.42 KCAL/MOL
REMARK 927      BINDING AFFINITY PREDICTED BY RF-SCORE:    0.00 PKD
ROOT
HETATM    1  C   UNL     1      -9.048   7.189  67.677  1.00  0.00    -0.127 C  
HETATM    2  S   UNL     1      -8.547   7.828  66.056  1.00  0.00    -0.154 SA 
ENDROOT
BRANCH   2   3
HETATM    3  C   UNL     1      -9.587   9.272  65.976  1.00  0.00    -0.270 A  
HETATM    4  C   UNL     1     -10.333   9.685  67.080  1.00  0.00    -0.319 A  
HETATM    5  C   UNL     1     -11.143  10.821  66.998  1.00  0.00    -0.245 A  
HETATM    6  C   UNL     1     -11.216  11.564  65.810  1.00  0.00    -0.228 A  
HETATM    7  C   UNL     1      -9.629  10.031  64.800  1.00  0.00    -0.374 A  
HETATM    8  C   UNL     1     -10.432  11.177  64.717  1.00  0.00    -0.388 A  
BRANCH   6   9
HETATM    9  C   UNL     1     -12.072  12.780  65.817  1.00  0.00    -0.448 C  
HETATM   10  O   UNL     1     -13.030  12.819  65.047  1.00  0.00    -0.811 OA 
BRANCH   9  11
HETATM   11  C   UNL     1     -11.751  13.936  66.697  1.00  0.00    -0.395 C  
HETATM   12  C   UNL     1     -10.991  15.003  66.372  1.00  0.00    -0.336 C  
HETATM   13  C   UNL     1     -10.286  15.390  65.121  1.00  0.00    -0.405 C  
HETATM   14  N   UNL     1     -10.896  15.816  67.483  1.00  0.00    -0.318 N  
HETATM   15  H   UNL     1     -10.389  16.700  67.522  1.00  0.00     0.000 HD 
HETATM   16  C   UNL     1     -11.599  15.244  68.543  1.00  0.00    -0.352 C  
HETATM   17  N   UNL     1     -12.129  14.064  68.017  1.00  0.00    -0.338 NA 
HETATM   18  O   UNL     1     -11.720  15.669  69.675  1.00  0.00    -0.319 OA 
ENDBRANCH   9  11
ENDBRANCH   6   9
ENDBRANCH   2   3
TORSDOF 3
ENDMDL
MODEL       48
REMARK 921   NORMALIZED FREE ENERGY PREDICTED BY IDOCK:   -4.98 KCAL/MOL
REMARK 922        TOTAL FREE ENERGY PREDICTED BY IDOCK:   -6.24 KCAL/MOL
REMARK 923 INTER-LIGAND FREE ENERGY PREDICTED BY IDOCK:   -5.82 KCAL/MOL
REMARK 924 INTRA-LIGAND FREE ENERGY PREDICTED BY IDOCK:   -0.43 KCAL/MOL
REMARK 927      BINDING AFFINITY PREDICTED BY RF-SCORE:    0.00 PKD
ROOT
HETATM    1  C   UNL     1     -11.213   9.265  71.208  1.00  0.00    -0.355 C  
HETATM    2  S   UNL     1     -12.647  10.327  71.526  1.00  0.00    -0.453 SA 
ENDROOT
BRANCH   2   3
HETATM    3  C   UNL     1     -12.264  11.675  70.425  1.00  0.00    -0.347 A  
HETATM    4  C   UNL     1     -11.777  11.438  69.139  1.00  0.00    -0.410 A  
HETATM    5  C   UNL     1     -11.484  12.509  68.291  1.00  0.00    -0.355 A  
HETATM    6  C   UNL     1     -11.676  13.832  68.714  1.00  0.00    -0.391 A  
HETATM    7  C   UNL     1     -12.492  12.992  70.839  1.00  0.00    -0.396 A  
HETATM    8  C   UNL     1     -12.208  14.069  69.987  1.00  0.00    -0.414 A  
BRANCH   6   9
HETATM    9  C   UNL     1     -11.373  14.912  67.736  1.00  0.00    -0.329 C  
HETATM   10  O   UNL     1     -11.822  14.804  66.597  1.00  0.00    -0.342 OA 
BRANCH   9  11
HETATM   11  C   UNL     1     -10.511  16.065  68.112  1.00  0.00    -0.269 C  
HETATM   12  C   UNL     1      -9.249  16.000  68.586  1.00  0.00    -0.216 C  
HETATM   13  C   UNL     1      -8.334  14.859  68.852  1.00  0.00    -0.178 C  
HETATM   14  N   UNL     1      -8.828  17.285  68.862  1.00  0.00    -0.224 N  
HETATM   15  H   UNL     1      -7.909  17.538  69.223  1.00  0.00     0.000 HD 
HETATM   16  C   UNL     1      -9.854  18.185  68.572  1.00  0.00    -0.382 C  
HETATM   17  N   UNL     1     -10.899  17.388  68.099  1.00  0.00    -0.341 NA 
HETATM   18  O   UNL     1      -9.848  19.393  68.707  1.00  0.00    -0.413 OA 
ENDBRANCH   9  11
ENDBRANCH   6   9
ENDBRANCH   2   3
TORSDOF 3
ENDMDL
MODEL       49
REMARK 921   NORMALIZED FREE ENERGY PREDICTED BY IDOCK:   -4.96 KCAL/MOL
REMARK 922        TOTAL FREE ENERGY PREDICTED BY IDOCK:   -6.23 KCAL/MOL
REMARK 923 INTER-LIGAND FREE ENERGY PREDICTED BY IDOCK:   -6.01 KCAL/MOL
REMARK 924 INTRA-LIGAND FREE ENERGY PREDICTED BY IDOCK:   -0.22 KCAL/MOL
REMARK 927      BINDING AFFINITY PREDICTED BY RF-SCORE:    0.00 PKD
ROOT
HETATM    1  C   UNL     1     -11.836  12.914  63.421  1.00  0.00    -0.507 C  
HETATM    2  S   UNL     1     -12.073  14.214  64.662  1.00  0.00    -0.456 SA 
ENDROOT
BRANCH   2   3
HETATM    3  C   UNL     1     -11.803  13.260  66.143  1.00  0.00    -0.390 A  
HETATM    4  C   UNL     1     -11.393  11.928  66.076  1.00  0.00    -0.375 A  
HETATM    5  C   UNL     1     -11.185  11.197  67.249  1.00  0.00    -0.347 A  
HETATM    6  C   UNL     1     -11.380  11.788  68.506  1.00  0.00    -0.328 A  
HETATM    7  C   UNL     1     -11.964  13.865  67.395  1.00  0.00    -0.436 A  
HETATM    8  C   UNL     1     -11.746  13.138  68.573  1.00  0.00    -0.387 A  
BRANCH   6   9
HETATM    9  C   UNL     1     -11.101  10.952  69.703  1.00  0.00    -0.266 C  
HETATM   10  O   UNL     1      -9.944  10.586  69.899  1.00  0.00    -0.138 OA 
BRANCH   9  11
HETATM   11  C   UNL     1     -12.200  10.528  70.613  1.00  0.00    -0.352 C  
HETATM   12  C   UNL     1     -12.894  11.322  71.455  1.00  0.00    -0.410 C  
HETATM   13  C   UNL     1     -12.840  12.781  71.732  1.00  0.00    -0.342 C  
HETATM   14  N   UNL     1     -13.782  10.531  72.157  1.00  0.00    -0.375 N  
HETATM   15  H   UNL     1     -14.443  10.868  72.856  1.00  0.00     0.000 HD 
HETATM   16  C   UNL     1     -13.635   9.201  71.762  1.00  0.00    -0.415 C  
HETATM   17  N   UNL     1     -12.635   9.231  70.788  1.00  0.00    -0.091 NA 
HETATM   18  O   UNL     1     -14.235   8.229  72.177  1.00  0.00    -0.395 OA 
ENDBRANCH   9  11
ENDBRANCH   6   9
ENDBRANCH   2   3
TORSDOF 3
ENDMDL
MODEL       50
REMARK 921   NORMALIZED FREE ENERGY PREDICTED BY IDOCK:   -4.95 KCAL/MOL
REMARK 922        TOTAL FREE ENERGY PREDICTED BY IDOCK:   -6.20 KCAL/MOL
REMARK 923 INTER-LIGAND FREE ENERGY PREDICTED BY IDOCK:   -5.76 KCAL/MOL
REMARK 924 INTRA-LIGAND FREE ENERGY PREDICTED BY IDOCK:   -0.44 KCAL/MOL
REMARK 927      BINDING AFFINITY PREDICTED BY RF-SCORE:    0.00 PKD
ROOT
HETATM    1  C   UNL     1      -8.523  18.711  66.794  1.00  0.00    -0.286 C  
HETATM    2  S   UNL     1     -10.267  18.784  67.283  1.00  0.00    -0.414 SA 
ENDROOT
BRANCH   2   3
HETATM    3  C   UNL     1     -10.668  17.050  67.203  1.00  0.00    -0.177 A  
HETATM    4  C   UNL     1     -11.159  16.372  68.319  1.00  0.00    -0.337 A  
HETATM    5  C   UNL     1     -11.469  15.012  68.236  1.00  0.00    -0.349 A  
HETATM    6  C   UNL     1     -11.295  14.310  67.034  1.00  0.00    -0.354 A  
HETATM    7  C   UNL     1     -10.527  16.362  65.992  1.00  0.00    -0.333 A  
HETATM    8  C   UNL     1     -10.846  15.000  65.902  1.00  0.00    -0.339 A  
BRANCH   6   9
HETATM    9  C   UNL     1     -11.683  12.874  67.020  1.00  0.00    -0.385 C  
HETATM   10  O   UNL     1     -12.336  12.459  66.065  1.00  0.00    -0.627 OA 
BRANCH   9  11
HETATM   11  C   UNL     1     -11.333  11.976  68.154  1.00  0.00    -0.291 C  
HETATM   12  C   UNL     1     -10.090  11.607  68.529  1.00  0.00    -0.206 C  
HETATM   13  C   UNL     1      -8.740  11.956  68.013  1.00  0.00    -0.173 C  
HETATM   14  N   UNL     1     -10.205  10.726  69.586  1.00  0.00    -0.436 N  
HETATM   15  H   UNL     1      -9.423  10.294  70.078  1.00  0.00     0.000 HD 
HETATM   16  C   UNL     1     -11.553  10.518  69.876  1.00  0.00    -0.307 C  
HETATM   17  N   UNL     1     -12.238  11.321  68.961  1.00  0.00    -0.464 NA 
HETATM   18  O   UNL     1     -12.030   9.796  70.729  1.00  0.00    -0.284 OA 
ENDBRANCH   9  11
ENDBRANCH   6   9
ENDBRANCH   2   3
TORSDOF 3
ENDMDL
MODEL       51
REMARK 921   NORMALIZED FREE ENERGY PREDICTED BY IDOCK:   -4.94 KCAL/MOL
REMARK 922        TOTAL FREE ENERGY PREDICTED BY IDOCK:   -6.20 KCAL/MOL
REMARK 923 INTER-LIGAND FREE ENERGY PREDICTED BY IDOCK:   -5.76 KCAL/MOL
REMARK 924 INTRA-LIGAND FREE ENERGY PREDICTED BY IDOCK:   -0.44 KCAL/MOL
REMARK 927      BINDING AFFINITY PREDICTED BY RF-SCORE:    0.00 PKD
ROOT
HETATM    1  C   UNL     1     -12.699  13.803  65.226  1.00  0.00    -0.439 C  
HETATM    2  S   UNL     1     -11.393  12.641  64.745  1.00  0.00    -0.328 SA 
ENDROOT
BRANCH   2   3
HETATM    3  C   UNL     1     -11.151  11.809  66.302  1.00  0.00    -0.311 A  
HETATM    4  C   UNL     1     -10.401  10.635  66.382  1.00  0.00    -0.291 A  
HETATM    5  C   UNL     1     -10.223   9.997  67.612  1.00  0.00    -0.249 A  
HETATM    6  C   UNL     1     -10.789  10.526  68.782  1.00  0.00    -0.269 A  
HETATM    7  C   UNL     1     -11.688  12.360  67.471  1.00  0.00    -0.425 A  
HETATM    8  C   UNL     1     -11.502  11.729  68.709  1.00  0.00    -0.350 A  
BRANCH   6   9
HETATM    9  C   UNL     1     -10.520   9.806  70.056  1.00  0.00    -0.270 C  
HETATM   10  O   UNL     1      -9.370   9.808  70.491  1.00  0.00    -0.219 OA 
BRANCH   9  11
HETATM   11  C   UNL     1     -11.602   9.064  70.757  1.00  0.00    -0.265 C  
HETATM   12  C   UNL     1     -11.888   7.751  70.626  1.00  0.00    -0.124 C  
HETATM   13  C   UNL     1     -11.264   6.663  69.828  1.00  0.00    -0.413 C  
HETATM   14  N   UNL     1     -12.994   7.473  71.403  1.00  0.00    -0.454 N  
HETATM   15  H   UNL     1     -13.425   6.555  71.504  1.00  0.00     0.000 HD 
HETATM   16  C   UNL     1     -13.430   8.641  72.030  1.00  0.00    -0.403 C  
HETATM   17  N   UNL     1     -12.532   9.624  71.607  1.00  0.00    -0.379 NA 
HETATM   18  O   UNL     1     -14.382   8.778  72.773  1.00  0.00    -0.569 OA 
ENDBRANCH   9  11
ENDBRANCH   6   9
ENDBRANCH   2   3
TORSDOF 3
ENDMDL
MODEL       52
REMARK 921   NORMALIZED FREE ENERGY PREDICTED BY IDOCK:   -4.94 KCAL/MOL
REMARK 922        TOTAL FREE ENERGY PREDICTED BY IDOCK:   -6.20 KCAL/MOL
REMARK 923 INTER-LIGAND FREE ENERGY PREDICTED BY IDOCK:   -5.74 KCAL/MOL
REMARK 924 INTRA-LIGAND FREE ENERGY PREDICTED BY IDOCK:   -0.46 KCAL/MOL
REMARK 927      BINDING AFFINITY PREDICTED BY RF-SCORE:    0.00 PKD
ROOT
HETATM    1  C   UNL     1     -13.547  15.099  72.884  1.00  0.00    -0.459 C  
HETATM    2  S   UNL     1     -13.346  13.535  71.988  1.00  0.00    -0.490 SA 
ENDROOT
BRANCH   2   3
HETATM    3  C   UNL     1     -12.386  14.112  70.602  1.00  0.00    -0.365 A  
HETATM    4  C   UNL     1     -11.723  13.215  69.763  1.00  0.00    -0.350 A  
HETATM    5  C   UNL     1     -10.976  13.687  68.680  1.00  0.00    -0.290 A  
HETATM    6  C   UNL     1     -10.884  15.063  68.419  1.00  0.00    -0.256 A  
HETATM    7  C   UNL     1     -12.326  15.482  70.324  1.00  0.00    -0.431 A  
HETATM    8  C   UNL     1     -11.586  15.958  69.233  1.00  0.00    -0.372 A  
BRANCH   6   9
HETATM    9  C   UNL     1     -10.099  15.478  67.225  1.00  0.00    -0.250 C  
HETATM   10  O   UNL     1      -9.638  14.600  66.499  1.00  0.00    -0.261 OA 
BRANCH   9  11
HETATM   11  C   UNL     1      -9.836  16.916  66.945  1.00  0.00    -0.276 C  
HETATM   12  C   UNL     1      -8.840  17.664  67.464  1.00  0.00    -0.231 C  
HETATM   13  C   UNL     1      -7.726  17.346  68.396  1.00  0.00    -0.258 C  
HETATM   14  N   UNL     1      -8.983  18.954  66.995  1.00  0.00    -0.287 N  
HETATM   15  H   UNL     1      -8.363  19.733  67.216  1.00  0.00     0.000 HD 
HETATM   16  C   UNL     1     -10.107  19.030  66.172  1.00  0.00    -0.406 C  
HETATM   17  N   UNL     1     -10.621  17.731  66.157  1.00  0.00    -0.296 NA 
HETATM   18  O   UNL     1     -10.549  20.007  65.599  1.00  0.00    -0.460 OA 
ENDBRANCH   9  11
ENDBRANCH   6   9
ENDBRANCH   2   3
TORSDOF 3
ENDMDL
MODEL       53
REMARK 921   NORMALIZED FREE ENERGY PREDICTED BY IDOCK:   -4.94 KCAL/MOL
REMARK 922        TOTAL FREE ENERGY PREDICTED BY IDOCK:   -6.20 KCAL/MOL
REMARK 923 INTER-LIGAND FREE ENERGY PREDICTED BY IDOCK:   -5.82 KCAL/MOL
REMARK 924 INTRA-LIGAND FREE ENERGY PREDICTED BY IDOCK:   -0.38 KCAL/MOL
REMARK 927      BINDING AFFINITY PREDICTED BY RF-SCORE:    0.00 PKD
ROOT
HETATM    1  C   UNL     1     -13.196  10.059  71.753  1.00  0.00    -0.437 C  
HETATM    2  S   UNL     1     -11.548   9.378  71.423  1.00  0.00    -0.405 SA 
ENDROOT
BRANCH   2   3
HETATM    3  C   UNL     1     -11.093  10.377  70.020  1.00  0.00    -0.314 A  
HETATM    4  C   UNL     1     -12.017  11.227  69.411  1.00  0.00    -0.410 A  
HETATM    5  C   UNL     1     -11.640  12.003  68.312  1.00  0.00    -0.394 A  
HETATM    6  C   UNL     1     -10.332  11.944  67.807  1.00  0.00    -0.214 A  
HETATM    7  C   UNL     1      -9.778  10.341  69.543  1.00  0.00    -0.235 A  
HETATM    8  C   UNL     1      -9.393  11.127  68.447  1.00  0.00    -0.185 A  
BRANCH   6   9
HETATM    9  C   UNL     1     -10.004  12.829  66.658  1.00  0.00    -0.245 C  
HETATM   10  O   UNL     1      -9.628  13.975  66.899  1.00  0.00    -0.252 OA 
BRANCH   9  11
HETATM   11  C   UNL     1     -10.173  12.359  65.257  1.00  0.00    -0.282 C  
HETATM   12  C   UNL     1     -11.025  12.864  64.340  1.00  0.00    -0.371 C  
HETATM   13  C   UNL     1     -11.993  13.992  64.383  1.00  0.00    -0.480 C  
HETATM   14  N   UNL     1     -10.911  12.112  63.188  1.00  0.00    -0.681 N  
HETATM   15  H   UNL     1     -11.430  12.275  62.326  1.00  0.00     0.000 HD 
HETATM   16  C   UNL     1      -9.978  11.094  63.386  1.00  0.00    -0.387 C  
HETATM   17  N   UNL     1      -9.528  11.278  64.695  1.00  0.00    -0.216 NA 
HETATM   18  O   UNL     1      -9.635  10.233  62.600  1.00  0.00    -0.310 OA 
ENDBRANCH   9  11
ENDBRANCH   6   9
ENDBRANCH   2   3
TORSDOF 3
ENDMDL
MODEL       54
REMARK 921   NORMALIZED FREE ENERGY PREDICTED BY IDOCK:   -4.93 KCAL/MOL
REMARK 922        TOTAL FREE ENERGY PREDICTED BY IDOCK:   -6.18 KCAL/MOL
REMARK 923 INTER-LIGAND FREE ENERGY PREDICTED BY IDOCK:   -5.74 KCAL/MOL
REMARK 924 INTRA-LIGAND FREE ENERGY PREDICTED BY IDOCK:   -0.44 KCAL/MOL
REMARK 927      BINDING AFFINITY PREDICTED BY RF-SCORE:    0.00 PKD
ROOT
HETATM    1  C   UNL     1     -13.132  15.190  71.233  1.00  0.00    -0.441 C  
HETATM    2  S   UNL     1     -12.031  14.415  70.019  1.00  0.00    -0.353 SA 
ENDROOT
BRANCH   2   3
HETATM    3  C   UNL     1     -12.286  12.703  70.442  1.00  0.00    -0.288 A  
HETATM    4  C   UNL     1     -11.789  11.680  69.634  1.00  0.00    -0.419 A  
HETATM    5  C   UNL     1     -11.998  10.343  69.984  1.00  0.00    -0.324 A  
HETATM    6  C   UNL     1     -12.705  10.010  71.149  1.00  0.00    -0.484 A  
HETATM    7  C   UNL     1     -12.960  12.376  71.624  1.00  0.00    -0.409 A  
HETATM    8  C   UNL     1     -13.163  11.036  71.983  1.00  0.00    -0.447 A  
BRANCH   6   9
HETATM    9  C   UNL     1     -12.852   8.564  71.467  1.00  0.00    -0.311 C  
HETATM   10  O   UNL     1     -13.856   8.205  72.079  1.00  0.00    -0.345 OA 
BRANCH   9  11
HETATM   11  C   UNL     1     -11.791   7.588  71.099  1.00  0.00    -0.299 C  
HETATM   12  C   UNL     1     -10.554   7.509  71.634  1.00  0.00    -0.205 C  
HETATM   13  C   UNL     1      -9.875   8.279  72.710  1.00  0.00    -0.333 C  
HETATM   14  N   UNL     1      -9.866   6.509  70.979  1.00  0.00    -0.179 N  
HETATM   15  H   UNL     1      -8.909   6.222  71.184  1.00  0.00     0.000 HD 
HETATM   16  C   UNL     1     -10.680   5.951  69.993  1.00  0.00    -0.326 C  
HETATM   17  N   UNL     1     -11.886   6.648  70.095  1.00  0.00    -0.358 NA 
HETATM   18  O   UNL     1     -10.403   5.062  69.211  1.00  0.00    -0.213 OA 
ENDBRANCH   9  11
ENDBRANCH   6   9
ENDBRANCH   2   3
TORSDOF 3
ENDMDL
MODEL       55
REMARK 921   NORMALIZED FREE ENERGY PREDICTED BY IDOCK:   -4.91 KCAL/MOL
REMARK 922        TOTAL FREE ENERGY PREDICTED BY IDOCK:   -6.16 KCAL/MOL
REMARK 923 INTER-LIGAND FREE ENERGY PREDICTED BY IDOCK:   -5.78 KCAL/MOL
REMARK 924 INTRA-LIGAND FREE ENERGY PREDICTED BY IDOCK:   -0.38 KCAL/MOL
REMARK 927      BINDING AFFINITY PREDICTED BY RF-SCORE:    0.00 PKD
ROOT
HETATM    1  C   UNL     1      -7.255  20.379  66.687  1.00  0.00    -0.268 C  
HETATM    2  S   UNL     1      -8.766  20.066  67.639  1.00  0.00    -0.305 SA 
ENDROOT
BRANCH   2   3
HETATM    3  C   UNL     1      -8.960  18.324  67.320  1.00  0.00    -0.259 A  
HETATM    4  C   UNL     1     -10.206  17.706  67.432  1.00  0.00    -0.345 A  
HETATM    5  C   UNL     1     -10.337  16.338  67.176  1.00  0.00    -0.285 A  
HETATM    6  C   UNL     1      -9.226  15.569  66.801  1.00  0.00    -0.272 A  
HETATM    7  C   UNL     1      -7.855  17.569  66.911  1.00  0.00    -0.258 A  
HETATM    8  C   UNL     1      -7.985  16.199  66.644  1.00  0.00    -0.305 A  
BRANCH   6   9
HETATM    9  C   UNL     1      -9.459  14.129  66.512  1.00  0.00    -0.285 C  
HETATM   10  O   UNL     1      -8.610  13.319  66.878  1.00  0.00    -0.191 OA 
BRANCH   9  11
HETATM   11  C   UNL     1     -10.661  13.686  65.756  1.00  0.00    -0.280 C  
HETATM   12  C   UNL     1     -11.596  12.808  66.180  1.00  0.00    -0.379 C  
HETATM   13  C   UNL     1     -11.764  12.058  67.452  1.00  0.00    -0.352 C  
HETATM   14  N   UNL     1     -12.510  12.629  65.162  1.00  0.00    -0.502 N  
HETATM   15  H   UNL     1     -13.331  12.027  65.208  1.00  0.00     0.000 HD 
HETATM   16  C   UNL     1     -12.137  13.398  64.059  1.00  0.00    -0.449 C  
HETATM   17  N   UNL     1     -10.973  14.055  64.464  1.00  0.00    -0.380 NA 
HETATM   18  O   UNL     1     -12.694  13.477  62.982  1.00  0.00    -0.668 OA 
ENDBRANCH   9  11
ENDBRANCH   6   9
ENDBRANCH   2   3
TORSDOF 3
ENDMDL
MODEL       56
REMARK 921   NORMALIZED FREE ENERGY PREDICTED BY IDOCK:   -4.89 KCAL/MOL
REMARK 922        TOTAL FREE ENERGY PREDICTED BY IDOCK:   -6.14 KCAL/MOL
REMARK 923 INTER-LIGAND FREE ENERGY PREDICTED BY IDOCK:   -6.16 KCAL/MOL
REMARK 924 INTRA-LIGAND FREE ENERGY PREDICTED BY IDOCK:    0.02 KCAL/MOL
REMARK 927      BINDING AFFINITY PREDICTED BY RF-SCORE:    0.00 PKD
ROOT
HETATM    1  C   UNL     1      -9.842  11.834  63.238  1.00  0.00    -0.377 C  
HETATM    2  S   UNL     1     -10.100  10.806  64.708  1.00  0.00    -0.342 SA 
ENDROOT
BRANCH   2   3
HETATM    3  C   UNL     1     -10.524  12.076  65.884  1.00  0.00    -0.255 A  
HETATM    4  C   UNL     1      -9.589  12.539  66.811  1.00  0.00    -0.231 A  
HETATM    5  C   UNL     1      -9.940  13.537  67.724  1.00  0.00    -0.232 A  
HETATM    6  C   UNL     1     -11.230  14.088  67.722  1.00  0.00    -0.302 A  
HETATM    7  C   UNL     1     -11.800  12.648  65.855  1.00  0.00    -0.499 A  
HETATM    8  C   UNL     1     -12.153  13.656  66.763  1.00  0.00    -0.445 A  
BRANCH   6   9
HETATM    9  C   UNL     1     -11.511  15.171  68.703  1.00  0.00    -0.325 C  
HETATM   10  O   UNL     1     -11.076  16.296  68.465  1.00  0.00    -0.337 OA 
BRANCH   9  11
HETATM   11  C   UNL     1     -12.253  14.890  69.961  1.00  0.00    -0.333 C  
HETATM   12  C   UNL     1     -12.410  13.684  70.547  1.00  0.00    -0.355 C  
HETATM   13  C   UNL     1     -11.916  12.326  70.196  1.00  0.00    -0.377 C  
HETATM   14  N   UNL     1     -13.208  13.847  71.661  1.00  0.00    -0.354 N  
HETATM   15  H   UNL     1     -13.483  13.104  72.301  1.00  0.00     0.000 HD 
HETATM   16  C   UNL     1     -13.581  15.187  71.775  1.00  0.00    -0.455 C  
HETATM   17  N   UNL     1     -12.962  15.818  70.694  1.00  0.00    -0.457 NA 
HETATM   18  O   UNL     1     -14.292  15.694  72.620  1.00  0.00    -0.487 OA 
ENDBRANCH   9  11
ENDBRANCH   6   9
ENDBRANCH   2   3
TORSDOF 3
ENDMDL
MODEL       57
REMARK 921   NORMALIZED FREE ENERGY PREDICTED BY IDOCK:   -4.88 KCAL/MOL
REMARK 922        TOTAL FREE ENERGY PREDICTED BY IDOCK:   -6.12 KCAL/MOL
REMARK 923 INTER-LIGAND FREE ENERGY PREDICTED BY IDOCK:   -5.91 KCAL/MOL
REMARK 924 INTRA-LIGAND FREE ENERGY PREDICTED BY IDOCK:   -0.21 KCAL/MOL
REMARK 927      BINDING AFFINITY PREDICTED BY RF-SCORE:    0.00 PKD
ROOT
HETATM    1  C   UNL     1     -11.079  15.181  64.967  1.00  0.00    -0.419 C  
HETATM    2  S   UNL     1     -10.691  13.412  64.870  1.00  0.00    -0.392 SA 
ENDROOT
BRANCH   2   3
HETATM    3  C   UNL     1     -11.139  12.922  66.524  1.00  0.00    -0.286 A  
HETATM    4  C   UNL     1     -11.474  13.872  67.490  1.00  0.00    -0.368 A  
HETATM    5  C   UNL     1     -11.824  13.467  68.781  1.00  0.00    -0.390 A  
HETATM    6  C   UNL     1     -11.847  12.107  69.124  1.00  0.00    -0.361 A  
HETATM    7  C   UNL     1     -11.195  11.563  66.851  1.00  0.00    -0.363 A  
HETATM    8  C   UNL     1     -11.556  11.153  68.143  1.00  0.00    -0.350 A  
BRANCH   6   9
HETATM    9  C   UNL     1     -12.265  11.760  70.509  1.00  0.00    -0.347 C  
HETATM   10  O   UNL     1     -12.452  12.678  71.305  1.00  0.00    -0.309 OA 
BRANCH   9  11
HETATM   11  C   UNL     1     -12.407  10.341  70.933  1.00  0.00    -0.373 C  
HETATM   12  C   UNL     1     -11.413   9.434  71.039  1.00  0.00    -0.334 C  
HETATM   13  C   UNL     1      -9.945   9.523  70.820  1.00  0.00    -0.334 C  
HETATM   14  N   UNL     1     -11.971   8.226  71.406  1.00  0.00    -0.293 N  
HETATM   15  H   UNL     1     -11.452   7.364  71.569  1.00  0.00     0.000 HD 
HETATM   16  C   UNL     1     -13.355   8.367  71.519  1.00  0.00    -0.286 C  
HETATM   17  N   UNL     1     -13.598   9.709  71.219  1.00  0.00    -0.307 NA 
HETATM   18  O   UNL     1     -14.171   7.513  71.807  1.00  0.00    -0.403 OA 
ENDBRANCH   9  11
ENDBRANCH   6   9
ENDBRANCH   2   3
TORSDOF 3
ENDMDL
MODEL       58
REMARK 921   NORMALIZED FREE ENERGY PREDICTED BY IDOCK:   -4.83 KCAL/MOL
REMARK 922        TOTAL FREE ENERGY PREDICTED BY IDOCK:   -6.07 KCAL/MOL
REMARK 923 INTER-LIGAND FREE ENERGY PREDICTED BY IDOCK:   -5.73 KCAL/MOL
REMARK 924 INTRA-LIGAND FREE ENERGY PREDICTED BY IDOCK:   -0.35 KCAL/MOL
REMARK 927      BINDING AFFINITY PREDICTED BY RF-SCORE:    0.00 PKD
ROOT
HETATM    1  C   UNL     1     -11.197   8.332  70.442  1.00  0.00    -0.219 C  
HETATM    2  S   UNL     1     -10.138   8.417  68.972  1.00  0.00    -0.206 SA 
ENDROOT
BRANCH   2   3
HETATM    3  C   UNL     1     -10.679   9.981  68.311  1.00  0.00    -0.240 A  
HETATM    4  C   UNL     1     -10.501  10.293  66.963  1.00  0.00    -0.304 A  
HETATM    5  C   UNL     1     -10.933  11.524  66.463  1.00  0.00    -0.346 A  
HETATM    6  C   UNL     1     -11.552  12.461  67.303  1.00  0.00    -0.435 A  
HETATM    7  C   UNL     1     -11.329  10.897  69.145  1.00  0.00    -0.350 A  
HETATM    8  C   UNL     1     -11.773  12.129  68.645  1.00  0.00    -0.382 A  
BRANCH   6   9
HETATM    9  C   UNL     1     -12.015  13.732  66.684  1.00  0.00    -0.431 C  
HETATM   10  O   UNL     1     -12.989  13.691  65.935  1.00  0.00    -0.357 OA 
BRANCH   9  11
HETATM   11  C   UNL     1     -11.290  15.008  66.925  1.00  0.00    -0.302 C  
HETATM   12  C   UNL     1     -11.307  15.737  68.061  1.00  0.00    -0.310 C  
HETATM   13  C   UNL     1     -11.970  15.532  69.376  1.00  0.00    -0.358 C  
HETATM   14  N   UNL     1     -10.552  16.874  67.854  1.00  0.00    -0.352 N  
HETATM   15  H   UNL     1     -10.381  17.601  68.547  1.00  0.00     0.000 HD 
HETATM   16  C   UNL     1     -10.059  16.875  66.549  1.00  0.00    -0.315 C  
HETATM   17  N   UNL     1     -10.537  15.687  65.990  1.00  0.00    -0.317 NA 
HETATM   18  O   UNL     1      -9.372  17.721  66.011  1.00  0.00    -0.501 OA 
ENDBRANCH   9  11
ENDBRANCH   6   9
ENDBRANCH   2   3
TORSDOF 3
ENDMDL
MODEL       59
REMARK 921   NORMALIZED FREE ENERGY PREDICTED BY IDOCK:   -4.83 KCAL/MOL
REMARK 922        TOTAL FREE ENERGY PREDICTED BY IDOCK:   -6.07 KCAL/MOL
REMARK 923 INTER-LIGAND FREE ENERGY PREDICTED BY IDOCK:   -5.65 KCAL/MOL
REMARK 924 INTRA-LIGAND FREE ENERGY PREDICTED BY IDOCK:   -0.42 KCAL/MOL
REMARK 927      BINDING AFFINITY PREDICTED BY RF-SCORE:    0.00 PKD
ROOT
HETATM    1  C   UNL     1      -6.617  20.046  69.749  1.00  0.00    -0.298 C  
HETATM    2  S   UNL     1      -7.059  20.253  68.003  1.00  0.00    -0.254 SA 
ENDROOT
BRANCH   2   3
HETATM    3  C   UNL     1      -7.745  18.641  67.680  1.00  0.00    -0.231 A  
HETATM    4  C   UNL     1      -7.272  17.855  66.628  1.00  0.00    -0.254 A  
HETATM    5  C   UNL     1      -7.823  16.592  66.392  1.00  0.00    -0.347 A  
HETATM    6  C   UNL     1      -8.853  16.096  67.205  1.00  0.00    -0.202 A  
HETATM    7  C   UNL     1      -8.747  18.135  68.515  1.00  0.00    -0.309 A  
HETATM    8  C   UNL     1      -9.295  16.865  68.288  1.00  0.00    -0.248 A  
BRANCH   6   9
HETATM    9  C   UNL     1      -9.357  14.729  66.908  1.00  0.00    -0.240 C  
HETATM   10  O   UNL     1      -8.643  13.771  67.197  1.00  0.00    -0.206 OA 
BRANCH   9  11
HETATM   11  C   UNL     1     -10.669  14.527  66.235  1.00  0.00    -0.309 C  
HETATM   12  C   UNL     1     -11.841  14.233  66.836  1.00  0.00    -0.433 C  
HETATM   13  C   UNL     1     -12.220  14.050  68.262  1.00  0.00    -0.195 C  
HETATM   14  N   UNL     1     -12.798  14.073  65.855  1.00  0.00    -0.464 N  
HETATM   15  H   UNL     1     -13.781  13.856  66.022  1.00  0.00     0.000 HD 
HETATM   16  C   UNL     1     -12.216  14.254  64.600  1.00  0.00    -0.454 C  
HETATM   17  N   UNL     1     -10.876  14.542  64.872  1.00  0.00    -0.408 NA 
HETATM   18  O   UNL     1     -12.749  14.172  63.511  1.00  0.00    -0.794 OA 
ENDBRANCH   9  11
ENDBRANCH   6   9
ENDBRANCH   2   3
TORSDOF 3
ENDMDL
MODEL       60
REMARK 921   NORMALIZED FREE ENERGY PREDICTED BY IDOCK:   -4.83 KCAL/MOL
REMARK 922        TOTAL FREE ENERGY PREDICTED BY IDOCK:   -6.07 KCAL/MOL
REMARK 923 INTER-LIGAND FREE ENERGY PREDICTED BY IDOCK:   -5.63 KCAL/MOL
REMARK 924 INTRA-LIGAND FREE ENERGY PREDICTED BY IDOCK:   -0.44 KCAL/MOL
REMARK 927      BINDING AFFINITY PREDICTED BY RF-SCORE:    0.00 PKD
ROOT
HETATM    1  C   UNL     1     -10.619   5.652  70.060  1.00  0.00    -0.318 C  
HETATM    2  S   UNL     1     -11.138   7.179  70.889  1.00  0.00    -0.273 SA 
ENDROOT
BRANCH   2   3
HETATM    3  C   UNL     1     -10.712   8.359  69.623  1.00  0.00    -0.198 A  
HETATM    4  C   UNL     1     -10.391   9.677  69.948  1.00  0.00    -0.282 A  
HETATM    5  C   UNL     1     -10.059  10.588  68.941  1.00  0.00    -0.215 A  
HETATM    6  C   UNL     1     -10.039  10.192  67.595  1.00  0.00    -0.231 A  
HETATM    7  C   UNL     1     -10.659   7.950  68.286  1.00  0.00    -0.163 A  
HETATM    8  C   UNL     1     -10.316   8.858  67.275  1.00  0.00    -0.350 A  
BRANCH   6   9
HETATM    9  C   UNL     1      -9.639  11.213  66.590  1.00  0.00    -0.190 C  
HETATM   10  O   UNL     1      -8.700  11.958  66.863  1.00  0.00    -0.180 OA 
BRANCH   9  11
HETATM   11  C   UNL     1     -10.385  11.362  65.312  1.00  0.00    -0.282 C  
HETATM   12  C   UNL     1     -10.072  10.790  64.130  1.00  0.00    -0.353 C  
HETATM   13  C   UNL     1      -8.983   9.864  63.720  1.00  0.00    -0.279 C  
HETATM   14  N   UNL     1     -10.981  11.226  63.187  1.00  0.00    -0.838 N  
HETATM   15  H   UNL     1     -10.992  10.945  62.207  1.00  0.00     0.000 HD 
HETATM   16  C   UNL     1     -11.884  12.108  63.782  1.00  0.00    -0.500 C  
HETATM   17  N   UNL     1     -11.486  12.170  65.119  1.00  0.00    -0.332 NA 
HETATM   18  O   UNL     1     -12.807  12.698  63.257  1.00  0.00    -0.643 OA 
ENDBRANCH   9  11
ENDBRANCH   6   9
ENDBRANCH   2   3
TORSDOF 3
ENDMDL
MODEL       61
REMARK 921   NORMALIZED FREE ENERGY PREDICTED BY IDOCK:   -4.82 KCAL/MOL
REMARK 922        TOTAL FREE ENERGY PREDICTED BY IDOCK:   -6.06 KCAL/MOL
REMARK 923 INTER-LIGAND FREE ENERGY PREDICTED BY IDOCK:   -5.66 KCAL/MOL
REMARK 924 INTRA-LIGAND FREE ENERGY PREDICTED BY IDOCK:   -0.39 KCAL/MOL
REMARK 927      BINDING AFFINITY PREDICTED BY RF-SCORE:    0.00 PKD
ROOT
HETATM    1  C   UNL     1     -12.005   8.475  72.174  1.00  0.00    -0.383 C  
HETATM    2  S   UNL     1     -11.093   8.396  70.609  1.00  0.00    -0.253 SA 
ENDROOT
BRANCH   2   3
HETATM    3  C   UNL     1     -11.325  10.071  70.048  1.00  0.00    -0.275 A  
HETATM    4  C   UNL     1     -12.068  10.984  70.797  1.00  0.00    -0.467 A  
HETATM    5  C   UNL     1     -12.238  12.294  70.341  1.00  0.00    -0.371 A  
HETATM    6  C   UNL     1     -11.664  12.711  69.131  1.00  0.00    -0.375 A  
HETATM    7  C   UNL     1     -10.721  10.492  68.859  1.00  0.00    -0.253 A  
HETATM    8  C   UNL     1     -10.880  11.808  68.403  1.00  0.00    -0.260 A  
BRANCH   6   9
HETATM    9  C   UNL     1     -11.862  14.132  68.736  1.00  0.00    -0.349 C  
HETATM   10  O   UNL     1     -12.596  14.830  69.433  1.00  0.00    -0.115 OA 
BRANCH   9  11
HETATM   11  C   UNL     1     -11.230  14.679  67.505  1.00  0.00    -0.333 C  
HETATM   12  C   UNL     1     -11.632  14.463  66.235  1.00  0.00    -0.372 C  
HETATM   13  C   UNL     1     -12.766  13.694  65.657  1.00  0.00    -0.505 C  
HETATM   14  N   UNL     1     -10.746  15.102  65.390  1.00  0.00    -0.353 N  
HETATM   15  H   UNL     1     -10.811  15.116  64.373  1.00  0.00     0.000 HD 
HETATM   16  C   UNL     1      -9.750  15.724  66.142  1.00  0.00    -0.322 C  
HETATM   17  N   UNL     1     -10.083  15.443  67.469  1.00  0.00    -0.232 NA 
HETATM   18  O   UNL     1      -8.798  16.362  65.738  1.00  0.00    -0.446 OA 
ENDBRANCH   9  11
ENDBRANCH   6   9
ENDBRANCH   2   3
TORSDOF 3
ENDMDL
MODEL       62
REMARK 921   NORMALIZED FREE ENERGY PREDICTED BY IDOCK:   -4.82 KCAL/MOL
REMARK 922        TOTAL FREE ENERGY PREDICTED BY IDOCK:   -6.05 KCAL/MOL
REMARK 923 INTER-LIGAND FREE ENERGY PREDICTED BY IDOCK:   -5.60 KCAL/MOL
REMARK 924 INTRA-LIGAND FREE ENERGY PREDICTED BY IDOCK:   -0.46 KCAL/MOL
REMARK 927      BINDING AFFINITY PREDICTED BY RF-SCORE:    0.00 PKD
ROOT
HETATM    1  C   UNL     1      -5.896  14.490  70.710  1.00  0.00    -0.181 C  
HETATM    2  S   UNL     1      -5.705  13.724  69.078  1.00  0.00    -0.078 SA 
ENDROOT
BRANCH   2   3
HETATM    3  C   UNL     1      -7.402  13.763  68.535  1.00  0.00    -0.117 A  
HETATM    4  C   UNL     1      -7.959  12.691  67.838  1.00  0.00    -0.156 A  
HETATM    5  C   UNL     1      -9.293  12.739  67.422  1.00  0.00    -0.193 A  
HETATM    6  C   UNL     1     -10.089  13.860  67.700  1.00  0.00    -0.241 A  
HETATM    7  C   UNL     1      -8.203  14.867  68.847  1.00  0.00    -0.171 A  
HETATM    8  C   UNL     1      -9.544  14.915  68.440  1.00  0.00    -0.209 A  
BRANCH   6   9
HETATM    9  C   UNL     1     -11.508  13.816  67.254  1.00  0.00    -0.341 C  
HETATM   10  O   UNL     1     -12.387  13.947  68.103  1.00  0.00    -0.250 OA 
BRANCH   9  11
HETATM   11  C   UNL     1     -11.854  13.571  65.828  1.00  0.00    -0.372 C  
HETATM   12  C   UNL     1     -11.677  14.430  64.801  1.00  0.00    -0.416 C  
HETATM   13  C   UNL     1     -11.096  15.797  64.725  1.00  0.00    -0.413 C  
HETATM   14  N   UNL     1     -12.178  13.842  63.658  1.00  0.00    -0.971 N  
HETATM   15  H   UNL     1     -12.168  14.261  62.728  1.00  0.00     0.000 HD 
HETATM   16  C   UNL     1     -12.702  12.587  63.969  1.00  0.00    -0.318 C  
HETATM   17  N   UNL     1     -12.479  12.443  65.341  1.00  0.00    -0.613 NA 
HETATM   18  O   UNL     1     -13.238  11.795  63.220  1.00  0.00    -0.555 OA 
ENDBRANCH   9  11
ENDBRANCH   6   9
ENDBRANCH   2   3
TORSDOF 3
ENDMDL
MODEL       63
REMARK 921   NORMALIZED FREE ENERGY PREDICTED BY IDOCK:   -4.81 KCAL/MOL
REMARK 922        TOTAL FREE ENERGY PREDICTED BY IDOCK:   -6.05 KCAL/MOL
REMARK 923 INTER-LIGAND FREE ENERGY PREDICTED BY IDOCK:   -5.63 KCAL/MOL
REMARK 924 INTRA-LIGAND FREE ENERGY PREDICTED BY IDOCK:   -0.42 KCAL/MOL
REMARK 927      BINDING AFFINITY PREDICTED BY RF-SCORE:    0.00 PKD
ROOT
HETATM    1  C   UNL     1     -10.450  10.632  67.891  1.00  0.00    -0.208 C  
HETATM    2  S   UNL     1     -11.777  11.663  68.571  1.00  0.00    -0.298 SA 
ENDROOT
BRANCH   2   3
HETATM    3  C   UNL     1     -11.415  13.195  67.737  1.00  0.00    -0.313 A  
HETATM    4  C   UNL     1     -11.301  13.248  66.347  1.00  0.00    -0.341 A  
HETATM    5  C   UNL     1     -11.018  14.460  65.711  1.00  0.00    -0.314 A  
HETATM    6  C   UNL     1     -10.848  15.637  66.455  1.00  0.00    -0.260 A  
HETATM    7  C   UNL     1     -11.283  14.373  68.480  1.00  0.00    -0.286 A  
HETATM    8  C   UNL     1     -11.009  15.593  67.845  1.00  0.00    -0.319 A  
BRANCH   6   9
HETATM    9  C   UNL     1     -10.585  16.891  65.698  1.00  0.00    -0.221 C  
HETATM   10  O   UNL     1     -11.213  17.082  64.659  1.00  0.00    -0.968 OA 
BRANCH   9  11
HETATM   11  C   UNL     1      -9.557  17.861  66.159  1.00  0.00    -0.178 C  
HETATM   12  C   UNL     1      -9.761  18.920  66.972  1.00  0.00    -0.309 C  
HETATM   13  C   UNL     1     -10.972  19.435  67.664  1.00  0.00    -0.366 C  
HETATM   14  N   UNL     1      -8.564  19.594  67.108  1.00  0.00    -0.297 N  
HETATM   15  H   UNL     1      -8.421  20.429  67.675  1.00  0.00     0.000 HD 
HETATM   16  C   UNL     1      -7.582  18.958  66.349  1.00  0.00    -0.262 C  
HETATM   17  N   UNL     1      -8.235  17.870  65.767  1.00  0.00    -0.506 NA 
HETATM   18  O   UNL     1      -6.417  19.280  66.215  1.00  0.00    -0.184 OA 
ENDBRANCH   9  11
ENDBRANCH   6   9
ENDBRANCH   2   3
TORSDOF 3
ENDMDL
MODEL       64
REMARK 921   NORMALIZED FREE ENERGY PREDICTED BY IDOCK:   -4.80 KCAL/MOL
REMARK 922        TOTAL FREE ENERGY PREDICTED BY IDOCK:   -6.03 KCAL/MOL
REMARK 923 INTER-LIGAND FREE ENERGY PREDICTED BY IDOCK:   -5.66 KCAL/MOL
REMARK 924 INTRA-LIGAND FREE ENERGY PREDICTED BY IDOCK:   -0.37 KCAL/MOL
REMARK 927      BINDING AFFINITY PREDICTED BY RF-SCORE:    0.00 PKD
ROOT
HETATM    1  C   UNL     1      -9.603   3.659  71.569  1.00  0.00    -0.164 C  
HETATM    2  S   UNL     1      -8.605   5.172  71.533  1.00  0.00    -0.130 SA 
ENDROOT
BRANCH   2   3
HETATM    3  C   UNL     1      -9.909   6.385  71.551  1.00  0.00    -0.168 A  
HETATM    4  C   UNL     1     -11.043   6.235  70.751  1.00  0.00    -0.377 A  
HETATM    5  C   UNL     1     -12.056   7.197  70.780  1.00  0.00    -0.331 A  
HETATM    6  C   UNL     1     -11.952   8.322  71.611  1.00  0.00    -0.346 A  
HETATM    7  C   UNL     1      -9.818   7.487  72.408  1.00  0.00    -0.219 A  
HETATM    8  C   UNL     1     -10.837   8.449  72.447  1.00  0.00    -0.416 A  
BRANCH   6   9
HETATM    9  C   UNL     1     -13.091   9.279  71.609  1.00  0.00    -0.382 C  
HETATM   10  O   UNL     1     -14.224   8.832  71.778  1.00  0.00    -0.398 OA 
BRANCH   9  11
HETATM   11  C   UNL     1     -12.871  10.729  71.360  1.00  0.00    -0.452 C  
HETATM   12  C   UNL     1     -12.148  11.270  70.356  1.00  0.00    -0.384 C  
HETATM   13  C   UNL     1     -11.404  10.668  69.219  1.00  0.00    -0.346 C  
HETATM   14  N   UNL     1     -12.148  12.640  70.517  1.00  0.00    -0.500 N  
HETATM   15  H   UNL     1     -11.688  13.305  69.895  1.00  0.00     0.000 HD 
HETATM   16  C   UNL     1     -12.874  12.977  71.660  1.00  0.00    -0.277 C  
HETATM   17  N   UNL     1     -13.319  11.754  72.167  1.00  0.00    -0.406 NA 
HETATM   18  O   UNL     1     -13.071  14.084  72.120  1.00  0.00    -0.362 OA 
ENDBRANCH   9  11
ENDBRANCH   6   9
ENDBRANCH   2   3
TORSDOF 3
ENDMDL
MODEL       65
REMARK 921   NORMALIZED FREE ENERGY PREDICTED BY IDOCK:   -4.79 KCAL/MOL
REMARK 922        TOTAL FREE ENERGY PREDICTED BY IDOCK:   -6.02 KCAL/MOL
REMARK 923 INTER-LIGAND FREE ENERGY PREDICTED BY IDOCK:   -5.75 KCAL/MOL
REMARK 924 INTRA-LIGAND FREE ENERGY PREDICTED BY IDOCK:   -0.27 KCAL/MOL
REMARK 927      BINDING AFFINITY PREDICTED BY RF-SCORE:    0.00 PKD
ROOT
HETATM    1  C   UNL     1      -9.073  19.801  66.503  1.00  0.00    -0.376 C  
HETATM    2  S   UNL     1      -9.252  19.035  68.137  1.00  0.00    -0.338 SA 
ENDROOT
BRANCH   2   3
HETATM    3  C   UNL     1     -10.084  17.531  67.667  1.00  0.00    -0.328 A  
HETATM    4  C   UNL     1     -10.001  17.040  66.364  1.00  0.00    -0.318 A  
HETATM    5  C   UNL     1     -10.660  15.858  66.015  1.00  0.00    -0.331 A  
HETATM    6  C   UNL     1     -11.410  15.148  66.965  1.00  0.00    -0.277 A  
HETATM    7  C   UNL     1     -10.801  16.808  68.627  1.00  0.00    -0.336 A  
HETATM    8  C   UNL     1     -11.455  15.617  68.283  1.00  0.00    -0.353 A  
BRANCH   6   9
HETATM    9  C   UNL     1     -12.050  13.881  66.521  1.00  0.00    -0.449 C  
HETATM   10  O   UNL     1     -12.835  13.929  65.576  1.00  0.00    -0.609 OA 
BRANCH   9  11
HETATM   11  C   UNL     1     -11.786  12.601  67.231  1.00  0.00    -0.370 C  
HETATM   12  C   UNL     1     -11.203  11.501  66.710  1.00  0.00    -0.285 C  
HETATM   13  C   UNL     1     -10.637  11.206  65.367  1.00  0.00    -0.291 C  
HETATM   14  N   UNL     1     -11.198  10.518  67.678  1.00  0.00    -0.339 N  
HETATM   15  H   UNL     1     -10.809   9.582  67.564  1.00  0.00     0.000 HD 
HETATM   16  C   UNL     1     -11.807  11.000  68.837  1.00  0.00    -0.308 C  
HETATM   17  N   UNL     1     -12.163  12.315  68.526  1.00  0.00    -0.186 NA 
HETATM   18  O   UNL     1     -11.994  10.410  69.883  1.00  0.00    -0.260 OA 
ENDBRANCH   9  11
ENDBRANCH   6   9
ENDBRANCH   2   3
TORSDOF 3
ENDMDL
MODEL       66
REMARK 921   NORMALIZED FREE ENERGY PREDICTED BY IDOCK:   -4.78 KCAL/MOL
REMARK 922        TOTAL FREE ENERGY PREDICTED BY IDOCK:   -6.01 KCAL/MOL
REMARK 923 INTER-LIGAND FREE ENERGY PREDICTED BY IDOCK:   -5.60 KCAL/MOL
REMARK 924 INTRA-LIGAND FREE ENERGY PREDICTED BY IDOCK:   -0.41 KCAL/MOL
REMARK 927      BINDING AFFINITY PREDICTED BY RF-SCORE:    0.00 PKD
ROOT
HETATM    1  C   UNL     1     -12.360  15.976  72.643  1.00  0.00    -0.502 C  
HETATM    2  S   UNL     1     -13.856  15.132  72.060  1.00  0.00    -0.561 SA 
ENDROOT
BRANCH   2   3
HETATM    3  C   UNL     1     -13.121  13.638  71.425  1.00  0.00    -0.319 A  
HETATM    4  C   UNL     1     -13.316  12.413  72.063  1.00  0.00    -0.511 A  
HETATM    5  C   UNL     1     -12.732  11.252  71.548  1.00  0.00    -0.481 A  
HETATM    6  C   UNL     1     -11.947  11.299  70.386  1.00  0.00    -0.471 A  
HETATM    7  C   UNL     1     -12.369  13.684  70.245  1.00  0.00    -0.392 A  
HETATM    8  C   UNL     1     -11.790  12.520  69.721  1.00  0.00    -0.380 A  
BRANCH   6   9
HETATM    9  C   UNL     1     -11.393  10.013  69.885  1.00  0.00    -0.250 C  
HETATM   10  O   UNL     1     -11.625   8.991  70.529  1.00  0.00    -0.254 OA 
BRANCH   9  11
HETATM   11  C   UNL     1     -10.541   9.970  68.667  1.00  0.00    -0.212 C  
HETATM   12  C   UNL     1      -9.191   9.988  68.632  1.00  0.00    -0.152 C  
HETATM   13  C   UNL     1      -8.160  10.023  69.702  1.00  0.00    -0.180 C  
HETATM   14  N   UNL     1      -8.796   9.991  67.309  1.00  0.00    -0.134 N  
HETATM   15  H   UNL     1      -7.830   9.993  66.985  1.00  0.00     0.000 HD 
HETATM   16  C   UNL     1      -9.922   9.993  66.485  1.00  0.00    -0.225 C  
HETATM   17  N   UNL     1     -11.004   9.976  67.368  1.00  0.00    -0.256 NA 
HETATM   18  O   UNL     1      -9.958  10.012  65.271  1.00  0.00    -0.315 OA 
ENDBRANCH   9  11
ENDBRANCH   6   9
ENDBRANCH   2   3
TORSDOF 3
ENDMDL
MODEL       67
REMARK 921   NORMALIZED FREE ENERGY PREDICTED BY IDOCK:   -4.76 KCAL/MOL
REMARK 922        TOTAL FREE ENERGY PREDICTED BY IDOCK:   -5.99 KCAL/MOL
REMARK 923 INTER-LIGAND FREE ENERGY PREDICTED BY IDOCK:   -5.57 KCAL/MOL
REMARK 924 INTRA-LIGAND FREE ENERGY PREDICTED BY IDOCK:   -0.42 KCAL/MOL
REMARK 927      BINDING AFFINITY PREDICTED BY RF-SCORE:    0.00 PKD
ROOT
HETATM    1  C   UNL     1     -10.867   9.622  69.050  1.00  0.00    -0.183 C  
HETATM    2  S   UNL     1     -11.761  10.981  69.850  1.00  0.00    -0.377 SA 
ENDROOT
BRANCH   2   3
HETATM    3  C   UNL     1     -11.542  12.245  68.613  1.00  0.00    -0.323 A  
HETATM    4  C   UNL     1     -10.978  11.947  67.372  1.00  0.00    -0.315 A  
HETATM    5  C   UNL     1     -10.816  12.952  66.414  1.00  0.00    -0.293 A  
HETATM    6  C   UNL     1     -11.218  14.269  66.683  1.00  0.00    -0.337 A  
HETATM    7  C   UNL     1     -11.978  13.549  68.872  1.00  0.00    -0.378 A  
HETATM    8  C   UNL     1     -11.826  14.558  67.910  1.00  0.00    -0.370 A  
BRANCH   6   9
HETATM    9  C   UNL     1     -11.043  15.270  65.597  1.00  0.00    -0.308 C  
HETATM   10  O   UNL     1     -11.505  15.009  64.488  1.00  0.00    -0.373 OA 
BRANCH   9  11
HETATM   11  C   UNL     1     -10.289  16.531  65.832  1.00  0.00    -0.350 C  
HETATM   12  C   UNL     1      -9.037  16.635  66.327  1.00  0.00    -0.298 C  
HETATM   13  C   UNL     1      -8.038  15.619  66.751  1.00  0.00    -0.280 C  
HETATM   14  N   UNL     1      -8.730  17.975  66.441  1.00  0.00    -0.254 N  
HETATM   15  H   UNL     1      -7.844  18.349  66.778  1.00  0.00     0.000 HD 
HETATM   16  C   UNL     1      -9.819  18.741  66.023  1.00  0.00    -0.198 C  
HETATM   17  N   UNL     1     -10.783  17.804  65.642  1.00  0.00    -0.488 NA 
HETATM   18  O   UNL     1      -9.916  19.952  66.000  1.00  0.00    -0.449 OA 
ENDBRANCH   9  11
ENDBRANCH   6   9
ENDBRANCH   2   3
TORSDOF 3
ENDMDL
MODEL       68
REMARK 921   NORMALIZED FREE ENERGY PREDICTED BY IDOCK:   -4.76 KCAL/MOL
REMARK 922        TOTAL FREE ENERGY PREDICTED BY IDOCK:   -5.98 KCAL/MOL
REMARK 923 INTER-LIGAND FREE ENERGY PREDICTED BY IDOCK:   -5.57 KCAL/MOL
REMARK 924 INTRA-LIGAND FREE ENERGY PREDICTED BY IDOCK:   -0.41 KCAL/MOL
REMARK 927      BINDING AFFINITY PREDICTED BY RF-SCORE:    0.00 PKD
ROOT
HETATM    1  C   UNL     1      -8.252  17.485  68.293  1.00  0.00    -0.263 C  
HETATM    2  S   UNL     1     -10.049  17.675  68.440  1.00  0.00    -0.388 SA 
ENDROOT
BRANCH   2   3
HETATM    3  C   UNL     1     -10.529  15.959  68.406  1.00  0.00    -0.254 A  
HETATM    4  C   UNL     1      -9.740  15.004  67.763  1.00  0.00    -0.215 A  
HETATM    5  C   UNL     1     -10.133  13.663  67.748  1.00  0.00    -0.242 A  
HETATM    6  C   UNL     1     -11.319  13.257  68.378  1.00  0.00    -0.326 A  
HETATM    7  C   UNL     1     -11.693  15.553  69.066  1.00  0.00    -0.392 A  
HETATM    8  C   UNL     1     -12.085  14.207  69.062  1.00  0.00    -0.348 A  
BRANCH   6   9
HETATM    9  C   UNL     1     -11.646  11.806  68.347  1.00  0.00    -0.318 C  
HETATM   10  O   UNL     1     -11.812  11.273  67.251  1.00  0.00    -0.562 OA 
BRANCH   9  11
HETATM   11  C   UNL     1     -11.814  11.032  69.606  1.00  0.00    -0.342 C  
HETATM   12  C   UNL     1     -10.902  10.213  70.172  1.00  0.00    -0.311 C  
HETATM   13  C   UNL     1      -9.513   9.844  69.792  1.00  0.00    -0.254 C  
HETATM   14  N   UNL     1     -11.471   9.648  71.295  1.00  0.00    -0.369 N  
HETATM   15  H   UNL     1     -11.005   8.996  71.925  1.00  0.00     0.000 HD 
HETATM   16  C   UNL     1     -12.781  10.106  71.436  1.00  0.00    -0.425 C  
HETATM   17  N   UNL     1     -12.967  10.978  70.361  1.00  0.00    -0.138 NA 
HETATM   18  O   UNL     1     -13.587   9.810  72.296  1.00  0.00    -0.425 OA 
ENDBRANCH   9  11
ENDBRANCH   6   9
ENDBRANCH   2   3
TORSDOF 3
ENDMDL
MODEL       69
REMARK 921   NORMALIZED FREE ENERGY PREDICTED BY IDOCK:   -4.75 KCAL/MOL
REMARK 922        TOTAL FREE ENERGY PREDICTED BY IDOCK:   -5.97 KCAL/MOL
REMARK 923 INTER-LIGAND FREE ENERGY PREDICTED BY IDOCK:   -5.62 KCAL/MOL
REMARK 924 INTRA-LIGAND FREE ENERGY PREDICTED BY IDOCK:   -0.35 KCAL/MOL
REMARK 927      BINDING AFFINITY PREDICTED BY RF-SCORE:    0.00 PKD
ROOT
HETATM    1  C   UNL     1      -6.717  18.764  68.223  1.00  0.00    -0.232 C  
HETATM    2  S   UNL     1      -7.764  19.025  66.766  1.00  0.00    -0.253 SA 
ENDROOT
BRANCH   2   3
HETATM    3  C   UNL     1      -8.918  17.686  66.991  1.00  0.00    -0.250 A  
HETATM    4  C   UNL     1      -9.998  17.806  67.867  1.00  0.00    -0.322 A  
HETATM    5  C   UNL     1     -10.893  16.745  68.029  1.00  0.00    -0.341 A  
HETATM    6  C   UNL     1     -10.724  15.550  67.314  1.00  0.00    -0.308 A  
HETATM    7  C   UNL     1      -8.766  16.509  66.249  1.00  0.00    -0.369 A  
HETATM    8  C   UNL     1      -9.668  15.447  66.401  1.00  0.00    -0.311 A  
BRANCH   6   9
HETATM    9  C   UNL     1     -11.741  14.484  67.517  1.00  0.00    -0.386 C  
HETATM   10  O   UNL     1     -12.471  14.192  66.572  1.00  0.00    -0.447 OA 
BRANCH   9  11
HETATM   11  C   UNL     1     -11.905  13.825  68.840  1.00  0.00    -0.360 C  
HETATM   12  C   UNL     1     -11.454  12.600  69.187  1.00  0.00    -0.304 C  
HETATM   13  C   UNL     1     -10.675  11.572  68.449  1.00  0.00    -0.241 C  
HETATM   14  N   UNL     1     -11.862  12.342  70.480  1.00  0.00    -0.525 N  
HETATM   15  H   UNL     1     -11.654  11.493  71.004  1.00  0.00     0.000 HD 
HETATM   16  C   UNL     1     -12.604  13.422  70.959  1.00  0.00    -0.343 C  
HETATM   17  N   UNL     1     -12.611  14.340  69.907  1.00  0.00    -0.256 NA 
HETATM   18  O   UNL     1     -13.135  13.539  72.047  1.00  0.00    -0.373 OA 
ENDBRANCH   9  11
ENDBRANCH   6   9
ENDBRANCH   2   3
TORSDOF 3
ENDMDL
MODEL       70
REMARK 921   NORMALIZED FREE ENERGY PREDICTED BY IDOCK:   -4.74 KCAL/MOL
REMARK 922        TOTAL FREE ENERGY PREDICTED BY IDOCK:   -5.96 KCAL/MOL
REMARK 923 INTER-LIGAND FREE ENERGY PREDICTED BY IDOCK:   -5.68 KCAL/MOL
REMARK 924 INTRA-LIGAND FREE ENERGY PREDICTED BY IDOCK:   -0.28 KCAL/MOL
REMARK 927      BINDING AFFINITY PREDICTED BY RF-SCORE:    0.00 PKD
ROOT
HETATM    1  C   UNL     1      -8.954   9.755  63.444  1.00  0.00    -0.246 C  
HETATM    2  S   UNL     1      -9.541   9.860  65.157  1.00  0.00    -0.289 SA 
ENDROOT
BRANCH   2   3
HETATM    3  C   UNL     1      -9.830  11.615  65.261  1.00  0.00    -0.248 A  
HETATM    4  C   UNL     1      -9.226  12.386  66.255  1.00  0.00    -0.150 A  
HETATM    5  C   UNL     1      -9.464  13.762  66.320  1.00  0.00    -0.221 A  
HETATM    6  C   UNL     1     -10.307  14.387  65.389  1.00  0.00    -0.400 A  
HETATM    7  C   UNL     1     -10.642  12.241  64.309  1.00  0.00    -0.387 A  
HETATM    8  C   UNL     1     -10.875  13.622  64.364  1.00  0.00    -0.374 A  
BRANCH   6   9
HETATM    9  C   UNL     1     -10.478  15.860  65.506  1.00  0.00    -0.404 C  
HETATM   10  O   UNL     1     -10.942  16.468  64.544  1.00  0.00    -0.827 OA 
BRANCH   9  11
HETATM   11  C   UNL     1     -10.053  16.584  66.734  1.00  0.00    -0.288 C  
HETATM   12  C   UNL     1     -10.614  16.486  67.958  1.00  0.00    -0.328 C  
HETATM   13  C   UNL     1     -11.740  15.668  68.482  1.00  0.00    -0.339 C  
HETATM   14  N   UNL     1      -9.961  17.360  68.802  1.00  0.00    -0.317 N  
HETATM   15  H   UNL     1     -10.170  17.488  69.792  1.00  0.00     0.000 HD 
HETATM   16  C   UNL     1      -8.973  18.043  68.093  1.00  0.00    -0.283 C  
HETATM   17  N   UNL     1      -9.052  17.531  66.796  1.00  0.00    -0.254 NA 
HETATM   18  O   UNL     1      -8.214  18.899  68.506  1.00  0.00    -0.331 OA 
ENDBRANCH   9  11
ENDBRANCH   6   9
ENDBRANCH   2   3
TORSDOF 3
ENDMDL
MODEL       71
REMARK 921   NORMALIZED FREE ENERGY PREDICTED BY IDOCK:   -4.73 KCAL/MOL
REMARK 922        TOTAL FREE ENERGY PREDICTED BY IDOCK:   -5.95 KCAL/MOL
REMARK 923 INTER-LIGAND FREE ENERGY PREDICTED BY IDOCK:   -5.63 KCAL/MOL
REMARK 924 INTRA-LIGAND FREE ENERGY PREDICTED BY IDOCK:   -0.33 KCAL/MOL
REMARK 927      BINDING AFFINITY PREDICTED BY RF-SCORE:    0.00 PKD
ROOT
HETATM    1  C   UNL     1     -11.185   8.333  70.853  1.00  0.00    -0.265 C  
HETATM    2  S   UNL     1     -12.739   8.953  71.553  1.00  0.00    -0.329 SA 
ENDROOT
BRANCH   2   3
HETATM    3  C   UNL     1     -12.570  10.682  71.156  1.00  0.00    -0.423 A  
HETATM    4  C   UNL     1     -11.787  11.100  70.079  1.00  0.00    -0.441 A  
HETATM    5  C   UNL     1     -11.669  12.460  69.783  1.00  0.00    -0.361 A  
HETATM    6  C   UNL     1     -12.334  13.423  70.557  1.00  0.00    -0.401 A  
HETATM    7  C   UNL     1     -13.264  11.636  71.908  1.00  0.00    -0.475 A  
HETATM    8  C   UNL     1     -13.156  13.001  71.608  1.00  0.00    -0.440 A  
BRANCH   6   9
HETATM    9  C   UNL     1     -12.184  14.846  70.152  1.00  0.00    -0.336 C  
HETATM   10  O   UNL     1     -13.093  15.627  70.428  1.00  0.00    -0.379 OA 
BRANCH   9  11
HETATM   11  C   UNL     1     -10.990  15.303  69.390  1.00  0.00    -0.271 C  
HETATM   12  C   UNL     1     -10.830  15.261  68.051  1.00  0.00    -0.288 C  
HETATM   13  C   UNL     1     -11.719  14.811  66.947  1.00  0.00    -0.316 C  
HETATM   14  N   UNL     1      -9.564  15.725  67.755  1.00  0.00    -0.213 N  
HETATM   15  H   UNL     1      -9.175  15.814  66.817  1.00  0.00     0.000 HD 
HETATM   16  C   UNL     1      -8.900  16.055  68.937  1.00  0.00    -0.233 C  
HETATM   17  N   UNL     1      -9.823  15.782  69.948  1.00  0.00    -0.230 NA 
HETATM   18  O   UNL     1      -7.767  16.478  69.063  1.00  0.00    -0.225 OA 
ENDBRANCH   9  11
ENDBRANCH   6   9
ENDBRANCH   2   3
TORSDOF 3
ENDMDL
MODEL       72
REMARK 921   NORMALIZED FREE ENERGY PREDICTED BY IDOCK:   -4.73 KCAL/MOL
REMARK 922        TOTAL FREE ENERGY PREDICTED BY IDOCK:   -5.95 KCAL/MOL
REMARK 923 INTER-LIGAND FREE ENERGY PREDICTED BY IDOCK:   -5.59 KCAL/MOL
REMARK 924 INTRA-LIGAND FREE ENERGY PREDICTED BY IDOCK:   -0.36 KCAL/MOL
REMARK 927      BINDING AFFINITY PREDICTED BY RF-SCORE:    0.00 PKD
ROOT
HETATM    1  C   UNL     1     -12.364  15.988  72.652  1.00  0.00    -0.502 C  
HETATM    2  S   UNL     1     -13.759  15.312  71.711  1.00  0.00    -0.539 SA 
ENDROOT
BRANCH   2   3
HETATM    3  C   UNL     1     -13.075  13.727  71.270  1.00  0.00    -0.297 A  
HETATM    4  C   UNL     1     -13.352  12.588  72.027  1.00  0.00    -0.528 A  
HETATM    5  C   UNL     1     -12.807  11.353  71.664  1.00  0.00    -0.497 A  
HETATM    6  C   UNL     1     -11.979  11.239  70.537  1.00  0.00    -0.467 A  
HETATM    7  C   UNL     1     -12.279  13.611  70.125  1.00  0.00    -0.413 A  
HETATM    8  C   UNL     1     -11.739  12.373  69.752  1.00  0.00    -0.361 A  
BRANCH   6   9
HETATM    9  C   UNL     1     -11.470   9.883  70.199  1.00  0.00    -0.248 C  
HETATM   10  O   UNL     1     -10.881   9.734  69.131  1.00  0.00    -0.219 OA 
BRANCH   9  11
HETATM   11  C   UNL     1     -11.710   8.728  71.106  1.00  0.00    -0.291 C  
HETATM   12  C   UNL     1     -10.834   8.211  71.994  1.00  0.00    -0.284 C  
HETATM   13  C   UNL     1      -9.448   8.592  72.375  1.00  0.00    -0.350 C  
HETATM   14  N   UNL     1     -11.425   7.117  72.593  1.00  0.00    -0.443 N  
HETATM   15  H   UNL     1     -10.995   6.538  73.314  1.00  0.00     0.000 HD 
HETATM   16  C   UNL     1     -12.700   6.925  72.060  1.00  0.00    -0.193 C  
HETATM   17  N   UNL     1     -12.852   7.956  71.131  1.00  0.00    -0.192 NA 
HETATM   18  O   UNL     1     -13.500   6.053  72.336  1.00  0.00     0.234 OA 
ENDBRANCH   9  11
ENDBRANCH   6   9
ENDBRANCH   2   3
TORSDOF 3
ENDMDL
MODEL       73
REMARK 921   NORMALIZED FREE ENERGY PREDICTED BY IDOCK:   -4.72 KCAL/MOL
REMARK 922        TOTAL FREE ENERGY PREDICTED BY IDOCK:   -5.94 KCAL/MOL
REMARK 923 INTER-LIGAND FREE ENERGY PREDICTED BY IDOCK:   -5.71 KCAL/MOL
REMARK 924 INTRA-LIGAND FREE ENERGY PREDICTED BY IDOCK:   -0.22 KCAL/MOL
REMARK 927      BINDING AFFINITY PREDICTED BY RF-SCORE:    0.00 PKD
ROOT
HETATM    1  C   UNL     1      -9.386  10.224  62.807  1.00  0.00    -0.314 C  
HETATM    2  S   UNL     1      -9.519   9.977  64.598  1.00  0.00    -0.288 SA 
ENDROOT
BRANCH   2   3
HETATM    3  C   UNL     1      -9.807  11.661  65.106  1.00  0.00    -0.249 A  
HETATM    4  C   UNL     1      -9.390  12.117  66.357  1.00  0.00    -0.225 A  
HETATM    5  C   UNL     1      -9.624  13.441  66.736  1.00  0.00    -0.262 A  
HETATM    6  C   UNL     1     -10.276  14.331  65.869  1.00  0.00    -0.338 A  
HETATM    7  C   UNL     1     -10.425  12.554  64.223  1.00  0.00    -0.404 A  
HETATM    8  C   UNL     1     -10.652  13.886  64.596  1.00  0.00    -0.432 A  
BRANCH   6   9
HETATM    9  C   UNL     1     -10.453  15.732  66.335  1.00  0.00    -0.303 C  
HETATM   10  O   UNL     1     -10.197  16.641  65.549  1.00  0.00    -0.550 OA 
BRANCH   9  11
HETATM   11  C   UNL     1     -10.881  16.026  67.730  1.00  0.00    -0.324 C  
HETATM   12  C   UNL     1     -10.301  16.901  68.578  1.00  0.00    -0.336 C  
HETATM   13  C   UNL     1      -9.148  17.828  68.430  1.00  0.00    -0.278 C  
HETATM   14  N   UNL     1     -10.965  16.833  69.786  1.00  0.00    -0.392 N  
HETATM   15  H   UNL     1     -10.747  17.393  70.609  1.00  0.00     0.000 HD 
HETATM   16  C   UNL     1     -11.980  15.878  69.707  1.00  0.00    -0.264 C  
HETATM   17  N   UNL     1     -11.904  15.391  68.401  1.00  0.00    -0.313 NA 
HETATM   18  O   UNL     1     -12.754  15.539  70.580  1.00  0.00    -0.439 OA 
ENDBRANCH   9  11
ENDBRANCH   6   9
ENDBRANCH   2   3
TORSDOF 3
ENDMDL
MODEL       74
REMARK 921   NORMALIZED FREE ENERGY PREDICTED BY IDOCK:   -4.70 KCAL/MOL
REMARK 922        TOTAL FREE ENERGY PREDICTED BY IDOCK:   -5.92 KCAL/MOL
REMARK 923 INTER-LIGAND FREE ENERGY PREDICTED BY IDOCK:   -5.44 KCAL/MOL
REMARK 924 INTRA-LIGAND FREE ENERGY PREDICTED BY IDOCK:   -0.47 KCAL/MOL
REMARK 927      BINDING AFFINITY PREDICTED BY RF-SCORE:    0.00 PKD
ROOT
HETATM    1  C   UNL     1     -10.361   7.122  71.819  1.00  0.00    -0.196 C  
HETATM    2  S   UNL     1     -11.569   8.318  72.450  1.00  0.00    -0.385 SA 
ENDROOT
BRANCH   2   3
HETATM    3  C   UNL     1     -11.555   9.487  71.105  1.00  0.00    -0.367 A  
HETATM    4  C   UNL     1     -10.840   9.230  69.935  1.00  0.00    -0.252 A  
HETATM    5  C   UNL     1     -10.843  10.159  68.891  1.00  0.00    -0.256 A  
HETATM    6  C   UNL     1     -11.564  11.357  69.000  1.00  0.00    -0.383 A  
HETATM    7  C   UNL     1     -12.306  10.664  71.204  1.00  0.00    -0.505 A  
HETATM    8  C   UNL     1     -12.320  11.593  70.155  1.00  0.00    -0.297 A  
BRANCH   6   9
HETATM    9  C   UNL     1     -11.545  12.274  67.829  1.00  0.00    -0.351 C  
HETATM   10  O   UNL     1     -12.034  11.877  66.774  1.00  0.00    -0.613 OA 
BRANCH   9  11
HETATM   11  C   UNL     1     -10.907  13.615  67.919  1.00  0.00    -0.250 C  
HETATM   12  C   UNL     1      -9.586  13.868  68.036  1.00  0.00    -0.219 C  
HETATM   13  C   UNL     1      -8.394  12.980  68.083  1.00  0.00    -0.164 C  
HETATM   14  N   UNL     1      -9.419  15.234  68.144  1.00  0.00    -0.201 N  
HETATM   15  H   UNL     1      -8.522  15.711  68.234  1.00  0.00     0.000 HD 
HETATM   16  C   UNL     1     -10.664  15.861  68.112  1.00  0.00    -0.302 C  
HETATM   17  N   UNL     1     -11.581  14.817  67.966  1.00  0.00    -0.333 NA 
HETATM   18  O   UNL     1     -10.904  17.049  68.199  1.00  0.00    -0.370 OA 
ENDBRANCH   9  11
ENDBRANCH   6   9
ENDBRANCH   2   3
TORSDOF 3
ENDMDL
MODEL       75
REMARK 921   NORMALIZED FREE ENERGY PREDICTED BY IDOCK:   -4.70 KCAL/MOL
REMARK 922        TOTAL FREE ENERGY PREDICTED BY IDOCK:   -5.91 KCAL/MOL
REMARK 923 INTER-LIGAND FREE ENERGY PREDICTED BY IDOCK:   -5.46 KCAL/MOL
REMARK 924 INTRA-LIGAND FREE ENERGY PREDICTED BY IDOCK:   -0.45 KCAL/MOL
REMARK 927      BINDING AFFINITY PREDICTED BY RF-SCORE:    0.00 PKD
ROOT
HETATM    1  C   UNL     1     -11.125  11.384  63.504  1.00  0.00    -0.285 C  
HETATM    2  S   UNL     1     -12.341  12.501  64.255  1.00  0.00    -0.441 SA 
ENDROOT
BRANCH   2   3
HETATM    3  C   UNL     1     -11.238  13.736  64.912  1.00  0.00    -0.349 A  
HETATM    4  C   UNL     1     -11.412  15.088  64.615  1.00  0.00    -0.382 A  
HETATM    5  C   UNL     1     -10.537  16.042  65.142  1.00  0.00    -0.394 A  
HETATM    6  C   UNL     1      -9.476  15.658  65.976  1.00  0.00    -0.390 A  
HETATM    7  C   UNL     1     -10.203  13.352  65.773  1.00  0.00    -0.300 A  
HETATM    8  C   UNL     1      -9.329  14.308  66.311  1.00  0.00    -0.236 A  
BRANCH   6   9
HETATM    9  C   UNL     1      -8.614  16.740  66.523  1.00  0.00    -0.277 C  
HETATM   10  O   UNL     1      -7.400  16.659  66.344  1.00  0.00    -0.259 OA 
BRANCH   9  11
HETATM   11  C   UNL     1      -9.197  17.861  67.307  1.00  0.00    -0.254 C  
HETATM   12  C   UNL     1      -9.921  17.754  68.442  1.00  0.00    -0.362 C  
HETATM   13  C   UNL     1     -10.335  16.585  69.262  1.00  0.00    -0.318 C  
HETATM   14  N   UNL     1     -10.320  19.020  68.818  1.00  0.00    -0.488 N  
HETATM   15  H   UNL     1     -10.872  19.241  69.646  1.00  0.00     0.000 HD 
HETATM   16  C   UNL     1      -9.852  19.952  67.890  1.00  0.00    -0.404 C  
HETATM   17  N   UNL     1      -9.146  19.193  66.954  1.00  0.00    -0.296 NA 
HETATM   18  O   UNL     1     -10.024  21.155  67.889  1.00  0.00    -0.027 OA 
ENDBRANCH   9  11
ENDBRANCH   6   9
ENDBRANCH   2   3
TORSDOF 3
ENDMDL
MODEL       76
REMARK 921   NORMALIZED FREE ENERGY PREDICTED BY IDOCK:   -4.68 KCAL/MOL
REMARK 922        TOTAL FREE ENERGY PREDICTED BY IDOCK:   -5.90 KCAL/MOL
REMARK 923 INTER-LIGAND FREE ENERGY PREDICTED BY IDOCK:   -5.57 KCAL/MOL
REMARK 924 INTRA-LIGAND FREE ENERGY PREDICTED BY IDOCK:   -0.32 KCAL/MOL
REMARK 927      BINDING AFFINITY PREDICTED BY RF-SCORE:    0.00 PKD
ROOT
HETATM    1  C   UNL     1      -8.089  19.217  68.597  1.00  0.00    -0.370 C  
HETATM    2  S   UNL     1      -7.884  18.598  66.905  1.00  0.00    -0.243 SA 
ENDROOT
BRANCH   2   3
HETATM    3  C   UNL     1      -9.065  17.264  66.935  1.00  0.00    -0.236 A  
HETATM    4  C   UNL     1      -8.866  16.109  66.178  1.00  0.00    -0.367 A  
HETATM    5  C   UNL     1      -9.804  15.074  66.216  1.00  0.00    -0.307 A  
HETATM    6  C   UNL     1     -10.953  15.176  67.015  1.00  0.00    -0.322 A  
HETATM    7  C   UNL     1     -10.191  17.356  67.761  1.00  0.00    -0.345 A  
HETATM    8  C   UNL     1     -11.128  16.315  67.810  1.00  0.00    -0.227 A  
BRANCH   6   9
HETATM    9  C   UNL     1     -11.881  14.015  67.026  1.00  0.00    -0.428 C  
HETATM   10  O   UNL     1     -12.785  13.987  66.194  1.00  0.00    -0.450 OA 
BRANCH   9  11
HETATM   11  C   UNL     1     -11.750  12.941  68.047  1.00  0.00    -0.356 C  
HETATM   12  C   UNL     1     -11.964  13.066  69.374  1.00  0.00    -0.281 C  
HETATM   13  C   UNL     1     -12.399  14.211  70.217  1.00  0.00    -0.421 C  
HETATM   14  N   UNL     1     -11.681  11.854  69.971  1.00  0.00    -0.462 N  
HETATM   15  H   UNL     1     -11.765  11.656  70.968  1.00  0.00     0.000 HD 
HETATM   16  C   UNL     1     -11.260  10.943  69.002  1.00  0.00    -0.266 C  
HETATM   17  N   UNL     1     -11.318  11.654  67.802  1.00  0.00    -0.269 NA 
HETATM   18  O   UNL     1     -10.913   9.790  69.163  1.00  0.00    -0.222 OA 
ENDBRANCH   9  11
ENDBRANCH   6   9
ENDBRANCH   2   3
TORSDOF 3
ENDMDL
MODEL       77
REMARK 921   NORMALIZED FREE ENERGY PREDICTED BY IDOCK:   -4.67 KCAL/MOL
REMARK 922        TOTAL FREE ENERGY PREDICTED BY IDOCK:   -5.87 KCAL/MOL
REMARK 923 INTER-LIGAND FREE ENERGY PREDICTED BY IDOCK:   -5.48 KCAL/MOL
REMARK 924 INTRA-LIGAND FREE ENERGY PREDICTED BY IDOCK:   -0.39 KCAL/MOL
REMARK 927      BINDING AFFINITY PREDICTED BY RF-SCORE:    0.00 PKD
ROOT
HETATM    1  C   UNL     1     -14.373   8.141  71.334  1.00  0.00    -0.365 C  
HETATM    2  S   UNL     1     -13.537   9.171  72.569  1.00  0.00    -0.340 SA 
ENDROOT
BRANCH   2   3
HETATM    3  C   UNL     1     -12.959  10.486  71.513  1.00  0.00    -0.460 A  
HETATM    4  C   UNL     1     -13.147  11.824  71.862  1.00  0.00    -0.482 A  
HETATM    5  C   UNL     1     -12.686  12.840  71.021  1.00  0.00    -0.331 A  
HETATM    6  C   UNL     1     -12.027  12.534  69.821  1.00  0.00    -0.359 A  
HETATM    7  C   UNL     1     -12.271  10.175  70.335  1.00  0.00    -0.300 A  
HETATM    8  C   UNL     1     -11.798  11.192  69.494  1.00  0.00    -0.423 A  
BRANCH   6   9
HETATM    9  C   UNL     1     -11.536  13.674  69.002  1.00  0.00    -0.312 C  
HETATM   10  O   UNL     1     -12.114  14.754  69.107  1.00  0.00    -0.298 OA 
BRANCH   9  11
HETATM   11  C   UNL     1     -10.409  13.501  68.046  1.00  0.00    -0.241 C  
HETATM   12  C   UNL     1     -10.492  13.016  66.789  1.00  0.00    -0.259 C  
HETATM   13  C   UNL     1     -11.640  12.551  65.966  1.00  0.00    -0.456 C  
HETATM   14  N   UNL     1      -9.217  12.966  66.263  1.00  0.00    -0.432 N  
HETATM   15  H   UNL     1      -8.981  12.650  65.323  1.00  0.00     0.000 HD 
HETATM   16  C   UNL     1      -8.301  13.413  67.216  1.00  0.00    -0.176 C  
HETATM   17  N   UNL     1      -9.081  13.746  68.325  1.00  0.00    -0.194 NA 
HETATM   18  O   UNL     1      -7.093  13.491  67.111  1.00  0.00    -0.053 OA 
ENDBRANCH   9  11
ENDBRANCH   6   9
ENDBRANCH   2   3
TORSDOF 3
ENDMDL
MODEL       78
REMARK 921   NORMALIZED FREE ENERGY PREDICTED BY IDOCK:   -4.65 KCAL/MOL
REMARK 922        TOTAL FREE ENERGY PREDICTED BY IDOCK:   -5.86 KCAL/MOL
REMARK 923 INTER-LIGAND FREE ENERGY PREDICTED BY IDOCK:   -5.43 KCAL/MOL
REMARK 924 INTRA-LIGAND FREE ENERGY PREDICTED BY IDOCK:   -0.42 KCAL/MOL
REMARK 927      BINDING AFFINITY PREDICTED BY RF-SCORE:    0.00 PKD
ROOT
HETATM    1  C   UNL     1     -12.093  16.266  73.048  1.00  0.00    -0.530 C  
HETATM    2  S   UNL     1     -13.524  15.159  72.933  1.00  0.00    -0.470 SA 
ENDROOT
BRANCH   2   3
HETATM    3  C   UNL     1     -12.937  14.051  71.667  1.00  0.00    -0.352 A  
HETATM    4  C   UNL     1     -12.957  12.669  71.855  1.00  0.00    -0.402 A  
HETATM    5  C   UNL     1     -12.493  11.816  70.849  1.00  0.00    -0.416 A  
HETATM    6  C   UNL     1     -12.005  12.333  69.640  1.00  0.00    -0.347 A  
HETATM    7  C   UNL     1     -12.485  14.570  70.449  1.00  0.00    -0.407 A  
HETATM    8  C   UNL     1     -12.028  13.717  69.434  1.00  0.00    -0.397 A  
BRANCH   6   9
HETATM    9  C   UNL     1     -11.565  11.356  68.609  1.00  0.00    -0.320 C  
HETATM   10  O   UNL     1     -12.083  10.241  68.608  1.00  0.00    -0.099 OA 
BRANCH   9  11
HETATM   11  C   UNL     1     -10.494  11.701  67.636  1.00  0.00    -0.191 C  
HETATM   12  C   UNL     1     -10.669  12.199  66.394  1.00  0.00    -0.257 C  
HETATM   13  C   UNL     1     -11.885  12.579  65.627  1.00  0.00    -0.493 C  
HETATM   14  N   UNL     1      -9.428  12.325  65.802  1.00  0.00    -0.409 N  
HETATM   15  H   UNL     1      -9.258  12.687  64.865  1.00  0.00     0.000 HD 
HETATM   16  C   UNL     1      -8.443  11.879  66.684  1.00  0.00    -0.143 C  
HETATM   17  N   UNL     1      -9.144  11.497  67.830  1.00  0.00    -0.162 NA 
HETATM   18  O   UNL     1      -7.244  11.827  66.498  1.00  0.00    -0.038 OA 
ENDBRANCH   9  11
ENDBRANCH   6   9
ENDBRANCH   2   3
TORSDOF 3
ENDMDL
MODEL       79
REMARK 921   NORMALIZED FREE ENERGY PREDICTED BY IDOCK:   -4.64 KCAL/MOL
REMARK 922        TOTAL FREE ENERGY PREDICTED BY IDOCK:   -5.84 KCAL/MOL
REMARK 923 INTER-LIGAND FREE ENERGY PREDICTED BY IDOCK:   -5.45 KCAL/MOL
REMARK 924 INTRA-LIGAND FREE ENERGY PREDICTED BY IDOCK:   -0.39 KCAL/MOL
REMARK 927      BINDING AFFINITY PREDICTED BY RF-SCORE:    0.00 PKD
ROOT
HETATM    1  C   UNL     1     -10.952   8.753  71.099  1.00  0.00    -0.268 C  
HETATM    2  S   UNL     1      -9.218   8.864  70.581  1.00  0.00    -0.234 SA 
ENDROOT
BRANCH   2   3
HETATM    3  C   UNL     1      -9.440   9.593  68.970  1.00  0.00    -0.168 A  
HETATM    4  C   UNL     1      -8.344   9.902  68.163  1.00  0.00    -0.110 A  
HETATM    5  C   UNL     1      -8.539  10.472  66.902  1.00  0.00    -0.125 A  
HETATM    6  C   UNL     1      -9.832  10.739  66.428  1.00  0.00    -0.254 A  
HETATM    7  C   UNL     1     -10.733   9.824  68.487  1.00  0.00    -0.252 A  
HETATM    8  C   UNL     1     -10.932  10.386  67.218  1.00  0.00    -0.306 A  
BRANCH   6   9
HETATM    9  C   UNL     1      -9.953  11.313  65.061  1.00  0.00    -0.274 C  
HETATM   10  O   UNL     1      -9.531  10.651  64.115  1.00  0.00    -0.232 OA 
BRANCH   9  11
HETATM   11  C   UNL     1     -10.522  12.671  64.849  1.00  0.00    -0.309 C  
HETATM   12  C   UNL     1     -11.629  12.974  64.140  1.00  0.00    -0.407 C  
HETATM   13  C   UNL     1     -12.612  12.134  63.405  1.00  0.00    -0.584 C  
HETATM   14  N   UNL     1     -11.779  14.346  64.143  1.00  0.00    -0.652 N  
HETATM   15  H   UNL     1     -12.539  14.855  63.692  1.00  0.00     0.000 HD 
HETATM   16  C   UNL     1     -10.732  14.929  64.856  1.00  0.00    -0.405 C  
HETATM   17  N   UNL     1      -9.959  13.850  65.292  1.00  0.00    -0.281 NA 
HETATM   18  O   UNL     1     -10.529  16.111  65.052  1.00  0.00    -0.595 OA 
ENDBRANCH   9  11
ENDBRANCH   6   9
ENDBRANCH   2   3
TORSDOF 3
ENDMDL
MODEL       80
REMARK 921   NORMALIZED FREE ENERGY PREDICTED BY IDOCK:   -4.61 KCAL/MOL
REMARK 922        TOTAL FREE ENERGY PREDICTED BY IDOCK:   -5.81 KCAL/MOL
REMARK 923 INTER-LIGAND FREE ENERGY PREDICTED BY IDOCK:   -5.50 KCAL/MOL
REMARK 924 INTRA-LIGAND FREE ENERGY PREDICTED BY IDOCK:   -0.32 KCAL/MOL
REMARK 927      BINDING AFFINITY PREDICTED BY RF-SCORE:    0.00 PKD
ROOT
HETATM    1  C   UNL     1     -12.749  13.861  65.148  1.00  0.00    -0.398 C  
HETATM    2  S   UNL     1     -11.502  12.659  64.610  1.00  0.00    -0.350 SA 
ENDROOT
BRANCH   2   3
HETATM    3  C   UNL     1     -11.185  11.849  66.165  1.00  0.00    -0.333 A  
HETATM    4  C   UNL     1     -10.551  10.607  66.213  1.00  0.00    -0.229 A  
HETATM    5  C   UNL     1     -10.310   9.988  67.443  1.00  0.00    -0.292 A  
HETATM    6  C   UNL     1     -10.697  10.603  68.643  1.00  0.00    -0.239 A  
HETATM    7  C   UNL     1     -11.540  12.483  67.360  1.00  0.00    -0.434 A  
HETATM    8  C   UNL     1     -11.291  11.870  68.596  1.00  0.00    -0.331 A  
BRANCH   6   9
HETATM    9  C   UNL     1     -10.371   9.894  69.909  1.00  0.00    -0.258 C  
HETATM   10  O   UNL     1      -9.201   9.891  70.287  1.00  0.00    -0.215 OA 
BRANCH   9  11
HETATM   11  C   UNL     1     -11.422   9.167  70.670  1.00  0.00    -0.262 C  
HETATM   12  C   UNL     1     -12.437   9.722  71.365  1.00  0.00    -0.387 C  
HETATM   13  C   UNL     1     -12.855  11.133  71.577  1.00  0.00    -0.542 C  
HETATM   14  N   UNL     1     -13.150   8.706  71.969  1.00  0.00    -0.358 N  
HETATM   15  H   UNL     1     -13.978   8.834  72.550  1.00  0.00     0.000 HD 
HETATM   16  C   UNL     1     -12.563   7.478  71.664  1.00  0.00    -0.348 C  
HETATM   17  N   UNL     1     -11.480   7.799  70.843  1.00  0.00    -0.279 NA 
HETATM   18  O   UNL     1     -12.908   6.373  72.034  1.00  0.00    -0.242 OA 
ENDBRANCH   9  11
ENDBRANCH   6   9
ENDBRANCH   2   3
TORSDOF 3
ENDMDL
MODEL       81
REMARK 921   NORMALIZED FREE ENERGY PREDICTED BY IDOCK:   -4.61 KCAL/MOL
REMARK 922        TOTAL FREE ENERGY PREDICTED BY IDOCK:   -5.81 KCAL/MOL
REMARK 923 INTER-LIGAND FREE ENERGY PREDICTED BY IDOCK:   -5.35 KCAL/MOL
REMARK 924 INTRA-LIGAND FREE ENERGY PREDICTED BY IDOCK:   -0.45 KCAL/MOL
REMARK 927      BINDING AFFINITY PREDICTED BY RF-SCORE:    0.00 PKD
ROOT
HETATM    1  C   UNL     1     -12.343  12.244  64.113  1.00  0.00    -0.451 C  
HETATM    2  S   UNL     1     -11.095  11.859  65.371  1.00  0.00    -0.285 SA 
ENDROOT
BRANCH   2   3
HETATM    3  C   UNL     1     -10.439  13.493  65.643  1.00  0.00    -0.293 A  
HETATM    4  C   UNL     1      -9.334  13.697  66.470  1.00  0.00    -0.242 A  
HETATM    5  C   UNL     1      -8.833  14.986  66.670  1.00  0.00    -0.307 A  
HETATM    6  C   UNL     1      -9.429  16.091  66.044  1.00  0.00    -0.384 A  
HETATM    7  C   UNL     1     -11.014  14.588  64.988  1.00  0.00    -0.408 A  
HETATM    8  C   UNL     1     -10.508  15.881  65.178  1.00  0.00    -0.363 A  
BRANCH   6   9
HETATM    9  C   UNL     1      -8.812  17.424  66.281  1.00  0.00    -0.203 C  
HETATM   10  O   UNL     1      -7.727  17.662  65.754  1.00  0.00    -0.540 OA 
BRANCH   9  11
HETATM   11  C   UNL     1      -9.465  18.422  67.170  1.00  0.00    -0.282 C  
HETATM   12  C   UNL     1     -10.322  19.393  66.791  1.00  0.00    -0.443 C  
HETATM   13  C   UNL     1     -10.897  19.765  65.471  1.00  0.00    -0.254 C  
HETATM   14  N   UNL     1     -10.651  20.135  67.907  1.00  0.00    -0.259 N  
HETATM   15  H   UNL     1     -11.292  20.928  67.917  1.00  0.00     0.000 HD 
HETATM   16  C   UNL     1      -9.974  19.632  69.018  1.00  0.00    -0.399 C  
HETATM   17  N   UNL     1      -9.238  18.553  68.524  1.00  0.00    -0.330 NA 
HETATM   18  O   UNL     1     -10.007  20.043  70.161  1.00  0.00     0.088 OA 
ENDBRANCH   9  11
ENDBRANCH   6   9
ENDBRANCH   2   3
TORSDOF 3
ENDMDL
MODEL       82
REMARK 921   NORMALIZED FREE ENERGY PREDICTED BY IDOCK:   -4.60 KCAL/MOL
REMARK 922        TOTAL FREE ENERGY PREDICTED BY IDOCK:   -5.80 KCAL/MOL
REMARK 923 INTER-LIGAND FREE ENERGY PREDICTED BY IDOCK:   -5.42 KCAL/MOL
REMARK 924 INTRA-LIGAND FREE ENERGY PREDICTED BY IDOCK:   -0.38 KCAL/MOL
REMARK 927      BINDING AFFINITY PREDICTED BY RF-SCORE:    0.00 PKD
ROOT
HETATM    1  C   UNL     1      -8.877   5.467  65.636  1.00  0.00    -0.152 C  
HETATM    2  S   UNL     1      -7.789   6.900  65.414  1.00  0.00    -0.121 SA 
ENDROOT
BRANCH   2   3
HETATM    3  C   UNL     1      -8.890   8.192  65.956  1.00  0.00    -0.172 A  
HETATM    4  C   UNL     1      -9.914   7.930  66.867  1.00  0.00    -0.332 A  
HETATM    5  C   UNL     1     -10.766   8.958  67.280  1.00  0.00    -0.219 A  
HETATM    6  C   UNL     1     -10.606  10.263  66.790  1.00  0.00    -0.252 A  
HETATM    7  C   UNL     1      -8.703   9.499  65.493  1.00  0.00    -0.180 A  
HETATM    8  C   UNL     1      -9.550  10.534  65.913  1.00  0.00    -0.254 A  
BRANCH   6   9
HETATM    9  C   UNL     1     -11.533  11.304  67.309  1.00  0.00    -0.186 C  
HETATM   10  O   UNL     1     -12.155  11.064  68.342  1.00  0.00    -0.594 OA 
BRANCH   9  11
HETATM   11  C   UNL     1     -11.738  12.580  66.572  1.00  0.00    -0.391 C  
HETATM   12  C   UNL     1     -11.431  13.818  67.013  1.00  0.00    -0.346 C  
HETATM   13  C   UNL     1     -10.803  14.310  68.268  1.00  0.00    -0.256 C  
HETATM   14  N   UNL     1     -11.831  14.727  66.054  1.00  0.00    -0.263 N  
HETATM   15  H   UNL     1     -11.712  15.738  66.117  1.00  0.00     0.000 HD 
HETATM   16  C   UNL     1     -12.422  14.050  64.987  1.00  0.00    -0.425 C  
HETATM   17  N   UNL     1     -12.346  12.701  65.340  1.00  0.00    -0.609 NA 
HETATM   18  O   UNL     1     -12.904  14.525  63.977  1.00  0.00    -0.672 OA 
ENDBRANCH   9  11
ENDBRANCH   6   9
ENDBRANCH   2   3
TORSDOF 3
ENDMDL
MODEL       83
REMARK 921   NORMALIZED FREE ENERGY PREDICTED BY IDOCK:   -4.59 KCAL/MOL
REMARK 922        TOTAL FREE ENERGY PREDICTED BY IDOCK:   -5.78 KCAL/MOL
REMARK 923 INTER-LIGAND FREE ENERGY PREDICTED BY IDOCK:   -5.39 KCAL/MOL
REMARK 924 INTRA-LIGAND FREE ENERGY PREDICTED BY IDOCK:   -0.39 KCAL/MOL
REMARK 927      BINDING AFFINITY PREDICTED BY RF-SCORE:    0.00 PKD
ROOT
HETATM    1  C   UNL     1      -6.841   9.466  69.026  1.00  0.00    -0.054 C  
HETATM    2  S   UNL     1      -8.477   8.741  69.322  1.00  0.00    -0.123 SA 
ENDROOT
BRANCH   2   3
HETATM    3  C   UNL     1      -9.479  10.206  69.169  1.00  0.00    -0.206 A  
HETATM    4  C   UNL     1      -9.141  11.219  68.271  1.00  0.00    -0.173 A  
HETATM    5  C   UNL     1      -9.942  12.360  68.165  1.00  0.00    -0.215 A  
HETATM    6  C   UNL     1     -11.094  12.503  68.953  1.00  0.00    -0.309 A  
HETATM    7  C   UNL     1     -10.647  10.328  69.931  1.00  0.00    -0.324 A  
HETATM    8  C   UNL     1     -11.458  11.466  69.819  1.00  0.00    -0.376 A  
BRANCH   6   9
HETATM    9  C   UNL     1     -11.909  13.731  68.752  1.00  0.00    -0.363 C  
HETATM   10  O   UNL     1     -12.284  13.997  67.612  1.00  0.00    -0.352 OA 
BRANCH   9  11
HETATM   11  C   UNL     1     -12.221  14.637  69.889  1.00  0.00    -0.316 C  
HETATM   12  C   UNL     1     -11.588  15.791  70.191  1.00  0.00    -0.357 C  
HETATM   13  C   UNL     1     -10.472  16.524  69.538  1.00  0.00    -0.298 C  
HETATM   14  N   UNL     1     -12.144  16.295  71.350  1.00  0.00    -0.617 N  
HETATM   15  H   UNL     1     -11.868  17.165  71.804  1.00  0.00     0.000 HD 
HETATM   16  C   UNL     1     -13.142  15.431  71.803  1.00  0.00    -0.445 C  
HETATM   17  N   UNL     1     -13.169  14.400  70.862  1.00  0.00    -0.337 NA 
HETATM   18  O   UNL     1     -13.830  15.544  72.798  1.00  0.00    -0.529 OA 
ENDBRANCH   9  11
ENDBRANCH   6   9
ENDBRANCH   2   3
TORSDOF 3
ENDMDL
MODEL       84
REMARK 921   NORMALIZED FREE ENERGY PREDICTED BY IDOCK:   -4.59 KCAL/MOL
REMARK 922        TOTAL FREE ENERGY PREDICTED BY IDOCK:   -5.78 KCAL/MOL
REMARK 923 INTER-LIGAND FREE ENERGY PREDICTED BY IDOCK:   -5.36 KCAL/MOL
REMARK 924 INTRA-LIGAND FREE ENERGY PREDICTED BY IDOCK:   -0.42 KCAL/MOL
REMARK 927      BINDING AFFINITY PREDICTED BY RF-SCORE:    0.00 PKD
ROOT
HETATM    1  C   UNL     1     -12.690  15.151  73.480  1.00  0.00    -0.547 C  
HETATM    2  S   UNL     1     -13.727  14.029  72.504  1.00  0.00    -0.504 SA 
ENDROOT
BRANCH   2   3
HETATM    3  C   UNL     1     -12.765  13.970  71.005  1.00  0.00    -0.361 A  
HETATM    4  C   UNL     1     -12.281  12.759  70.508  1.00  0.00    -0.389 A  
HETATM    5  C   UNL     1     -11.529  12.733  69.330  1.00  0.00    -0.321 A  
HETATM    6  C   UNL     1     -11.253  13.917  68.630  1.00  0.00    -0.298 A  
HETATM    7  C   UNL     1     -12.523  15.149  70.291  1.00  0.00    -0.388 A  
HETATM    8  C   UNL     1     -11.778  15.125  69.104  1.00  0.00    -0.349 A  
BRANCH   6   9
HETATM    9  C   UNL     1     -10.478  13.797  67.367  1.00  0.00    -0.256 C  
HETATM   10  O   UNL     1     -10.581  12.757  66.720  1.00  0.00    -0.249 OA 
BRANCH   9  11
HETATM   11  C   UNL     1      -9.565  14.885  66.923  1.00  0.00    -0.245 C  
HETATM   12  C   UNL     1      -9.784  15.752  65.911  1.00  0.00    -0.354 C  
HETATM   13  C   UNL     1     -10.926  15.937  64.978  1.00  0.00    -0.426 C  
HETATM   14  N   UNL     1      -8.673  16.562  65.791  1.00  0.00    -0.063 N  
HETATM   15  H   UNL     1      -8.566  17.316  65.114  1.00  0.00     0.000 HD 
HETATM   16  C   UNL     1      -7.719  16.189  66.739  1.00  0.00    -0.253 C  
HETATM   17  N   UNL     1      -8.311  15.134  67.438  1.00  0.00    -0.172 NA 
HETATM   18  O   UNL     1      -6.616  16.667  66.915  1.00  0.00    -0.187 OA 
ENDBRANCH   9  11
ENDBRANCH   6   9
ENDBRANCH   2   3
TORSDOF 3
ENDMDL
MODEL       85
REMARK 921   NORMALIZED FREE ENERGY PREDICTED BY IDOCK:   -4.59 KCAL/MOL
REMARK 922        TOTAL FREE ENERGY PREDICTED BY IDOCK:   -5.78 KCAL/MOL
REMARK 923 INTER-LIGAND FREE ENERGY PREDICTED BY IDOCK:   -5.34 KCAL/MOL
REMARK 924 INTRA-LIGAND FREE ENERGY PREDICTED BY IDOCK:   -0.44 KCAL/MOL
REMARK 927      BINDING AFFINITY PREDICTED BY RF-SCORE:    0.00 PKD
ROOT
HETATM    1  C   UNL     1      -6.510  20.270  68.172  1.00  0.00    -0.291 C  
HETATM    2  S   UNL     1      -7.075  20.464  66.460  1.00  0.00    -0.236 SA 
ENDROOT
BRANCH   2   3
HETATM    3  C   UNL     1      -8.126  19.031  66.334  1.00  0.00    -0.297 A  
HETATM    4  C   UNL     1      -7.586  17.747  66.245  1.00  0.00    -0.322 A  
HETATM    5  C   UNL     1      -8.428  16.636  66.149  1.00  0.00    -0.308 A  
HETATM    6  C   UNL     1      -9.822  16.791  66.142  1.00  0.00    -0.330 A  
HETATM    7  C   UNL     1      -9.517  19.188  66.365  1.00  0.00    -0.390 A  
HETATM    8  C   UNL     1     -10.364  18.074  66.278  1.00  0.00    -0.384 A  
BRANCH   6   9
HETATM    9  C   UNL     1     -10.646  15.554  66.073  1.00  0.00    -0.325 C  
HETATM   10  O   UNL     1     -11.198  15.285  65.009  1.00  0.00    -0.384 OA 
BRANCH   9  11
HETATM   11  C   UNL     1     -10.836  14.694  67.272  1.00  0.00    -0.305 C  
HETATM   12  C   UNL     1     -10.180  13.547  67.547  1.00  0.00    -0.234 C  
HETATM   13  C   UNL     1      -9.104  12.810  66.832  1.00  0.00    -0.221 C  
HETATM   14  N   UNL     1     -10.690  13.032  68.721  1.00  0.00    -0.320 N  
HETATM   15  H   UNL     1     -10.373  12.175  69.174  1.00  0.00     0.000 HD 
HETATM   16  C   UNL     1     -11.706  13.863  69.194  1.00  0.00    -0.338 C  
HETATM   17  N   UNL     1     -11.772  14.902  68.263  1.00  0.00    -0.327 NA 
HETATM   18  O   UNL     1     -12.388  13.716  70.189  1.00  0.00    -0.331 OA 
ENDBRANCH   9  11
ENDBRANCH   6   9
ENDBRANCH   2   3
TORSDOF 3
ENDMDL
MODEL       86
REMARK 921   NORMALIZED FREE ENERGY PREDICTED BY IDOCK:   -4.57 KCAL/MOL
REMARK 922        TOTAL FREE ENERGY PREDICTED BY IDOCK:   -5.76 KCAL/MOL
REMARK 923 INTER-LIGAND FREE ENERGY PREDICTED BY IDOCK:   -5.42 KCAL/MOL
REMARK 924 INTRA-LIGAND FREE ENERGY PREDICTED BY IDOCK:   -0.34 KCAL/MOL
REMARK 927      BINDING AFFINITY PREDICTED BY RF-SCORE:    0.00 PKD
ROOT
HETATM    1  C   UNL     1      -7.870   7.361  64.049  1.00  0.00    -0.120 C  
HETATM    2  S   UNL     1      -7.427   9.039  63.523  1.00  0.00    -0.107 SA 
ENDROOT
BRANCH   2   3
HETATM    3  C   UNL     1      -8.701   9.957  64.365  1.00  0.00    -0.202 A  
HETATM    4  C   UNL     1      -8.637  10.182  65.740  1.00  0.00    -0.159 A  
HETATM    5  C   UNL     1      -9.647  10.905  66.382  1.00  0.00    -0.229 A  
HETATM    6  C   UNL     1     -10.733  11.417  65.657  1.00  0.00    -0.301 A  
HETATM    7  C   UNL     1      -9.764  10.496  63.631  1.00  0.00    -0.375 A  
HETATM    8  C   UNL     1     -10.773  11.231  64.270  1.00  0.00    -0.416 A  
BRANCH   6   9
HETATM    9  C   UNL     1     -11.744  12.206  66.410  1.00  0.00    -0.324 C  
HETATM   10  O   UNL     1     -12.539  12.892  65.769  1.00  0.00    -0.538 OA 
BRANCH   9  11
HETATM   11  C   UNL     1     -11.764  12.204  67.897  1.00  0.00    -0.336 C  
HETATM   12  C   UNL     1     -11.331  13.195  68.705  1.00  0.00    -0.291 C  
HETATM   13  C   UNL     1     -10.758  14.538  68.428  1.00  0.00    -0.246 C  
HETATM   14  N   UNL     1     -11.472  12.775  70.013  1.00  0.00    -0.524 N  
HETATM   15  H   UNL     1     -11.233  13.326  70.836  1.00  0.00     0.000 HD 
HETATM   16  C   UNL     1     -11.990  11.480  70.034  1.00  0.00    -0.357 C  
HETATM   17  N   UNL     1     -12.167  11.149  68.689  1.00  0.00    -0.549 NA 
HETATM   18  O   UNL     1     -12.229  10.787  71.004  1.00  0.00    -0.342 OA 
ENDBRANCH   9  11
ENDBRANCH   6   9
ENDBRANCH   2   3
TORSDOF 3
ENDMDL
MODEL       87
REMARK 921   NORMALIZED FREE ENERGY PREDICTED BY IDOCK:   -4.57 KCAL/MOL
REMARK 922        TOTAL FREE ENERGY PREDICTED BY IDOCK:   -5.76 KCAL/MOL
REMARK 923 INTER-LIGAND FREE ENERGY PREDICTED BY IDOCK:   -5.37 KCAL/MOL
REMARK 924 INTRA-LIGAND FREE ENERGY PREDICTED BY IDOCK:   -0.39 KCAL/MOL
REMARK 927      BINDING AFFINITY PREDICTED BY RF-SCORE:    0.00 PKD
ROOT
HETATM    1  C   UNL     1     -12.519  13.397  65.323  1.00  0.00    -0.483 C  
HETATM    2  S   UNL     1     -11.724  14.255  66.708  1.00  0.00    -0.416 SA 
ENDROOT
BRANCH   2   3
HETATM    3  C   UNL     1     -11.685  12.925  67.894  1.00  0.00    -0.357 A  
HETATM    4  C   UNL     1     -11.959  13.155  69.242  1.00  0.00    -0.344 A  
HETATM    5  C   UNL     1     -11.925  12.098  70.157  1.00  0.00    -0.394 A  
HETATM    6  C   UNL     1     -11.618  10.796  69.735  1.00  0.00    -0.393 A  
HETATM    7  C   UNL     1     -11.414  11.622  67.463  1.00  0.00    -0.360 A  
HETATM    8  C   UNL     1     -11.388  10.558  68.375  1.00  0.00    -0.328 A  
BRANCH   6   9
HETATM    9  C   UNL     1     -11.638   9.723  70.765  1.00  0.00    -0.339 C  
HETATM   10  O   UNL     1     -12.263   9.929  71.804  1.00  0.00    -0.389 OA 
BRANCH   9  11
HETATM   11  C   UNL     1     -10.883   8.457  70.566  1.00  0.00    -0.232 C  
HETATM   12  C   UNL     1      -9.545   8.333  70.443  1.00  0.00    -0.168 C  
HETATM   13  C   UNL     1      -8.437   9.323  70.489  1.00  0.00    -0.251 C  
HETATM   14  N   UNL     1      -9.256   7.002  70.218  1.00  0.00    -0.156 N  
HETATM   15  H   UNL     1      -8.320   6.616  70.097  1.00  0.00     0.000 HD 
HETATM   16  C   UNL     1     -10.441   6.267  70.179  1.00  0.00    -0.222 C  
HETATM   17  N   UNL     1     -11.447   7.209  70.406  1.00  0.00    -0.292 NA 
HETATM   18  O   UNL     1     -10.573   5.075  69.986  1.00  0.00    -0.245 OA 
ENDBRANCH   9  11
ENDBRANCH   6   9
ENDBRANCH   2   3
TORSDOF 3
ENDMDL
MODEL       88
REMARK 921   NORMALIZED FREE ENERGY PREDICTED BY IDOCK:   -4.56 KCAL/MOL
REMARK 922        TOTAL FREE ENERGY PREDICTED BY IDOCK:   -5.75 KCAL/MOL
REMARK 923 INTER-LIGAND FREE ENERGY PREDICTED BY IDOCK:   -5.48 KCAL/MOL
REMARK 924 INTRA-LIGAND FREE ENERGY PREDICTED BY IDOCK:   -0.27 KCAL/MOL
REMARK 927      BINDING AFFINITY PREDICTED BY RF-SCORE:    0.00 PKD
ROOT
HETATM    1  C   UNL     1     -11.697   8.891  71.490  1.00  0.00    -0.324 C  
HETATM    2  S   UNL     1     -10.519   8.763  70.117  1.00  0.00    -0.220 SA 
ENDROOT
BRANCH   2   3
HETATM    3  C   UNL     1     -10.952  10.242  69.221  1.00  0.00    -0.241 A  
HETATM    4  C   UNL     1     -10.737  10.338  67.846  1.00  0.00    -0.310 A  
HETATM    5  C   UNL     1     -11.085  11.506  67.160  1.00  0.00    -0.355 A  
HETATM    6  C   UNL     1     -11.656  12.593  67.840  1.00  0.00    -0.401 A  
HETATM    7  C   UNL     1     -11.554  11.309  69.896  1.00  0.00    -0.413 A  
HETATM    8  C   UNL     1     -11.914  12.478  69.211  1.00  0.00    -0.304 A  
BRANCH   6   9
HETATM    9  C   UNL     1     -12.029  13.783  67.030  1.00  0.00    -0.413 C  
HETATM   10  O   UNL     1     -12.871  13.641  66.145  1.00  0.00    -0.313 OA 
BRANCH   9  11
HETATM   11  C   UNL     1     -11.368  15.097  67.251  1.00  0.00    -0.303 C  
HETATM   12  C   UNL     1     -10.648  15.794  66.347  1.00  0.00    -0.307 C  
HETATM   13  C   UNL     1     -10.311  15.540  64.922  1.00  0.00    -0.208 C  
HETATM   14  N   UNL     1     -10.163  16.928  66.966  1.00  0.00    -0.292 N  
HETATM   15  H   UNL     1      -9.594  17.645  66.518  1.00  0.00     0.000 HD 
HETATM   16  C   UNL     1     -10.571  16.942  68.300  1.00  0.00    -0.363 C  
HETATM   17  N   UNL     1     -11.331  15.780  68.449  1.00  0.00    -0.363 NA 
HETATM   18  O   UNL     1     -10.319  17.775  69.149  1.00  0.00    -0.350 OA 
ENDBRANCH   9  11
ENDBRANCH   6   9
ENDBRANCH   2   3
TORSDOF 3
ENDMDL
MODEL       89
REMARK 921   NORMALIZED FREE ENERGY PREDICTED BY IDOCK:   -4.54 KCAL/MOL
REMARK 922        TOTAL FREE ENERGY PREDICTED BY IDOCK:   -5.73 KCAL/MOL
REMARK 923 INTER-LIGAND FREE ENERGY PREDICTED BY IDOCK:   -5.29 KCAL/MOL
REMARK 924 INTRA-LIGAND FREE ENERGY PREDICTED BY IDOCK:   -0.44 KCAL/MOL
REMARK 927      BINDING AFFINITY PREDICTED BY RF-SCORE:    0.00 PKD
ROOT
HETATM    1  C   UNL     1      -9.771   4.407  65.371  1.00  0.00    -0.197 C  
HETATM    2  S   UNL     1     -10.049   5.098  67.024  1.00  0.00    -0.224 SA 
ENDROOT
BRANCH   2   3
HETATM    3  C   UNL     1      -9.847   6.829  66.657  1.00  0.00    -0.152 A  
HETATM    4  C   UNL     1     -10.744   7.779  67.149  1.00  0.00    -0.337 A  
HETATM    5  C   UNL     1     -10.568   9.132  66.850  1.00  0.00    -0.237 A  
HETATM    6  C   UNL     1      -9.491   9.558  66.058  1.00  0.00    -0.294 A  
HETATM    7  C   UNL     1      -8.751   7.253  65.897  1.00  0.00    -0.150 A  
HETATM    8  C   UNL     1      -8.566   8.611  65.604  1.00  0.00    -0.191 A  
BRANCH   6   9
HETATM    9  C   UNL     1      -9.356  11.019  65.819  1.00  0.00    -0.211 C  
HETATM   10  O   UNL     1      -8.523  11.640  66.476  1.00  0.00    -0.172 OA 
BRANCH   9  11
HETATM   11  C   UNL     1     -10.238  11.720  64.847  1.00  0.00    -0.273 C  
HETATM   12  C   UNL     1     -10.255  11.544  63.508  1.00  0.00    -0.420 C  
HETATM   13  C   UNL     1      -9.489  10.645  62.605  1.00  0.00    -0.332 C  
HETATM   14  N   UNL     1     -11.174  12.422  62.971  1.00  0.00    -0.674 N  
HETATM   15  H   UNL     1     -11.402  12.500  61.980  1.00  0.00     0.000 HD 
HETATM   16  C   UNL     1     -11.742  13.185  63.991  1.00  0.00    -0.439 C  
HETATM   17  N   UNL     1     -11.136  12.719  65.160  1.00  0.00    -0.285 NA 
HETATM   18  O   UNL     1     -12.573  14.066  63.889  1.00  0.00    -0.698 OA 
ENDBRANCH   9  11
ENDBRANCH   6   9
ENDBRANCH   2   3
TORSDOF 3
ENDMDL
MODEL       90
REMARK 921   NORMALIZED FREE ENERGY PREDICTED BY IDOCK:   -4.54 KCAL/MOL
REMARK 922        TOTAL FREE ENERGY PREDICTED BY IDOCK:   -5.72 KCAL/MOL
REMARK 923 INTER-LIGAND FREE ENERGY PREDICTED BY IDOCK:   -5.36 KCAL/MOL
REMARK 924 INTRA-LIGAND FREE ENERGY PREDICTED BY IDOCK:   -0.36 KCAL/MOL
REMARK 927      BINDING AFFINITY PREDICTED BY RF-SCORE:    0.00 PKD
ROOT
HETATM    1  C   UNL     1     -12.420  16.054  72.630  1.00  0.00    -0.481 C  
HETATM    2  S   UNL     1     -13.767  15.357  71.636  1.00  0.00    -0.501 SA 
ENDROOT
BRANCH   2   3
HETATM    3  C   UNL     1     -13.112  13.722  71.361  1.00  0.00    -0.337 A  
HETATM    4  C   UNL     1     -13.488  12.650  72.171  1.00  0.00    -0.561 A  
HETATM    5  C   UNL     1     -12.964  11.376  71.938  1.00  0.00    -0.466 A  
HETATM    6  C   UNL     1     -12.059  11.154  70.889  1.00  0.00    -0.427 A  
HETATM    7  C   UNL     1     -12.238  13.499  70.291  1.00  0.00    -0.417 A  
HETATM    8  C   UNL     1     -11.719  12.219  70.048  1.00  0.00    -0.319 A  
BRANCH   6   9
HETATM    9  C   UNL     1     -11.578   9.761  70.687  1.00  0.00    -0.313 C  
HETATM   10  O   UNL     1     -12.330   8.838  70.993  1.00  0.00    -0.259 OA 
BRANCH   9  11
HETATM   11  C   UNL     1     -10.207   9.492  70.175  1.00  0.00    -0.246 C  
HETATM   12  C   UNL     1      -9.827   9.463  68.880  1.00  0.00    -0.171 C  
HETATM   13  C   UNL     1     -10.565   9.699  67.612  1.00  0.00    -0.334 C  
HETATM   14  N   UNL     1      -8.490   9.124  68.833  1.00  0.00    -0.127 N  
HETATM   15  H   UNL     1      -7.934   9.039  67.982  1.00  0.00     0.000 HD 
HETATM   16  C   UNL     1      -8.015   8.916  70.128  1.00  0.00    -0.111 C  
HETATM   17  N   UNL     1      -9.117   9.158  70.951  1.00  0.00    -0.249 NA 
HETATM   18  O   UNL     1      -6.895   8.589  70.469  1.00  0.00    -0.036 OA 
ENDBRANCH   9  11
ENDBRANCH   6   9
ENDBRANCH   2   3
TORSDOF 3
ENDMDL
MODEL       91
REMARK 921   NORMALIZED FREE ENERGY PREDICTED BY IDOCK:   -4.49 KCAL/MOL
REMARK 922        TOTAL FREE ENERGY PREDICTED BY IDOCK:   -5.67 KCAL/MOL
REMARK 923 INTER-LIGAND FREE ENERGY PREDICTED BY IDOCK:   -5.30 KCAL/MOL
REMARK 924 INTRA-LIGAND FREE ENERGY PREDICTED BY IDOCK:   -0.37 KCAL/MOL
REMARK 927      BINDING AFFINITY PREDICTED BY RF-SCORE:    0.00 PKD
ROOT
HETATM    1  C   UNL     1      -6.464  16.485  69.551  1.00  0.00    -0.223 C  
HETATM    2  S   UNL     1      -6.714  17.033  67.840  1.00  0.00    -0.152 SA 
ENDROOT
BRANCH   2   3
HETATM    3  C   UNL     1      -7.907  15.819  67.315  1.00  0.00    -0.195 A  
HETATM    4  C   UNL     1      -8.822  16.101  66.299  1.00  0.00    -0.371 A  
HETATM    5  C   UNL     1      -9.749  15.135  65.900  1.00  0.00    -0.385 A  
HETATM    6  C   UNL     1      -9.775  13.871  66.509  1.00  0.00    -0.303 A  
HETATM    7  C   UNL     1      -7.905  14.548  67.899  1.00  0.00    -0.153 A  
HETATM    8  C   UNL     1      -8.827  13.573  67.495  1.00  0.00    -0.209 A  
BRANCH   6   9
HETATM    9  C   UNL     1     -10.769  12.889  66.000  1.00  0.00    -0.277 C  
HETATM   10  O   UNL     1     -11.828  12.766  66.613  1.00  0.00    -0.383 OA 
BRANCH   9  11
HETATM   11  C   UNL     1     -10.472  12.045  64.812  1.00  0.00    -0.294 C  
HETATM   12  C   UNL     1     -11.198  11.975  63.676  1.00  0.00    -0.450 C  
HETATM   13  C   UNL     1     -12.429  12.676  63.228  1.00  0.00    -0.377 C  
HETATM   14  N   UNL     1     -10.614  11.035  62.851  1.00  0.00    -0.803 N  
HETATM   15  H   UNL     1     -10.946  10.783  61.920  1.00  0.00     0.000 HD 
HETATM   16  C   UNL     1      -9.501  10.483  63.485  1.00  0.00    -0.312 C  
HETATM   17  N   UNL     1      -9.435  11.140  64.716  1.00  0.00    -0.224 NA 
HETATM   18  O   UNL     1      -8.757   9.618  63.068  1.00  0.00    -0.194 OA 
ENDBRANCH   9  11
ENDBRANCH   6   9
ENDBRANCH   2   3
TORSDOF 3
ENDMDL
MODEL       92
REMARK 921   NORMALIZED FREE ENERGY PREDICTED BY IDOCK:   -4.48 KCAL/MOL
REMARK 922        TOTAL FREE ENERGY PREDICTED BY IDOCK:   -5.66 KCAL/MOL
REMARK 923 INTER-LIGAND FREE ENERGY PREDICTED BY IDOCK:   -5.37 KCAL/MOL
REMARK 924 INTRA-LIGAND FREE ENERGY PREDICTED BY IDOCK:   -0.28 KCAL/MOL
REMARK 927      BINDING AFFINITY PREDICTED BY RF-SCORE:    0.00 PKD
ROOT
HETATM    1  C   UNL     1      -5.918  19.686  67.648  1.00  0.00    -0.190 C  
HETATM    2  S   UNL     1      -6.861  19.771  66.101  1.00  0.00    -0.256 SA 
ENDROOT
BRANCH   2   3
HETATM    3  C   UNL     1      -8.068  18.501  66.423  1.00  0.00    -0.273 A  
HETATM    4  C   UNL     1      -9.336  18.820  66.909  1.00  0.00    -0.314 A  
HETATM    5  C   UNL     1     -10.270  17.809  67.154  1.00  0.00    -0.353 A  
HETATM    6  C   UNL     1      -9.950  16.465  66.913  1.00  0.00    -0.273 A  
HETATM    7  C   UNL     1      -7.757  17.165  66.147  1.00  0.00    -0.302 A  
HETATM    8  C   UNL     1      -8.694  16.149  66.381  1.00  0.00    -0.360 A  
BRANCH   6   9
HETATM    9  C   UNL     1     -11.013  15.455  67.165  1.00  0.00    -0.317 C  
HETATM   10  O   UNL     1     -11.583  14.959  66.195  1.00  0.00    -0.324 OA 
BRANCH   9  11
HETATM   11  C   UNL     1     -11.409  15.092  68.552  1.00  0.00    -0.303 C  
HETATM   12  C   UNL     1     -11.299  13.874  69.124  1.00  0.00    -0.286 C  
HETATM   13  C   UNL     1     -10.762  12.578  68.630  1.00  0.00    -0.263 C  
HETATM   14  N   UNL     1     -11.829  13.947  70.396  1.00  0.00    -0.444 N  
HETATM   15  H   UNL     1     -11.868  13.176  71.062  1.00  0.00     0.000 HD 
HETATM   16  C   UNL     1     -12.302  15.238  70.631  1.00  0.00    -0.377 C  
HETATM   17  N   UNL     1     -12.021  15.936  69.454  1.00  0.00    -0.324 NA 
HETATM   18  O   UNL     1     -12.846  15.663  71.631  1.00  0.00    -0.415 OA 
ENDBRANCH   9  11
ENDBRANCH   6   9
ENDBRANCH   2   3
TORSDOF 3
ENDMDL
MODEL       93
REMARK 921   NORMALIZED FREE ENERGY PREDICTED BY IDOCK:   -4.47 KCAL/MOL
REMARK 922        TOTAL FREE ENERGY PREDICTED BY IDOCK:   -5.65 KCAL/MOL
REMARK 923 INTER-LIGAND FREE ENERGY PREDICTED BY IDOCK:   -5.24 KCAL/MOL
REMARK 924 INTRA-LIGAND FREE ENERGY PREDICTED BY IDOCK:   -0.41 KCAL/MOL
REMARK 927      BINDING AFFINITY PREDICTED BY RF-SCORE:    0.00 PKD
ROOT
HETATM    1  C   UNL     1     -10.526   7.171  66.865  1.00  0.00    -0.294 C  
HETATM    2  S   UNL     1      -9.059   8.099  67.390  1.00  0.00    -0.135 SA 
ENDROOT
BRANCH   2   3
HETATM    3  C   UNL     1      -9.768   9.729  67.507  1.00  0.00    -0.157 A  
HETATM    4  C   UNL     1     -11.052   9.921  68.020  1.00  0.00    -0.220 A  
HETATM    5  C   UNL     1     -11.590  11.208  68.104  1.00  0.00    -0.350 A  
HETATM    6  C   UNL     1     -10.852  12.322  67.679  1.00  0.00    -0.262 A  
HETATM    7  C   UNL     1      -9.015  10.841  67.115  1.00  0.00    -0.145 A  
HETATM    8  C   UNL     1      -9.548  12.135  67.207  1.00  0.00    -0.185 A  
BRANCH   6   9
HETATM    9  C   UNL     1     -11.484  13.660  67.837  1.00  0.00    -0.314 C  
HETATM   10  O   UNL     1     -12.277  13.820  68.763  1.00  0.00    -0.350 OA 
BRANCH   9  11
HETATM   11  C   UNL     1     -11.203  14.757  66.872  1.00  0.00    -0.347 C  
HETATM   12  C   UNL     1     -10.537  15.902  67.133  1.00  0.00    -0.316 C  
HETATM   13  C   UNL     1      -9.875  16.421  68.359  1.00  0.00    -0.233 C  
HETATM   14  N   UNL     1     -10.545  16.673  65.988  1.00  0.00    -0.277 N  
HETATM   15  H   UNL     1     -10.104  17.587  65.893  1.00  0.00     0.000 HD 
HETATM   16  C   UNL     1     -11.247  16.009  64.982  1.00  0.00    -0.261 C  
HETATM   17  N   UNL     1     -11.646  14.805  65.567  1.00  0.00    -0.330 NA 
HETATM   18  O   UNL     1     -11.470  16.391  63.851  1.00  0.00    -1.063 OA 
ENDBRANCH   9  11
ENDBRANCH   6   9
ENDBRANCH   2   3
TORSDOF 3
ENDMDL
MODEL       94
REMARK 921   NORMALIZED FREE ENERGY PREDICTED BY IDOCK:   -4.47 KCAL/MOL
REMARK 922        TOTAL FREE ENERGY PREDICTED BY IDOCK:   -5.64 KCAL/MOL
REMARK 923 INTER-LIGAND FREE ENERGY PREDICTED BY IDOCK:   -5.54 KCAL/MOL
REMARK 924 INTRA-LIGAND FREE ENERGY PREDICTED BY IDOCK:   -0.10 KCAL/MOL
REMARK 927      BINDING AFFINITY PREDICTED BY RF-SCORE:    0.00 PKD
ROOT
HETATM    1  C   UNL     1      -9.828  11.086  63.118  1.00  0.00    -0.363 C  
HETATM    2  S   UNL     1      -9.635  10.272  64.727  1.00  0.00    -0.327 SA 
ENDROOT
BRANCH   2   3
HETATM    3  C   UNL     1     -10.180  11.592  65.792  1.00  0.00    -0.240 A  
HETATM    4  C   UNL     1      -9.302  12.204  66.687  1.00  0.00    -0.226 A  
HETATM    5  C   UNL     1      -9.748  13.239  67.513  1.00  0.00    -0.224 A  
HETATM    6  C   UNL     1     -11.079  13.680  67.453  1.00  0.00    -0.299 A  
HETATM    7  C   UNL     1     -11.498  12.053  65.703  1.00  0.00    -0.372 A  
HETATM    8  C   UNL     1     -11.947  13.098  66.523  1.00  0.00    -0.459 A  
BRANCH   6   9
HETATM    9  C   UNL     1     -11.462  14.811  68.340  1.00  0.00    -0.314 C  
HETATM   10  O   UNL     1     -12.263  14.591  69.247  1.00  0.00    -0.301 OA 
BRANCH   9  11
HETATM   11  C   UNL     1     -10.931  16.181  68.107  1.00  0.00    -0.341 C  
HETATM   12  C   UNL     1     -10.576  16.711  66.917  1.00  0.00    -0.229 C  
HETATM   13  C   UNL     1     -10.613  16.178  65.530  1.00  0.00    -0.394 C  
HETATM   14  N   UNL     1     -10.082  17.980  67.143  1.00  0.00    -0.330 N  
HETATM   15  H   UNL     1      -9.749  18.618  66.420  1.00  0.00     0.000 HD 
HETATM   16  C   UNL     1     -10.108  18.255  68.510  1.00  0.00    -0.398 C  
HETATM   17  N   UNL     1     -10.650  17.106  69.090  1.00  0.00    -0.308 NA 
HETATM   18  O   UNL     1      -9.736  19.264  69.075  1.00  0.00    -0.414 OA 
ENDBRANCH   9  11
ENDBRANCH   6   9
ENDBRANCH   2   3
TORSDOF 3
ENDMDL
MODEL       95
REMARK 921   NORMALIZED FREE ENERGY PREDICTED BY IDOCK:   -4.47 KCAL/MOL
REMARK 922        TOTAL FREE ENERGY PREDICTED BY IDOCK:   -5.64 KCAL/MOL
REMARK 923 INTER-LIGAND FREE ENERGY PREDICTED BY IDOCK:   -5.22 KCAL/MOL
REMARK 924 INTRA-LIGAND FREE ENERGY PREDICTED BY IDOCK:   -0.42 KCAL/MOL
REMARK 927      BINDING AFFINITY PREDICTED BY RF-SCORE:    0.00 PKD
ROOT
HETATM    1  C   UNL     1      -7.488  19.302  68.811  1.00  0.00    -0.352 C  
HETATM    2  S   UNL     1      -8.105  19.294  67.106  1.00  0.00    -0.273 SA 
ENDROOT
BRANCH   2   3
HETATM    3  C   UNL     1      -9.049  17.783  67.142  1.00  0.00    -0.246 A  
HETATM    4  C   UNL     1     -10.183  17.662  67.947  1.00  0.00    -0.357 A  
HETATM    5  C   UNL     1     -10.911  16.469  67.960  1.00  0.00    -0.337 A  
HETATM    6  C   UNL     1     -10.518  15.381  67.167  1.00  0.00    -0.290 A  
HETATM    7  C   UNL     1      -8.674  16.713  66.322  1.00  0.00    -0.359 A  
HETATM    8  C   UNL     1      -9.408  15.519  66.325  1.00  0.00    -0.355 A  
BRANCH   6   9
HETATM    9  C   UNL     1     -11.369  14.162  67.212  1.00  0.00    -0.332 C  
HETATM   10  O   UNL     1     -12.289  14.127  68.027  1.00  0.00    -0.233 OA 
BRANCH   9  11
HETATM   11  C   UNL     1     -11.084  12.997  66.332  1.00  0.00    -0.287 C  
HETATM   12  C   UNL     1     -11.486  12.843  65.052  1.00  0.00    -0.315 C  
HETATM   13  C   UNL     1     -12.261  13.715  64.131  1.00  0.00    -0.450 C  
HETATM   14  N   UNL     1     -11.062  11.604  64.616  1.00  0.00    -0.300 N  
HETATM   15  H   UNL     1     -11.217  11.225  63.682  1.00  0.00     0.000 HD 
HETATM   16  C   UNL     1     -10.391  10.949  65.649  1.00  0.00    -0.242 C  
HETATM   17  N   UNL     1     -10.418  11.852  66.714  1.00  0.00    -0.216 NA 
HETATM   18  O   UNL     1      -9.898   9.838  65.632  1.00  0.00    -0.277 OA 
ENDBRANCH   9  11
ENDBRANCH   6   9
ENDBRANCH   2   3
TORSDOF 3
ENDMDL
MODEL       96
REMARK 921   NORMALIZED FREE ENERGY PREDICTED BY IDOCK:   -4.47 KCAL/MOL
REMARK 922        TOTAL FREE ENERGY PREDICTED BY IDOCK:   -5.64 KCAL/MOL
REMARK 923 INTER-LIGAND FREE ENERGY PREDICTED BY IDOCK:   -5.68 KCAL/MOL
REMARK 924 INTRA-LIGAND FREE ENERGY PREDICTED BY IDOCK:    0.04 KCAL/MOL
REMARK 927      BINDING AFFINITY PREDICTED BY RF-SCORE:    0.00 PKD
ROOT
HETATM    1  C   UNL     1     -10.065  10.459  64.944  1.00  0.00    -0.312 C  
HETATM    2  S   UNL     1      -9.918   9.272  66.308  1.00  0.00    -0.261 SA 
ENDROOT
BRANCH   2   3
HETATM    3  C   UNL     1     -10.635  10.242  67.619  1.00  0.00    -0.263 A  
HETATM    4  C   UNL     1     -11.440  11.348  67.340  1.00  0.00    -0.328 A  
HETATM    5  C   UNL     1     -11.994  12.095  68.383  1.00  0.00    -0.257 A  
HETATM    6  C   UNL     1     -11.754  11.746  69.720  1.00  0.00    -0.408 A  
HETATM    7  C   UNL     1     -10.423   9.869  68.951  1.00  0.00    -0.229 A  
HETATM    8  C   UNL     1     -10.986  10.610  70.000  1.00  0.00    -0.325 A  
BRANCH   6   9
HETATM    9  C   UNL     1     -12.411  12.572  70.769  1.00  0.00    -0.268 C  
HETATM   10  O   UNL     1     -13.134  12.005  71.585  1.00  0.00    -0.427 OA 
BRANCH   9  11
HETATM   11  C   UNL     1     -12.238  14.049  70.799  1.00  0.00    -0.367 C  
HETATM   12  C   UNL     1     -13.074  14.943  71.369  1.00  0.00    -0.369 C  
HETATM   13  C   UNL     1     -14.340  14.787  72.132  1.00  0.00    -0.589 C  
HETATM   14  N   UNL     1     -12.580  16.208  71.126  1.00  0.00    -0.503 N  
HETATM   15  H   UNL     1     -13.005  17.077  71.450  1.00  0.00     0.000 HD 
HETATM   16  C   UNL     1     -11.413  16.117  70.368  1.00  0.00    -0.328 C  
HETATM   17  N   UNL     1     -11.221  14.746  70.181  1.00  0.00    -0.240 NA 
HETATM   18  O   UNL     1     -10.718  17.024  69.955  1.00  0.00    -0.208 OA 
ENDBRANCH   9  11
ENDBRANCH   6   9
ENDBRANCH   2   3
TORSDOF 3
ENDMDL
MODEL       97
REMARK 921   NORMALIZED FREE ENERGY PREDICTED BY IDOCK:   -4.46 KCAL/MOL
REMARK 922        TOTAL FREE ENERGY PREDICTED BY IDOCK:   -5.63 KCAL/MOL
REMARK 923 INTER-LIGAND FREE ENERGY PREDICTED BY IDOCK:   -5.17 KCAL/MOL
REMARK 924 INTRA-LIGAND FREE ENERGY PREDICTED BY IDOCK:   -0.46 KCAL/MOL
REMARK 927      BINDING AFFINITY PREDICTED BY RF-SCORE:    0.00 PKD
ROOT
HETATM    1  C   UNL     1     -12.038  16.812  73.458  1.00  0.00    -0.185 C  
HETATM    2  S   UNL     1     -12.859  15.203  73.299  1.00  0.00    -0.552 SA 
ENDROOT
BRANCH   2   3
HETATM    3  C   UNL     1     -12.343  14.773  71.648  1.00  0.00    -0.345 A  
HETATM    4  C   UNL     1     -12.555  13.490  71.140  1.00  0.00    -0.438 A  
HETATM    5  C   UNL     1     -12.144  13.172  69.843  1.00  0.00    -0.357 A  
HETATM    6  C   UNL     1     -11.519  14.132  69.033  1.00  0.00    -0.322 A  
HETATM    7  C   UNL     1     -11.753  15.744  70.832  1.00  0.00    -0.441 A  
HETATM    8  C   UNL     1     -11.349  15.431  69.527  1.00  0.00    -0.308 A  
BRANCH   6   9
HETATM    9  C   UNL     1     -11.146  13.722  67.653  1.00  0.00    -0.273 C  
HETATM   10  O   UNL     1     -11.983  13.855  66.763  1.00  0.00    -0.396 OA 
BRANCH   9  11
HETATM   11  C   UNL     1      -9.815  13.122  67.366  1.00  0.00    -0.226 C  
HETATM   12  C   UNL     1      -8.674  13.793  67.102  1.00  0.00    -0.221 C  
HETATM   13  C   UNL     1      -8.354  15.244  67.038  1.00  0.00    -0.267 C  
HETATM   14  N   UNL     1      -7.684  12.869  66.837  1.00  0.00    -0.391 N  
HETATM   15  H   UNL     1      -6.714  13.093  66.616  1.00  0.00     0.000 HD 
HETATM   16  C   UNL     1      -8.214  11.581  66.919  1.00  0.00    -0.167 C  
HETATM   17  N   UNL     1      -9.556  11.772  67.257  1.00  0.00    -0.175 NA 
HETATM   18  O   UNL     1      -7.642  10.525  66.731  1.00  0.00    -0.106 OA 
ENDBRANCH   9  11
ENDBRANCH   6   9
ENDBRANCH   2   3
TORSDOF 3
ENDMDL
MODEL       98
REMARK 921   NORMALIZED FREE ENERGY PREDICTED BY IDOCK:   -4.44 KCAL/MOL
REMARK 922        TOTAL FREE ENERGY PREDICTED BY IDOCK:   -5.61 KCAL/MOL
REMARK 923 INTER-LIGAND FREE ENERGY PREDICTED BY IDOCK:   -5.20 KCAL/MOL
REMARK 924 INTRA-LIGAND FREE ENERGY PREDICTED BY IDOCK:   -0.41 KCAL/MOL
REMARK 927      BINDING AFFINITY PREDICTED BY RF-SCORE:    0.00 PKD
ROOT
HETATM    1  C   UNL     1     -10.532   6.869  73.717  1.00  0.00    -0.357 C  
HETATM    2  S   UNL     1      -9.091   7.896  73.323  1.00  0.00    -0.287 SA 
ENDROOT
BRANCH   2   3
HETATM    3  C   UNL     1      -9.689   8.687  71.843  1.00  0.00    -0.313 A  
HETATM    4  C   UNL     1     -11.036   9.026  71.702  1.00  0.00    -0.435 A  
HETATM    5  C   UNL     1     -11.486   9.647  70.534  1.00  0.00    -0.352 A  
HETATM    6  C   UNL     1     -10.595   9.942  69.491  1.00  0.00    -0.264 A  
HETATM    7  C   UNL     1      -8.791   9.012  70.820  1.00  0.00    -0.281 A  
HETATM    8  C   UNL     1      -9.237   9.644  69.652  1.00  0.00    -0.225 A  
BRANCH   6   9
HETATM    9  C   UNL     1     -11.149  10.637  68.298  1.00  0.00    -0.279 C  
HETATM   10  O   UNL     1     -12.283  11.105  68.374  1.00  0.00    -0.610 OA 
BRANCH   9  11
HETATM   11  C   UNL     1     -10.372  10.720  67.032  1.00  0.00    -0.228 C  
HETATM   12  C   UNL     1      -9.785  11.824  66.524  1.00  0.00    -0.206 C  
HETATM   13  C   UNL     1      -9.684  13.224  67.014  1.00  0.00    -0.238 C  
HETATM   14  N   UNL     1      -9.216  11.489  65.312  1.00  0.00    -0.384 N  
HETATM   15  H   UNL     1      -8.695  12.126  64.710  1.00  0.00     0.000 HD 
HETATM   16  C   UNL     1      -9.463  10.143  65.037  1.00  0.00    -0.271 C  
HETATM   17  N   UNL     1     -10.189   9.686  66.139  1.00  0.00    -0.245 NA 
HETATM   18  O   UNL     1      -9.129   9.509  64.055  1.00  0.00    -0.228 OA 
ENDBRANCH   9  11
ENDBRANCH   6   9
ENDBRANCH   2   3
TORSDOF 3
ENDMDL
MODEL       99
REMARK 921   NORMALIZED FREE ENERGY PREDICTED BY IDOCK:   -4.44 KCAL/MOL
REMARK 922        TOTAL FREE ENERGY PREDICTED BY IDOCK:   -5.61 KCAL/MOL
REMARK 923 INTER-LIGAND FREE ENERGY PREDICTED BY IDOCK:   -5.22 KCAL/MOL
REMARK 924 INTRA-LIGAND FREE ENERGY PREDICTED BY IDOCK:   -0.39 KCAL/MOL
REMARK 927      BINDING AFFINITY PREDICTED BY RF-SCORE:    0.00 PKD
ROOT
HETATM    1  C   UNL     1      -5.336  18.180  67.661  1.00  0.00    -0.146 C  
HETATM    2  S   UNL     1      -6.487  18.700  66.360  1.00  0.00    -0.207 SA 
ENDROOT
BRANCH   2   3
HETATM    3  C   UNL     1      -7.915  17.744  66.832  1.00  0.00    -0.226 A  
HETATM    4  C   UNL     1      -7.960  16.366  66.623  1.00  0.00    -0.323 A  
HETATM    5  C   UNL     1      -9.089  15.634  67.002  1.00  0.00    -0.239 A  
HETATM    6  C   UNL     1     -10.188  16.269  67.598  1.00  0.00    -0.272 A  
HETATM    7  C   UNL     1      -8.994  18.377  67.460  1.00  0.00    -0.271 A  
HETATM    8  C   UNL     1     -10.124  17.644  67.851  1.00  0.00    -0.345 A  
BRANCH   6   9
HETATM    9  C   UNL     1     -11.334  15.412  68.004  1.00  0.00    -0.341 C  
HETATM   10  O   UNL     1     -12.115  15.849  68.847  1.00  0.00    -0.315 OA 
BRANCH   9  11
HETATM   11  C   UNL     1     -11.502  14.044  67.444  1.00  0.00    -0.348 C  
HETATM   12  C   UNL     1     -11.955  13.734  66.211  1.00  0.00    -0.429 C  
HETATM   13  C   UNL     1     -12.383  14.570  65.059  1.00  0.00    -0.353 C  
HETATM   14  N   UNL     1     -12.013  12.359  66.108  1.00  0.00    -0.385 N  
HETATM   15  H   UNL     1     -12.310  11.843  65.280  1.00  0.00     0.000 HD 
HETATM   16  C   UNL     1     -11.603  11.783  67.311  1.00  0.00    -0.269 C  
HETATM   17  N   UNL     1     -11.284  12.868  68.130  1.00  0.00    -0.253 NA 
HETATM   18  O   UNL     1     -11.541  10.602  67.590  1.00  0.00    -0.492 OA 
ENDBRANCH   9  11
ENDBRANCH   6   9
ENDBRANCH   2   3
TORSDOF 3
ENDMDL
MODEL      100
REMARK 921   NORMALIZED FREE ENERGY PREDICTED BY IDOCK:   -4.41 KCAL/MOL
REMARK 922        TOTAL FREE ENERGY PREDICTED BY IDOCK:   -5.58 KCAL/MOL
REMARK 923 INTER-LIGAND FREE ENERGY PREDICTED BY IDOCK:   -5.29 KCAL/MOL
REMARK 924 INTRA-LIGAND FREE ENERGY PREDICTED BY IDOCK:   -0.29 KCAL/MOL
REMARK 927      BINDING AFFINITY PREDICTED BY RF-SCORE:    0.00 PKD
ROOT
HETATM    1  C   UNL     1      -9.103   6.521  68.584  1.00  0.00    -0.128 C  
HETATM    2  S   UNL     1     -10.052   7.101  70.016  1.00  0.00    -0.191 SA 
ENDROOT
BRANCH   2   3
HETATM    3  C   UNL     1     -10.578   8.687  69.397  1.00  0.00    -0.199 A  
HETATM    4  C   UNL     1     -10.445   9.013  68.047  1.00  0.00    -0.270 A  
HETATM    5  C   UNL     1     -10.865  10.262  67.581  1.00  0.00    -0.363 A  
HETATM    6  C   UNL     1     -11.427  11.202  68.458  1.00  0.00    -0.371 A  
HETATM    7  C   UNL     1     -11.172   9.607  70.268  1.00  0.00    -0.324 A  
HETATM    8  C   UNL     1     -11.604  10.856  69.802  1.00  0.00    -0.399 A  
BRANCH   6   9
HETATM    9  C   UNL     1     -11.882  12.492  67.874  1.00  0.00    -0.323 C  
HETATM   10  O   UNL     1     -12.256  12.499  66.703  1.00  0.00    -0.552 OA 
BRANCH   9  11
HETATM   11  C   UNL     1     -11.838  13.749  68.669  1.00  0.00    -0.374 C  
HETATM   12  C   UNL     1     -10.954  14.759  68.523  1.00  0.00    -0.258 C  
HETATM   13  C   UNL     1      -9.825  14.976  67.581  1.00  0.00    -0.220 C  
HETATM   14  N   UNL     1     -11.223  15.707  69.489  1.00  0.00    -0.286 N  
HETATM   15  H   UNL     1     -10.717  16.584  69.608  1.00  0.00     0.000 HD 
HETATM   16  C   UNL     1     -12.292  15.281  70.277  1.00  0.00    -0.366 C  
HETATM   17  N   UNL     1     -12.660  14.048  69.735  1.00  0.00    -0.195 NA 
HETATM   18  O   UNL     1     -12.791  15.849  71.229  1.00  0.00    -0.471 OA 
ENDBRANCH   9  11
ENDBRANCH   6   9
ENDBRANCH   2   3
TORSDOF 3
ENDMDL
MODEL      101
REMARK 921   NORMALIZED FREE ENERGY PREDICTED BY IDOCK:   -4.39 KCAL/MOL
REMARK 922        TOTAL FREE ENERGY PREDICTED BY IDOCK:   -5.55 KCAL/MOL
REMARK 923 INTER-LIGAND FREE ENERGY PREDICTED BY IDOCK:   -5.10 KCAL/MOL
REMARK 924 INTRA-LIGAND FREE ENERGY PREDICTED BY IDOCK:   -0.45 KCAL/MOL
REMARK 927      BINDING AFFINITY PREDICTED BY RF-SCORE:    0.00 PKD
ROOT
HETATM    1  C   UNL     1      -6.207  15.027  69.952  1.00  0.00    -0.155 C  
HETATM    2  S   UNL     1      -5.647  13.352  69.540  1.00  0.00    -0.099 SA 
ENDROOT
BRANCH   2   3
HETATM    3  C   UNL     1      -7.096  12.760  68.687  1.00  0.00    -0.100 A  
HETATM    4  C   UNL     1      -7.551  11.453  68.864  1.00  0.00    -0.114 A  
HETATM    5  C   UNL     1      -8.690  11.008  68.187  1.00  0.00    -0.141 A  
HETATM    6  C   UNL     1      -9.392  11.865  67.325  1.00  0.00    -0.177 A  
HETATM    7  C   UNL     1      -7.813  13.629  67.857  1.00  0.00    -0.159 A  
HETATM    8  C   UNL     1      -8.961  13.189  67.184  1.00  0.00    -0.228 A  
BRANCH   6   9
HETATM    9  C   UNL     1     -10.614  11.323  66.672  1.00  0.00    -0.262 C  
HETATM   10  O   UNL     1     -11.249  10.452  67.263  1.00  0.00    -0.284 OA 
BRANCH   9  11
HETATM   11  C   UNL     1     -11.028  11.787  65.321  1.00  0.00    -0.295 C  
HETATM   12  C   UNL     1     -10.542  11.351  64.140  1.00  0.00    -0.369 C  
HETATM   13  C   UNL     1      -9.529  10.321  63.791  1.00  0.00    -0.352 C  
HETATM   14  N   UNL     1     -11.149  12.073  63.132  1.00  0.00    -0.696 N  
HETATM   15  H   UNL     1     -10.980  11.947  62.135  1.00  0.00     0.000 HD 
HETATM   16  C   UNL     1     -12.029  13.002  63.689  1.00  0.00    -0.539 C  
HETATM   17  N   UNL     1     -11.935  12.795  65.067  1.00  0.00    -0.386 NA 
HETATM   18  O   UNL     1     -12.721  13.815  63.108  1.00  0.00    -0.743 OA 
ENDBRANCH   9  11
ENDBRANCH   6   9
ENDBRANCH   2   3
TORSDOF 3
ENDMDL
MODEL      102
REMARK 921   NORMALIZED FREE ENERGY PREDICTED BY IDOCK:   -4.39 KCAL/MOL
REMARK 922        TOTAL FREE ENERGY PREDICTED BY IDOCK:   -5.54 KCAL/MOL
REMARK 923 INTER-LIGAND FREE ENERGY PREDICTED BY IDOCK:   -5.13 KCAL/MOL
REMARK 924 INTRA-LIGAND FREE ENERGY PREDICTED BY IDOCK:   -0.41 KCAL/MOL
REMARK 927      BINDING AFFINITY PREDICTED BY RF-SCORE:    0.00 PKD
ROOT
HETATM    1  C   UNL     1     -10.224  19.794  68.683  1.00  0.00    -0.405 C  
HETATM    2  S   UNL     1     -10.256  19.511  66.892  1.00  0.00    -0.464 SA 
ENDROOT
BRANCH   2   3
HETATM    3  C   UNL     1     -10.516  17.748  66.877  1.00  0.00    -0.307 A  
HETATM    4  C   UNL     1     -10.522  17.032  65.680  1.00  0.00    -0.229 A  
HETATM    5  C   UNL     1     -10.727  15.649  65.690  1.00  0.00    -0.376 A  
HETATM    6  C   UNL     1     -10.924  14.962  66.897  1.00  0.00    -0.327 A  
HETATM    7  C   UNL     1     -10.677  17.063  68.087  1.00  0.00    -0.374 A  
HETATM    8  C   UNL     1     -10.872  15.674  68.100  1.00  0.00    -0.301 A  
BRANCH   6   9
HETATM    9  C   UNL     1     -11.098  13.487  66.821  1.00  0.00    -0.299 C  
HETATM   10  O   UNL     1     -12.011  13.046  66.126  1.00  0.00    -0.395 OA 
BRANCH   9  11
HETATM   11  C   UNL     1     -10.223  12.573  67.603  1.00  0.00    -0.219 C  
HETATM   12  C   UNL     1     -10.605  11.779  68.626  1.00  0.00    -0.223 C  
HETATM   13  C   UNL     1     -11.925  11.528  69.263  1.00  0.00    -0.397 C  
HETATM   14  N   UNL     1      -9.485  11.136  69.112  1.00  0.00    -0.407 N  
HETATM   15  H   UNL     1      -9.479  10.465  69.880  1.00  0.00     0.000 HD 
HETATM   16  C   UNL     1      -8.362  11.546  68.393  1.00  0.00    -0.154 C  
HETATM   17  N   UNL     1      -8.859  12.447  67.448  1.00  0.00    -0.179 NA 
HETATM   18  O   UNL     1      -7.207  11.204  68.553  1.00  0.00    -0.076 OA 
ENDBRANCH   9  11
ENDBRANCH   6   9
ENDBRANCH   2   3
TORSDOF 3
ENDMDL
MODEL      103
REMARK 921   NORMALIZED FREE ENERGY PREDICTED BY IDOCK:   -4.38 KCAL/MOL
REMARK 922        TOTAL FREE ENERGY PREDICTED BY IDOCK:   -5.54 KCAL/MOL
REMARK 923 INTER-LIGAND FREE ENERGY PREDICTED BY IDOCK:   -5.20 KCAL/MOL
REMARK 924 INTRA-LIGAND FREE ENERGY PREDICTED BY IDOCK:   -0.34 KCAL/MOL
REMARK 927      BINDING AFFINITY PREDICTED BY RF-SCORE:    0.00 PKD
ROOT
HETATM    1  C   UNL     1     -10.500   7.507  66.712  1.00  0.00    -0.249 C  
HETATM    2  S   UNL     1      -9.043   8.538  67.033  1.00  0.00    -0.148 SA 
ENDROOT
BRANCH   2   3
HETATM    3  C   UNL     1      -9.823  10.139  67.091  1.00  0.00    -0.187 A  
HETATM    4  C   UNL     1     -10.498  10.651  65.982  1.00  0.00    -0.250 A  
HETATM    5  C   UNL     1     -11.104  11.908  66.048  1.00  0.00    -0.369 A  
HETATM    6  C   UNL     1     -11.046  12.671  67.224  1.00  0.00    -0.320 A  
HETATM    7  C   UNL     1      -9.793  10.880  68.277  1.00  0.00    -0.179 A  
HETATM    8  C   UNL     1     -10.409  12.138  68.350  1.00  0.00    -0.236 A  
BRANCH   6   9
HETATM    9  C   UNL     1     -11.748  13.983  67.221  1.00  0.00    -0.389 C  
HETATM   10  O   UNL     1     -12.659  14.151  66.412  1.00  0.00    -0.427 OA 
BRANCH   9  11
HETATM   11  C   UNL     1     -11.329  15.077  68.137  1.00  0.00    -0.330 C  
HETATM   12  C   UNL     1     -11.678  15.214  69.434  1.00  0.00    -0.332 C  
HETATM   13  C   UNL     1     -12.507  14.380  70.344  1.00  0.00    -0.420 C  
HETATM   14  N   UNL     1     -11.126  16.388  69.906  1.00  0.00    -0.364 N  
HETATM   15  H   UNL     1     -11.217  16.739  70.858  1.00  0.00     0.000 HD 
HETATM   16  C   UNL     1     -10.424  17.019  68.879  1.00  0.00    -0.347 C  
HETATM   17  N   UNL     1     -10.567  16.169  67.780  1.00  0.00    -0.302 NA 
HETATM   18  O   UNL     1      -9.827  18.077  68.923  1.00  0.00    -0.352 OA 
ENDBRANCH   9  11
ENDBRANCH   6   9
ENDBRANCH   2   3
TORSDOF 3
ENDMDL
MODEL      104
REMARK 921   NORMALIZED FREE ENERGY PREDICTED BY IDOCK:   -4.38 KCAL/MOL
REMARK 922        TOTAL FREE ENERGY PREDICTED BY IDOCK:   -5.54 KCAL/MOL
REMARK 923 INTER-LIGAND FREE ENERGY PREDICTED BY IDOCK:   -5.12 KCAL/MOL
REMARK 924 INTRA-LIGAND FREE ENERGY PREDICTED BY IDOCK:   -0.42 KCAL/MOL
REMARK 927      BINDING AFFINITY PREDICTED BY RF-SCORE:    0.00 PKD
ROOT
HETATM    1  C   UNL     1     -12.665  14.689  70.870  1.00  0.00    -0.348 C  
HETATM    2  S   UNL     1     -12.135  14.258  69.191  1.00  0.00    -0.256 SA 
ENDROOT
BRANCH   2   3
HETATM    3  C   UNL     1     -11.746  12.537  69.439  1.00  0.00    -0.322 A  
HETATM    4  C   UNL     1     -10.968  11.835  68.517  1.00  0.00    -0.270 A  
HETATM    5  C   UNL     1     -10.673  10.485  68.731  1.00  0.00    -0.249 A  
HETATM    6  C   UNL     1     -11.148   9.819  69.870  1.00  0.00    -0.293 A  
HETATM    7  C   UNL     1     -12.192  11.886  70.595  1.00  0.00    -0.424 A  
HETATM    8  C   UNL     1     -11.889  10.535  70.817  1.00  0.00    -0.465 A  
BRANCH   6   9
HETATM    9  C   UNL     1     -10.758   8.394  70.039  1.00  0.00    -0.236 C  
HETATM   10  O   UNL     1     -10.433   7.759  69.037  1.00  0.00    -0.216 OA 
BRANCH   9  11
HETATM   11  C   UNL     1     -10.808   7.740  71.374  1.00  0.00    -0.228 C  
HETATM   12  C   UNL     1     -11.891   7.180  71.953  1.00  0.00    -0.300 C  
HETATM   13  C   UNL     1     -13.294   7.000  71.494  1.00  0.00    -0.370 C  
HETATM   14  N   UNL     1     -11.527   6.738  73.208  1.00  0.00    -0.444 N  
HETATM   15  H   UNL     1     -12.144   6.263  73.866  1.00  0.00     0.000 HD 
HETATM   16  C   UNL     1     -10.185   7.040  73.439  1.00  0.00    -0.306 C  
HETATM   17  N   UNL     1      -9.758   7.667  72.266  1.00  0.00    -0.166 NA 
HETATM   18  O   UNL     1      -9.531   6.817  74.439  1.00  0.00    -0.222 OA 
ENDBRANCH   9  11
ENDBRANCH   6   9
ENDBRANCH   2   3
TORSDOF 3
ENDMDL
MODEL      105
REMARK 921   NORMALIZED FREE ENERGY PREDICTED BY IDOCK:   -4.36 KCAL/MOL
REMARK 922        TOTAL FREE ENERGY PREDICTED BY IDOCK:   -5.52 KCAL/MOL
REMARK 923 INTER-LIGAND FREE ENERGY PREDICTED BY IDOCK:   -5.45 KCAL/MOL
REMARK 924 INTRA-LIGAND FREE ENERGY PREDICTED BY IDOCK:   -0.06 KCAL/MOL
REMARK 927      BINDING AFFINITY PREDICTED BY RF-SCORE:    0.00 PKD
ROOT
HETATM    1  C   UNL     1      -6.448  19.139  65.766  1.00  0.00    -0.239 C  
HETATM    2  S   UNL     1      -7.519  20.179  66.794  1.00  0.00    -0.286 SA 
ENDROOT
BRANCH   2   3
HETATM    3  C   UNL     1      -8.555  18.917  67.509  1.00  0.00    -0.275 A  
HETATM    4  C   UNL     1      -9.946  18.988  67.414  1.00  0.00    -0.410 A  
HETATM    5  C   UNL     1     -10.741  17.987  67.979  1.00  0.00    -0.301 A  
HETATM    6  C   UNL     1     -10.157  16.900  68.646  1.00  0.00    -0.291 A  
HETATM    7  C   UNL     1      -7.968  17.815  68.141  1.00  0.00    -0.263 A  
HETATM    8  C   UNL     1      -8.762  16.805  68.701  1.00  0.00    -0.255 A  
BRANCH   6   9
HETATM    9  C   UNL     1     -11.073  15.861  69.188  1.00  0.00    -0.302 C  
HETATM   10  O   UNL     1     -11.655  16.095  70.245  1.00  0.00    -0.337 OA 
BRANCH   9  11
HETATM   11  C   UNL     1     -11.244  14.555  68.495  1.00  0.00    -0.266 C  
HETATM   12  C   UNL     1     -11.130  14.331  67.169  1.00  0.00    -0.311 C  
HETATM   13  C   UNL     1     -10.794  15.219  66.026  1.00  0.00    -0.331 C  
HETATM   14  N   UNL     1     -11.419  13.002  66.932  1.00  0.00    -0.321 N  
HETATM   15  H   UNL     1     -11.400  12.550  66.018  1.00  0.00     0.000 HD 
HETATM   16  C   UNL     1     -11.739  12.372  68.135  1.00  0.00    -0.353 C  
HETATM   17  N   UNL     1     -11.617  13.373  69.100  1.00  0.00    -0.294 NA 
HETATM   18  O   UNL     1     -12.061  11.213  68.308  1.00  0.00    -0.620 OA 
ENDBRANCH   9  11
ENDBRANCH   6   9
ENDBRANCH   2   3
TORSDOF 3
ENDMDL
MODEL      106
REMARK 921   NORMALIZED FREE ENERGY PREDICTED BY IDOCK:   -4.36 KCAL/MOL
REMARK 922        TOTAL FREE ENERGY PREDICTED BY IDOCK:   -5.51 KCAL/MOL
REMARK 923 INTER-LIGAND FREE ENERGY PREDICTED BY IDOCK:   -5.42 KCAL/MOL
REMARK 924 INTRA-LIGAND FREE ENERGY PREDICTED BY IDOCK:   -0.09 KCAL/MOL
REMARK 927      BINDING AFFINITY PREDICTED BY RF-SCORE:    0.00 PKD
ROOT
HETATM    1  C   UNL     1     -13.108  14.344  72.638  1.00  0.00    -0.476 C  
HETATM    2  S   UNL     1     -12.017  15.307  71.556  1.00  0.00    -0.409 SA 
ENDROOT
BRANCH   2   3
HETATM    3  C   UNL     1     -11.777  14.120  70.250  1.00  0.00    -0.258 A  
HETATM    4  C   UNL     1     -10.956  14.407  69.158  1.00  0.00    -0.288 A  
HETATM    5  C   UNL     1     -10.779  13.462  68.144  1.00  0.00    -0.267 A  
HETATM    6  C   UNL     1     -11.418  12.214  68.208  1.00  0.00    -0.360 A  
HETATM    7  C   UNL     1     -12.387  12.863  70.336  1.00  0.00    -0.333 A  
HETATM    8  C   UNL     1     -12.203  11.909  69.325  1.00  0.00    -0.169 A  
BRANCH   6   9
HETATM    9  C   UNL     1     -11.147  11.253  67.106  1.00  0.00    -0.301 C  
HETATM   10  O   UNL     1     -11.049  10.060  67.388  1.00  0.00    -0.257 OA 
BRANCH   9  11
HETATM   11  C   UNL     1     -10.952  11.725  65.709  1.00  0.00    -0.301 C  
HETATM   12  C   UNL     1     -11.738  12.595  65.040  1.00  0.00    -0.359 C  
HETATM   13  C   UNL     1     -12.957  13.351  65.430  1.00  0.00    -0.240 C  
HETATM   14  N   UNL     1     -11.243  12.722  63.758  1.00  0.00    -0.439 N  
HETATM   15  H   UNL     1     -11.634  13.324  63.034  1.00  0.00     0.000 HD 
HETATM   16  C   UNL     1     -10.126  11.901  63.605  1.00  0.00    -0.426 C  
HETATM   17  N   UNL     1      -9.965  11.289  64.850  1.00  0.00    -0.257 NA 
HETATM   18  O   UNL     1      -9.446  11.744  62.610  1.00  0.00    -0.283 OA 
ENDBRANCH   9  11
ENDBRANCH   6   9
ENDBRANCH   2   3
TORSDOF 3
ENDMDL
MODEL      107
REMARK 921   NORMALIZED FREE ENERGY PREDICTED BY IDOCK:   -4.36 KCAL/MOL
REMARK 922        TOTAL FREE ENERGY PREDICTED BY IDOCK:   -5.51 KCAL/MOL
REMARK 923 INTER-LIGAND FREE ENERGY PREDICTED BY IDOCK:   -5.07 KCAL/MOL
REMARK 924 INTRA-LIGAND FREE ENERGY PREDICTED BY IDOCK:   -0.44 KCAL/MOL
REMARK 927      BINDING AFFINITY PREDICTED BY RF-SCORE:    0.00 PKD
ROOT
HETATM    1  C   UNL     1     -10.266   6.791  73.884  1.00  0.00    -0.367 C  
HETATM    2  S   UNL     1      -8.771   7.652  73.326  1.00  0.00    -0.216 SA 
ENDROOT
BRANCH   2   3
HETATM    3  C   UNL     1      -9.468   8.627  72.008  1.00  0.00    -0.300 A  
HETATM    4  C   UNL     1     -10.839   8.878  71.947  1.00  0.00    -0.433 A  
HETATM    5  C   UNL     1     -11.367   9.647  70.905  1.00  0.00    -0.431 A  
HETATM    6  C   UNL     1     -10.531  10.178  69.912  1.00  0.00    -0.322 A  
HETATM    7  C   UNL     1      -8.626   9.185  71.040  1.00  0.00    -0.236 A  
HETATM    8  C   UNL     1      -9.150   9.965  70.000  1.00  0.00    -0.217 A  
BRANCH   6   9
HETATM    9  C   UNL     1     -11.168  11.015  68.860  1.00  0.00    -0.265 C  
HETATM   10  O   UNL     1     -12.395  11.030  68.796  1.00  0.00    -0.533 OA 
BRANCH   9  11
HETATM   11  C   UNL     1     -10.342  11.773  67.882  1.00  0.00    -0.193 C  
HETATM   12  C   UNL     1      -9.890  11.319  66.694  1.00  0.00    -0.205 C  
HETATM   13  C   UNL     1     -10.061  10.025  65.982  1.00  0.00    -0.318 C  
HETATM   14  N   UNL     1      -9.119  12.310  66.121  1.00  0.00    -0.405 N  
HETATM   15  H   UNL     1      -8.658  12.246  65.214  1.00  0.00     0.000 HD 
HETATM   16  C   UNL     1      -9.067  13.413  66.973  1.00  0.00    -0.243 C  
HETATM   17  N   UNL     1      -9.850  13.047  68.071  1.00  0.00    -0.218 NA 
HETATM   18  O   UNL     1      -8.471  14.458  66.806  1.00  0.00    -0.172 OA 
ENDBRANCH   9  11
ENDBRANCH   6   9
ENDBRANCH   2   3
TORSDOF 3
ENDMDL
MODEL      108
REMARK 921   NORMALIZED FREE ENERGY PREDICTED BY IDOCK:   -4.35 KCAL/MOL
REMARK 922        TOTAL FREE ENERGY PREDICTED BY IDOCK:   -5.51 KCAL/MOL
REMARK 923 INTER-LIGAND FREE ENERGY PREDICTED BY IDOCK:   -5.10 KCAL/MOL
REMARK 924 INTRA-LIGAND FREE ENERGY PREDICTED BY IDOCK:   -0.40 KCAL/MOL
REMARK 927      BINDING AFFINITY PREDICTED BY RF-SCORE:    0.00 PKD
ROOT
HETATM    1  C   UNL     1     -12.525  13.391  64.678  1.00  0.00    -0.331 C  
HETATM    2  S   UNL     1     -11.803  13.138  66.322  1.00  0.00    -0.412 SA 
ENDROOT
BRANCH   2   3
HETATM    3  C   UNL     1     -11.004  14.716  66.539  1.00  0.00    -0.318 A  
HETATM    4  C   UNL     1     -10.617  15.484  65.439  1.00  0.00    -0.428 A  
HETATM    5  C   UNL     1      -9.993  16.720  65.630  1.00  0.00    -0.163 A  
HETATM    6  C   UNL     1      -9.749  17.208  66.922  1.00  0.00    -0.270 A  
HETATM    7  C   UNL     1     -10.796  15.215  67.829  1.00  0.00    -0.292 A  
HETATM    8  C   UNL     1     -10.179  16.459  68.024  1.00  0.00    -0.264 A  
BRANCH   6   9
HETATM    9  C   UNL     1      -9.114  18.548  67.037  1.00  0.00    -0.281 C  
HETATM   10  O   UNL     1      -9.532  19.451  66.315  1.00  0.00    -0.353 OA 
BRANCH   9  11
HETATM   11  C   UNL     1      -7.971  18.776  67.962  1.00  0.00    -0.281 C  
HETATM   12  C   UNL     1      -6.821  18.072  68.003  1.00  0.00    -0.206 C  
HETATM   13  C   UNL     1      -6.310  16.935  67.192  1.00  0.00    -0.221 C  
HETATM   14  N   UNL     1      -6.052  18.566  69.037  1.00  0.00    -0.225 N  
HETATM   15  H   UNL     1      -5.124  18.229  69.293  1.00  0.00     0.000 HD 
HETATM   16  C   UNL     1      -6.738  19.597  69.678  1.00  0.00    -0.305 C  
HETATM   17  N   UNL     1      -7.941  19.709  68.977  1.00  0.00    -0.282 NA 
HETATM   18  O   UNL     1      -6.378  20.251  70.637  1.00  0.00    -0.468 OA 
ENDBRANCH   9  11
ENDBRANCH   6   9
ENDBRANCH   2   3
TORSDOF 3
ENDMDL
MODEL      109
REMARK 921   NORMALIZED FREE ENERGY PREDICTED BY IDOCK:   -4.35 KCAL/MOL
REMARK 922        TOTAL FREE ENERGY PREDICTED BY IDOCK:   -5.50 KCAL/MOL
REMARK 923 INTER-LIGAND FREE ENERGY PREDICTED BY IDOCK:   -5.15 KCAL/MOL
REMARK 924 INTRA-LIGAND FREE ENERGY PREDICTED BY IDOCK:   -0.35 KCAL/MOL
REMARK 927      BINDING AFFINITY PREDICTED BY RF-SCORE:    0.00 PKD
ROOT
HETATM    1  C   UNL     1      -7.554   9.566  63.177  1.00  0.00    -0.110 C  
HETATM    2  S   UNL     1      -9.176   9.913  62.444  1.00  0.00    -0.243 SA 
ENDROOT
BRANCH   2   3
HETATM    3  C   UNL     1      -9.825  11.022  63.679  1.00  0.00    -0.351 A  
HETATM    4  C   UNL     1     -10.185  12.330  63.353  1.00  0.00    -0.360 A  
HETATM    5  C   UNL     1     -10.693  13.185  64.335  1.00  0.00    -0.426 A  
HETATM    6  C   UNL     1     -10.852  12.742  65.657  1.00  0.00    -0.300 A  
HETATM    7  C   UNL     1     -10.015  10.565  64.987  1.00  0.00    -0.388 A  
HETATM    8  C   UNL     1     -10.535  11.416  65.973  1.00  0.00    -0.305 A  
BRANCH   6   9
HETATM    9  C   UNL     1     -11.433  13.703  66.632  1.00  0.00    -0.343 C  
HETATM   10  O   UNL     1     -12.556  14.150  66.407  1.00  0.00    -0.427 OA 
BRANCH   9  11
HETATM   11  C   UNL     1     -10.659  14.149  67.822  1.00  0.00    -0.243 C  
HETATM   12  C   UNL     1     -11.043  14.049  69.112  1.00  0.00    -0.259 C  
HETATM   13  C   UNL     1     -12.255  13.480  69.757  1.00  0.00    -0.330 C  
HETATM   14  N   UNL     1     -10.067  14.629  69.897  1.00  0.00    -0.424 N  
HETATM   15  H   UNL     1     -10.088  14.686  70.914  1.00  0.00     0.000 HD 
HETATM   16  C   UNL     1      -9.047  15.124  69.084  1.00  0.00    -0.215 C  
HETATM   17  N   UNL     1      -9.446  14.804  67.784  1.00  0.00    -0.202 NA 
HETATM   18  O   UNL     1      -8.039  15.710  69.425  1.00  0.00    -0.230 OA 
ENDBRANCH   9  11
ENDBRANCH   6   9
ENDBRANCH   2   3
TORSDOF 3
ENDMDL
MODEL      110
REMARK 921   NORMALIZED FREE ENERGY PREDICTED BY IDOCK:   -4.34 KCAL/MOL
REMARK 922        TOTAL FREE ENERGY PREDICTED BY IDOCK:   -5.49 KCAL/MOL
REMARK 923 INTER-LIGAND FREE ENERGY PREDICTED BY IDOCK:   -5.02 KCAL/MOL
REMARK 924 INTRA-LIGAND FREE ENERGY PREDICTED BY IDOCK:   -0.47 KCAL/MOL
REMARK 927      BINDING AFFINITY PREDICTED BY RF-SCORE:    0.00 PKD
ROOT
HETATM    1  C   UNL     1      -5.510  16.555  69.552  1.00  0.00    -0.149 C  
HETATM    2  S   UNL     1      -6.115  17.135  67.944  1.00  0.00    -0.141 SA 
ENDROOT
BRANCH   2   3
HETATM    3  C   UNL     1      -7.664  16.257  67.880  1.00  0.00    -0.141 A  
HETATM    4  C   UNL     1      -8.286  15.984  66.661  1.00  0.00    -0.331 A  
HETATM    5  C   UNL     1      -9.501  15.293  66.631  1.00  0.00    -0.281 A  
HETATM    6  C   UNL     1     -10.110  14.863  67.820  1.00  0.00    -0.234 A  
HETATM    7  C   UNL     1      -8.250  15.799  69.065  1.00  0.00    -0.234 A  
HETATM    8  C   UNL     1      -9.463  15.097  69.038  1.00  0.00    -0.221 A  
BRANCH   6   9
HETATM    9  C   UNL     1     -11.383  14.103  67.698  1.00  0.00    -0.319 C  
HETATM   10  O   UNL     1     -12.214  14.215  68.596  1.00  0.00    -0.313 OA 
BRANCH   9  11
HETATM   11  C   UNL     1     -11.623  13.193  66.545  1.00  0.00    -0.356 C  
HETATM   12  C   UNL     1     -11.061  11.982  66.349  1.00  0.00    -0.318 C  
HETATM   13  C   UNL     1     -10.107  11.176  67.156  1.00  0.00    -0.223 C  
HETATM   14  N   UNL     1     -11.504  11.493  65.137  1.00  0.00    -0.100 N  
HETATM   15  H   UNL     1     -11.249  10.591  64.738  1.00  0.00     0.000 HD 
HETATM   16  C   UNL     1     -12.355  12.425  64.541  1.00  0.00    -0.438 C  
HETATM   17  N   UNL     1     -12.413  13.482  65.452  1.00  0.00    -0.474 NA 
HETATM   18  O   UNL     1     -12.916  12.343  63.466  1.00  0.00    -0.750 OA 
ENDBRANCH   9  11
ENDBRANCH   6   9
ENDBRANCH   2   3
TORSDOF 3
ENDMDL
MODEL      111
REMARK 921   NORMALIZED FREE ENERGY PREDICTED BY IDOCK:   -4.33 KCAL/MOL
REMARK 922        TOTAL FREE ENERGY PREDICTED BY IDOCK:   -5.48 KCAL/MOL
REMARK 923 INTER-LIGAND FREE ENERGY PREDICTED BY IDOCK:   -5.06 KCAL/MOL
REMARK 924 INTRA-LIGAND FREE ENERGY PREDICTED BY IDOCK:   -0.42 KCAL/MOL
REMARK 927      BINDING AFFINITY PREDICTED BY RF-SCORE:    0.00 PKD
ROOT
HETATM    1  C   UNL     1      -6.241  17.916  65.772  1.00  0.00    -0.217 C  
HETATM    2  S   UNL     1      -6.242  16.981  67.325  1.00  0.00    -0.184 SA 
ENDROOT
BRANCH   2   3
HETATM    3  C   UNL     1      -7.582  15.855  66.990  1.00  0.00    -0.229 A  
HETATM    4  C   UNL     1      -7.580  14.560  67.509  1.00  0.00    -0.211 A  
HETATM    5  C   UNL     1      -8.641  13.692  67.236  1.00  0.00    -0.220 A  
HETATM    6  C   UNL     1      -9.721  14.108  66.442  1.00  0.00    -0.313 A  
HETATM    7  C   UNL     1      -8.673  16.287  66.228  1.00  0.00    -0.370 A  
HETATM    8  C   UNL     1      -9.744  15.422  65.961  1.00  0.00    -0.370 A  
BRANCH   6   9
HETATM    9  C   UNL     1     -10.826  13.136  66.230  1.00  0.00    -0.279 C  
HETATM   10  O   UNL     1     -11.491  13.229  65.200  1.00  0.00    -0.289 OA 
BRANCH   9  11
HETATM   11  C   UNL     1     -11.149  12.109  67.257  1.00  0.00    -0.287 C  
HETATM   12  C   UNL     1     -10.854  10.794  67.196  1.00  0.00    -0.277 C  
HETATM   13  C   UNL     1     -10.137   9.972  66.186  1.00  0.00    -0.317 C  
HETATM   14  N   UNL     1     -11.376  10.184  68.319  1.00  0.00    -0.522 N  
HETATM   15  H   UNL     1     -11.294   9.192  68.541  1.00  0.00     0.000 HD 
HETATM   16  C   UNL     1     -12.033  11.133  69.103  1.00  0.00    -0.343 C  
HETATM   17  N   UNL     1     -11.870  12.335  68.411  1.00  0.00    -0.327 NA 
HETATM   18  O   UNL     1     -12.622  10.956  70.151  1.00  0.00    -0.307 OA 
ENDBRANCH   9  11
ENDBRANCH   6   9
ENDBRANCH   2   3
TORSDOF 3
ENDMDL
MODEL      112
REMARK 921   NORMALIZED FREE ENERGY PREDICTED BY IDOCK:   -4.32 KCAL/MOL
REMARK 922        TOTAL FREE ENERGY PREDICTED BY IDOCK:   -5.47 KCAL/MOL
REMARK 923 INTER-LIGAND FREE ENERGY PREDICTED BY IDOCK:   -5.28 KCAL/MOL
REMARK 924 INTRA-LIGAND FREE ENERGY PREDICTED BY IDOCK:   -0.18 KCAL/MOL
REMARK 927      BINDING AFFINITY PREDICTED BY RF-SCORE:    0.00 PKD
ROOT
HETATM    1  C   UNL     1      -9.408  19.534  66.587  1.00  0.00    -0.358 C  
HETATM    2  S   UNL     1      -8.222  18.678  67.660  1.00  0.00    -0.261 SA 
ENDROOT
BRANCH   2   3
HETATM    3  C   UNL     1      -9.237  17.312  68.188  1.00  0.00    -0.267 A  
HETATM    4  C   UNL     1     -10.606  17.286  67.918  1.00  0.00    -0.384 A  
HETATM    5  C   UNL     1     -11.384  16.205  68.341  1.00  0.00    -0.345 A  
HETATM    6  C   UNL     1     -10.805  15.133  69.036  1.00  0.00    -0.242 A  
HETATM    7  C   UNL     1      -8.649  16.229  68.850  1.00  0.00    -0.260 A  
HETATM    8  C   UNL     1      -9.425  15.138  69.266  1.00  0.00    -0.212 A  
BRANCH   6   9
HETATM    9  C   UNL     1     -11.698  14.005  69.417  1.00  0.00    -0.315 C  
HETATM   10  O   UNL     1     -12.540  14.203  70.291  1.00  0.00    -0.346 OA 
BRANCH   9  11
HETATM   11  C   UNL     1     -11.544  12.663  68.794  1.00  0.00    -0.313 C  
HETATM   12  C   UNL     1     -11.729  11.472  69.401  1.00  0.00    -0.346 C  
HETATM   13  C   UNL     1     -12.147  11.102  70.779  1.00  0.00    -0.458 C  
HETATM   14  N   UNL     1     -11.431  10.476  68.493  1.00  0.00    -0.455 N  
HETATM   15  H   UNL     1     -11.495   9.475  68.676  1.00  0.00     0.000 HD 
HETATM   16  C   UNL     1     -11.031  11.050  67.286  1.00  0.00    -0.297 C  
HETATM   17  N   UNL     1     -11.115  12.427  67.505  1.00  0.00    -0.251 NA 
HETATM   18  O   UNL     1     -10.679  10.483  66.270  1.00  0.00    -0.174 OA 
ENDBRANCH   9  11
ENDBRANCH   6   9
ENDBRANCH   2   3
TORSDOF 3
ENDMDL
MODEL      113
REMARK 921   NORMALIZED FREE ENERGY PREDICTED BY IDOCK:   -4.31 KCAL/MOL
REMARK 922        TOTAL FREE ENERGY PREDICTED BY IDOCK:   -5.46 KCAL/MOL
REMARK 923 INTER-LIGAND FREE ENERGY PREDICTED BY IDOCK:   -5.04 KCAL/MOL
REMARK 924 INTRA-LIGAND FREE ENERGY PREDICTED BY IDOCK:   -0.42 KCAL/MOL
REMARK 927      BINDING AFFINITY PREDICTED BY RF-SCORE:    0.00 PKD
ROOT
HETATM    1  C   UNL     1     -12.020  13.565  63.984  1.00  0.00    -0.449 C  
HETATM    2  S   UNL     1     -12.213  14.094  65.707  1.00  0.00    -0.436 SA 
ENDROOT
BRANCH   2   3
HETATM    3  C   UNL     1     -11.693  12.603  66.532  1.00  0.00    -0.400 A  
HETATM    4  C   UNL     1     -11.043  11.584  65.834  1.00  0.00    -0.274 A  
HETATM    5  C   UNL     1     -10.641  10.422  66.500  1.00  0.00    -0.220 A  
HETATM    6  C   UNL     1     -10.880  10.264  67.873  1.00  0.00    -0.337 A  
HETATM    7  C   UNL     1     -11.901  12.465  67.909  1.00  0.00    -0.370 A  
HETATM    8  C   UNL     1     -11.490  11.306  68.581  1.00  0.00    -0.362 A  
BRANCH   6   9
HETATM    9  C   UNL     1     -10.388   9.014  68.511  1.00  0.00    -0.203 C  
HETATM   10  O   UNL     1      -9.984   8.111  67.781  1.00  0.00    -0.162 OA 
BRANCH   9  11
HETATM   11  C   UNL     1     -10.430   8.841  69.988  1.00  0.00    -0.212 C  
HETATM   12  C   UNL     1      -9.402   9.019  70.845  1.00  0.00    -0.264 C  
HETATM   13  C   UNL     1      -7.991   9.444  70.646  1.00  0.00    -0.189 C  
HETATM   14  N   UNL     1      -9.842   8.704  72.115  1.00  0.00    -0.318 N  
HETATM   15  H   UNL     1      -9.278   8.758  72.962  1.00  0.00     0.000 HD 
HETATM   16  C   UNL     1     -11.176   8.300  72.060  1.00  0.00    -0.323 C  
HETATM   17  N   UNL     1     -11.519   8.400  70.710  1.00  0.00    -0.272 NA 
HETATM   18  O   UNL     1     -11.884   7.935  72.978  1.00  0.00    -0.247 OA 
ENDBRANCH   9  11
ENDBRANCH   6   9
ENDBRANCH   2   3
TORSDOF 3
ENDMDL
MODEL      114
REMARK 921   NORMALIZED FREE ENERGY PREDICTED BY IDOCK:   -4.31 KCAL/MOL
REMARK 922        TOTAL FREE ENERGY PREDICTED BY IDOCK:   -5.45 KCAL/MOL
REMARK 923 INTER-LIGAND FREE ENERGY PREDICTED BY IDOCK:   -4.98 KCAL/MOL
REMARK 924 INTRA-LIGAND FREE ENERGY PREDICTED BY IDOCK:   -0.47 KCAL/MOL
REMARK 927      BINDING AFFINITY PREDICTED BY RF-SCORE:    0.00 PKD
ROOT
HETATM    1  C   UNL     1     -12.606  14.035  65.430  1.00  0.00    -0.505 C  
HETATM    2  S   UNL     1     -11.387  12.896  64.720  1.00  0.00    -0.332 SA 
ENDROOT
BRANCH   2   3
HETATM    3  C   UNL     1     -10.988  11.949  66.176  1.00  0.00    -0.308 A  
HETATM    4  C   UNL     1     -11.759  12.051  67.334  1.00  0.00    -0.352 A  
HETATM    5  C   UNL     1     -11.430  11.299  68.466  1.00  0.00    -0.372 A  
HETATM    6  C   UNL     1     -10.327  10.432  68.454  1.00  0.00    -0.198 A  
HETATM    7  C   UNL     1      -9.909  11.059  66.147  1.00  0.00    -0.268 A  
HETATM    8  C   UNL     1      -9.582  10.295  67.277  1.00  0.00    -0.186 A  
BRANCH   6   9
HETATM    9  C   UNL     1     -10.068   9.641  69.687  1.00  0.00    -0.224 C  
HETATM   10  O   UNL     1      -9.037   9.869  70.315  1.00  0.00    -0.208 OA 
BRANCH   9  11
HETATM   11  C   UNL     1     -11.007   8.571  70.121  1.00  0.00    -0.216 C  
HETATM   12  C   UNL     1     -11.034   7.299  69.671  1.00  0.00    -0.186 C  
HETATM   13  C   UNL     1     -10.193   6.562  68.691  1.00  0.00    -0.192 C  
HETATM   14  N   UNL     1     -12.087   6.649  70.284  1.00  0.00    -0.574 N  
HETATM   15  H   UNL     1     -12.338   5.672  70.140  1.00  0.00     0.000 HD 
HETATM   16  C   UNL     1     -12.754   7.536  71.129  1.00  0.00    -0.241 C  
HETATM   17  N   UNL     1     -12.049   8.736  71.008  1.00  0.00    -0.265 NA 
HETATM   18  O   UNL     1     -13.734   7.320  71.814  1.00  0.00    -0.358 OA 
ENDBRANCH   9  11
ENDBRANCH   6   9
ENDBRANCH   2   3
TORSDOF 3
ENDMDL
MODEL      115
REMARK 921   NORMALIZED FREE ENERGY PREDICTED BY IDOCK:   -4.24 KCAL/MOL
REMARK 922        TOTAL FREE ENERGY PREDICTED BY IDOCK:   -5.37 KCAL/MOL
REMARK 923 INTER-LIGAND FREE ENERGY PREDICTED BY IDOCK:   -5.03 KCAL/MOL
REMARK 924 INTRA-LIGAND FREE ENERGY PREDICTED BY IDOCK:   -0.35 KCAL/MOL
REMARK 927      BINDING AFFINITY PREDICTED BY RF-SCORE:    0.00 PKD
ROOT
HETATM    1  C   UNL     1     -11.456  12.700  63.604  1.00  0.00    -0.495 C  
HETATM    2  S   UNL     1     -11.463  14.194  64.632  1.00  0.00    -0.381 SA 
ENDROOT
BRANCH   2   3
HETATM    3  C   UNL     1     -11.541  13.440  66.245  1.00  0.00    -0.344 A  
HETATM    4  C   UNL     1     -11.310  14.188  67.400  1.00  0.00    -0.346 A  
HETATM    5  C   UNL     1     -11.378  13.578  68.656  1.00  0.00    -0.323 A  
HETATM    6  C   UNL     1     -11.681  12.214  68.776  1.00  0.00    -0.374 A  
HETATM    7  C   UNL     1     -11.879  12.087  66.361  1.00  0.00    -0.232 A  
HETATM    8  C   UNL     1     -11.958  11.475  67.620  1.00  0.00    -0.054 A  
BRANCH   6   9
HETATM    9  C   UNL     1     -11.768  11.652  70.150  1.00  0.00    -0.296 C  
HETATM   10  O   UNL     1     -12.227  12.366  71.040  1.00  0.00    -0.305 OA 
BRANCH   9  11
HETATM   11  C   UNL     1     -11.270  10.283  70.451  1.00  0.00    -0.332 C  
HETATM   12  C   UNL     1     -11.963   9.291  71.048  1.00  0.00    -0.300 C  
HETATM   13  C   UNL     1     -13.360   9.204  71.550  1.00  0.00    -0.416 C  
HETATM   14  N   UNL     1     -11.123   8.206  71.191  1.00  0.00    -0.240 N  
HETATM   15  H   UNL     1     -11.385   7.310  71.602  1.00  0.00     0.000 HD 
HETATM   16  C   UNL     1      -9.861   8.522  70.687  1.00  0.00    -0.186 C  
HETATM   17  N   UNL     1      -9.986   9.835  70.225  1.00  0.00    -0.261 NA 
HETATM   18  O   UNL     1      -8.870   7.819  70.661  1.00  0.00    -0.141 OA 
ENDBRANCH   9  11
ENDBRANCH   6   9
ENDBRANCH   2   3
TORSDOF 3
ENDMDL
MODEL      116
REMARK 921   NORMALIZED FREE ENERGY PREDICTED BY IDOCK:   -4.24 KCAL/MOL
REMARK 922        TOTAL FREE ENERGY PREDICTED BY IDOCK:   -5.37 KCAL/MOL
REMARK 923 INTER-LIGAND FREE ENERGY PREDICTED BY IDOCK:   -5.49 KCAL/MOL
REMARK 924 INTRA-LIGAND FREE ENERGY PREDICTED BY IDOCK:    0.12 KCAL/MOL
REMARK 927      BINDING AFFINITY PREDICTED BY RF-SCORE:    0.00 PKD
ROOT
HETATM    1  C   UNL     1      -9.676   4.441  69.811  1.00  0.00    -0.221 C  
HETATM    2  S   UNL     1      -8.871   5.369  71.144  1.00  0.00    -0.138 SA 
ENDROOT
BRANCH   2   3
HETATM    3  C   UNL     1     -10.008   6.735  71.280  1.00  0.00    -0.176 A  
HETATM    4  C   UNL     1      -9.565   8.054  71.168  1.00  0.00    -0.189 A  
HETATM    5  C   UNL     1     -10.473   9.111  71.276  1.00  0.00    -0.398 A  
HETATM    6  C   UNL     1     -11.837   8.865  71.494  1.00  0.00    -0.402 A  
HETATM    7  C   UNL     1     -11.372   6.484  71.461  1.00  0.00    -0.339 A  
HETATM    8  C   UNL     1     -12.287   7.542  71.559  1.00  0.00    -0.367 A  
BRANCH   6   9
HETATM    9  C   UNL     1     -12.740  10.045  71.560  1.00  0.00    -0.429 C  
HETATM   10  O   UNL     1     -13.757   9.958  72.244  1.00  0.00    -0.356 OA 
BRANCH   9  11
HETATM   11  C   UNL     1     -12.446  11.278  70.781  1.00  0.00    -0.376 C  
HETATM   12  C   UNL     1     -12.782  12.540  71.122  1.00  0.00    -0.245 C  
HETATM   13  C   UNL     1     -13.477  13.108  72.307  1.00  0.00    -0.665 C  
HETATM   14  N   UNL     1     -12.377  13.382  70.105  1.00  0.00    -0.287 N  
HETATM   15  H   UNL     1     -12.493  14.394  70.100  1.00  0.00     0.000 HD 
HETATM   16  C   UNL     1     -11.785  12.633  69.088  1.00  0.00    -0.321 C  
HETATM   17  N   UNL     1     -11.840  11.314  69.543  1.00  0.00    -0.326 NA 
HETATM   18  O   UNL     1     -11.329  13.034  68.035  1.00  0.00    -0.256 OA 
ENDBRANCH   9  11
ENDBRANCH   6   9
ENDBRANCH   2   3
TORSDOF 3
ENDMDL
MODEL      117
REMARK 921   NORMALIZED FREE ENERGY PREDICTED BY IDOCK:   -4.22 KCAL/MOL
REMARK 922        TOTAL FREE ENERGY PREDICTED BY IDOCK:   -5.35 KCAL/MOL
REMARK 923 INTER-LIGAND FREE ENERGY PREDICTED BY IDOCK:   -4.99 KCAL/MOL
REMARK 924 INTRA-LIGAND FREE ENERGY PREDICTED BY IDOCK:   -0.36 KCAL/MOL
REMARK 927      BINDING AFFINITY PREDICTED BY RF-SCORE:    0.00 PKD
ROOT
HETATM    1  C   UNL     1      -8.471  13.458  68.077  1.00  0.00    -0.173 C  
HETATM    2  S   UNL     1     -10.264  13.610  67.848  1.00  0.00    -0.256 SA 
ENDROOT
BRANCH   2   3
HETATM    3  C   UNL     1     -10.811  12.323  68.953  1.00  0.00    -0.196 A  
HETATM    4  C   UNL     1     -10.194  11.071  68.961  1.00  0.00    -0.217 A  
HETATM    5  C   UNL     1     -10.637  10.075  69.836  1.00  0.00    -0.324 A  
HETATM    6  C   UNL     1     -11.701  10.318  70.718  1.00  0.00    -0.453 A  
HETATM    7  C   UNL     1     -11.849  12.581  69.855  1.00  0.00    -0.373 A  
HETATM    8  C   UNL     1     -12.289  11.588  70.741  1.00  0.00    -0.472 A  
BRANCH   6   9
HETATM    9  C   UNL     1     -12.086   9.216  71.640  1.00  0.00    -0.362 C  
HETATM   10  O   UNL     1     -13.192   9.267  72.174  1.00  0.00    -0.397 OA 
BRANCH   9  11
HETATM   11  C   UNL     1     -11.140   8.110  71.948  1.00  0.00    -0.285 C  
HETATM   12  C   UNL     1     -10.997   6.962  71.253  1.00  0.00    -0.243 C  
HETATM   13  C   UNL     1     -11.652   6.446  70.021  1.00  0.00    -0.446 C  
HETATM   14  N   UNL     1     -10.059   6.183  71.898  1.00  0.00    -0.188 N  
HETATM   15  H   UNL     1      -9.744   5.264  71.589  1.00  0.00     0.000 HD 
HETATM   16  C   UNL     1      -9.608   6.845  73.040  1.00  0.00    -0.155 C  
HETATM   17  N   UNL     1     -10.303   8.056  73.042  1.00  0.00    -0.330 NA 
HETATM   18  O   UNL     1      -8.797   6.456  73.857  1.00  0.00    -0.122 OA 
ENDBRANCH   9  11
ENDBRANCH   6   9
ENDBRANCH   2   3
TORSDOF 3
ENDMDL
MODEL      118
REMARK 921   NORMALIZED FREE ENERGY PREDICTED BY IDOCK:   -4.21 KCAL/MOL
REMARK 922        TOTAL FREE ENERGY PREDICTED BY IDOCK:   -5.33 KCAL/MOL
REMARK 923 INTER-LIGAND FREE ENERGY PREDICTED BY IDOCK:   -4.93 KCAL/MOL
REMARK 924 INTRA-LIGAND FREE ENERGY PREDICTED BY IDOCK:   -0.40 KCAL/MOL
REMARK 927      BINDING AFFINITY PREDICTED BY RF-SCORE:    0.00 PKD
ROOT
HETATM    1  C   UNL     1     -11.809  13.800  65.715  1.00  0.00    -0.372 C  
HETATM    2  S   UNL     1     -11.837  14.023  67.514  1.00  0.00    -0.402 SA 
ENDROOT
BRANCH   2   3
HETATM    3  C   UNL     1     -11.423  12.366  68.022  1.00  0.00    -0.322 A  
HETATM    4  C   UNL     1     -11.622  11.946  69.338  1.00  0.00    -0.388 A  
HETATM    5  C   UNL     1     -11.292  10.642  69.716  1.00  0.00    -0.371 A  
HETATM    6  C   UNL     1     -10.761   9.738  68.784  1.00  0.00    -0.243 A  
HETATM    7  C   UNL     1     -10.929  11.457  67.080  1.00  0.00    -0.340 A  
HETATM    8  C   UNL     1     -10.606  10.145  67.454  1.00  0.00    -0.329 A  
BRANCH   6   9
HETATM    9  C   UNL     1     -10.472   8.359  69.260  1.00  0.00    -0.215 C  
HETATM   10  O   UNL     1     -10.509   7.443  68.441  1.00  0.00    -0.195 OA 
BRANCH   9  11
HETATM   11  C   UNL     1     -10.193   8.088  70.696  1.00  0.00    -0.196 C  
HETATM   12  C   UNL     1     -11.049   7.553  71.592  1.00  0.00    -0.239 C  
HETATM   13  C   UNL     1     -12.445   7.055  71.472  1.00  0.00    -0.426 C  
HETATM   14  N   UNL     1     -10.422   7.522  72.821  1.00  0.00    -0.264 N  
HETATM   15  H   UNL     1     -10.831   7.157  73.681  1.00  0.00     0.000 HD 
HETATM   16  C   UNL     1      -9.143   8.067  72.706  1.00  0.00    -0.238 C  
HETATM   17  N   UNL     1      -9.026   8.411  71.357  1.00  0.00    -0.168 NA 
HETATM   18  O   UNL     1      -8.315   8.218  73.582  1.00  0.00    -0.226 OA 
ENDBRANCH   9  11
ENDBRANCH   6   9
ENDBRANCH   2   3
TORSDOF 3
ENDMDL
MODEL      119
REMARK 921   NORMALIZED FREE ENERGY PREDICTED BY IDOCK:   -4.18 KCAL/MOL
REMARK 922        TOTAL FREE ENERGY PREDICTED BY IDOCK:   -5.30 KCAL/MOL
REMARK 923 INTER-LIGAND FREE ENERGY PREDICTED BY IDOCK:   -4.87 KCAL/MOL
REMARK 924 INTRA-LIGAND FREE ENERGY PREDICTED BY IDOCK:   -0.43 KCAL/MOL
REMARK 927      BINDING AFFINITY PREDICTED BY RF-SCORE:    0.00 PKD
ROOT
HETATM    1  C   UNL     1     -12.272  13.652  63.601  1.00  0.00    -0.317 C  
HETATM    2  S   UNL     1     -12.605  14.064  65.335  1.00  0.00    -0.454 SA 
ENDROOT
BRANCH   2   3
HETATM    3  C   UNL     1     -11.727  12.731  66.127  1.00  0.00    -0.403 A  
HETATM    4  C   UNL     1     -11.889  12.472  67.489  1.00  0.00    -0.389 A  
HETATM    5  C   UNL     1     -11.192  11.421  68.092  1.00  0.00    -0.343 A  
HETATM    6  C   UNL     1     -10.325  10.612  67.341  1.00  0.00    -0.262 A  
HETATM    7  C   UNL     1     -10.892  11.904  65.368  1.00  0.00    -0.343 A  
HETATM    8  C   UNL     1     -10.199  10.843  65.967  1.00  0.00    -0.311 A  
BRANCH   6   9
HETATM    9  C   UNL     1      -9.651   9.493  68.052  1.00  0.00    -0.137 C  
HETATM   10  O   UNL     1      -8.587   9.727  68.623  1.00  0.00    -0.116 OA 
BRANCH   9  11
HETATM   11  C   UNL     1     -10.221   8.119  68.032  1.00  0.00    -0.212 C  
HETATM   12  C   UNL     1     -10.881   7.511  69.040  1.00  0.00    -0.061 C  
HETATM   13  C   UNL     1     -11.270   7.963  70.402  1.00  0.00    -0.240 C  
HETATM   14  N   UNL     1     -11.193   6.229  68.637  1.00  0.00    -0.496 N  
HETATM   15  H   UNL     1     -11.703   5.544  69.195  1.00  0.00     0.000 HD 
HETATM   16  C   UNL     1     -10.704   6.012  67.348  1.00  0.00    -0.310 C  
HETATM   17  N   UNL     1     -10.101   7.221  66.993  1.00  0.00    -0.222 NA 
HETATM   18  O   UNL     1     -10.777   4.998  66.683  1.00  0.00    -0.254 OA 
ENDBRANCH   9  11
ENDBRANCH   6   9
ENDBRANCH   2   3
TORSDOF 3
ENDMDL
MODEL      120
REMARK 921   NORMALIZED FREE ENERGY PREDICTED BY IDOCK:   -4.16 KCAL/MOL
REMARK 922        TOTAL FREE ENERGY PREDICTED BY IDOCK:   -5.28 KCAL/MOL
REMARK 923 INTER-LIGAND FREE ENERGY PREDICTED BY IDOCK:   -4.88 KCAL/MOL
REMARK 924 INTRA-LIGAND FREE ENERGY PREDICTED BY IDOCK:   -0.39 KCAL/MOL
REMARK 927      BINDING AFFINITY PREDICTED BY RF-SCORE:    0.00 PKD
ROOT
HETATM    1  C   UNL     1      -7.889   9.159  64.028  1.00  0.00    -0.129 C  
HETATM    2  S   UNL     1      -6.985  10.026  65.339  1.00  0.00    -0.132 SA 
ENDROOT
BRANCH   2   3
HETATM    3  C   UNL     1      -8.287  11.081  65.945  1.00  0.00    -0.119 A  
HETATM    4  C   UNL     1      -9.458  11.273  65.211  1.00  0.00    -0.248 A  
HETATM    5  C   UNL     1     -10.468  12.104  65.703  1.00  0.00    -0.290 A  
HETATM    6  C   UNL     1     -10.324  12.752  66.939  1.00  0.00    -0.245 A  
HETATM    7  C   UNL     1      -8.154  11.697  67.194  1.00  0.00    -0.166 A  
HETATM    8  C   UNL     1      -9.169  12.523  67.696  1.00  0.00    -0.190 A  
BRANCH   6   9
HETATM    9  C   UNL     1     -11.461  13.589  67.407  1.00  0.00    -0.336 C  
HETATM   10  O   UNL     1     -12.275  13.980  66.573  1.00  0.00    -0.447 OA 
BRANCH   9  11
HETATM   11  C   UNL     1     -11.583  13.984  68.836  1.00  0.00    -0.315 C  
HETATM   12  C   UNL     1     -11.868  13.166  69.872  1.00  0.00    -0.308 C  
HETATM   13  C   UNL     1     -12.110  11.701  69.957  1.00  0.00    -0.395 C  
HETATM   14  N   UNL     1     -11.945  13.933  71.016  1.00  0.00    -0.487 N  
HETATM   15  H   UNL     1     -12.136  13.575  71.952  1.00  0.00     0.000 HD 
HETATM   16  C   UNL     1     -11.720  15.272  70.697  1.00  0.00    -0.332 C  
HETATM   17  N   UNL     1     -11.492  15.272  69.319  1.00  0.00    -0.298 NA 
HETATM   18  O   UNL     1     -11.728  16.229  71.445  1.00  0.00    -0.446 OA 
ENDBRANCH   9  11
ENDBRANCH   6   9
ENDBRANCH   2   3
TORSDOF 3
ENDMDL
MODEL      121
REMARK 921   NORMALIZED FREE ENERGY PREDICTED BY IDOCK:   -4.15 KCAL/MOL
REMARK 922        TOTAL FREE ENERGY PREDICTED BY IDOCK:   -5.27 KCAL/MOL
REMARK 923 INTER-LIGAND FREE ENERGY PREDICTED BY IDOCK:   -4.84 KCAL/MOL
REMARK 924 INTRA-LIGAND FREE ENERGY PREDICTED BY IDOCK:   -0.43 KCAL/MOL
REMARK 927      BINDING AFFINITY PREDICTED BY RF-SCORE:    0.00 PKD
ROOT
HETATM    1  C   UNL     1      -8.818   2.703  66.853  1.00  0.00    -0.133 C  
HETATM    2  S   UNL     1      -9.338   4.333  66.253  1.00  0.00    -0.177 SA 
ENDROOT
BRANCH   2   3
HETATM    3  C   UNL     1      -9.882   5.052  67.790  1.00  0.00    -0.154 A  
HETATM    4  C   UNL     1      -9.291   4.693  69.001  1.00  0.00    -0.203 A  
HETATM    5  C   UNL     1      -9.730   5.269  70.196  1.00  0.00    -0.262 A  
HETATM    6  C   UNL     1     -10.765   6.216  70.197  1.00  0.00    -0.366 A  
HETATM    7  C   UNL     1     -10.890   6.023  67.781  1.00  0.00    -0.380 A  
HETATM    8  C   UNL     1     -11.326   6.611  68.977  1.00  0.00    -0.235 A  
BRANCH   6   9
HETATM    9  C   UNL     1     -11.148   6.807  71.507  1.00  0.00    -0.251 C  
HETATM   10  O   UNL     1     -10.703   6.289  72.529  1.00  0.00    -0.208 OA 
BRANCH   9  11
HETATM   11  C   UNL     1     -12.082   7.963  71.581  1.00  0.00    -0.299 C  
HETATM   12  C   UNL     1     -13.430   7.902  71.629  1.00  0.00    -0.341 C  
HETATM   13  C   UNL     1     -14.383   6.761  71.654  1.00  0.00    -0.284 C  
HETATM   14  N   UNL     1     -13.918   9.193  71.634  1.00  0.00    -0.331 N  
HETATM   15  H   UNL     1     -14.904   9.448  71.677  1.00  0.00     0.000 HD 
HETATM   16  C   UNL     1     -12.855  10.094  71.570  1.00  0.00    -0.443 C  
HETATM   17  N   UNL     1     -11.713   9.291  71.542  1.00  0.00    -0.353 NA 
HETATM   18  O   UNL     1     -12.907  11.308  71.539  1.00  0.00    -0.416 OA 
ENDBRANCH   9  11
ENDBRANCH   6   9
ENDBRANCH   2   3
TORSDOF 3
ENDMDL
MODEL      122
REMARK 921   NORMALIZED FREE ENERGY PREDICTED BY IDOCK:   -4.15 KCAL/MOL
REMARK 922        TOTAL FREE ENERGY PREDICTED BY IDOCK:   -5.27 KCAL/MOL
REMARK 923 INTER-LIGAND FREE ENERGY PREDICTED BY IDOCK:   -4.86 KCAL/MOL
REMARK 924 INTRA-LIGAND FREE ENERGY PREDICTED BY IDOCK:   -0.41 KCAL/MOL
REMARK 927      BINDING AFFINITY PREDICTED BY RF-SCORE:    0.00 PKD
ROOT
HETATM    1  C   UNL     1     -11.088  10.086  69.339  1.00  0.00    -0.223 C  
HETATM    2  S   UNL     1     -11.888  11.427  70.259  1.00  0.00    -0.329 SA 
ENDROOT
BRANCH   2   3
HETATM    3  C   UNL     1     -11.269  12.823  69.341  1.00  0.00    -0.132 A  
HETATM    4  C   UNL     1     -10.420  12.646  68.248  1.00  0.00    -0.249 A  
HETATM    5  C   UNL     1      -9.946  13.754  67.540  1.00  0.00    -0.233 A  
HETATM    6  C   UNL     1     -10.317  15.055  67.913  1.00  0.00    -0.241 A  
HETATM    7  C   UNL     1     -11.670  14.116  69.695  1.00  0.00    -0.372 A  
HETATM    8  C   UNL     1     -11.205  15.229  68.980  1.00  0.00    -0.287 A  
BRANCH   6   9
HETATM    9  C   UNL     1      -9.797  16.176  67.085  1.00  0.00    -0.241 C  
HETATM   10  O   UNL     1      -9.843  16.062  65.861  1.00  0.00    -0.306 OA 
BRANCH   9  11
HETATM   11  C   UNL     1      -9.193  17.379  67.718  1.00  0.00    -0.248 C  
HETATM   12  C   UNL     1      -9.671  18.640  67.659  1.00  0.00    -0.303 C  
HETATM   13  C   UNL     1     -10.881  19.227  67.024  1.00  0.00    -0.515 C  
HETATM   14  N   UNL     1      -8.789  19.465  68.328  1.00  0.00    -0.328 N  
HETATM   15  H   UNL     1      -8.904  20.471  68.451  1.00  0.00     0.000 HD 
HETATM   16  C   UNL     1      -7.718  18.712  68.807  1.00  0.00    -0.300 C  
HETATM   17  N   UNL     1      -8.002  17.403  68.411  1.00  0.00    -0.250 NA 
HETATM   18  O   UNL     1      -6.748  19.103  69.426  1.00  0.00    -0.302 OA 
ENDBRANCH   9  11
ENDBRANCH   6   9
ENDBRANCH   2   3
TORSDOF 3
ENDMDL
MODEL      123
REMARK 921   NORMALIZED FREE ENERGY PREDICTED BY IDOCK:   -4.15 KCAL/MOL
REMARK 922        TOTAL FREE ENERGY PREDICTED BY IDOCK:   -5.26 KCAL/MOL
REMARK 923 INTER-LIGAND FREE ENERGY PREDICTED BY IDOCK:   -4.85 KCAL/MOL
REMARK 924 INTRA-LIGAND FREE ENERGY PREDICTED BY IDOCK:   -0.41 KCAL/MOL
REMARK 927      BINDING AFFINITY PREDICTED BY RF-SCORE:    0.00 PKD
ROOT
HETATM    1  C   UNL     1     -11.704  15.282  72.463  1.00  0.00    -0.434 C  
HETATM    2  S   UNL     1     -11.518  16.082  70.846  1.00  0.00    -0.382 SA 
ENDROOT
BRANCH   2   3
HETATM    3  C   UNL     1     -11.311  14.636  69.826  1.00  0.00    -0.275 A  
HETATM    4  C   UNL     1     -12.043  13.473  70.067  1.00  0.00    -0.411 A  
HETATM    5  C   UNL     1     -11.867  12.350  69.254  1.00  0.00    -0.361 A  
HETATM    6  C   UNL     1     -10.958  12.374  68.186  1.00  0.00    -0.263 A  
HETATM    7  C   UNL     1     -10.429  14.677  68.740  1.00  0.00    -0.246 A  
HETATM    8  C   UNL     1     -10.257  13.555  67.916  1.00  0.00    -0.247 A  
BRANCH   6   9
HETATM    9  C   UNL     1     -10.857  11.149  67.349  1.00  0.00    -0.266 C  
HETATM   10  O   UNL     1     -11.517  10.165  67.679  1.00  0.00    -0.271 OA 
BRANCH   9  11
HETATM   11  C   UNL     1      -9.947  11.099  66.173  1.00  0.00    -0.229 C  
HETATM   12  C   UNL     1     -10.199  11.593  64.943  1.00  0.00    -0.270 C  
HETATM   13  C   UNL     1     -11.360  12.329  64.375  1.00  0.00    -0.396 C  
HETATM   14  N   UNL     1      -9.126  11.291  64.130  1.00  0.00    -0.396 N  
HETATM   15  H   UNL     1      -9.039  11.553  63.148  1.00  0.00     0.000 HD 
HETATM   16  C   UNL     1      -8.177  10.572  64.858  1.00  0.00    -0.117 C  
HETATM   17  N   UNL     1      -8.720  10.470  66.140  1.00  0.00    -0.152 NA 
HETATM   18  O   UNL     1      -7.117  10.126  64.465  1.00  0.00    -0.138 OA 
ENDBRANCH   9  11
ENDBRANCH   6   9
ENDBRANCH   2   3
TORSDOF 3
ENDMDL
MODEL      124
REMARK 921   NORMALIZED FREE ENERGY PREDICTED BY IDOCK:   -4.15 KCAL/MOL
REMARK 922        TOTAL FREE ENERGY PREDICTED BY IDOCK:   -5.26 KCAL/MOL
REMARK 923 INTER-LIGAND FREE ENERGY PREDICTED BY IDOCK:   -4.93 KCAL/MOL
REMARK 924 INTRA-LIGAND FREE ENERGY PREDICTED BY IDOCK:   -0.34 KCAL/MOL
REMARK 927      BINDING AFFINITY PREDICTED BY RF-SCORE:    0.00 PKD
ROOT
HETATM    1  C   UNL     1     -11.216   9.411  71.213  1.00  0.00    -0.367 C  
HETATM    2  S   UNL     1     -12.463  10.726  71.253  1.00  0.00    -0.392 SA 
ENDROOT
BRANCH   2   3
HETATM    3  C   UNL     1     -11.979  11.634  69.798  1.00  0.00    -0.332 A  
HETATM    4  C   UNL     1     -11.944  13.029  69.799  1.00  0.00    -0.377 A  
HETATM    5  C   UNL     1     -11.560  13.723  68.648  1.00  0.00    -0.369 A  
HETATM    6  C   UNL     1     -11.202  13.032  67.481  1.00  0.00    -0.320 A  
HETATM    7  C   UNL     1     -11.588  10.940  68.648  1.00  0.00    -0.373 A  
HETATM    8  C   UNL     1     -11.192  11.633  67.495  1.00  0.00    -0.355 A  
BRANCH   6   9
HETATM    9  C   UNL     1     -10.771  13.845  66.312  1.00  0.00    -0.285 C  
HETATM   10  O   UNL     1     -11.390  13.718  65.258  1.00  0.00    -0.297 OA 
BRANCH   9  11
HETATM   11  C   UNL     1      -9.593  14.749  66.402  1.00  0.00    -0.301 C  
HETATM   12  C   UNL     1      -9.549  16.047  66.032  1.00  0.00    -0.350 C  
HETATM   13  C   UNL     1     -10.576  16.969  65.480  1.00  0.00    -0.184 C  
HETATM   14  N   UNL     1      -8.261  16.505  66.225  1.00  0.00    -0.325 N  
HETATM   15  H   UNL     1      -7.941  17.455  66.039  1.00  0.00     0.000 HD 
HETATM   16  C   UNL     1      -7.465  15.468  66.713  1.00  0.00     0.054 C  
HETATM   17  N   UNL     1      -8.332  14.378  66.817  1.00  0.00    -0.073 NA 
HETATM   18  O   UNL     1      -6.280  15.500  66.981  1.00  0.00    -0.279 OA 
ENDBRANCH   9  11
ENDBRANCH   6   9
ENDBRANCH   2   3
TORSDOF 3
ENDMDL
MODEL      125
REMARK 921   NORMALIZED FREE ENERGY PREDICTED BY IDOCK:   -4.14 KCAL/MOL
REMARK 922        TOTAL FREE ENERGY PREDICTED BY IDOCK:   -5.26 KCAL/MOL
REMARK 923 INTER-LIGAND FREE ENERGY PREDICTED BY IDOCK:   -4.85 KCAL/MOL
REMARK 924 INTRA-LIGAND FREE ENERGY PREDICTED BY IDOCK:   -0.41 KCAL/MOL
REMARK 927      BINDING AFFINITY PREDICTED BY RF-SCORE:    0.00 PKD
ROOT
HETATM    1  C   UNL     1     -13.762  13.949  72.332  1.00  0.00    -0.576 C  
HETATM    2  S   UNL     1     -12.704  15.141  71.468  1.00  0.00    -0.397 SA 
ENDROOT
BRANCH   2   3
HETATM    3  C   UNL     1     -12.287  14.175  70.030  1.00  0.00    -0.344 A  
HETATM    4  C   UNL     1     -12.061  12.801  70.127  1.00  0.00    -0.370 A  
HETATM    5  C   UNL     1     -11.736  12.061  68.987  1.00  0.00    -0.382 A  
HETATM    6  C   UNL     1     -11.636  12.682  67.733  1.00  0.00    -0.403 A  
HETATM    7  C   UNL     1     -12.224  14.792  68.776  1.00  0.00    -0.135 A  
HETATM    8  C   UNL     1     -11.909  14.051  67.629  1.00  0.00    -0.430 A  
BRANCH   6   9
HETATM    9  C   UNL     1     -11.322  11.816  66.566  1.00  0.00    -0.305 C  
HETATM   10  O   UNL     1     -11.882  12.056  65.498  1.00  0.00    -0.386 OA 
BRANCH   9  11
HETATM   11  C   UNL     1     -10.393  10.661  66.698  1.00  0.00    -0.241 C  
HETATM   12  C   UNL     1      -9.080  10.720  67.002  1.00  0.00    -0.144 C  
HETATM   13  C   UNL     1      -8.172  11.854  67.317  1.00  0.00    -0.170 C  
HETATM   14  N   UNL     1      -8.574   9.436  66.970  1.00  0.00    -0.127 N  
HETATM   15  H   UNL     1      -7.607   9.180  67.171  1.00  0.00     0.000 HD 
HETATM   16  C   UNL     1      -9.587   8.543  66.621  1.00  0.00    -0.227 C  
HETATM   17  N   UNL     1     -10.721   9.342  66.459  1.00  0.00    -0.038 NA 
HETATM   18  O   UNL     1      -9.504   7.339  66.479  1.00  0.00    -0.175 OA 
ENDBRANCH   9  11
ENDBRANCH   6   9
ENDBRANCH   2   3
TORSDOF 3
ENDMDL
MODEL      126
REMARK 921   NORMALIZED FREE ENERGY PREDICTED BY IDOCK:   -4.14 KCAL/MOL
REMARK 922        TOTAL FREE ENERGY PREDICTED BY IDOCK:   -5.25 KCAL/MOL
REMARK 923 INTER-LIGAND FREE ENERGY PREDICTED BY IDOCK:   -4.87 KCAL/MOL
REMARK 924 INTRA-LIGAND FREE ENERGY PREDICTED BY IDOCK:   -0.39 KCAL/MOL
REMARK 927      BINDING AFFINITY PREDICTED BY RF-SCORE:    0.00 PKD
ROOT
HETATM    1  C   UNL     1     -10.785  10.978  64.823  1.00  0.00    -0.234 C  
HETATM    2  S   UNL     1     -11.876  12.425  64.757  1.00  0.00    -0.378 SA 
ENDROOT
BRANCH   2   3
HETATM    3  C   UNL     1     -10.820  13.625  65.545  1.00  0.00    -0.294 A  
HETATM    4  C   UNL     1     -10.921  14.983  65.240  1.00  0.00    -0.391 A  
HETATM    5  C   UNL     1     -10.084  15.908  65.870  1.00  0.00    -0.376 A  
HETATM    6  C   UNL     1      -9.137  15.490  66.817  1.00  0.00    -0.282 A  
HETATM    7  C   UNL     1      -9.902  13.208  66.515  1.00  0.00    -0.265 A  
HETATM    8  C   UNL     1      -9.069  14.134  67.157  1.00  0.00    -0.240 A  
BRANCH   6   9
HETATM    9  C   UNL     1      -8.312  16.543  67.467  1.00  0.00    -0.164 C  
HETATM   10  O   UNL     1      -7.550  16.207  68.371  1.00  0.00    -0.147 OA 
BRANCH   9  11
HETATM   11  C   UNL     1      -8.441  17.971  67.068  1.00  0.00    -0.237 C  
HETATM   12  C   UNL     1      -7.642  18.638  66.208  1.00  0.00    -0.263 C  
HETATM   13  C   UNL     1      -6.470  18.218  65.396  1.00  0.00    -0.205 C  
HETATM   14  N   UNL     1      -8.067  19.950  66.157  1.00  0.00    -0.394 N  
HETATM   15  H   UNL     1      -7.652  20.680  65.579  1.00  0.00     0.000 HD 
HETATM   16  C   UNL     1      -9.150  20.124  67.019  1.00  0.00    -0.367 C  
HETATM   17  N   UNL     1      -9.364  18.861  67.575  1.00  0.00    -0.292 NA 
HETATM   18  O   UNL     1      -9.767  21.146  67.245  1.00  0.00    -0.336 OA 
ENDBRANCH   9  11
ENDBRANCH   6   9
ENDBRANCH   2   3
TORSDOF 3
ENDMDL
MODEL      127
REMARK 921   NORMALIZED FREE ENERGY PREDICTED BY IDOCK:   -4.12 KCAL/MOL
REMARK 922        TOTAL FREE ENERGY PREDICTED BY IDOCK:   -5.24 KCAL/MOL
REMARK 923 INTER-LIGAND FREE ENERGY PREDICTED BY IDOCK:   -4.80 KCAL/MOL
REMARK 924 INTRA-LIGAND FREE ENERGY PREDICTED BY IDOCK:   -0.44 KCAL/MOL
REMARK 927      BINDING AFFINITY PREDICTED BY RF-SCORE:    0.00 PKD
ROOT
HETATM    1  C   UNL     1     -10.260   6.872  72.020  1.00  0.00    -0.187 C  
HETATM    2  S   UNL     1     -11.546   8.024  72.573  1.00  0.00    -0.380 SA 
ENDROOT
BRANCH   2   3
HETATM    3  C   UNL     1     -11.418   9.248  71.284  1.00  0.00    -0.347 A  
HETATM    4  C   UNL     1     -10.421   9.168  70.312  1.00  0.00    -0.257 A  
HETATM    5  C   UNL     1     -10.338  10.137  69.308  1.00  0.00    -0.242 A  
HETATM    6  C   UNL     1     -11.253  11.199  69.260  1.00  0.00    -0.331 A  
HETATM    7  C   UNL     1     -12.355  10.285  71.220  1.00  0.00    -0.506 A  
HETATM    8  C   UNL     1     -12.282  11.253  70.208  1.00  0.00    -0.428 A  
BRANCH   6   9
HETATM    9  C   UNL     1     -11.117  12.166  68.139  1.00  0.00    -0.248 C  
HETATM   10  O   UNL     1     -12.125  12.455  67.496  1.00  0.00    -0.491 OA 
BRANCH   9  11
HETATM   11  C   UNL     1      -9.791  12.732  67.773  1.00  0.00    -0.220 C  
HETATM   12  C   UNL     1      -9.048  12.400  66.696  1.00  0.00    -0.204 C  
HETATM   13  C   UNL     1      -9.278  11.457  65.569  1.00  0.00    -0.193 C  
HETATM   14  N   UNL     1      -7.865  13.110  66.755  1.00  0.00    -0.349 N  
HETATM   15  H   UNL     1      -7.118  13.064  66.063  1.00  0.00     0.000 HD 
HETATM   16  C   UNL     1      -7.850  13.897  67.906  1.00  0.00    -0.161 C  
HETATM   17  N   UNL     1      -9.076  13.641  68.524  1.00  0.00    -0.157 NA 
HETATM   18  O   UNL     1      -6.967  14.638  68.292  1.00  0.00    -0.096 OA 
ENDBRANCH   9  11
ENDBRANCH   6   9
ENDBRANCH   2   3
TORSDOF 3
ENDMDL
MODEL      128
REMARK 921   NORMALIZED FREE ENERGY PREDICTED BY IDOCK:   -4.11 KCAL/MOL
REMARK 922        TOTAL FREE ENERGY PREDICTED BY IDOCK:   -5.23 KCAL/MOL
REMARK 923 INTER-LIGAND FREE ENERGY PREDICTED BY IDOCK:   -4.79 KCAL/MOL
REMARK 924 INTRA-LIGAND FREE ENERGY PREDICTED BY IDOCK:   -0.43 KCAL/MOL
REMARK 927      BINDING AFFINITY PREDICTED BY RF-SCORE:    0.00 PKD
ROOT
HETATM    1  C   UNL     1      -9.617   4.943  66.006  1.00  0.00    -0.176 C  
HETATM    2  S   UNL     1      -8.294   6.132  65.654  1.00  0.00    -0.148 SA 
ENDROOT
BRANCH   2   3
HETATM    3  C   UNL     1      -9.118   7.638  66.130  1.00  0.00    -0.144 A  
HETATM    4  C   UNL     1     -10.080   7.643  67.141  1.00  0.00    -0.323 A  
HETATM    5  C   UNL     1     -10.714   8.835  67.501  1.00  0.00    -0.213 A  
HETATM    6  C   UNL     1     -10.393  10.040  66.859  1.00  0.00    -0.297 A  
HETATM    7  C   UNL     1      -8.769   8.844  65.511  1.00  0.00    -0.215 A  
HETATM    8  C   UNL     1      -9.395  10.043  65.877  1.00  0.00    -0.236 A  
BRANCH   6   9
HETATM    9  C   UNL     1     -11.088  11.269  67.327  1.00  0.00    -0.305 C  
HETATM   10  O   UNL     1     -11.993  11.145  68.150  1.00  0.00    -0.615 OA 
BRANCH   9  11
HETATM   11  C   UNL     1     -10.732  12.606  66.780  1.00  0.00    -0.239 C  
HETATM   12  C   UNL     1     -11.225  13.169  65.657  1.00  0.00    -0.283 C  
HETATM   13  C   UNL     1     -12.235  12.713  64.665  1.00  0.00    -0.519 C  
HETATM   14  N   UNL     1     -10.596  14.384  65.474  1.00  0.00    -0.326 N  
HETATM   15  H   UNL     1     -10.781  15.032  64.708  1.00  0.00     0.000 HD 
HETATM   16  C   UNL     1      -9.670  14.589  66.496  1.00  0.00    -0.285 C  
HETATM   17  N   UNL     1      -9.780  13.455  67.304  1.00  0.00    -0.226 NA 
HETATM   18  O   UNL     1      -8.925  15.537  66.649  1.00  0.00    -0.239 OA 
ENDBRANCH   9  11
ENDBRANCH   6   9
ENDBRANCH   2   3
TORSDOF 3
ENDMDL
MODEL      129
REMARK 921   NORMALIZED FREE ENERGY PREDICTED BY IDOCK:   -4.11 KCAL/MOL
REMARK 922        TOTAL FREE ENERGY PREDICTED BY IDOCK:   -5.22 KCAL/MOL
REMARK 923 INTER-LIGAND FREE ENERGY PREDICTED BY IDOCK:   -4.79 KCAL/MOL
REMARK 924 INTRA-LIGAND FREE ENERGY PREDICTED BY IDOCK:   -0.44 KCAL/MOL
REMARK 927      BINDING AFFINITY PREDICTED BY RF-SCORE:    0.00 PKD
ROOT
HETATM    1  C   UNL     1      -6.569  16.313  69.463  1.00  0.00    -0.202 C  
HETATM    2  S   UNL     1      -7.261  17.040  67.953  1.00  0.00    -0.157 SA 
ENDROOT
BRANCH   2   3
HETATM    3  C   UNL     1      -8.320  15.701  67.442  1.00  0.00    -0.177 A  
HETATM    4  C   UNL     1      -8.497  14.576  68.247  1.00  0.00    -0.161 A  
HETATM    5  C   UNL     1      -9.333  13.537  67.829  1.00  0.00    -0.213 A  
HETATM    6  C   UNL     1     -10.006  13.609  66.600  1.00  0.00    -0.283 A  
HETATM    7  C   UNL     1      -9.017  15.794  66.232  1.00  0.00    -0.381 A  
HETATM    8  C   UNL     1      -9.864  14.758  65.813  1.00  0.00    -0.373 A  
BRANCH   6   9
HETATM    9  C   UNL     1     -10.904  12.477  66.246  1.00  0.00    -0.268 C  
HETATM   10  O   UNL     1     -12.079  12.538  66.600  1.00  0.00    -0.562 OA 
BRANCH   9  11
HETATM   11  C   UNL     1     -10.383  11.283  65.529  1.00  0.00    -0.266 C  
HETATM   12  C   UNL     1     -10.103  10.079  66.073  1.00  0.00    -0.248 C  
HETATM   13  C   UNL     1     -10.232   9.549  67.456  1.00  0.00    -0.283 C  
HETATM   14  N   UNL     1      -9.591   9.268  65.081  1.00  0.00    -0.458 N  
HETATM   15  H   UNL     1      -9.303   8.298  65.206  1.00  0.00     0.000 HD 
HETATM   16  C   UNL     1      -9.527   9.979  63.883  1.00  0.00    -0.220 C  
HETATM   17  N   UNL     1     -10.036  11.242  64.195  1.00  0.00    -0.274 NA 
HETATM   18  O   UNL     1      -9.115   9.592  62.806  1.00  0.00    -0.262 OA 
ENDBRANCH   9  11
ENDBRANCH   6   9
ENDBRANCH   2   3
TORSDOF 3
ENDMDL
MODEL      130
REMARK 921   NORMALIZED FREE ENERGY PREDICTED BY IDOCK:   -4.10 KCAL/MOL
REMARK 922        TOTAL FREE ENERGY PREDICTED BY IDOCK:   -5.21 KCAL/MOL
REMARK 923 INTER-LIGAND FREE ENERGY PREDICTED BY IDOCK:   -4.97 KCAL/MOL
REMARK 924 INTRA-LIGAND FREE ENERGY PREDICTED BY IDOCK:   -0.24 KCAL/MOL
REMARK 927      BINDING AFFINITY PREDICTED BY RF-SCORE:    0.00 PKD
ROOT
HETATM    1  C   UNL     1      -8.904  18.832  67.481  1.00  0.00    -0.274 C  
HETATM    2  S   UNL     1      -8.236  17.903  66.075  1.00  0.00     0.025 SA 
ENDROOT
BRANCH   2   3
HETATM    3  C   UNL     1      -9.047  16.339  66.345  1.00  0.00    -0.301 A  
HETATM    4  C   UNL     1     -10.372  16.139  65.959  1.00  0.00    -0.372 A  
HETATM    5  C   UNL     1     -10.990  14.904  66.179  1.00  0.00    -0.334 A  
HETATM    6  C   UNL     1     -10.289  13.851  66.785  1.00  0.00    -0.272 A  
HETATM    7  C   UNL     1      -8.333  15.280  66.917  1.00  0.00    -0.278 A  
HETATM    8  C   UNL     1      -8.946  14.037  67.129  1.00  0.00    -0.241 A  
BRANCH   6   9
HETATM    9  C   UNL     1     -11.009  12.559  66.949  1.00  0.00    -0.257 C  
HETATM   10  O   UNL     1     -11.372  11.965  65.935  1.00  0.00    -0.334 OA 
BRANCH   9  11
HETATM   11  C   UNL     1     -11.323  12.025  68.301  1.00  0.00    -0.286 C  
HETATM   12  C   UNL     1     -11.675  12.746  69.386  1.00  0.00    -0.319 C  
HETATM   13  C   UNL     1     -11.888  14.203  69.597  1.00  0.00    -0.379 C  
HETATM   14  N   UNL     1     -11.824  11.879  70.449  1.00  0.00    -0.509 N  
HETATM   15  H   UNL     1     -12.097  12.148  71.394  1.00  0.00     0.000 HD 
HETATM   16  C   UNL     1     -11.542  10.578  70.033  1.00  0.00    -0.313 C  
HETATM   17  N   UNL     1     -11.234  10.700  68.676  1.00  0.00    -0.262 NA 
HETATM   18  O   UNL     1     -11.554   9.562  70.699  1.00  0.00    -0.267 OA 
ENDBRANCH   9  11
ENDBRANCH   6   9
ENDBRANCH   2   3
TORSDOF 3
ENDMDL
MODEL      131
REMARK 921   NORMALIZED FREE ENERGY PREDICTED BY IDOCK:   -4.10 KCAL/MOL
REMARK 922        TOTAL FREE ENERGY PREDICTED BY IDOCK:   -5.21 KCAL/MOL
REMARK 923 INTER-LIGAND FREE ENERGY PREDICTED BY IDOCK:   -4.72 KCAL/MOL
REMARK 924 INTRA-LIGAND FREE ENERGY PREDICTED BY IDOCK:   -0.49 KCAL/MOL
REMARK 927      BINDING AFFINITY PREDICTED BY RF-SCORE:    0.00 PKD
ROOT
HETATM    1  C   UNL     1      -9.823  18.728  68.683  1.00  0.00    -0.392 C  
HETATM    2  S   UNL     1      -8.524  17.479  68.887  1.00  0.00    -0.062 SA 
ENDROOT
BRANCH   2   3
HETATM    3  C   UNL     1      -9.387  16.053  68.259  1.00  0.00    -0.199 A  
HETATM    4  C   UNL     1      -8.710  15.050  67.563  1.00  0.00    -0.194 A  
HETATM    5  C   UNL     1      -9.405  13.938  67.080  1.00  0.00    -0.255 A  
HETATM    6  C   UNL     1     -10.787  13.810  67.287  1.00  0.00    -0.292 A  
HETATM    7  C   UNL     1     -10.759  15.912  68.500  1.00  0.00    -0.274 A  
HETATM    8  C   UNL     1     -11.457  14.793  68.025  1.00  0.00    -0.351 A  
BRANCH   6   9
HETATM    9  C   UNL     1     -11.443  12.579  66.772  1.00  0.00    -0.362 C  
HETATM   10  O   UNL     1     -12.415  12.707  66.031  1.00  0.00    -0.555 OA 
BRANCH   9  11
HETATM   11  C   UNL     1     -10.966  11.230  67.180  1.00  0.00    -0.291 C  
HETATM   12  C   UNL     1     -11.094  10.671  68.402  1.00  0.00    -0.272 C  
HETATM   13  C   UNL     1     -11.728  11.144  69.661  1.00  0.00    -0.410 C  
HETATM   14  N   UNL     1     -10.471   9.440  68.378  1.00  0.00    -0.215 N  
HETATM   15  H   UNL     1     -10.422   8.791  69.163  1.00  0.00     0.000 HD 
HETATM   16  C   UNL     1      -9.920   9.220  67.116  1.00  0.00    -0.216 C  
HETATM   17  N   UNL     1     -10.250  10.362  66.383  1.00  0.00    -0.232 NA 
HETATM   18  O   UNL     1      -9.286   8.255  66.736  1.00  0.00    -0.150 OA 
ENDBRANCH   9  11
ENDBRANCH   6   9
ENDBRANCH   2   3
TORSDOF 3
ENDMDL
MODEL      132
REMARK 921   NORMALIZED FREE ENERGY PREDICTED BY IDOCK:   -4.09 KCAL/MOL
REMARK 922        TOTAL FREE ENERGY PREDICTED BY IDOCK:   -5.20 KCAL/MOL
REMARK 923 INTER-LIGAND FREE ENERGY PREDICTED BY IDOCK:   -4.76 KCAL/MOL
REMARK 924 INTRA-LIGAND FREE ENERGY PREDICTED BY IDOCK:   -0.44 KCAL/MOL
REMARK 927      BINDING AFFINITY PREDICTED BY RF-SCORE:    0.00 PKD
ROOT
HETATM    1  C   UNL     1      -5.238  15.551  70.616  1.00  0.00    -0.148 C  
HETATM    2  S   UNL     1      -5.635  16.023  68.911  1.00  0.00    -0.109 SA 
ENDROOT
BRANCH   2   3
HETATM    3  C   UNL     1      -7.309  15.418  68.821  1.00  0.00    -0.135 A  
HETATM    4  C   UNL     1      -7.575  14.056  68.673  1.00  0.00    -0.130 A  
HETATM    5  C   UNL     1      -8.895  13.601  68.606  1.00  0.00    -0.023 A  
HETATM    6  C   UNL     1      -9.968  14.501  68.689  1.00  0.00    -0.237 A  
HETATM    7  C   UNL     1      -8.376  16.315  68.941  1.00  0.00    -0.231 A  
HETATM    8  C   UNL     1      -9.701  15.861  68.884  1.00  0.00    -0.230 A  
BRANCH   6   9
HETATM    9  C   UNL     1     -11.341  13.931  68.646  1.00  0.00    -0.278 C  
HETATM   10  O   UNL     1     -11.936  13.933  67.570  1.00  0.00    -0.377 OA 
BRANCH   9  11
HETATM   11  C   UNL     1     -11.995  13.418  69.880  1.00  0.00    -0.338 C  
HETATM   12  C   UNL     1     -12.074  12.127  70.268  1.00  0.00    -0.302 C  
HETATM   13  C   UNL     1     -11.555  10.867  69.673  1.00  0.00    -0.394 C  
HETATM   14  N   UNL     1     -12.808  12.073  71.435  1.00  0.00    -0.350 N  
HETATM   15  H   UNL     1     -13.017  11.224  71.959  1.00  0.00     0.000 HD 
HETATM   16  C   UNL     1     -13.220  13.359  71.787  1.00  0.00    -0.407 C  
HETATM   17  N   UNL     1     -12.691  14.183  70.792  1.00  0.00    -0.343 NA 
HETATM   18  O   UNL     1     -13.896  13.691  72.741  1.00  0.00    -0.727 OA 
ENDBRANCH   9  11
ENDBRANCH   6   9
ENDBRANCH   2   3
TORSDOF 3
ENDMDL
MODEL      133
REMARK 921   NORMALIZED FREE ENERGY PREDICTED BY IDOCK:   -4.09 KCAL/MOL
REMARK 922        TOTAL FREE ENERGY PREDICTED BY IDOCK:   -5.20 KCAL/MOL
REMARK 923 INTER-LIGAND FREE ENERGY PREDICTED BY IDOCK:   -4.90 KCAL/MOL
REMARK 924 INTRA-LIGAND FREE ENERGY PREDICTED BY IDOCK:   -0.30 KCAL/MOL
REMARK 927      BINDING AFFINITY PREDICTED BY RF-SCORE:    0.00 PKD
ROOT
HETATM    1  C   UNL     1     -10.607   4.371  73.864  1.00  0.00    -0.260 C  
HETATM    2  S   UNL     1     -10.285   6.015  74.557  1.00  0.00    -0.241 SA 
ENDROOT
BRANCH   2   3
HETATM    3  C   UNL     1     -10.446   6.994  73.078  1.00  0.00    -0.277 A  
HETATM    4  C   UNL     1      -9.553   8.030  72.799  1.00  0.00    -0.345 A  
HETATM    5  C   UNL     1      -9.695   8.786  71.632  1.00  0.00    -0.366 A  
HETATM    6  C   UNL     1     -10.731   8.515  70.725  1.00  0.00    -0.254 A  
HETATM    7  C   UNL     1     -11.458   6.698  72.158  1.00  0.00    -0.323 A  
HETATM    8  C   UNL     1     -11.598   7.447  70.982  1.00  0.00    -0.315 A  
BRANCH   6   9
HETATM    9  C   UNL     1     -10.789   9.343  69.491  1.00  0.00    -0.213 C  
HETATM   10  O   UNL     1     -10.505   8.809  68.420  1.00  0.00    -0.207 OA 
BRANCH   9  11
HETATM   11  C   UNL     1     -11.133  10.789  69.555  1.00  0.00    -0.278 C  
HETATM   12  C   UNL     1     -12.105  11.349  70.306  1.00  0.00    -0.374 C  
HETATM   13  C   UNL     1     -13.076  10.780  71.277  1.00  0.00    -0.427 C  
HETATM   14  N   UNL     1     -12.132  12.702  70.034  1.00  0.00    -0.304 N  
HETATM   15  H   UNL     1     -12.762  13.376  70.467  1.00  0.00     0.000 HD 
HETATM   16  C   UNL     1     -11.166  13.005  69.074  1.00  0.00    -0.264 C  
HETATM   17  N   UNL     1     -10.551  11.782  68.795  1.00  0.00    -0.212 NA 
HETATM   18  O   UNL     1     -10.916  14.088  68.583  1.00  0.00    -0.245 OA 
ENDBRANCH   9  11
ENDBRANCH   6   9
ENDBRANCH   2   3
TORSDOF 3
ENDMDL
MODEL      134
REMARK 921   NORMALIZED FREE ENERGY PREDICTED BY IDOCK:   -4.07 KCAL/MOL
REMARK 922        TOTAL FREE ENERGY PREDICTED BY IDOCK:   -5.17 KCAL/MOL
REMARK 923 INTER-LIGAND FREE ENERGY PREDICTED BY IDOCK:   -4.77 KCAL/MOL
REMARK 924 INTRA-LIGAND FREE ENERGY PREDICTED BY IDOCK:   -0.40 KCAL/MOL
REMARK 927      BINDING AFFINITY PREDICTED BY RF-SCORE:    0.00 PKD
ROOT
HETATM    1  C   UNL     1     -10.396   4.025  64.825  1.00  0.00    -0.197 C  
HETATM    2  S   UNL     1      -9.037   3.813  66.006  1.00  0.00    -0.160 SA 
ENDROOT
BRANCH   2   3
HETATM    3  C   UNL     1      -9.745   4.634  67.420  1.00  0.00    -0.178 A  
HETATM    4  C   UNL     1      -9.437   4.225  68.718  1.00  0.00    -0.230 A  
HETATM    5  C   UNL     1     -10.002   4.884  69.814  1.00  0.00    -0.314 A  
HETATM    6  C   UNL     1     -10.880   5.962  69.628  1.00  0.00    -0.444 A  
HETATM    7  C   UNL     1     -10.591   5.732  67.230  1.00  0.00    -0.353 A  
HETATM    8  C   UNL     1     -11.152   6.401  68.327  1.00  0.00    -0.359 A  
BRANCH   6   9
HETATM    9  C   UNL     1     -11.408   6.630  70.847  1.00  0.00    -0.325 C  
HETATM   10  O   UNL     1     -12.572   7.025  70.834  1.00  0.00    -0.353 OA 
BRANCH   9  11
HETATM   11  C   UNL     1     -10.538   6.857  72.033  1.00  0.00    -0.212 C  
HETATM   12  C   UNL     1     -10.453   6.071  73.127  1.00  0.00    -0.230 C  
HETATM   13  C   UNL     1     -11.114   4.792  73.498  1.00  0.00    -0.412 C  
HETATM   14  N   UNL     1      -9.577   6.663  74.013  1.00  0.00    -0.207 N  
HETATM   15  H   UNL     1      -9.313   6.282  74.922  1.00  0.00     0.000 HD 
HETATM   16  C   UNL     1      -9.108   7.862  73.476  1.00  0.00    -0.282 C  
HETATM   17  N   UNL     1      -9.727   7.955  72.228  1.00  0.00    -0.190 NA 
HETATM   18  O   UNL     1      -8.338   8.656  73.981  1.00  0.00    -0.325 OA 
ENDBRANCH   9  11
ENDBRANCH   6   9
ENDBRANCH   2   3
TORSDOF 3
ENDMDL
MODEL      135
REMARK 921   NORMALIZED FREE ENERGY PREDICTED BY IDOCK:   -4.04 KCAL/MOL
REMARK 922        TOTAL FREE ENERGY PREDICTED BY IDOCK:   -5.14 KCAL/MOL
REMARK 923 INTER-LIGAND FREE ENERGY PREDICTED BY IDOCK:   -4.66 KCAL/MOL
REMARK 924 INTRA-LIGAND FREE ENERGY PREDICTED BY IDOCK:   -0.48 KCAL/MOL
REMARK 927      BINDING AFFINITY PREDICTED BY RF-SCORE:    0.00 PKD
ROOT
HETATM    1  C   UNL     1      -5.352  15.616  70.493  1.00  0.00    -0.157 C  
HETATM    2  S   UNL     1      -5.724  16.015  68.764  1.00  0.00    -0.110 SA 
ENDROOT
BRANCH   2   3
HETATM    3  C   UNL     1      -7.399  15.412  68.677  1.00  0.00    -0.127 A  
HETATM    4  C   UNL     1      -7.667  14.050  68.535  1.00  0.00    -0.139 A  
HETATM    5  C   UNL     1      -8.987  13.597  68.470  1.00  0.00    -0.102 A  
HETATM    6  C   UNL     1     -10.059  14.499  68.549  1.00  0.00    -0.242 A  
HETATM    7  C   UNL     1      -8.465  16.312  68.792  1.00  0.00    -0.240 A  
HETATM    8  C   UNL     1      -9.791  15.859  68.737  1.00  0.00    -0.216 A  
BRANCH   6   9
HETATM    9  C   UNL     1     -11.433  13.930  68.508  1.00  0.00    -0.311 C  
HETATM   10  O   UNL     1     -12.057  13.997  67.451  1.00  0.00    -0.402 OA 
BRANCH   9  11
HETATM   11  C   UNL     1     -12.053  13.341  69.725  1.00  0.00    -0.290 C  
HETATM   12  C   UNL     1     -12.580  14.020  70.765  1.00  0.00    -0.360 C  
HETATM   13  C   UNL     1     -12.745  15.473  71.035  1.00  0.00    -0.526 C  
HETATM   14  N   UNL     1     -12.998  13.104  71.709  1.00  0.00    -0.360 N  
HETATM   15  H   UNL     1     -13.446  13.336  72.596  1.00  0.00     0.000 HD 
HETATM   16  C   UNL     1     -12.714  11.813  71.265  1.00  0.00    -0.316 C  
HETATM   17  N   UNL     1     -12.124  11.993  70.012  1.00  0.00    -0.303 NA 
HETATM   18  O   UNL     1     -12.925  10.763  71.839  1.00  0.00    -0.462 OA 
ENDBRANCH   9  11
ENDBRANCH   6   9
ENDBRANCH   2   3
TORSDOF 3
ENDMDL
MODEL      136
REMARK 921   NORMALIZED FREE ENERGY PREDICTED BY IDOCK:   -4.03 KCAL/MOL
REMARK 922        TOTAL FREE ENERGY PREDICTED BY IDOCK:   -5.13 KCAL/MOL
REMARK 923 INTER-LIGAND FREE ENERGY PREDICTED BY IDOCK:   -4.77 KCAL/MOL
REMARK 924 INTRA-LIGAND FREE ENERGY PREDICTED BY IDOCK:   -0.35 KCAL/MOL
REMARK 927      BINDING AFFINITY PREDICTED BY RF-SCORE:    0.00 PKD
ROOT
HETATM    1  C   UNL     1      -5.762  20.552  70.212  1.00  0.00    -0.301 C  
HETATM    2  S   UNL     1      -6.257  20.597  68.468  1.00  0.00    -0.291 SA 
ENDROOT
BRANCH   2   3
HETATM    3  C   UNL     1      -7.062  19.012  68.350  1.00  0.00    -0.273 A  
HETATM    4  C   UNL     1      -6.325  17.843  68.155  1.00  0.00    -0.184 A  
HETATM    5  C   UNL     1      -6.975  16.609  68.066  1.00  0.00    -0.156 A  
HETATM    6  C   UNL     1      -8.371  16.525  68.174  1.00  0.00    -0.186 A  
HETATM    7  C   UNL     1      -8.451  18.929  68.494  1.00  0.00    -0.384 A  
HETATM    8  C   UNL     1      -9.106  17.692  68.416  1.00  0.00    -0.277 A  
BRANCH   6   9
HETATM    9  C   UNL     1      -8.980  15.170  68.105  1.00  0.00    -0.174 C  
HETATM   10  O   UNL     1      -8.349  14.279  67.541  1.00  0.00    -0.162 OA 
BRANCH   9  11
HETATM   11  C   UNL     1     -10.337  14.912  68.659  1.00  0.00    -0.237 C  
HETATM   12  C   UNL     1     -11.449  14.619  67.952  1.00  0.00    -0.329 C  
HETATM   13  C   UNL     1     -11.693  14.435  66.497  1.00  0.00    -0.404 C  
HETATM   14  N   UNL     1     -12.503  14.509  68.836  1.00  0.00    -0.569 N  
HETATM   15  H   UNL     1     -13.463  14.283  68.580  1.00  0.00     0.000 HD 
HETATM   16  C   UNL     1     -12.052  14.754  70.133  1.00  0.00    -0.327 C  
HETATM   17  N   UNL     1     -10.685  15.001  69.990  1.00  0.00    -0.226 NA 
HETATM   18  O   UNL     1     -12.702  14.760  71.160  1.00  0.00    -0.294 OA 
ENDBRANCH   9  11
ENDBRANCH   6   9
ENDBRANCH   2   3
TORSDOF 3
ENDMDL
MODEL      137
REMARK 921   NORMALIZED FREE ENERGY PREDICTED BY IDOCK:   -4.02 KCAL/MOL
REMARK 922        TOTAL FREE ENERGY PREDICTED BY IDOCK:   -5.11 KCAL/MOL
REMARK 923 INTER-LIGAND FREE ENERGY PREDICTED BY IDOCK:   -4.67 KCAL/MOL
REMARK 924 INTRA-LIGAND FREE ENERGY PREDICTED BY IDOCK:   -0.44 KCAL/MOL
REMARK 927      BINDING AFFINITY PREDICTED BY RF-SCORE:    0.00 PKD
ROOT
HETATM    1  C   UNL     1     -10.257  11.170  63.541  1.00  0.00    -0.390 C  
HETATM    2  S   UNL     1     -11.875  11.757  64.112  1.00  0.00    -0.199 SA 
ENDROOT
BRANCH   2   3
HETATM    3  C   UNL     1     -11.354  13.164  65.073  1.00  0.00    -0.299 A  
HETATM    4  C   UNL     1     -10.197  13.872  64.744  1.00  0.00    -0.353 A  
HETATM    5  C   UNL     1      -9.806  14.974  65.510  1.00  0.00    -0.352 A  
HETATM    6  C   UNL     1     -10.568  15.387  66.614  1.00  0.00    -0.306 A  
HETATM    7  C   UNL     1     -12.136  13.594  66.152  1.00  0.00    -0.477 A  
HETATM    8  C   UNL     1     -11.752  14.705  66.915  1.00  0.00    -0.366 A  
BRANCH   6   9
HETATM    9  C   UNL     1     -10.101  16.590  67.352  1.00  0.00    -0.279 C  
HETATM   10  O   UNL     1     -10.934  17.248  67.973  1.00  0.00    -0.350 OA 
BRANCH   9  11
HETATM   11  C   UNL     1      -8.676  17.014  67.302  1.00  0.00    -0.199 C  
HETATM   12  C   UNL     1      -7.657  16.485  68.012  1.00  0.00    -0.161 C  
HETATM   13  C   UNL     1      -7.589  15.367  68.989  1.00  0.00    -0.177 C  
HETATM   14  N   UNL     1      -6.512  17.197  67.716  1.00  0.00    -0.141 N  
HETATM   15  H   UNL     1      -5.587  17.009  68.101  1.00  0.00     0.000 HD 
HETATM   16  C   UNL     1      -6.816  18.214  66.811  1.00  0.00    -0.194 C  
HETATM   17  N   UNL     1      -8.184  18.071  66.566  1.00  0.00    -0.264 NA 
HETATM   18  O   UNL     1      -6.063  19.046  66.343  1.00  0.00    -0.164 OA 
ENDBRANCH   9  11
ENDBRANCH   6   9
ENDBRANCH   2   3
TORSDOF 3
ENDMDL
MODEL      138
REMARK 921   NORMALIZED FREE ENERGY PREDICTED BY IDOCK:   -4.01 KCAL/MOL
REMARK 922        TOTAL FREE ENERGY PREDICTED BY IDOCK:   -5.11 KCAL/MOL
REMARK 923 INTER-LIGAND FREE ENERGY PREDICTED BY IDOCK:   -4.94 KCAL/MOL
REMARK 924 INTRA-LIGAND FREE ENERGY PREDICTED BY IDOCK:   -0.17 KCAL/MOL
REMARK 927      BINDING AFFINITY PREDICTED BY RF-SCORE:    0.00 PKD
ROOT
HETATM    1  C   UNL     1     -10.212   2.767  72.693  1.00  0.00    -0.160 C  
HETATM    2  S   UNL     1      -9.591   3.949  73.919  1.00  0.00    -0.103 SA 
ENDROOT
BRANCH   2   3
HETATM    3  C   UNL     1     -10.465   5.409  73.389  1.00  0.00    -0.235 A  
HETATM    4  C   UNL     1     -11.734   5.320  72.816  1.00  0.00    -0.214 A  
HETATM    5  C   UNL     1     -12.403   6.477  72.407  1.00  0.00    -0.040 A  
HETATM    6  C   UNL     1     -11.815   7.740  72.568  1.00  0.00    -0.354 A  
HETATM    7  C   UNL     1      -9.889   6.669  73.584  1.00  0.00    -0.248 A  
HETATM    8  C   UNL     1     -10.561   7.832  73.184  1.00  0.00    -0.415 A  
BRANCH   6   9
HETATM    9  C   UNL     1     -12.609   8.922  72.140  1.00  0.00    -0.399 C  
HETATM   10  O   UNL     1     -13.744   9.053  72.595  1.00  0.00    -0.470 OA 
BRANCH   9  11
HETATM   11  C   UNL     1     -12.066   9.892  71.151  1.00  0.00    -0.374 C  
HETATM   12  C   UNL     1     -12.345  11.211  71.086  1.00  0.00    -0.346 C  
HETATM   13  C   UNL     1     -13.194  12.099  71.922  1.00  0.00    -0.474 C  
HETATM   14  N   UNL     1     -11.684  11.736  69.995  1.00  0.00    -0.443 N  
HETATM   15  H   UNL     1     -11.705  12.715  69.710  1.00  0.00     0.000 HD 
HETATM   16  C   UNL     1     -10.982  10.723  69.341  1.00  0.00    -0.254 C  
HETATM   17  N   UNL     1     -11.239   9.575  70.094  1.00  0.00    -0.244 NA 
HETATM   18  O   UNL     1     -10.304  10.813  68.337  1.00  0.00    -0.166 OA 
ENDBRANCH   9  11
ENDBRANCH   6   9
ENDBRANCH   2   3
TORSDOF 3
ENDMDL
MODEL      139
REMARK 921   NORMALIZED FREE ENERGY PREDICTED BY IDOCK:   -4.00 KCAL/MOL
REMARK 922        TOTAL FREE ENERGY PREDICTED BY IDOCK:   -5.10 KCAL/MOL
REMARK 923 INTER-LIGAND FREE ENERGY PREDICTED BY IDOCK:   -4.70 KCAL/MOL
REMARK 924 INTRA-LIGAND FREE ENERGY PREDICTED BY IDOCK:   -0.40 KCAL/MOL
REMARK 927      BINDING AFFINITY PREDICTED BY RF-SCORE:    0.00 PKD
ROOT
HETATM    1  C   UNL     1      -8.289  17.734  68.343  1.00  0.00    -0.295 C  
HETATM    2  S   UNL     1     -10.087  17.777  68.573  1.00  0.00    -0.388 SA 
ENDROOT
BRANCH   2   3
HETATM    3  C   UNL     1     -10.445  16.038  68.415  1.00  0.00    -0.263 A  
HETATM    4  C   UNL     1     -10.527  15.215  69.539  1.00  0.00    -0.268 A  
HETATM    5  C   UNL     1     -10.810  13.855  69.394  1.00  0.00    -0.109 A  
HETATM    6  C   UNL     1     -11.018  13.297  68.124  1.00  0.00    -0.278 A  
HETATM    7  C   UNL     1     -10.687  15.494  67.149  1.00  0.00    -0.315 A  
HETATM    8  C   UNL     1     -10.981  14.132  67.001  1.00  0.00    -0.303 A  
BRANCH   6   9
HETATM    9  C   UNL     1     -11.350  11.849  68.061  1.00  0.00    -0.288 C  
HETATM   10  O   UNL     1     -12.021  11.448  67.111  1.00  0.00    -0.532 OA 
BRANCH   9  11
HETATM   11  C   UNL     1     -10.924  10.918  69.141  1.00  0.00    -0.239 C  
HETATM   12  C   UNL     1     -11.696  10.447  70.143  1.00  0.00    -0.312 C  
HETATM   13  C   UNL     1     -13.130  10.644  70.482  1.00  0.00    -0.177 C  
HETATM   14  N   UNL     1     -10.907   9.661  70.959  1.00  0.00    -0.335 N  
HETATM   15  H   UNL     1     -11.231   9.167  71.790  1.00  0.00     0.000 HD 
HETATM   16  C   UNL     1      -9.600   9.648  70.473  1.00  0.00    -0.199 C  
HETATM   17  N   UNL     1      -9.642  10.444  69.326  1.00  0.00    -0.216 NA 
HETATM   18  O   UNL     1      -8.635   9.078  70.942  1.00  0.00    -0.183 OA 
ENDBRANCH   9  11
ENDBRANCH   6   9
ENDBRANCH   2   3
TORSDOF 3
ENDMDL
MODEL      140
REMARK 921   NORMALIZED FREE ENERGY PREDICTED BY IDOCK:   -3.99 KCAL/MOL
REMARK 922        TOTAL FREE ENERGY PREDICTED BY IDOCK:   -5.08 KCAL/MOL
REMARK 923 INTER-LIGAND FREE ENERGY PREDICTED BY IDOCK:   -4.64 KCAL/MOL
REMARK 924 INTRA-LIGAND FREE ENERGY PREDICTED BY IDOCK:   -0.45 KCAL/MOL
REMARK 927      BINDING AFFINITY PREDICTED BY RF-SCORE:    0.00 PKD
ROOT
HETATM    1  C   UNL     1      -9.969   6.685  73.117  1.00  0.00    -0.183 C  
HETATM    2  S   UNL     1      -9.139   8.296  73.098  1.00  0.00    -0.174 SA 
ENDROOT
BRANCH   2   3
HETATM    3  C   UNL     1      -9.558   8.823  71.448  1.00  0.00    -0.267 A  
HETATM    4  C   UNL     1      -8.611   8.798  70.422  1.00  0.00    -0.176 A  
HETATM    5  C   UNL     1      -8.960   9.214  69.134  1.00  0.00    -0.144 A  
HETATM    6  C   UNL     1     -10.261   9.658  68.852  1.00  0.00    -0.214 A  
HETATM    7  C   UNL     1     -10.866   9.230  71.162  1.00  0.00    -0.407 A  
HETATM    8  C   UNL     1     -11.221   9.638  69.869  1.00  0.00    -0.244 A  
BRANCH   6   9
HETATM    9  C   UNL     1     -10.558  10.048  67.448  1.00  0.00    -0.271 C  
HETATM   10  O   UNL     1     -10.625   9.159  66.601  1.00  0.00    -0.202 OA 
BRANCH   9  11
HETATM   11  C   UNL     1     -10.722  11.477  67.069  1.00  0.00    -0.259 C  
HETATM   12  C   UNL     1      -9.746  12.407  67.009  1.00  0.00    -0.211 C  
HETATM   13  C   UNL     1      -8.280  12.340  67.247  1.00  0.00    -0.182 C  
HETATM   14  N   UNL     1     -10.323  13.615  66.674  1.00  0.00    -0.271 N  
HETATM   15  H   UNL     1      -9.820  14.492  66.547  1.00  0.00     0.000 HD 
HETATM   16  C   UNL     1     -11.702  13.451  66.535  1.00  0.00    -0.373 C  
HETATM   17  N   UNL     1     -11.922  12.095  66.786  1.00  0.00    -0.615 NA 
HETATM   18  O   UNL     1     -12.531  14.297  66.264  1.00  0.00    -0.445 OA 
ENDBRANCH   9  11
ENDBRANCH   6   9
ENDBRANCH   2   3
TORSDOF 3
ENDMDL
MODEL      141
REMARK 921   NORMALIZED FREE ENERGY PREDICTED BY IDOCK:   -3.98 KCAL/MOL
REMARK 922        TOTAL FREE ENERGY PREDICTED BY IDOCK:   -5.07 KCAL/MOL
REMARK 923 INTER-LIGAND FREE ENERGY PREDICTED BY IDOCK:   -4.61 KCAL/MOL
REMARK 924 INTRA-LIGAND FREE ENERGY PREDICTED BY IDOCK:   -0.47 KCAL/MOL
REMARK 927      BINDING AFFINITY PREDICTED BY RF-SCORE:    0.00 PKD
ROOT
HETATM    1  C   UNL     1     -10.053  13.056  67.383  1.00  0.00    -0.231 C  
HETATM    2  S   UNL     1     -11.581  12.146  67.737  1.00  0.00    -0.330 SA 
ENDROOT
BRANCH   2   3
HETATM    3  C   UNL     1     -10.976  11.034  68.992  1.00  0.00    -0.233 A  
HETATM    4  C   UNL     1      -9.678  10.524  68.937  1.00  0.00    -0.206 A  
HETATM    5  C   UNL     1      -9.222   9.655  69.931  1.00  0.00    -0.255 A  
HETATM    6  C   UNL     1     -10.055   9.285  70.998  1.00  0.00    -0.373 A  
HETATM    7  C   UNL     1     -11.798  10.698  70.073  1.00  0.00    -0.403 A  
HETATM    8  C   UNL     1     -11.340   9.834  71.078  1.00  0.00    -0.460 A  
BRANCH   6   9
HETATM    9  C   UNL     1      -9.480   8.385  72.032  1.00  0.00    -0.268 C  
HETATM   10  O   UNL     1      -8.600   8.832  72.765  1.00  0.00    -0.412 OA 
BRANCH   9  11
HETATM   11  C   UNL     1      -9.922   6.969  72.146  1.00  0.00    -0.165 C  
HETATM   12  C   UNL     1      -9.644   5.971  71.280  1.00  0.00    -0.167 C  
HETATM   13  C   UNL     1      -8.844   5.923  70.028  1.00  0.00    -0.139 C  
HETATM   14  N   UNL     1     -10.286   4.831  71.719  1.00  0.00    -0.199 N  
HETATM   15  H   UNL     1     -10.243   3.920  71.263  1.00  0.00     0.000 HD 
HETATM   16  C   UNL     1     -11.001   5.116  72.882  1.00  0.00    -0.284 C  
HETATM   17  N   UNL     1     -10.750   6.468  73.128  1.00  0.00    -0.258 NA 
HETATM   18  O   UNL     1     -11.695   4.362  73.535  1.00  0.00    -0.225 OA 
ENDBRANCH   9  11
ENDBRANCH   6   9
ENDBRANCH   2   3
TORSDOF 3
ENDMDL
MODEL      142
REMARK 921   NORMALIZED FREE ENERGY PREDICTED BY IDOCK:   -3.98 KCAL/MOL
REMARK 922        TOTAL FREE ENERGY PREDICTED BY IDOCK:   -5.06 KCAL/MOL
REMARK 923 INTER-LIGAND FREE ENERGY PREDICTED BY IDOCK:   -4.62 KCAL/MOL
REMARK 924 INTRA-LIGAND FREE ENERGY PREDICTED BY IDOCK:   -0.44 KCAL/MOL
REMARK 927      BINDING AFFINITY PREDICTED BY RF-SCORE:    0.00 PKD
ROOT
HETATM    1  C   UNL     1      -9.691   5.040  71.018  1.00  0.00    -0.184 C  
HETATM    2  S   UNL     1      -9.588   4.964  69.210  1.00  0.00    -0.188 SA 
ENDROOT
BRANCH   2   3
HETATM    3  C   UNL     1     -10.092   6.628  68.817  1.00  0.00    -0.158 A  
HETATM    4  C   UNL     1     -10.317   7.568  69.823  1.00  0.00    -0.221 A  
HETATM    5  C   UNL     1     -10.711   8.868  69.495  1.00  0.00    -0.206 A  
HETATM    6  C   UNL     1     -10.883   9.248  68.155  1.00  0.00    -0.145 A  
HETATM    7  C   UNL     1     -10.227   7.012  67.478  1.00  0.00    -0.257 A  
HETATM    8  C   UNL     1     -10.612   8.318  67.145  1.00  0.00    -0.340 A  
BRANCH   6   9
HETATM    9  C   UNL     1     -11.268  10.660  67.891  1.00  0.00    -0.308 C  
HETATM   10  O   UNL     1     -12.055  11.201  68.665  1.00  0.00    -0.556 OA 
BRANCH   9  11
HETATM   11  C   UNL     1     -10.753  11.382  66.697  1.00  0.00    -0.269 C  
HETATM   12  C   UNL     1      -9.468  11.714  66.452  1.00  0.00    -0.217 C  
HETATM   13  C   UNL     1      -8.209  11.473  67.205  1.00  0.00    -0.155 C  
HETATM   14  N   UNL     1      -9.425  12.423  65.269  1.00  0.00    -0.450 N  
HETATM   15  H   UNL     1      -8.579  12.791  64.835  1.00  0.00     0.000 HD 
HETATM   16  C   UNL     1     -10.716  12.559  64.759  1.00  0.00    -0.302 C  
HETATM   17  N   UNL     1     -11.530  11.891  65.676  1.00  0.00    -0.298 NA 
HETATM   18  O   UNL     1     -11.061  13.135  63.746  1.00  0.00    -0.371 OA 
ENDBRANCH   9  11
ENDBRANCH   6   9
ENDBRANCH   2   3
TORSDOF 3
ENDMDL
MODEL      143
REMARK 921   NORMALIZED FREE ENERGY PREDICTED BY IDOCK:   -3.93 KCAL/MOL
REMARK 922        TOTAL FREE ENERGY PREDICTED BY IDOCK:   -5.01 KCAL/MOL
REMARK 923 INTER-LIGAND FREE ENERGY PREDICTED BY IDOCK:   -4.57 KCAL/MOL
REMARK 924 INTRA-LIGAND FREE ENERGY PREDICTED BY IDOCK:   -0.44 KCAL/MOL
REMARK 927      BINDING AFFINITY PREDICTED BY RF-SCORE:    0.00 PKD
ROOT
HETATM    1  C   UNL     1     -12.395  13.539  65.845  1.00  0.00    -0.456 C  
HETATM    2  S   UNL     1     -11.088  12.671  66.754  1.00  0.00    -0.292 SA 
ENDROOT
BRANCH   2   3
HETATM    3  C   UNL     1      -9.954  14.024  67.000  1.00  0.00    -0.257 A  
HETATM    4  C   UNL     1      -9.057  14.026  68.069  1.00  0.00    -0.190 A  
HETATM    5  C   UNL     1      -8.175  15.096  68.243  1.00  0.00    -0.144 A  
HETATM    6  C   UNL     1      -8.174  16.177  67.350  1.00  0.00    -0.185 A  
HETATM    7  C   UNL     1      -9.932  15.083  66.086  1.00  0.00    -0.313 A  
HETATM    8  C   UNL     1      -9.042  16.153  66.252  1.00  0.00    -0.373 A  
BRANCH   6   9
HETATM    9  C   UNL     1      -7.179  17.257  67.587  1.00  0.00    -0.162 C  
HETATM   10  O   UNL     1      -6.525  17.224  68.628  1.00  0.00    -0.164 OA 
BRANCH   9  11
HETATM   11  C   UNL     1      -7.014  18.372  66.616  1.00  0.00    -0.205 C  
HETATM   12  C   UNL     1      -7.600  19.586  66.682  1.00  0.00    -0.256 C  
HETATM   13  C   UNL     1      -8.517  20.204  67.676  1.00  0.00    -0.357 C  
HETATM   14  N   UNL     1      -7.230  20.303  65.563  1.00  0.00    -0.475 N  
HETATM   15  H   UNL     1      -7.518  21.259  65.355  1.00  0.00     0.000 HD 
HETATM   16  C   UNL     1      -6.403  19.519  64.758  1.00  0.00    -0.222 C  
HETATM   17  N   UNL     1      -6.282  18.311  65.449  1.00  0.00    -0.243 NA 
HETATM   18  O   UNL     1      -5.903  19.814  63.691  1.00  0.00    -0.277 OA 
ENDBRANCH   9  11
ENDBRANCH   6   9
ENDBRANCH   2   3
TORSDOF 3
ENDMDL
MODEL      144
REMARK 921   NORMALIZED FREE ENERGY PREDICTED BY IDOCK:   -3.93 KCAL/MOL
REMARK 922        TOTAL FREE ENERGY PREDICTED BY IDOCK:   -5.01 KCAL/MOL
REMARK 923 INTER-LIGAND FREE ENERGY PREDICTED BY IDOCK:   -4.54 KCAL/MOL
REMARK 924 INTRA-LIGAND FREE ENERGY PREDICTED BY IDOCK:   -0.47 KCAL/MOL
REMARK 927      BINDING AFFINITY PREDICTED BY RF-SCORE:    0.00 PKD
ROOT
HETATM    1  C   UNL     1     -11.250  15.891  68.144  1.00  0.00    -0.339 C  
HETATM    2  S   UNL     1     -11.454  14.560  66.930  1.00  0.00    -0.369 SA 
ENDROOT
BRANCH   2   3
HETATM    3  C   UNL     1     -10.927  13.176  67.921  1.00  0.00    -0.249 A  
HETATM    4  C   UNL     1     -11.781  12.595  68.860  1.00  0.00    -0.370 A  
HETATM    5  C   UNL     1     -11.350  11.510  69.626  1.00  0.00    -0.329 A  
HETATM    6  C   UNL     1     -10.058  10.986  69.464  1.00  0.00     0.019 A  
HETATM    7  C   UNL     1      -9.651  12.634  67.730  1.00  0.00    -0.197 A  
HETATM    8  C   UNL     1      -9.218  11.538  68.490  1.00  0.00    -0.167 A  
BRANCH   6   9
HETATM    9  C   UNL     1      -9.691   9.807  70.293  1.00  0.00    -0.223 C  
HETATM   10  O   UNL     1      -8.622   9.835  70.900  1.00  0.00    -0.161 OA 
BRANCH   9  11
HETATM   11  C   UNL     1     -10.569   8.608  70.349  1.00  0.00    -0.220 C  
HETATM   12  C   UNL     1     -10.755   7.704  69.364  1.00  0.00    -0.184 C  
HETATM   13  C   UNL     1     -10.179   7.574  67.999  1.00  0.00    -0.239 C  
HETATM   14  N   UNL     1     -11.686   6.782  69.796  1.00  0.00    -0.637 N  
HETATM   15  H   UNL     1     -12.011   5.978  69.259  1.00  0.00     0.000 HD 
HETATM   16  C   UNL     1     -12.114   7.118  71.081  1.00  0.00    -0.358 C  
HETATM   17  N   UNL     1     -11.391   8.269  71.403  1.00  0.00    -0.253 NA 
HETATM   18  O   UNL     1     -12.937   6.545  71.767  1.00  0.00    -0.262 OA 
ENDBRANCH   9  11
ENDBRANCH   6   9
ENDBRANCH   2   3
TORSDOF 3
ENDMDL
MODEL      145
REMARK 921   NORMALIZED FREE ENERGY PREDICTED BY IDOCK:   -3.92 KCAL/MOL
REMARK 922        TOTAL FREE ENERGY PREDICTED BY IDOCK:   -5.00 KCAL/MOL
REMARK 923 INTER-LIGAND FREE ENERGY PREDICTED BY IDOCK:   -4.95 KCAL/MOL
REMARK 924 INTRA-LIGAND FREE ENERGY PREDICTED BY IDOCK:   -0.05 KCAL/MOL
REMARK 927      BINDING AFFINITY PREDICTED BY RF-SCORE:    0.00 PKD
ROOT
HETATM    1  C   UNL     1      -9.200  10.183  63.838  1.00  0.00    -0.280 C  
HETATM    2  S   UNL     1     -10.690  11.122  63.411  1.00  0.00    -0.060 SA 
ENDROOT
BRANCH   2   3
HETATM    3  C   UNL     1     -11.025  11.878  64.989  1.00  0.00    -0.312 A  
HETATM    4  C   UNL     1     -12.098  12.753  65.155  1.00  0.00    -0.498 A  
HETATM    5  C   UNL     1     -12.345  13.335  66.402  1.00  0.00    -0.347 A  
HETATM    6  C   UNL     1     -11.523  13.047  67.502  1.00  0.00    -0.375 A  
HETATM    7  C   UNL     1     -10.224  11.559  66.092  1.00  0.00    -0.272 A  
HETATM    8  C   UNL     1     -10.475  12.133  67.347  1.00  0.00    -0.233 A  
BRANCH   6   9
HETATM    9  C   UNL     1     -11.877  13.679  68.801  1.00  0.00    -0.360 C  
HETATM   10  O   UNL     1     -12.641  13.075  69.551  1.00  0.00     0.051 OA 
BRANCH   9  11
HETATM   11  C   UNL     1     -11.359  15.026  69.162  1.00  0.00    -0.296 C  
HETATM   12  C   UNL     1     -11.732  15.769  70.226  1.00  0.00    -0.358 C  
HETATM   13  C   UNL     1     -12.685  15.520  71.339  1.00  0.00    -0.517 C  
HETATM   14  N   UNL     1     -11.059  16.973  70.166  1.00  0.00    -0.238 N  
HETATM   15  H   UNL     1     -11.139  17.725  70.849  1.00  0.00     0.000 HD 
HETATM   16  C   UNL     1     -10.253  17.001  69.028  1.00  0.00    -0.313 C  
HETATM   17  N   UNL     1     -10.460  15.761  68.418  1.00  0.00    -0.239 NA 
HETATM   18  O   UNL     1      -9.535  17.903  68.644  1.00  0.00    -0.299 OA 
ENDBRANCH   9  11
ENDBRANCH   6   9
ENDBRANCH   2   3
TORSDOF 3
ENDMDL
MODEL      146
REMARK 921   NORMALIZED FREE ENERGY PREDICTED BY IDOCK:   -3.92 KCAL/MOL
REMARK 922        TOTAL FREE ENERGY PREDICTED BY IDOCK:   -5.00 KCAL/MOL
REMARK 923 INTER-LIGAND FREE ENERGY PREDICTED BY IDOCK:   -4.58 KCAL/MOL
REMARK 924 INTRA-LIGAND FREE ENERGY PREDICTED BY IDOCK:   -0.42 KCAL/MOL
REMARK 927      BINDING AFFINITY PREDICTED BY RF-SCORE:    0.00 PKD
ROOT
HETATM    1  C   UNL     1      -7.153  16.288  69.174  1.00  0.00    -0.214 C  
HETATM    2  S   UNL     1      -8.722  16.990  68.598  1.00  0.00    -0.244 SA 
ENDROOT
BRANCH   2   3
HETATM    3  C   UNL     1      -9.480  15.516  67.943  1.00  0.00    -0.201 A  
HETATM    4  C   UNL     1      -9.264  15.122  66.622  1.00  0.00    -0.298 A  
HETATM    5  C   UNL     1      -9.866  13.961  66.128  1.00  0.00    -0.316 A  
HETATM    6  C   UNL     1     -10.691  13.177  66.948  1.00  0.00    -0.270 A  
HETATM    7  C   UNL     1     -10.273  14.717  68.775  1.00  0.00    -0.242 A  
HETATM    8  C   UNL     1     -10.870  13.547  68.285  1.00  0.00    -0.277 A  
BRANCH   6   9
HETATM    9  C   UNL     1     -11.263  11.939  66.354  1.00  0.00    -0.331 C  
HETATM   10  O   UNL     1     -12.324  12.028  65.738  1.00  0.00    -0.469 OA 
BRANCH   9  11
HETATM   11  C   UNL     1     -10.598  10.622  66.542  1.00  0.00    -0.193 C  
HETATM   12  C   UNL     1      -9.888   9.943  65.616  1.00  0.00    -0.298 C  
HETATM   13  C   UNL     1      -9.520  10.252  64.209  1.00  0.00    -0.365 C  
HETATM   14  N   UNL     1      -9.490   8.745  66.173  1.00  0.00    -0.236 N  
HETATM   15  H   UNL     1      -8.928   8.036  65.702  1.00  0.00     0.000 HD 
HETATM   16  C   UNL     1      -9.973   8.653  67.478  1.00  0.00    -0.199 C  
HETATM   17  N   UNL     1     -10.663   9.850  67.683  1.00  0.00    -0.272 NA 
HETATM   18  O   UNL     1      -9.834   7.736  68.263  1.00  0.00    -0.158 OA 
ENDBRANCH   9  11
ENDBRANCH   6   9
ENDBRANCH   2   3
TORSDOF 3
ENDMDL
MODEL      147
REMARK 921   NORMALIZED FREE ENERGY PREDICTED BY IDOCK:   -3.90 KCAL/MOL
REMARK 922        TOTAL FREE ENERGY PREDICTED BY IDOCK:   -4.97 KCAL/MOL
REMARK 923 INTER-LIGAND FREE ENERGY PREDICTED BY IDOCK:   -4.54 KCAL/MOL
REMARK 924 INTRA-LIGAND FREE ENERGY PREDICTED BY IDOCK:   -0.44 KCAL/MOL
REMARK 927      BINDING AFFINITY PREDICTED BY RF-SCORE:    0.00 PKD
ROOT
HETATM    1  C   UNL     1      -5.443  12.373  69.917  1.00  0.00    -0.101 C  
HETATM    2  S   UNL     1      -5.783  13.853  70.908  1.00  0.00    -0.206 SA 
ENDROOT
BRANCH   2   3
HETATM    3  C   UNL     1      -6.001  15.040  69.597  1.00  0.00    -0.116 A  
HETATM    4  C   UNL     1      -5.514  16.342  69.717  1.00  0.00    -0.158 A  
HETATM    5  C   UNL     1      -5.694  17.259  68.677  1.00  0.00    -0.152 A  
HETATM    6  C   UNL     1      -6.360  16.885  67.500  1.00  0.00    -0.179 A  
HETATM    7  C   UNL     1      -6.634  14.653  68.410  1.00  0.00    -0.102 A  
HETATM    8  C   UNL     1      -6.807  15.566  67.361  1.00  0.00    -0.224 A  
BRANCH   6   9
HETATM    9  C   UNL     1      -6.476  17.910  66.428  1.00  0.00    -0.228 C  
HETATM   10  O   UNL     1      -5.580  17.976  65.590  1.00  0.00    -0.182 OA 
BRANCH   9  11
HETATM   11  C   UNL     1      -7.620  18.861  66.400  1.00  0.00    -0.262 C  
HETATM   12  C   UNL     1      -7.618  20.131  66.857  1.00  0.00    -0.292 C  
HETATM   13  C   UNL     1      -6.560  20.974  67.472  1.00  0.00    -0.438 C  
HETATM   14  N   UNL     1      -8.888  20.647  66.695  1.00  0.00    -0.564 N  
HETATM   15  H   UNL     1      -9.174  21.593  66.945  1.00  0.00     0.000 HD 
HETATM   16  C   UNL     1      -9.720  19.676  66.138  1.00  0.00    -0.406 C  
HETATM   17  N   UNL     1      -8.893  18.564  65.959  1.00  0.00    -0.489 NA 
HETATM   18  O   UNL     1     -10.902  19.769  65.871  1.00  0.00    -0.437 OA 
ENDBRANCH   9  11
ENDBRANCH   6   9
ENDBRANCH   2   3
TORSDOF 3
ENDMDL
MODEL      148
REMARK 921   NORMALIZED FREE ENERGY PREDICTED BY IDOCK:   -3.90 KCAL/MOL
REMARK 922        TOTAL FREE ENERGY PREDICTED BY IDOCK:   -4.97 KCAL/MOL
REMARK 923 INTER-LIGAND FREE ENERGY PREDICTED BY IDOCK:   -4.55 KCAL/MOL
REMARK 924 INTRA-LIGAND FREE ENERGY PREDICTED BY IDOCK:   -0.42 KCAL/MOL
REMARK 927      BINDING AFFINITY PREDICTED BY RF-SCORE:    0.00 PKD
ROOT
HETATM    1  C   UNL     1     -11.568  14.484  65.183  1.00  0.00    -0.371 C  
HETATM    2  S   UNL     1     -11.033  15.109  66.799  1.00  0.00    -0.304 SA 
ENDROOT
BRANCH   2   3
HETATM    3  C   UNL     1     -10.554  13.572  67.564  1.00  0.00    -0.244 A  
HETATM    4  C   UNL     1     -11.511  12.640  67.968  1.00  0.00    -0.366 A  
HETATM    5  C   UNL     1     -11.114  11.440  68.564  1.00  0.00    -0.287 A  
HETATM    6  C   UNL     1      -9.755  11.153  68.763  1.00  0.00    -0.194 A  
HETATM    7  C   UNL     1      -9.196  13.275  67.727  1.00  0.00    -0.209 A  
HETATM    8  C   UNL     1      -8.795  12.067  68.316  1.00  0.00    -0.182 A  
BRANCH   6   9
HETATM    9  C   UNL     1      -9.418   9.838  69.372  1.00  0.00    -0.201 C  
HETATM   10  O   UNL     1      -8.481   9.791  70.166  1.00  0.00    -0.189 OA 
BRANCH   9  11
HETATM   11  C   UNL     1     -10.162   8.607  68.993  1.00  0.00    -0.207 C  
HETATM   12  C   UNL     1     -11.010   7.910  69.778  1.00  0.00    -0.148 C  
HETATM   13  C   UNL     1     -11.491   8.118  71.169  1.00  0.00    -0.304 C  
HETATM   14  N   UNL     1     -11.443   6.807  69.069  1.00  0.00    -0.582 N  
HETATM   15  H   UNL     1     -12.101   6.109  69.413  1.00  0.00     0.000 HD 
HETATM   16  C   UNL     1     -10.840   6.794  67.811  1.00  0.00    -0.264 C  
HETATM   17  N   UNL     1     -10.043   7.941  67.791  1.00  0.00    -0.180 NA 
HETATM   18  O   UNL     1     -10.971   5.969  66.929  1.00  0.00    -0.318 OA 
ENDBRANCH   9  11
ENDBRANCH   6   9
ENDBRANCH   2   3
TORSDOF 3
ENDMDL
MODEL      149
REMARK 921   NORMALIZED FREE ENERGY PREDICTED BY IDOCK:   -3.90 KCAL/MOL
REMARK 922        TOTAL FREE ENERGY PREDICTED BY IDOCK:   -4.97 KCAL/MOL
REMARK 923 INTER-LIGAND FREE ENERGY PREDICTED BY IDOCK:   -4.54 KCAL/MOL
REMARK 924 INTRA-LIGAND FREE ENERGY PREDICTED BY IDOCK:   -0.43 KCAL/MOL
REMARK 927      BINDING AFFINITY PREDICTED BY RF-SCORE:    0.00 PKD
ROOT
HETATM    1  C   UNL     1     -10.574   4.682  65.852  1.00  0.00    -0.223 C  
HETATM    2  S   UNL     1      -9.447   4.198  67.187  1.00  0.00    -0.195 SA 
ENDROOT
BRANCH   2   3
HETATM    3  C   UNL     1      -9.597   5.633  68.233  1.00  0.00    -0.121 A  
HETATM    4  C   UNL     1     -10.628   6.555  68.046  1.00  0.00    -0.310 A  
HETATM    5  C   UNL     1     -10.729   7.674  68.878  1.00  0.00    -0.117 A  
HETATM    6  C   UNL     1      -9.804   7.885  69.910  1.00  0.00    -0.182 A  
HETATM    7  C   UNL     1      -8.693   5.821  69.284  1.00  0.00    -0.113 A  
HETATM    8  C   UNL     1      -8.798   6.936  70.127  1.00  0.00    -0.145 A  
BRANCH   6   9
HETATM    9  C   UNL     1     -10.005   9.081  70.772  1.00  0.00    -0.245 C  
HETATM   10  O   UNL     1      -9.009   9.664  71.196  1.00  0.00    -0.173 OA 
BRANCH   9  11
HETATM   11  C   UNL     1     -11.372   9.530  71.151  1.00  0.00    -0.370 C  
HETATM   12  C   UNL     1     -11.974  10.675  70.767  1.00  0.00    -0.374 C  
HETATM   13  C   UNL     1     -11.541  11.789  69.882  1.00  0.00    -0.351 C  
HETATM   14  N   UNL     1     -13.209  10.737  71.380  1.00  0.00    -0.341 N  
HETATM   15  H   UNL     1     -13.886  11.490  71.262  1.00  0.00     0.000 HD 
HETATM   16  C   UNL     1     -13.387   9.613  72.185  1.00  0.00    -0.454 C  
HETATM   17  N   UNL     1     -12.217   8.869  72.018  1.00  0.00    -0.361 NA 
HETATM   18  O   UNL     1     -14.343   9.339  72.884  1.00  0.00    -0.461 OA 
ENDBRANCH   9  11
ENDBRANCH   6   9
ENDBRANCH   2   3
TORSDOF 3
ENDMDL
MODEL      150
REMARK 921   NORMALIZED FREE ENERGY PREDICTED BY IDOCK:   -3.86 KCAL/MOL
REMARK 922        TOTAL FREE ENERGY PREDICTED BY IDOCK:   -4.93 KCAL/MOL
REMARK 923 INTER-LIGAND FREE ENERGY PREDICTED BY IDOCK:   -4.67 KCAL/MOL
REMARK 924 INTRA-LIGAND FREE ENERGY PREDICTED BY IDOCK:   -0.26 KCAL/MOL
REMARK 927      BINDING AFFINITY PREDICTED BY RF-SCORE:    0.00 PKD
ROOT
HETATM    1  C   UNL     1      -9.524   9.588  67.137  1.00  0.00    -0.149 C  
HETATM    2  S   UNL     1     -11.017  10.600  67.322  1.00  0.00    -0.241 SA 
ENDROOT
BRANCH   2   3
HETATM    3  C   UNL     1     -10.308  12.216  67.077  1.00  0.00    -0.211 A  
HETATM    4  C   UNL     1      -9.268  12.676  67.886  1.00  0.00    -0.201 A  
HETATM    5  C   UNL     1      -8.724  13.947  67.677  1.00  0.00    -0.187 A  
HETATM    6  C   UNL     1      -9.211  14.775  66.655  1.00  0.00    -0.300 A  
HETATM    7  C   UNL     1     -10.772  13.025  66.033  1.00  0.00    -0.290 A  
HETATM    8  C   UNL     1     -10.223  14.296  65.815  1.00  0.00    -0.351 A  
BRANCH   6   9
HETATM    9  C   UNL     1      -8.553  16.097  66.477  1.00  0.00    -0.306 C  
HETATM   10  O   UNL     1      -7.365  16.116  66.161  1.00  0.00     0.062 OA 
BRANCH   9  11
HETATM   11  C   UNL     1      -9.298  17.361  66.723  1.00  0.00    -0.268 C  
HETATM   12  C   UNL     1     -10.180  17.591  67.718  1.00  0.00    -0.349 C  
HETATM   13  C   UNL     1     -10.661  16.752  68.846  1.00  0.00    -0.333 C  
HETATM   14  N   UNL     1     -10.687  18.865  67.557  1.00  0.00    -0.455 N  
HETATM   15  H   UNL     1     -11.367  19.309  68.173  1.00  0.00     0.000 HD 
HETATM   16  C   UNL     1     -10.125  19.451  66.422  1.00  0.00    -0.444 C  
HETATM   17  N   UNL     1      -9.252  18.483  65.921  1.00  0.00    -0.441 NA 
HETATM   18  O   UNL     1     -10.347  20.555  65.964  1.00  0.00    -0.201 OA 
ENDBRANCH   9  11
ENDBRANCH   6   9
ENDBRANCH   2   3
TORSDOF 3
ENDMDL
MODEL      151
REMARK 921   NORMALIZED FREE ENERGY PREDICTED BY IDOCK:   -3.86 KCAL/MOL
REMARK 922        TOTAL FREE ENERGY PREDICTED BY IDOCK:   -4.92 KCAL/MOL
REMARK 923 INTER-LIGAND FREE ENERGY PREDICTED BY IDOCK:   -4.80 KCAL/MOL
REMARK 924 INTRA-LIGAND FREE ENERGY PREDICTED BY IDOCK:   -0.12 KCAL/MOL
REMARK 927      BINDING AFFINITY PREDICTED BY RF-SCORE:    0.00 PKD
ROOT
HETATM    1  C   UNL     1     -12.210  14.213  70.578  1.00  0.00    -0.361 C  
HETATM    2  S   UNL     1     -11.353  15.337  69.442  1.00  0.00    -0.319 SA 
ENDROOT
BRANCH   2   3
HETATM    3  C   UNL     1     -11.070  14.220  68.083  1.00  0.00    -0.258 A  
HETATM    4  C   UNL     1      -9.776  13.854  67.710  1.00  0.00    -0.225 A  
HETATM    5  C   UNL     1      -9.575  12.976  66.641  1.00  0.00    -0.259 A  
HETATM    6  C   UNL     1     -10.664  12.448  65.932  1.00  0.00    -0.299 A  
HETATM    7  C   UNL     1     -12.161  13.668  67.402  1.00  0.00    -0.375 A  
HETATM    8  C   UNL     1     -11.963  12.779  66.336  1.00  0.00    -0.443 A  
BRANCH   6   9
HETATM    9  C   UNL     1     -10.364  11.493  64.833  1.00  0.00    -0.289 C  
HETATM   10  O   UNL     1     -10.686  11.806  63.688  1.00  0.00    -0.360 OA 
BRANCH   9  11
HETATM   11  C   UNL     1      -9.736  10.174  65.115  1.00  0.00    -0.304 C  
HETATM   12  C   UNL     1      -8.993   9.440  64.259  1.00  0.00    -0.160 C  
HETATM   13  C   UNL     1      -8.548   9.676  62.861  1.00  0.00    -0.202 C  
HETATM   14  N   UNL     1      -8.648   8.263  64.891  1.00  0.00    -0.366 N  
HETATM   15  H   UNL     1      -8.079   7.522  64.483  1.00  0.00     0.000 HD 
HETATM   16  C   UNL     1      -9.200   8.241  66.172  1.00  0.00    -0.192 C  
HETATM   17  N   UNL     1      -9.875   9.459  66.286  1.00  0.00    -0.261 NA 
HETATM   18  O   UNL     1      -9.119   7.359  67.005  1.00  0.00    -0.127 OA 
ENDBRANCH   9  11
ENDBRANCH   6   9
ENDBRANCH   2   3
TORSDOF 3
ENDMDL
MODEL      152
REMARK 921   NORMALIZED FREE ENERGY PREDICTED BY IDOCK:   -3.85 KCAL/MOL
REMARK 922        TOTAL FREE ENERGY PREDICTED BY IDOCK:   -4.91 KCAL/MOL
REMARK 923 INTER-LIGAND FREE ENERGY PREDICTED BY IDOCK:   -4.48 KCAL/MOL
REMARK 924 INTRA-LIGAND FREE ENERGY PREDICTED BY IDOCK:   -0.44 KCAL/MOL
REMARK 927      BINDING AFFINITY PREDICTED BY RF-SCORE:    0.00 PKD
ROOT
HETATM    1  C   UNL     1     -13.141  10.761  71.866  1.00  0.00    -0.451 C  
HETATM    2  S   UNL     1     -13.601   9.025  72.115  1.00  0.00    -0.495 SA 
ENDROOT
BRANCH   2   3
HETATM    3  C   UNL     1     -12.292   8.240  71.196  1.00  0.00    -0.206 A  
HETATM    4  C   UNL     1     -12.277   6.858  71.002  1.00  0.00    -0.427 A  
HETATM    5  C   UNL     1     -11.242   6.261  70.277  1.00  0.00    -0.455 A  
HETATM    6  C   UNL     1     -10.208   7.038  69.733  1.00  0.00    -0.213 A  
HETATM    7  C   UNL     1     -11.282   9.022  70.625  1.00  0.00    -0.318 A  
HETATM    8  C   UNL     1     -10.248   8.428  69.888  1.00  0.00    -0.201 A  
BRANCH   6   9
HETATM    9  C   UNL     1      -9.165   6.328  68.944  1.00  0.00    -0.123 C  
HETATM   10  O   UNL     1      -7.990   6.648  69.117  1.00  0.00    -0.108 OA 
BRANCH   9  11
HETATM   11  C   UNL     1      -9.535   5.296  67.940  1.00  0.00    -0.125 C  
HETATM   12  C   UNL     1      -9.349   3.964  68.054  1.00  0.00    -0.174 C  
HETATM   13  C   UNL     1      -8.786   3.118  69.139  1.00  0.00    -0.136 C  
HETATM   14  N   UNL     1      -9.777   3.369  66.884  1.00  0.00    -0.391 N  
HETATM   15  H   UNL     1      -9.764   2.367  66.695  1.00  0.00     0.000 HD 
HETATM   16  C   UNL     1     -10.230   4.349  66.000  1.00  0.00    -0.219 C  
HETATM   17  N   UNL     1     -10.069   5.550  66.694  1.00  0.00    -0.187 NA 
HETATM   18  O   UNL     1     -10.662   4.196  64.875  1.00  0.00    -0.250 OA 
ENDBRANCH   9  11
ENDBRANCH   6   9
ENDBRANCH   2   3
TORSDOF 3
ENDMDL
MODEL      153
REMARK 921   NORMALIZED FREE ENERGY PREDICTED BY IDOCK:   -3.84 KCAL/MOL
REMARK 922        TOTAL FREE ENERGY PREDICTED BY IDOCK:   -4.90 KCAL/MOL
REMARK 923 INTER-LIGAND FREE ENERGY PREDICTED BY IDOCK:   -4.67 KCAL/MOL
REMARK 924 INTRA-LIGAND FREE ENERGY PREDICTED BY IDOCK:   -0.23 KCAL/MOL
REMARK 927      BINDING AFFINITY PREDICTED BY RF-SCORE:    0.00 PKD
ROOT
HETATM    1  C   UNL     1     -10.972   5.988  69.864  1.00  0.00    -0.388 C  
HETATM    2  S   UNL     1     -11.085   7.289  71.121  1.00  0.00    -0.259 SA 
ENDROOT
BRANCH   2   3
HETATM    3  C   UNL     1     -11.093   8.722  70.062  1.00  0.00    -0.162 A  
HETATM    4  C   UNL     1     -10.486   8.691  68.806  1.00  0.00    -0.209 A  
HETATM    5  C   UNL     1     -10.503   9.825  67.989  1.00  0.00    -0.271 A  
HETATM    6  C   UNL     1     -11.131  11.005  68.414  1.00  0.00    -0.308 A  
HETATM    7  C   UNL     1     -11.751   9.885  70.476  1.00  0.00    -0.373 A  
HETATM    8  C   UNL     1     -11.779  11.021  69.654  1.00  0.00    -0.401 A  
BRANCH   6   9
HETATM    9  C   UNL     1     -11.136  12.154  67.469  1.00  0.00    -0.275 C  
HETATM   10  O   UNL     1     -12.041  12.219  66.640  1.00  0.00    -0.612 OA 
BRANCH   9  11
HETATM   11  C   UNL     1     -10.049  13.170  67.494  1.00  0.00    -0.222 C  
HETATM   12  C   UNL     1     -10.198  14.506  67.376  1.00  0.00    -0.240 C  
HETATM   13  C   UNL     1     -11.397  15.372  67.223  1.00  0.00    -0.220 C  
HETATM   14  N   UNL     1      -8.944  15.081  67.393  1.00  0.00    -0.179 N  
HETATM   15  H   UNL     1      -8.755  16.081  67.332  1.00  0.00     0.000 HD 
HETATM   16  C   UNL     1      -7.974  14.085  67.508  1.00  0.00    -0.187 C  
HETATM   17  N   UNL     1      -8.700  12.893  67.573  1.00  0.00    -0.179 NA 
HETATM   18  O   UNL     1      -6.767  14.218  67.538  1.00  0.00    -0.185 OA 
ENDBRANCH   9  11
ENDBRANCH   6   9
ENDBRANCH   2   3
TORSDOF 3
ENDMDL
MODEL      154
REMARK 921   NORMALIZED FREE ENERGY PREDICTED BY IDOCK:   -3.83 KCAL/MOL
REMARK 922        TOTAL FREE ENERGY PREDICTED BY IDOCK:   -4.89 KCAL/MOL
REMARK 923 INTER-LIGAND FREE ENERGY PREDICTED BY IDOCK:   -4.45 KCAL/MOL
REMARK 924 INTRA-LIGAND FREE ENERGY PREDICTED BY IDOCK:   -0.44 KCAL/MOL
REMARK 927      BINDING AFFINITY PREDICTED BY RF-SCORE:    0.00 PKD
ROOT
HETATM    1  C   UNL     1     -10.944  16.245  70.075  1.00  0.00    -0.355 C  
HETATM    2  S   UNL     1     -11.361  16.134  68.314  1.00  0.00    -0.251 SA 
ENDROOT
BRANCH   2   3
HETATM    3  C   UNL     1     -10.692  14.522  67.955  1.00  0.00    -0.242 A  
HETATM    4  C   UNL     1      -9.440  14.138  68.438  1.00  0.00    -0.214 A  
HETATM    5  C   UNL     1      -8.933  12.869  68.147  1.00  0.00    -0.202 A  
HETATM    6  C   UNL     1      -9.672  11.963  67.371  1.00  0.00    -0.189 A  
HETATM    7  C   UNL     1     -11.447  13.609  67.211  1.00  0.00    -0.370 A  
HETATM    8  C   UNL     1     -10.946  12.331  66.926  1.00  0.00    -0.312 A  
BRANCH   6   9
HETATM    9  C   UNL     1      -9.076  10.621  67.138  1.00  0.00    -0.143 C  
HETATM   10  O   UNL     1      -7.987  10.560  66.570  1.00  0.00    -0.122 OA 
BRANCH   9  11
HETATM   11  C   UNL     1      -9.798   9.383  67.537  1.00  0.00    -0.173 C  
HETATM   12  C   UNL     1     -10.215   9.064  68.781  1.00  0.00    -0.208 C  
HETATM   13  C   UNL     1     -10.137   9.782  70.080  1.00  0.00    -0.317 C  
HETATM   14  N   UNL     1     -10.790   7.810  68.732  1.00  0.00    -0.416 N  
HETATM   15  H   UNL     1     -11.202   7.322  69.527  1.00  0.00     0.000 HD 
HETATM   16  C   UNL     1     -10.722   7.315  67.430  1.00  0.00    -0.288 C  
HETATM   17  N   UNL     1     -10.096   8.328  66.700  1.00  0.00    -0.285 NA 
HETATM   18  O   UNL     1     -11.112   6.240  67.019  1.00  0.00    -0.362 OA 
ENDBRANCH   9  11
ENDBRANCH   6   9
ENDBRANCH   2   3
TORSDOF 3
ENDMDL
MODEL      155
REMARK 921   NORMALIZED FREE ENERGY PREDICTED BY IDOCK:   -3.83 KCAL/MOL
REMARK 922        TOTAL FREE ENERGY PREDICTED BY IDOCK:   -4.89 KCAL/MOL
REMARK 923 INTER-LIGAND FREE ENERGY PREDICTED BY IDOCK:   -4.47 KCAL/MOL
REMARK 924 INTRA-LIGAND FREE ENERGY PREDICTED BY IDOCK:   -0.41 KCAL/MOL
REMARK 927      BINDING AFFINITY PREDICTED BY RF-SCORE:    0.00 PKD
ROOT
HETATM    1  C   UNL     1      -9.446   3.269  67.383  1.00  0.00    -0.154 C  
HETATM    2  S   UNL     1      -8.265   3.283  68.759  1.00  0.00    -0.061 SA 
ENDROOT
BRANCH   2   3
HETATM    3  C   UNL     1      -8.806   4.760  69.595  1.00  0.00    -0.086 A  
HETATM    4  C   UNL     1      -8.161   5.980  69.390  1.00  0.00    -0.111 A  
HETATM    5  C   UNL     1      -8.601   7.128  70.055  1.00  0.00    -0.141 A  
HETATM    6  C   UNL     1      -9.695   7.073  70.932  1.00  0.00    -0.176 A  
HETATM    7  C   UNL     1      -9.919   4.708  70.441  1.00  0.00    -0.300 A  
HETATM    8  C   UNL     1     -10.370   5.859  71.102  1.00  0.00    -0.276 A  
BRANCH   6   9
HETATM    9  C   UNL     1     -10.121   8.347  71.571  1.00  0.00    -0.226 C  
HETATM   10  O   UNL     1      -9.675   8.615  72.685  1.00  0.00    -0.255 OA 
BRANCH   9  11
HETATM   11  C   UNL     1     -11.098   9.248  70.903  1.00  0.00    -0.306 C  
HETATM   12  C   UNL     1     -12.400   9.398  71.225  1.00  0.00    -0.341 C  
HETATM   13  C   UNL     1     -13.247   8.794  72.287  1.00  0.00    -0.456 C  
HETATM   14  N   UNL     1     -12.966  10.283  70.329  1.00  0.00    -0.555 N  
HETATM   15  H   UNL     1     -13.938  10.590  70.340  1.00  0.00     0.000 HD 
HETATM   16  C   UNL     1     -12.003  10.691  69.406  1.00  0.00    -0.226 C  
HETATM   17  N   UNL     1     -10.837  10.027  69.795  1.00  0.00    -0.254 NA 
HETATM   18  O   UNL     1     -12.144  11.450  68.467  1.00  0.00    -0.550 OA 
ENDBRANCH   9  11
ENDBRANCH   6   9
ENDBRANCH   2   3
TORSDOF 3
ENDMDL
MODEL      156
REMARK 921   NORMALIZED FREE ENERGY PREDICTED BY IDOCK:   -3.82 KCAL/MOL
REMARK 922        TOTAL FREE ENERGY PREDICTED BY IDOCK:   -4.87 KCAL/MOL
REMARK 923 INTER-LIGAND FREE ENERGY PREDICTED BY IDOCK:   -4.44 KCAL/MOL
REMARK 924 INTRA-LIGAND FREE ENERGY PREDICTED BY IDOCK:   -0.43 KCAL/MOL
REMARK 927      BINDING AFFINITY PREDICTED BY RF-SCORE:    0.00 PKD
ROOT
HETATM    1  C   UNL     1     -10.786  10.905  63.071  1.00  0.00     0.382 C  
HETATM    2  S   UNL     1     -12.054  12.158  63.403  1.00  0.00    -0.453 SA 
ENDROOT
BRANCH   2   3
HETATM    3  C   UNL     1     -11.431  12.805  64.942  1.00  0.00    -0.320 A  
HETATM    4  C   UNL     1     -10.103  12.604  65.323  1.00  0.00    -0.271 A  
HETATM    5  C   UNL     1      -9.633  13.121  66.533  1.00  0.00    -0.268 A  
HETATM    6  C   UNL     1     -10.483  13.849  67.380  1.00  0.00    -0.263 A  
HETATM    7  C   UNL     1     -12.272  13.561  65.766  1.00  0.00    -0.505 A  
HETATM    8  C   UNL     1     -11.801  14.089  66.977  1.00  0.00    -0.458 A  
BRANCH   6   9
HETATM    9  C   UNL     1      -9.894  14.394  68.632  1.00  0.00    -0.231 C  
HETATM   10  O   UNL     1      -8.670  14.377  68.752  1.00  0.00    -0.178 OA 
BRANCH   9  11
HETATM   11  C   UNL     1     -10.762  14.902  69.728  1.00  0.00    -0.204 C  
HETATM   12  C   UNL     1     -11.042  16.195  69.995  1.00  0.00    -0.363 C  
HETATM   13  C   UNL     1     -10.646  17.465  69.332  1.00  0.00     0.005 C  
HETATM   14  N   UNL     1     -11.835  16.238  71.124  1.00  0.00    -0.617 N  
HETATM   15  H   UNL     1     -12.208  17.087  71.548  1.00  0.00     0.000 HD 
HETATM   16  C   UNL     1     -12.049  14.942  71.594  1.00  0.00    -0.351 C  
HETATM   17  N   UNL     1     -11.365  14.123  70.694  1.00  0.00    -0.005 NA 
HETATM   18  O   UNL     1     -12.683  14.599  72.572  1.00  0.00    -0.343 OA 
ENDBRANCH   9  11
ENDBRANCH   6   9
ENDBRANCH   2   3
TORSDOF 3
ENDMDL
MODEL      157
REMARK 921   NORMALIZED FREE ENERGY PREDICTED BY IDOCK:   -3.81 KCAL/MOL
REMARK 922        TOTAL FREE ENERGY PREDICTED BY IDOCK:   -4.87 KCAL/MOL
REMARK 923 INTER-LIGAND FREE ENERGY PREDICTED BY IDOCK:   -4.75 KCAL/MOL
REMARK 924 INTRA-LIGAND FREE ENERGY PREDICTED BY IDOCK:   -0.12 KCAL/MOL
REMARK 927      BINDING AFFINITY PREDICTED BY RF-SCORE:    0.00 PKD
ROOT
HETATM    1  C   UNL     1      -6.460   9.460  68.146  1.00  0.00    -0.054 C  
HETATM    2  S   UNL     1      -7.310   7.914  68.563  1.00  0.00    -0.099 SA 
ENDROOT
BRANCH   2   3
HETATM    3  C   UNL     1      -8.819   8.580  69.237  1.00  0.00    -0.142 A  
HETATM    4  C   UNL     1      -9.925   8.823  68.423  1.00  0.00    -0.200 A  
HETATM    5  C   UNL     1     -11.100   9.345  68.971  1.00  0.00    -0.014 A  
HETATM    6  C   UNL     1     -11.187   9.629  70.342  1.00  0.00    -0.342 A  
HETATM    7  C   UNL     1      -8.912   8.828  70.611  1.00  0.00    -0.219 A  
HETATM    8  C   UNL     1     -10.092   9.342  71.166  1.00  0.00    -0.374 A  
BRANCH   6   9
HETATM    9  C   UNL     1     -12.485  10.148  70.851  1.00  0.00    -0.360 C  
HETATM   10  O   UNL     1     -13.399   9.346  71.031  1.00  0.00    -0.259 OA 
BRANCH   9  11
HETATM   11  C   UNL     1     -12.687  11.602  71.088  1.00  0.00    -0.325 C  
HETATM   12  C   UNL     1     -12.339  12.606  70.255  1.00  0.00    -0.195 C  
HETATM   13  C   UNL     1     -11.712  12.620  68.907  1.00  0.00    -0.370 C  
HETATM   14  N   UNL     1     -12.647  13.802  70.871  1.00  0.00    -0.353 N  
HETATM   15  H   UNL     1     -12.502  14.726  70.466  1.00  0.00     0.000 HD 
HETATM   16  C   UNL     1     -13.188  13.552  72.132  1.00  0.00    -0.458 C  
HETATM   17  N   UNL     1     -13.204  12.159  72.239  1.00  0.00    -0.366 NA 
HETATM   18  O   UNL     1     -13.558  14.361  72.960  1.00  0.00    -0.619 OA 
ENDBRANCH   9  11
ENDBRANCH   6   9
ENDBRANCH   2   3
TORSDOF 3
ENDMDL
MODEL      158
REMARK 921   NORMALIZED FREE ENERGY PREDICTED BY IDOCK:   -3.81 KCAL/MOL
REMARK 922        TOTAL FREE ENERGY PREDICTED BY IDOCK:   -4.86 KCAL/MOL
REMARK 923 INTER-LIGAND FREE ENERGY PREDICTED BY IDOCK:   -4.69 KCAL/MOL
REMARK 924 INTRA-LIGAND FREE ENERGY PREDICTED BY IDOCK:   -0.17 KCAL/MOL
REMARK 927      BINDING AFFINITY PREDICTED BY RF-SCORE:    0.00 PKD
ROOT
HETATM    1  C   UNL     1     -10.315  19.874  68.311  1.00  0.00    -0.393 C  
HETATM    2  S   UNL     1     -10.504  19.281  66.607  1.00  0.00    -0.464 SA 
ENDROOT
BRANCH   2   3
HETATM    3  C   UNL     1     -10.040  17.576  66.836  1.00  0.00    -0.324 A  
HETATM    4  C   UNL     1      -9.862  17.044  68.114  1.00  0.00    -0.273 A  
HETATM    5  C   UNL     1      -9.500  15.704  68.273  1.00  0.00    -0.200 A  
HETATM    6  C   UNL     1      -9.313  14.875  67.156  1.00  0.00    -0.227 A  
HETATM    7  C   UNL     1      -9.890  16.744  65.721  1.00  0.00    -0.209 A  
HETATM    8  C   UNL     1      -9.536  15.397  65.877  1.00  0.00    -0.386 A  
BRANCH   6   9
HETATM    9  C   UNL     1      -8.963  13.452  67.414  1.00  0.00    -0.215 C  
HETATM   10  O   UNL     1      -7.833  13.070  67.117  1.00  0.00    -0.151 OA 
BRANCH   9  11
HETATM   11  C   UNL     1      -9.968  12.506  67.971  1.00  0.00    -0.219 C  
HETATM   12  C   UNL     1     -11.293  12.501  67.712  1.00  0.00    -0.296 C  
HETATM   13  C   UNL     1     -12.147  13.343  66.833  1.00  0.00    -0.406 C  
HETATM   14  N   UNL     1     -11.874  11.503  68.468  1.00  0.00    -0.320 N  
HETATM   15  H   UNL     1     -12.865  11.265  68.465  1.00  0.00     0.000 HD 
HETATM   16  C   UNL     1     -10.897  10.872  69.238  1.00  0.00    -0.241 C  
HETATM   17  N   UNL     1      -9.707  11.522  68.901  1.00  0.00    -0.116 NA 
HETATM   18  O   UNL     1     -11.043   9.963  70.032  1.00  0.00    -0.251 OA 
ENDBRANCH   9  11
ENDBRANCH   6   9
ENDBRANCH   2   3
TORSDOF 3
ENDMDL
MODEL      159
REMARK 921   NORMALIZED FREE ENERGY PREDICTED BY IDOCK:   -3.79 KCAL/MOL
REMARK 922        TOTAL FREE ENERGY PREDICTED BY IDOCK:   -4.84 KCAL/MOL
REMARK 923 INTER-LIGAND FREE ENERGY PREDICTED BY IDOCK:   -4.45 KCAL/MOL
REMARK 924 INTRA-LIGAND FREE ENERGY PREDICTED BY IDOCK:   -0.39 KCAL/MOL
REMARK 927      BINDING AFFINITY PREDICTED BY RF-SCORE:    0.00 PKD
ROOT
HETATM    1  C   UNL     1      -5.317  13.153  70.054  1.00  0.00    -0.100 C  
HETATM    2  S   UNL     1      -5.441  11.347  69.952  1.00  0.00    -0.086 SA 
ENDROOT
BRANCH   2   3
HETATM    3  C   UNL     1      -6.813  11.209  68.823  1.00  0.00    -0.079 A  
HETATM    4  C   UNL     1      -7.562  10.035  68.739  1.00  0.00    -0.083 A  
HETATM    5  C   UNL     1      -8.635   9.948  67.848  1.00  0.00    -0.125 A  
HETATM    6  C   UNL     1      -8.976  11.034  67.029  1.00  0.00    -0.151 A  
HETATM    7  C   UNL     1      -7.172  12.308  68.034  1.00  0.00    -0.102 A  
HETATM    8  C   UNL     1      -8.254  12.227  67.147  1.00  0.00    -0.179 A  
BRANCH   6   9
HETATM    9  C   UNL     1     -10.154  10.871  66.135  1.00  0.00    -0.239 C  
HETATM   10  O   UNL     1     -10.403   9.746  65.705  1.00  0.00    -0.199 OA 
BRANCH   9  11
HETATM   11  C   UNL     1     -10.978  12.042  65.734  1.00  0.00    -0.307 C  
HETATM   12  C   UNL     1     -11.700  12.833  66.556  1.00  0.00    -0.400 C  
HETATM   13  C   UNL     1     -11.892  12.840  68.030  1.00  0.00    -0.386 C  
HETATM   14  N   UNL     1     -12.361  13.766  65.783  1.00  0.00    -0.463 N  
HETATM   15  H   UNL     1     -12.972  14.500  66.141  1.00  0.00     0.000 HD 
HETATM   16  C   UNL     1     -12.064  13.551  64.437  1.00  0.00    -0.420 C  
HETATM   17  N   UNL     1     -11.190  12.463  64.438  1.00  0.00    -0.313 NA 
HETATM   18  O   UNL     1     -12.478  14.167  63.474  1.00  0.00    -0.817 OA 
ENDBRANCH   9  11
ENDBRANCH   6   9
ENDBRANCH   2   3
TORSDOF 3
ENDMDL
MODEL      160
REMARK 921   NORMALIZED FREE ENERGY PREDICTED BY IDOCK:   -3.78 KCAL/MOL
REMARK 922        TOTAL FREE ENERGY PREDICTED BY IDOCK:   -4.83 KCAL/MOL
REMARK 923 INTER-LIGAND FREE ENERGY PREDICTED BY IDOCK:   -4.40 KCAL/MOL
REMARK 924 INTRA-LIGAND FREE ENERGY PREDICTED BY IDOCK:   -0.44 KCAL/MOL
REMARK 927      BINDING AFFINITY PREDICTED BY RF-SCORE:    0.00 PKD
ROOT
HETATM    1  C   UNL     1      -9.448   4.517  67.098  1.00  0.00    -0.162 C  
HETATM    2  S   UNL     1      -9.622   5.008  68.834  1.00  0.00    -0.163 SA 
ENDROOT
BRANCH   2   3
HETATM    3  C   UNL     1     -10.114   6.706  68.611  1.00  0.00    -0.161 A  
HETATM    4  C   UNL     1     -10.390   7.526  69.706  1.00  0.00    -0.221 A  
HETATM    5  C   UNL     1     -10.774   8.855  69.510  1.00  0.00    -0.206 A  
HETATM    6  C   UNL     1     -10.884   9.386  68.216  1.00  0.00    -0.163 A  
HETATM    7  C   UNL     1     -10.188   7.242  67.320  1.00  0.00    -0.323 A  
HETATM    8  C   UNL     1     -10.562   8.578  67.120  1.00  0.00    -0.314 A  
BRANCH   6   9
HETATM    9  C   UNL     1     -11.262  10.820  68.097  1.00  0.00    -0.302 C  
HETATM   10  O   UNL     1     -12.379  11.159  68.483  1.00  0.00    -0.561 OA 
BRANCH   9  11
HETATM   11  C   UNL     1     -10.334  11.807  67.484  1.00  0.00    -0.196 C  
HETATM   12  C   UNL     1     -10.472  12.392  66.275  1.00  0.00    -0.245 C  
HETATM   13  C   UNL     1     -11.521  12.295  65.226  1.00  0.00    -0.399 C  
HETATM   14  N   UNL     1      -9.372  13.198  66.060  1.00  0.00    -0.477 N  
HETATM   15  H   UNL     1      -9.215  13.770  65.231  1.00  0.00     0.000 HD 
HETATM   16  C   UNL     1      -8.507  13.108  67.151  1.00  0.00    -0.169 C  
HETATM   17  N   UNL     1      -9.141  12.229  68.032  1.00  0.00    -0.185 NA 
HETATM   18  O   UNL     1      -7.437  13.663  67.302  1.00  0.00    -0.150 OA 
ENDBRANCH   9  11
ENDBRANCH   6   9
ENDBRANCH   2   3
TORSDOF 3
ENDMDL
MODEL      161
REMARK 921   NORMALIZED FREE ENERGY PREDICTED BY IDOCK:   -3.78 KCAL/MOL
REMARK 922        TOTAL FREE ENERGY PREDICTED BY IDOCK:   -4.83 KCAL/MOL
REMARK 923 INTER-LIGAND FREE ENERGY PREDICTED BY IDOCK:   -4.39 KCAL/MOL
REMARK 924 INTRA-LIGAND FREE ENERGY PREDICTED BY IDOCK:   -0.44 KCAL/MOL
REMARK 927      BINDING AFFINITY PREDICTED BY RF-SCORE:    0.00 PKD
ROOT
HETATM    1  C   UNL     1     -12.194   9.514  70.835  1.00  0.00    -0.254 C  
HETATM    2  S   UNL     1     -11.021   8.792  69.656  1.00  0.00    -0.030 SA 
ENDROOT
BRANCH   2   3
HETATM    3  C   UNL     1     -10.384  10.287  68.924  1.00  0.00    -0.204 A  
HETATM    4  C   UNL     1      -9.024  10.594  68.982  1.00  0.00    -0.165 A  
HETATM    5  C   UNL     1      -8.544  11.770  68.400  1.00  0.00    -0.156 A  
HETATM    6  C   UNL     1      -9.416  12.655  67.748  1.00  0.00    -0.198 A  
HETATM    7  C   UNL     1     -11.252  11.148  68.243  1.00  0.00    -0.343 A  
HETATM    8  C   UNL     1     -10.772  12.324  67.650  1.00  0.00    -0.250 A  
BRANCH   6   9
HETATM    9  C   UNL     1      -8.818  13.866  67.125  1.00  0.00    -0.226 C  
HETATM   10  O   UNL     1      -7.593  13.975  67.128  1.00  0.00    -0.123 OA 
BRANCH   9  11
HETATM   11  C   UNL     1      -9.678  14.938  66.557  1.00  0.00    -0.276 C  
HETATM   12  C   UNL     1     -10.314  15.907  67.249  1.00  0.00    -0.293 C  
HETATM   13  C   UNL     1     -10.357  16.242  68.697  1.00  0.00    -0.263 C  
HETATM   14  N   UNL     1     -11.049  16.661  66.357  1.00  0.00     0.148 N  
HETATM   15  H   UNL     1     -11.621  17.469  66.602  1.00  0.00     0.000 HD 
HETATM   16  C   UNL     1     -10.890  16.148  65.070  1.00  0.00    -0.363 C  
HETATM   17  N   UNL     1     -10.019  15.067  65.226  1.00  0.00    -0.330 NA 
HETATM   18  O   UNL     1     -11.398  16.545  64.040  1.00  0.00    -1.064 OA 
ENDBRANCH   9  11
ENDBRANCH   6   9
ENDBRANCH   2   3
TORSDOF 3
ENDMDL
MODEL      162
REMARK 921   NORMALIZED FREE ENERGY PREDICTED BY IDOCK:   -3.76 KCAL/MOL
REMARK 922        TOTAL FREE ENERGY PREDICTED BY IDOCK:   -4.81 KCAL/MOL
REMARK 923 INTER-LIGAND FREE ENERGY PREDICTED BY IDOCK:   -5.20 KCAL/MOL
REMARK 924 INTRA-LIGAND FREE ENERGY PREDICTED BY IDOCK:    0.39 KCAL/MOL
REMARK 927      BINDING AFFINITY PREDICTED BY RF-SCORE:    0.00 PKD
ROOT
HETATM    1  C   UNL     1     -12.121   8.801  72.657  1.00  0.00    -0.137 C  
HETATM    2  S   UNL     1     -10.509   8.505  71.880  1.00  0.00    -0.344 SA 
ENDROOT
BRANCH   2   3
HETATM    3  C   UNL     1     -10.686   9.533  70.435  1.00  0.00    -0.284 A  
HETATM    4  C   UNL     1      -9.739   9.503  69.411  1.00  0.00    -0.190 A  
HETATM    5  C   UNL     1      -9.897  10.316  68.285  1.00  0.00    -0.161 A  
HETATM    6  C   UNL     1     -11.005  11.168  68.165  1.00  0.00    -0.292 A  
HETATM    7  C   UNL     1     -11.812  10.354  70.304  1.00  0.00    -0.399 A  
HETATM    8  C   UNL     1     -11.978  11.163  69.171  1.00  0.00    -0.413 A  
BRANCH   6   9
HETATM    9  C   UNL     1     -11.116  11.972  66.919  1.00  0.00    -0.302 C  
HETATM   10  O   UNL     1     -11.624  13.089  66.993  1.00  0.00    -0.321 OA 
BRANCH   9  11
HETATM   11  C   UNL     1     -10.669  11.421  65.611  1.00  0.00    -0.242 C  
HETATM   12  C   UNL     1     -11.261  11.620  64.414  1.00  0.00    -0.291 C  
HETATM   13  C   UNL     1     -12.447  12.414  64.000  1.00  0.00    -0.554 C  
HETATM   14  N   UNL     1     -10.569  10.892  63.467  1.00  0.00    -0.549 N  
HETATM   15  H   UNL     1     -10.788  10.863  62.472  1.00  0.00     0.000 HD 
HETATM   16  C   UNL     1      -9.524  10.201  64.081  1.00  0.00    -0.293 C  
HETATM   17  N   UNL     1      -9.610  10.557  65.429  1.00  0.00    -0.217 NA 
HETATM   18  O   UNL     1      -8.720   9.450  63.564  1.00  0.00    -0.214 OA 
ENDBRANCH   9  11
ENDBRANCH   6   9
ENDBRANCH   2   3
TORSDOF 3
ENDMDL
MODEL      163
REMARK 921   NORMALIZED FREE ENERGY PREDICTED BY IDOCK:   -3.76 KCAL/MOL
REMARK 922        TOTAL FREE ENERGY PREDICTED BY IDOCK:   -4.81 KCAL/MOL
REMARK 923 INTER-LIGAND FREE ENERGY PREDICTED BY IDOCK:   -4.51 KCAL/MOL
REMARK 924 INTRA-LIGAND FREE ENERGY PREDICTED BY IDOCK:   -0.30 KCAL/MOL
REMARK 927      BINDING AFFINITY PREDICTED BY RF-SCORE:    0.00 PKD
ROOT
HETATM    1  C   UNL     1      -8.686   1.632  73.331  1.00  0.00    -0.061 C  
HETATM    2  S   UNL     1      -9.745   2.703  74.341  1.00  0.00    -0.102 SA 
ENDROOT
BRANCH   2   3
HETATM    3  C   UNL     1     -10.212   3.901  73.109  1.00  0.00    -0.156 A  
HETATM    4  C   UNL     1     -10.849   5.090  73.466  1.00  0.00    -0.369 A  
HETATM    5  C   UNL     1     -11.207   6.018  72.484  1.00  0.00    -0.333 A  
HETATM    6  C   UNL     1     -10.930   5.772  71.131  1.00  0.00    -0.295 A  
HETATM    7  C   UNL     1      -9.902   3.668  71.764  1.00  0.00    -0.235 A  
HETATM    8  C   UNL     1     -10.251   4.601  70.778  1.00  0.00    -0.214 A  
BRANCH   6   9
HETATM    9  C   UNL     1     -11.312   6.828  70.154  1.00  0.00    -0.350 C  
HETATM   10  O   UNL     1     -11.373   6.522  68.965  1.00  0.00    -0.302 OA 
BRANCH   9  11
HETATM   11  C   UNL     1     -11.563   8.225  70.597  1.00  0.00    -0.191 C  
HETATM   12  C   UNL     1     -10.694   9.255  70.532  1.00  0.00    -0.257 C  
HETATM   13  C   UNL     1      -9.305   9.365  70.013  1.00  0.00    -0.253 C  
HETATM   14  N   UNL     1     -11.296  10.362  71.096  1.00  0.00    -0.257 N  
HETATM   15  H   UNL     1     -10.873  11.287  71.172  1.00  0.00     0.000 HD 
HETATM   16  C   UNL     1     -12.572  10.021  71.545  1.00  0.00    -0.425 C  
HETATM   17  N   UNL     1     -12.713   8.672  71.214  1.00  0.00    -0.264 NA 
HETATM   18  O   UNL     1     -13.381  10.734  72.106  1.00  0.00    -0.442 OA 
ENDBRANCH   9  11
ENDBRANCH   6   9
ENDBRANCH   2   3
TORSDOF 3
ENDMDL
MODEL      164
REMARK 921   NORMALIZED FREE ENERGY PREDICTED BY IDOCK:   -3.75 KCAL/MOL
REMARK 922        TOTAL FREE ENERGY PREDICTED BY IDOCK:   -4.80 KCAL/MOL
REMARK 923 INTER-LIGAND FREE ENERGY PREDICTED BY IDOCK:   -4.36 KCAL/MOL
REMARK 924 INTRA-LIGAND FREE ENERGY PREDICTED BY IDOCK:   -0.43 KCAL/MOL
REMARK 927      BINDING AFFINITY PREDICTED BY RF-SCORE:    0.00 PKD
ROOT
HETATM    1  C   UNL     1     -10.493   3.946  64.516  1.00  0.00    -0.207 C  
HETATM    2  S   UNL     1      -9.097   3.696  65.645  1.00  0.00    -0.156 SA 
ENDROOT
BRANCH   2   3
HETATM    3  C   UNL     1      -9.730   4.532  67.085  1.00  0.00    -0.197 A  
HETATM    4  C   UNL     1     -10.602   5.614  66.964  1.00  0.00    -0.358 A  
HETATM    5  C   UNL     1     -11.089   6.257  68.105  1.00  0.00    -0.364 A  
HETATM    6  C   UNL     1     -10.713   5.824  69.386  1.00  0.00    -0.397 A  
HETATM    7  C   UNL     1      -9.381   4.074  68.361  1.00  0.00    -0.218 A  
HETATM    8  C   UNL     1      -9.875   4.709  69.508  1.00  0.00    -0.286 A  
BRANCH   6   9
HETATM    9  C   UNL     1     -11.305   6.539  70.548  1.00  0.00    -0.367 C  
HETATM   10  O   UNL     1     -12.528   6.648  70.600  1.00  0.00    -0.289 OA 
BRANCH   9  11
HETATM   11  C   UNL     1     -10.439   7.148  71.593  1.00  0.00    -0.198 C  
HETATM   12  C   UNL     1      -9.950   8.406  71.596  1.00  0.00    -0.234 C  
HETATM   13  C   UNL     1     -10.110   9.547  70.656  1.00  0.00    -0.353 C  
HETATM   14  N   UNL     1      -9.150   8.554  72.711  1.00  0.00    -0.216 N  
HETATM   15  H   UNL     1      -8.659   9.408  72.972  1.00  0.00     0.000 HD 
HETATM   16  C   UNL     1      -9.117   7.355  73.424  1.00  0.00    -0.187 C  
HETATM   17  N   UNL     1      -9.940   6.491  72.699  1.00  0.00    -0.170 NA 
HETATM   18  O   UNL     1      -8.504   7.111  74.444  1.00  0.00    -0.166 OA 
ENDBRANCH   9  11
ENDBRANCH   6   9
ENDBRANCH   2   3
TORSDOF 3
ENDMDL
MODEL      165
REMARK 921   NORMALIZED FREE ENERGY PREDICTED BY IDOCK:   -3.74 KCAL/MOL
REMARK 922        TOTAL FREE ENERGY PREDICTED BY IDOCK:   -4.78 KCAL/MOL
REMARK 923 INTER-LIGAND FREE ENERGY PREDICTED BY IDOCK:   -4.37 KCAL/MOL
REMARK 924 INTRA-LIGAND FREE ENERGY PREDICTED BY IDOCK:   -0.41 KCAL/MOL
REMARK 927      BINDING AFFINITY PREDICTED BY RF-SCORE:    0.00 PKD
ROOT
HETATM    1  C   UNL     1      -8.957   5.323  65.537  1.00  0.00    -0.155 C  
HETATM    2  S   UNL     1      -7.881   6.779  65.639  1.00  0.00    -0.112 SA 
ENDROOT
BRANCH   2   3
HETATM    3  C   UNL     1      -8.270   7.316  67.293  1.00  0.00    -0.115 A  
HETATM    4  C   UNL     1      -8.007   6.501  68.395  1.00  0.00    -0.110 A  
HETATM    5  C   UNL     1      -8.318   6.941  69.685  1.00  0.00    -0.133 A  
HETATM    6  C   UNL     1      -8.894   8.204  69.892  1.00  0.00    -0.139 A  
HETATM    7  C   UNL     1      -8.810   8.590  67.498  1.00  0.00    -0.139 A  
HETATM    8  C   UNL     1      -9.114   9.039  68.791  1.00  0.00    -0.137 A  
BRANCH   6   9
HETATM    9  C   UNL     1      -9.160   8.609  71.298  1.00  0.00    -0.212 C  
HETATM   10  O   UNL     1      -8.200   8.896  72.010  1.00  0.00    -0.362 OA 
BRANCH   9  11
HETATM   11  C   UNL     1     -10.544   8.621  71.842  1.00  0.00    -0.340 C  
HETATM   12  C   UNL     1     -11.089   7.701  72.666  1.00  0.00    -0.359 C  
HETATM   13  C   UNL     1     -10.543   6.471  73.298  1.00  0.00    -0.301 C  
HETATM   14  N   UNL     1     -12.406   8.049  72.888  1.00  0.00    -0.586 N  
HETATM   15  H   UNL     1     -13.057   7.538  73.483  1.00  0.00     0.000 HD 
HETATM   16  C   UNL     1     -12.709   9.208  72.173  1.00  0.00    -0.395 C  
HETATM   17  N   UNL     1     -11.517   9.546  71.528  1.00  0.00    -0.391 NA 
HETATM   18  O   UNL     1     -13.773   9.793  72.116  1.00  0.00    -0.385 OA 
ENDBRANCH   9  11
ENDBRANCH   6   9
ENDBRANCH   2   3
TORSDOF 3
ENDMDL
MODEL      166
REMARK 921   NORMALIZED FREE ENERGY PREDICTED BY IDOCK:   -3.73 KCAL/MOL
REMARK 922        TOTAL FREE ENERGY PREDICTED BY IDOCK:   -4.77 KCAL/MOL
REMARK 923 INTER-LIGAND FREE ENERGY PREDICTED BY IDOCK:   -4.45 KCAL/MOL
REMARK 924 INTRA-LIGAND FREE ENERGY PREDICTED BY IDOCK:   -0.32 KCAL/MOL
REMARK 927      BINDING AFFINITY PREDICTED BY RF-SCORE:    0.00 PKD
ROOT
HETATM    1  C   UNL     1      -5.949  20.176  66.025  1.00  0.00    -0.178 C  
HETATM    2  S   UNL     1      -6.789  20.747  67.528  1.00  0.00    -0.356 SA 
ENDROOT
BRANCH   2   3
HETATM    3  C   UNL     1      -7.648  19.250  67.971  1.00  0.00    -0.284 A  
HETATM    4  C   UNL     1      -6.980  18.026  68.021  1.00  0.00    -0.211 A  
HETATM    5  C   UNL     1      -7.671  16.863  68.372  1.00  0.00    -0.219 A  
HETATM    6  C   UNL     1      -9.039  16.908  68.682  1.00  0.00    -0.265 A  
HETATM    7  C   UNL     1      -9.003  19.306  68.314  1.00  0.00    -0.381 A  
HETATM    8  C   UNL     1      -9.697  18.143  68.676  1.00  0.00    -0.367 A  
BRANCH   6   9
HETATM    9  C   UNL     1      -9.690  15.631  69.081  1.00  0.00    -0.249 C  
HETATM   10  O   UNL     1     -10.281  15.594  70.158  1.00  0.00    -0.302 OA 
BRANCH   9  11
HETATM   11  C   UNL     1      -9.588  14.420  68.223  1.00  0.00    -0.211 C  
HETATM   12  C   UNL     1     -10.544  13.935  67.403  1.00  0.00    -0.267 C  
HETATM   13  C   UNL     1     -11.912  14.411  67.065  1.00  0.00    -0.424 C  
HETATM   14  N   UNL     1     -10.072  12.770  66.834  1.00  0.00    -0.229 N  
HETATM   15  H   UNL     1     -10.581  12.195  66.163  1.00  0.00     0.000 HD 
HETATM   16  C   UNL     1      -8.792  12.499  67.318  1.00  0.00    -0.195 C  
HETATM   17  N   UNL     1      -8.513  13.556  68.187  1.00  0.00    -0.165 NA 
HETATM   18  O   UNL     1      -8.079  11.552  67.052  1.00  0.00    -0.148 OA 
ENDBRANCH   9  11
ENDBRANCH   6   9
ENDBRANCH   2   3
TORSDOF 3
ENDMDL
MODEL      167
REMARK 921   NORMALIZED FREE ENERGY PREDICTED BY IDOCK:   -3.72 KCAL/MOL
REMARK 922        TOTAL FREE ENERGY PREDICTED BY IDOCK:   -4.77 KCAL/MOL
REMARK 923 INTER-LIGAND FREE ENERGY PREDICTED BY IDOCK:   -4.38 KCAL/MOL
REMARK 924 INTRA-LIGAND FREE ENERGY PREDICTED BY IDOCK:   -0.39 KCAL/MOL
REMARK 927      BINDING AFFINITY PREDICTED BY RF-SCORE:    0.00 PKD
ROOT
HETATM    1  C   UNL     1     -12.749  13.813  65.694  1.00  0.00    -0.478 C  
HETATM    2  S   UNL     1     -11.526  13.207  64.501  1.00  0.00    -0.373 SA 
ENDROOT
BRANCH   2   3
HETATM    3  C   UNL     1     -10.945  11.770  65.381  1.00  0.00    -0.297 A  
HETATM    4  C   UNL     1     -11.201  11.608  66.743  1.00  0.00    -0.371 A  
HETATM    5  C   UNL     1     -10.739  10.473  67.415  1.00  0.00    -0.334 A  
HETATM    6  C   UNL     1     -10.015   9.483  66.734  1.00  0.00    -0.297 A  
HETATM    7  C   UNL     1     -10.255  10.768  64.690  1.00  0.00    -0.419 A  
HETATM    8  C   UNL     1      -9.798   9.623  65.358  1.00  0.00    -0.322 A  
BRANCH   6   9
HETATM    9  C   UNL     1      -9.591   8.290  67.515  1.00  0.00    -0.154 C  
HETATM   10  O   UNL     1      -9.107   7.339  66.904  1.00  0.00    -0.130 OA 
BRANCH   9  11
HETATM   11  C   UNL     1      -9.791   8.229  68.988  1.00  0.00    -0.176 C  
HETATM   12  C   UNL     1      -8.872   8.516  69.934  1.00  0.00    -0.137 C  
HETATM   13  C   UNL     1      -7.463   8.984  69.855  1.00  0.00    -0.065 C  
HETATM   14  N   UNL     1      -9.440   8.281  71.170  1.00  0.00    -0.156 N  
HETATM   15  H   UNL     1      -8.976   8.424  72.066  1.00  0.00     0.000 HD 
HETATM   16  C   UNL     1     -10.745   7.817  71.003  1.00  0.00    -0.228 C  
HETATM   17  N   UNL     1     -10.939   7.799  69.620  1.00  0.00    -0.179 NA 
HETATM   18  O   UNL     1     -11.538   7.494  71.865  1.00  0.00    -0.259 OA 
ENDBRANCH   9  11
ENDBRANCH   6   9
ENDBRANCH   2   3
TORSDOF 3
ENDMDL
MODEL      168
REMARK 921   NORMALIZED FREE ENERGY PREDICTED BY IDOCK:   -3.69 KCAL/MOL
REMARK 922        TOTAL FREE ENERGY PREDICTED BY IDOCK:   -4.72 KCAL/MOL
REMARK 923 INTER-LIGAND FREE ENERGY PREDICTED BY IDOCK:   -4.35 KCAL/MOL
REMARK 924 INTRA-LIGAND FREE ENERGY PREDICTED BY IDOCK:   -0.37 KCAL/MOL
REMARK 927      BINDING AFFINITY PREDICTED BY RF-SCORE:    0.00 PKD
ROOT
HETATM    1  C   UNL     1     -10.641  17.307  68.377  1.00  0.00    -0.368 C  
HETATM    2  S   UNL     1      -9.742  17.239  66.804  1.00  0.00    -0.293 SA 
ENDROOT
BRANCH   2   3
HETATM    3  C   UNL     1      -9.876  15.495  66.465  1.00  0.00    -0.264 A  
HETATM    4  C   UNL     1     -10.914  14.992  65.680  1.00  0.00    -0.357 A  
HETATM    5  C   UNL     1     -11.001  13.621  65.424  1.00  0.00    -0.302 A  
HETATM    6  C   UNL     1     -10.049  12.732  65.947  1.00  0.00    -0.286 A  
HETATM    7  C   UNL     1      -8.904  14.617  66.959  1.00  0.00    -0.262 A  
HETATM    8  C   UNL     1      -8.983  13.242  66.696  1.00  0.00    -0.137 A  
BRANCH   6   9
HETATM    9  C   UNL     1     -10.195  11.294  65.597  1.00  0.00    -0.253 C  
HETATM   10  O   UNL     1     -10.415  11.002  64.423  1.00  0.00    -0.336 OA 
BRANCH   9  11
HETATM   11  C   UNL     1     -10.124  10.241  66.645  1.00  0.00    -0.223 C  
HETATM   12  C   UNL     1     -10.806  10.223  67.810  1.00  0.00    -0.292 C  
HETATM   13  C   UNL     1     -11.807  11.149  68.402  1.00  0.00    -0.302 C  
HETATM   14  N   UNL     1     -10.414   9.105  68.519  1.00  0.00    -0.238 N  
HETATM   15  H   UNL     1     -10.776   8.833  69.433  1.00  0.00     0.000 HD 
HETATM   16  C   UNL     1      -9.449   8.407  67.795  1.00  0.00    -0.149 C  
HETATM   17  N   UNL     1      -9.290   9.143  66.619  1.00  0.00    -0.165 NA 
HETATM   18  O   UNL     1      -8.867   7.388  68.114  1.00  0.00    -0.128 OA 
ENDBRANCH   9  11
ENDBRANCH   6   9
ENDBRANCH   2   3
TORSDOF 3
ENDMDL
MODEL      169
REMARK 921   NORMALIZED FREE ENERGY PREDICTED BY IDOCK:   -3.67 KCAL/MOL
REMARK 922        TOTAL FREE ENERGY PREDICTED BY IDOCK:   -4.71 KCAL/MOL
REMARK 923 INTER-LIGAND FREE ENERGY PREDICTED BY IDOCK:   -4.57 KCAL/MOL
REMARK 924 INTRA-LIGAND FREE ENERGY PREDICTED BY IDOCK:   -0.14 KCAL/MOL
REMARK 927      BINDING AFFINITY PREDICTED BY RF-SCORE:    0.00 PKD
ROOT
HETATM    1  C   UNL     1      -6.762  20.163  65.850  1.00  0.00    -0.250 C  
HETATM    2  S   UNL     1      -8.166  20.258  66.993  1.00  0.00    -0.294 SA 
ENDROOT
BRANCH   2   3
HETATM    3  C   UNL     1      -8.757  18.581  66.874  1.00  0.00    -0.286 A  
HETATM    4  C   UNL     1     -10.058  18.247  67.250  1.00  0.00    -0.366 A  
HETATM    5  C   UNL     1     -10.503  16.926  67.148  1.00  0.00    -0.296 A  
HETATM    6  C   UNL     1      -9.653  15.920  66.665  1.00  0.00    -0.265 A  
HETATM    7  C   UNL     1      -7.918  17.587  66.357  1.00  0.00    -0.320 A  
HETATM    8  C   UNL     1      -8.363  16.263  66.244  1.00  0.00    -0.343 A  
BRANCH   6   9
HETATM    9  C   UNL     1     -10.216  14.548  66.553  1.00  0.00    -0.279 C  
HETATM   10  O   UNL     1     -11.153  14.367  65.778  1.00  0.00    -0.303 OA 
BRANCH   9  11
HETATM   11  C   UNL     1      -9.694  13.436  67.392  1.00  0.00    -0.221 C  
HETATM   12  C   UNL     1     -10.429  12.538  68.081  1.00  0.00    -0.229 C  
HETATM   13  C   UNL     1     -11.895  12.333  68.216  1.00  0.00    -0.367 C  
HETATM   14  N   UNL     1      -9.564  11.713  68.771  1.00  0.00    -0.372 N  
HETATM   15  H   UNL     1      -9.843  10.935  69.367  1.00  0.00     0.000 HD 
HETATM   16  C   UNL     1      -8.248  12.108  68.527  1.00  0.00    -0.104 C  
HETATM   17  N   UNL     1      -8.362  13.191  67.653  1.00  0.00    -0.160 NA 
HETATM   18  O   UNL     1      -7.228  11.625  68.977  1.00  0.00    -0.110 OA 
ENDBRANCH   9  11
ENDBRANCH   6   9
ENDBRANCH   2   3
TORSDOF 3
ENDMDL
MODEL      170
REMARK 921   NORMALIZED FREE ENERGY PREDICTED BY IDOCK:   -3.66 KCAL/MOL
REMARK 922        TOTAL FREE ENERGY PREDICTED BY IDOCK:   -4.70 KCAL/MOL
REMARK 923 INTER-LIGAND FREE ENERGY PREDICTED BY IDOCK:   -4.45 KCAL/MOL
REMARK 924 INTRA-LIGAND FREE ENERGY PREDICTED BY IDOCK:   -0.25 KCAL/MOL
REMARK 927      BINDING AFFINITY PREDICTED BY RF-SCORE:    0.00 PKD
ROOT
HETATM    1  C   UNL     1      -6.409  11.066  68.959  1.00  0.00    -0.048 C  
HETATM    2  S   UNL     1      -5.959  12.172  70.324  1.00  0.00    -0.077 SA 
ENDROOT
BRANCH   2   3
HETATM    3  C   UNL     1      -6.403  13.736  69.593  1.00  0.00    -0.116 A  
HETATM    4  C   UNL     1      -5.931  14.937  70.122  1.00  0.00    -0.149 A  
HETATM    5  C   UNL     1      -6.289  16.153  69.533  1.00  0.00    -0.191 A  
HETATM    6  C   UNL     1      -7.123  16.185  68.405  1.00  0.00    -0.130 A  
HETATM    7  C   UNL     1      -7.205  13.761  68.446  1.00  0.00    -0.108 A  
HETATM    8  C   UNL     1      -7.558  14.978  67.847  1.00  0.00    -0.150 A  
BRANCH   6   9
HETATM    9  C   UNL     1      -7.426  17.518  67.818  1.00  0.00    -0.191 C  
HETATM   10  O   UNL     1      -6.597  18.415  67.959  1.00  0.00    -0.204 OA 
BRANCH   9  11
HETATM   11  C   UNL     1      -8.717  17.773  67.124  1.00  0.00    -0.245 C  
HETATM   12  C   UNL     1      -9.727  18.548  67.571  1.00  0.00    -0.300 C  
HETATM   13  C   UNL     1      -9.890  19.380  68.793  1.00  0.00    -0.530 C  
HETATM   14  N   UNL     1     -10.762  18.473  66.660  1.00  0.00    -0.313 N  
HETATM   15  H   UNL     1     -11.649  18.968  66.737  1.00  0.00     0.000 HD 
HETATM   16  C   UNL     1     -10.405  17.615  65.619  1.00  0.00    -0.111 C  
HETATM   17  N   UNL     1      -9.112  17.193  65.937  1.00  0.00    -0.531 NA 
HETATM   18  O   UNL     1     -11.071  17.298  64.653  1.00  0.00    -1.052 OA 
ENDBRANCH   9  11
ENDBRANCH   6   9
ENDBRANCH   2   3
TORSDOF 3
ENDMDL
MODEL      171
REMARK 921   NORMALIZED FREE ENERGY PREDICTED BY IDOCK:   -3.66 KCAL/MOL
REMARK 922        TOTAL FREE ENERGY PREDICTED BY IDOCK:   -4.69 KCAL/MOL
REMARK 923 INTER-LIGAND FREE ENERGY PREDICTED BY IDOCK:   -4.21 KCAL/MOL
REMARK 924 INTRA-LIGAND FREE ENERGY PREDICTED BY IDOCK:   -0.48 KCAL/MOL
REMARK 927      BINDING AFFINITY PREDICTED BY RF-SCORE:    0.00 PKD
ROOT
HETATM    1  C   UNL     1      -5.687  15.577  68.532  1.00  0.00    -0.100 C  
HETATM    2  S   UNL     1      -5.461  13.899  67.881  1.00  0.00    -0.046 SA 
ENDROOT
BRANCH   2   3
HETATM    3  C   UNL     1      -7.157  13.355  67.876  1.00  0.00    -0.137 A  
HETATM    4  C   UNL     1      -7.535  12.173  68.514  1.00  0.00    -0.117 A  
HETATM    5  C   UNL     1      -8.871  11.763  68.500  1.00  0.00    -0.122 A  
HETATM    6  C   UNL     1      -9.850  12.531  67.850  1.00  0.00    -0.207 A  
HETATM    7  C   UNL     1      -8.135  14.142  67.258  1.00  0.00    -0.188 A  
HETATM    8  C   UNL     1      -9.478  13.739  67.250  1.00  0.00    -0.236 A  
BRANCH   6   9
HETATM    9  C   UNL     1     -11.253  12.042  67.914  1.00  0.00    -0.264 C  
HETATM   10  O   UNL     1     -11.921  12.061  66.882  1.00  0.00    -0.612 OA 
BRANCH   9  11
HETATM   11  C   UNL     1     -11.848  11.589  69.200  1.00  0.00    -0.340 C  
HETATM   12  C   UNL     1     -12.210  12.375  70.236  1.00  0.00    -0.267 C  
HETATM   13  C   UNL     1     -12.178  13.848  70.438  1.00  0.00    -0.438 C  
HETATM   14  N   UNL     1     -12.665  11.561  71.254  1.00  0.00    -0.398 N  
HETATM   15  H   UNL     1     -13.014  11.886  72.155  1.00  0.00     0.000 HD 
HETATM   16  C   UNL     1     -12.573  10.226  70.861  1.00  0.00    -0.371 C  
HETATM   17  N   UNL     1     -12.059  10.275  69.563  1.00  0.00    -0.041 NA 
HETATM   18  O   UNL     1     -12.866   9.237  71.503  1.00  0.00    -0.323 OA 
ENDBRANCH   9  11
ENDBRANCH   6   9
ENDBRANCH   2   3
TORSDOF 3
ENDMDL
MODEL      172
REMARK 921   NORMALIZED FREE ENERGY PREDICTED BY IDOCK:   -3.64 KCAL/MOL
REMARK 922        TOTAL FREE ENERGY PREDICTED BY IDOCK:   -4.67 KCAL/MOL
REMARK 923 INTER-LIGAND FREE ENERGY PREDICTED BY IDOCK:   -4.21 KCAL/MOL
REMARK 924 INTRA-LIGAND FREE ENERGY PREDICTED BY IDOCK:   -0.46 KCAL/MOL
REMARK 927      BINDING AFFINITY PREDICTED BY RF-SCORE:    0.00 PKD
ROOT
HETATM    1  C   UNL     1      -8.791  15.282  66.961  1.00  0.00    -0.237 C  
HETATM    2  S   UNL     1     -10.013  14.513  65.865  1.00  0.00    -0.330 SA 
ENDROOT
BRANCH   2   3
HETATM    3  C   UNL     1     -10.195  12.941  66.686  1.00  0.00    -0.247 A  
HETATM    4  C   UNL     1     -11.056  11.964  66.186  1.00  0.00    -0.374 A  
HETATM    5  C   UNL     1     -11.184  10.737  66.843  1.00  0.00    -0.109 A  
HETATM    6  C   UNL     1     -10.451  10.469  68.009  1.00  0.00    -0.232 A  
HETATM    7  C   UNL     1      -9.435  12.665  67.828  1.00  0.00    -0.198 A  
HETATM    8  C   UNL     1      -9.554  11.432  68.484  1.00  0.00    -0.190 A  
BRANCH   6   9
HETATM    9  C   UNL     1     -10.619   9.126  68.626  1.00  0.00    -0.174 C  
HETATM   10  O   UNL     1     -10.644   8.146  67.884  1.00  0.00    -0.212 OA 
BRANCH   9  11
HETATM   11  C   UNL     1     -10.801   8.976  70.095  1.00  0.00    -0.237 C  
HETATM   12  C   UNL     1     -11.818   9.471  70.831  1.00  0.00    -0.309 C  
HETATM   13  C   UNL     1     -13.033  10.249  70.470  1.00  0.00    -0.251 C  
HETATM   14  N   UNL     1     -11.583   9.159  72.155  1.00  0.00    -0.296 N  
HETATM   15  H   UNL     1     -12.195   9.400  72.933  1.00  0.00     0.000 HD 
HETATM   16  C   UNL     1     -10.378   8.464  72.263  1.00  0.00    -0.333 C  
HETATM   17  N   UNL     1      -9.911   8.361  70.951  1.00  0.00    -0.185 NA 
HETATM   18  O   UNL     1      -9.846   8.045  73.272  1.00  0.00    -0.291 OA 
ENDBRANCH   9  11
ENDBRANCH   6   9
ENDBRANCH   2   3
TORSDOF 3
ENDMDL
MODEL      173
REMARK 921   NORMALIZED FREE ENERGY PREDICTED BY IDOCK:   -3.63 KCAL/MOL
REMARK 922        TOTAL FREE ENERGY PREDICTED BY IDOCK:   -4.66 KCAL/MOL
REMARK 923 INTER-LIGAND FREE ENERGY PREDICTED BY IDOCK:   -4.25 KCAL/MOL
REMARK 924 INTRA-LIGAND FREE ENERGY PREDICTED BY IDOCK:   -0.41 KCAL/MOL
REMARK 927      BINDING AFFINITY PREDICTED BY RF-SCORE:    0.00 PKD
ROOT
HETATM    1  C   UNL     1      -9.073   3.063  67.336  1.00  0.00    -0.178 C  
HETATM    2  S   UNL     1      -9.322   3.984  68.878  1.00  0.00    -0.167 SA 
ENDROOT
BRANCH   2   3
HETATM    3  C   UNL     1      -9.540   5.621  68.210  1.00  0.00    -0.121 A  
HETATM    4  C   UNL     1     -10.698   5.966  67.512  1.00  0.00    -0.359 A  
HETATM    5  C   UNL     1     -10.851   7.256  66.997  1.00  0.00    -0.350 A  
HETATM    6  C   UNL     1      -9.849   8.222  67.174  1.00  0.00    -0.281 A  
HETATM    7  C   UNL     1      -8.553   6.591  68.420  1.00  0.00    -0.119 A  
HETATM    8  C   UNL     1      -8.708   7.889  67.913  1.00  0.00    -0.124 A  
BRANCH   6   9
HETATM    9  C   UNL     1     -10.106   9.580  66.626  1.00  0.00    -0.252 C  
HETATM   10  O   UNL     1     -10.026   9.739  65.409  1.00  0.00    -0.320 OA 
BRANCH   9  11
HETATM   11  C   UNL     1     -10.404  10.725  67.527  1.00  0.00    -0.206 C  
HETATM   12  C   UNL     1      -9.578  11.753  67.817  1.00  0.00    -0.184 C  
HETATM   13  C   UNL     1      -8.207  12.098  67.357  1.00  0.00    -0.175 C  
HETATM   14  N   UNL     1     -10.211  12.568  68.733  1.00  0.00    -0.404 N  
HETATM   15  H   UNL     1      -9.823  13.427  69.122  1.00  0.00     0.000 HD 
HETATM   16  C   UNL     1     -11.462  12.035  69.045  1.00  0.00    -0.300 C  
HETATM   17  N   UNL     1     -11.556  10.879  68.269  1.00  0.00    -0.470 NA 
HETATM   18  O   UNL     1     -12.286  12.473  69.824  1.00  0.00    -0.234 OA 
ENDBRANCH   9  11
ENDBRANCH   6   9
ENDBRANCH   2   3
TORSDOF 3
ENDMDL
MODEL      174
REMARK 921   NORMALIZED FREE ENERGY PREDICTED BY IDOCK:   -3.62 KCAL/MOL
REMARK 922        TOTAL FREE ENERGY PREDICTED BY IDOCK:   -4.65 KCAL/MOL
REMARK 923 INTER-LIGAND FREE ENERGY PREDICTED BY IDOCK:   -4.24 KCAL/MOL
REMARK 924 INTRA-LIGAND FREE ENERGY PREDICTED BY IDOCK:   -0.41 KCAL/MOL
REMARK 927      BINDING AFFINITY PREDICTED BY RF-SCORE:    0.00 PKD
ROOT
HETATM    1  C   UNL     1      -8.538  17.203  67.958  1.00  0.00    -0.227 C  
HETATM    2  S   UNL     1      -8.398  16.211  66.447  1.00  0.00    -0.290 SA 
ENDROOT
BRANCH   2   3
HETATM    3  C   UNL     1      -9.226  14.730  66.990  1.00  0.00    -0.233 A  
HETATM    4  C   UNL     1     -10.595  14.554  66.782  1.00  0.00    -0.276 A  
HETATM    5  C   UNL     1     -11.226  13.384  67.214  1.00  0.00    -0.319 A  
HETATM    6  C   UNL     1     -10.498  12.372  67.857  1.00  0.00    -0.227 A  
HETATM    7  C   UNL     1      -8.489  13.708  67.598  1.00  0.00    -0.183 A  
HETATM    8  C   UNL     1      -9.117  12.529  68.024  1.00  0.00    -0.200 A  
BRANCH   6   9
HETATM    9  C   UNL     1     -11.239  11.145  68.253  1.00  0.00    -0.279 C  
HETATM   10  O   UNL     1     -12.395  11.269  68.653  1.00  0.00    -0.534 OA 
BRANCH   9  11
HETATM   11  C   UNL     1     -10.585   9.809  68.212  1.00  0.00    -0.229 C  
HETATM   12  C   UNL     1     -10.193   9.076  69.275  1.00  0.00    -0.205 C  
HETATM   13  C   UNL     1     -10.292   9.302  70.741  1.00  0.00    -0.348 C  
HETATM   14  N   UNL     1      -9.581   7.932  68.805  1.00  0.00    -0.150 N  
HETATM   15  H   UNL     1      -9.196   7.189  69.389  1.00  0.00     0.000 HD 
HETATM   16  C   UNL     1      -9.569   7.947  67.411  1.00  0.00    -0.152 C  
HETATM   17  N   UNL     1     -10.211   9.139  67.066  1.00  0.00    -0.247 NA 
HETATM   18  O   UNL     1      -9.100   7.116  66.659  1.00  0.00    -0.138 OA 
ENDBRANCH   9  11
ENDBRANCH   6   9
ENDBRANCH   2   3
TORSDOF 3
ENDMDL
MODEL      175
REMARK 921   NORMALIZED FREE ENERGY PREDICTED BY IDOCK:   -3.62 KCAL/MOL
REMARK 922        TOTAL FREE ENERGY PREDICTED BY IDOCK:   -4.64 KCAL/MOL
REMARK 923 INTER-LIGAND FREE ENERGY PREDICTED BY IDOCK:   -5.16 KCAL/MOL
REMARK 924 INTRA-LIGAND FREE ENERGY PREDICTED BY IDOCK:    0.52 KCAL/MOL
REMARK 927      BINDING AFFINITY PREDICTED BY RF-SCORE:    0.00 PKD
ROOT
HETATM    1  C   UNL     1     -11.474   7.106  72.097  1.00  0.00    -0.269 C  
HETATM    2  S   UNL     1      -9.949   7.213  71.122  1.00  0.00    -0.182 SA 
ENDROOT
BRANCH   2   3
HETATM    3  C   UNL     1     -10.416   8.505  69.987  1.00  0.00    -0.223 A  
HETATM    4  C   UNL     1     -11.326   9.495  70.360  1.00  0.00    -0.318 A  
HETATM    5  C   UNL     1     -11.678  10.502  69.456  1.00  0.00    -0.313 A  
HETATM    6  C   UNL     1     -11.123  10.535  68.168  1.00  0.00    -0.346 A  
HETATM    7  C   UNL     1      -9.832   8.555  68.717  1.00  0.00    -0.180 A  
HETATM    8  C   UNL     1     -10.175   9.569  67.812  1.00  0.00    -0.265 A  
BRANCH   6   9
HETATM    9  C   UNL     1     -11.524  11.660  67.282  1.00  0.00    -0.277 C  
HETATM   10  O   UNL     1     -11.651  11.434  66.080  1.00  0.00    -0.286 OA 
BRANCH   9  11
HETATM   11  C   UNL     1     -11.716  13.031  67.826  1.00  0.00    -0.359 C  
HETATM   12  C   UNL     1     -11.865  14.165  67.108  1.00  0.00    -0.423 C  
HETATM   13  C   UNL     1     -11.915  14.427  65.645  1.00  0.00    -0.356 C  
HETATM   14  N   UNL     1     -11.960  15.222  67.989  1.00  0.00    -0.452 N  
HETATM   15  H   UNL     1     -12.089  16.198  67.725  1.00  0.00     0.000 HD 
HETATM   16  C   UNL     1     -11.852  14.750  69.298  1.00  0.00    -0.318 C  
HETATM   17  N   UNL     1     -11.704  13.368  69.163  1.00  0.00    -0.306 NA 
HETATM   18  O   UNL     1     -11.874  15.395  70.328  1.00  0.00    -0.286 OA 
ENDBRANCH   9  11
ENDBRANCH   6   9
ENDBRANCH   2   3
TORSDOF 3
ENDMDL
MODEL      176
REMARK 921   NORMALIZED FREE ENERGY PREDICTED BY IDOCK:   -3.61 KCAL/MOL
REMARK 922        TOTAL FREE ENERGY PREDICTED BY IDOCK:   -4.63 KCAL/MOL
REMARK 923 INTER-LIGAND FREE ENERGY PREDICTED BY IDOCK:   -4.50 KCAL/MOL
REMARK 924 INTRA-LIGAND FREE ENERGY PREDICTED BY IDOCK:   -0.14 KCAL/MOL
REMARK 927      BINDING AFFINITY PREDICTED BY RF-SCORE:    0.00 PKD
ROOT
HETATM    1  C   UNL     1      -7.776   9.518  63.121  1.00  0.00    -0.125 C  
HETATM    2  S   UNL     1      -9.385  10.287  62.797  1.00  0.00    -0.301 SA 
ENDROOT
BRANCH   2   3
HETATM    3  C   UNL     1      -9.690  11.015  64.394  1.00  0.00    -0.280 A  
HETATM    4  C   UNL     1      -8.682  11.089  65.356  1.00  0.00    -0.122 A  
HETATM    5  C   UNL     1      -8.941  11.664  66.603  1.00  0.00    -0.189 A  
HETATM    6  C   UNL     1     -10.211  12.179  66.905  1.00  0.00    -0.228 A  
HETATM    7  C   UNL     1     -10.948  11.559  64.678  1.00  0.00    -0.353 A  
HETATM    8  C   UNL     1     -11.208  12.147  65.924  1.00  0.00    -0.384 A  
BRANCH   6   9
HETATM    9  C   UNL     1     -10.392  12.807  68.241  1.00  0.00    -0.243 C  
HETATM   10  O   UNL     1      -9.941  13.938  68.416  1.00  0.00    -0.225 OA 
BRANCH   9  11
HETATM   11  C   UNL     1     -11.056  12.070  69.349  1.00  0.00    -0.133 C  
HETATM   12  C   UNL     1     -10.857  10.778  69.685  1.00  0.00    -0.241 C  
HETATM   13  C   UNL     1      -9.961   9.725  69.137  1.00  0.00    -0.195 C  
HETATM   14  N   UNL     1     -11.705  10.470  70.729  1.00  0.00    -0.348 N  
HETATM   15  H   UNL     1     -11.762   9.563  71.192  1.00  0.00     0.000 HD 
HETATM   16  C   UNL     1     -12.473  11.589  71.053  1.00  0.00    -0.356 C  
HETATM   17  N   UNL     1     -12.039  12.581  70.171  1.00  0.00    -0.332 NA 
HETATM   18  O   UNL     1     -13.333  11.682  71.906  1.00  0.00    -0.445 OA 
ENDBRANCH   9  11
ENDBRANCH   6   9
ENDBRANCH   2   3
TORSDOF 3
ENDMDL
MODEL      177
REMARK 921   NORMALIZED FREE ENERGY PREDICTED BY IDOCK:   -3.61 KCAL/MOL
REMARK 922        TOTAL FREE ENERGY PREDICTED BY IDOCK:   -4.63 KCAL/MOL
REMARK 923 INTER-LIGAND FREE ENERGY PREDICTED BY IDOCK:   -4.19 KCAL/MOL
REMARK 924 INTRA-LIGAND FREE ENERGY PREDICTED BY IDOCK:   -0.44 KCAL/MOL
REMARK 927      BINDING AFFINITY PREDICTED BY RF-SCORE:    0.00 PKD
ROOT
HETATM    1  C   UNL     1     -10.531  16.539  65.399  1.00  0.00    -0.269 C  
HETATM    2  S   UNL     1     -11.561  15.452  64.376  1.00  0.00    -0.154 SA 
ENDROOT
BRANCH   2   3
HETATM    3  C   UNL     1     -11.133  13.879  65.095  1.00  0.00    -0.334 A  
HETATM    4  C   UNL     1     -11.753  12.702  64.674  1.00  0.00    -0.411 A  
HETATM    5  C   UNL     1     -11.402  11.478  65.250  1.00  0.00    -0.150 A  
HETATM    6  C   UNL     1     -10.423  11.412  66.252  1.00  0.00    -0.301 A  
HETATM    7  C   UNL     1     -10.130  13.813  66.069  1.00  0.00    -0.320 A  
HETATM    8  C   UNL     1      -9.768  12.586  66.641  1.00  0.00    -0.244 A  
BRANCH   6   9
HETATM    9  C   UNL     1     -10.083  10.066  66.785  1.00  0.00    -0.226 C  
HETATM   10  O   UNL     1     -10.154   9.105  66.022  1.00  0.00    -0.284 OA 
BRANCH   9  11
HETATM   11  C   UNL     1      -9.715   9.879  68.215  1.00  0.00    -0.144 C  
HETATM   12  C   UNL     1     -10.497  10.140  69.284  1.00  0.00    -0.225 C  
HETATM   13  C   UNL     1     -11.894  10.633  69.409  1.00  0.00    -0.325 C  
HETATM   14  N   UNL     1      -9.763   9.886  70.425  1.00  0.00    -0.379 N  
HETATM   15  H   UNL     1     -10.107   9.986  71.379  1.00  0.00     0.000 HD 
HETATM   16  C   UNL     1      -8.479   9.471  70.071  1.00  0.00    -0.195 C  
HETATM   17  N   UNL     1      -8.480   9.473  68.674  1.00  0.00    -0.117 NA 
HETATM   18  O   UNL     1      -7.559   9.179  70.810  1.00  0.00    -0.109 OA 
ENDBRANCH   9  11
ENDBRANCH   6   9
ENDBRANCH   2   3
TORSDOF 3
ENDMDL
MODEL      178
REMARK 921   NORMALIZED FREE ENERGY PREDICTED BY IDOCK:   -3.61 KCAL/MOL
REMARK 922        TOTAL FREE ENERGY PREDICTED BY IDOCK:   -4.63 KCAL/MOL
REMARK 923 INTER-LIGAND FREE ENERGY PREDICTED BY IDOCK:   -4.20 KCAL/MOL
REMARK 924 INTRA-LIGAND FREE ENERGY PREDICTED BY IDOCK:   -0.43 KCAL/MOL
REMARK 927      BINDING AFFINITY PREDICTED BY RF-SCORE:    0.00 PKD
ROOT
HETATM    1  C   UNL     1     -10.384  16.425  66.018  1.00  0.00    -0.352 C  
HETATM    2  S   UNL     1     -10.840  15.488  67.502  1.00  0.00    -0.304 SA 
ENDROOT
BRANCH   2   3
HETATM    3  C   UNL     1     -10.505  13.837  66.922  1.00  0.00    -0.272 A  
HETATM    4  C   UNL     1     -11.500  13.073  66.311  1.00  0.00    -0.379 A  
HETATM    5  C   UNL     1     -11.216  11.780  65.862  1.00  0.00    -0.345 A  
HETATM    6  C   UNL     1      -9.933  11.234  66.014  1.00  0.00    -0.273 A  
HETATM    7  C   UNL     1      -9.214  13.310  67.043  1.00  0.00    -0.237 A  
HETATM    8  C   UNL     1      -8.924  12.017  66.584  1.00  0.00    -0.204 A  
BRANCH   6   9
HETATM    9  C   UNL     1      -9.707   9.866  65.475  1.00  0.00    -0.302 C  
HETATM   10  O   UNL     1      -9.655   9.724  64.255  1.00  0.00    -0.236 OA 
BRANCH   9  11
HETATM   11  C   UNL     1      -9.595   8.694  66.385  1.00  0.00    -0.247 C  
HETATM   12  C   UNL     1      -8.454   8.168  66.878  1.00  0.00    -0.119 C  
HETATM   13  C   UNL     1      -7.025   8.551  66.728  1.00  0.00    -0.073 C  
HETATM   14  N   UNL     1      -8.782   7.060  67.632  1.00  0.00    -0.121 N  
HETATM   15  H   UNL     1      -8.117   6.472  68.133  1.00  0.00     0.000 HD 
HETATM   16  C   UNL     1     -10.164   6.869  67.605  1.00  0.00    -0.185 C  
HETATM   17  N   UNL     1     -10.648   7.915  66.815  1.00  0.00    -0.276 NA 
HETATM   18  O   UNL     1     -10.806   5.987  68.140  1.00  0.00    -0.275 OA 
ENDBRANCH   9  11
ENDBRANCH   6   9
ENDBRANCH   2   3
TORSDOF 3
ENDMDL
MODEL      179
REMARK 921   NORMALIZED FREE ENERGY PREDICTED BY IDOCK:   -3.59 KCAL/MOL
REMARK 922        TOTAL FREE ENERGY PREDICTED BY IDOCK:   -4.61 KCAL/MOL
REMARK 923 INTER-LIGAND FREE ENERGY PREDICTED BY IDOCK:   -4.22 KCAL/MOL
REMARK 924 INTRA-LIGAND FREE ENERGY PREDICTED BY IDOCK:   -0.39 KCAL/MOL
REMARK 927      BINDING AFFINITY PREDICTED BY RF-SCORE:    0.00 PKD
ROOT
HETATM    1  C   UNL     1     -10.123  10.041  65.977  1.00  0.00    -0.248 C  
HETATM    2  S   UNL     1      -9.032  10.379  67.385  1.00  0.00    -0.134 SA 
ENDROOT
BRANCH   2   3
HETATM    3  C   UNL     1      -9.537  12.047  67.755  1.00  0.00    -0.193 A  
HETATM    4  C   UNL     1      -8.616  12.996  68.201  1.00  0.00    -0.188 A  
HETATM    5  C   UNL     1      -9.032  14.300  68.485  1.00  0.00    -0.185 A  
HETATM    6  C   UNL     1     -10.374  14.675  68.323  1.00  0.00    -0.230 A  
HETATM    7  C   UNL     1     -10.869  12.427  67.558  1.00  0.00    -0.271 A  
HETATM    8  C   UNL     1     -11.288  13.736  67.831  1.00  0.00    -0.328 A  
BRANCH   6   9
HETATM    9  C   UNL     1     -10.726  16.092  68.612  1.00  0.00    -0.281 C  
HETATM   10  O   UNL     1     -11.387  16.331  69.620  1.00  0.00    -0.317 OA 
BRANCH   9  11
HETATM   11  C   UNL     1     -10.330  17.183  67.681  1.00  0.00    -0.344 C  
HETATM   12  C   UNL     1      -9.156  17.849  67.680  1.00  0.00    -0.250 C  
HETATM   13  C   UNL     1      -7.930  17.723  68.513  1.00  0.00    -0.294 C  
HETATM   14  N   UNL     1      -9.212  18.817  66.698  1.00  0.00    -0.319 N  
HETATM   15  H   UNL     1      -8.458  19.463  66.466  1.00  0.00     0.000 HD 
HETATM   16  C   UNL     1     -10.458  18.776  66.073  1.00  0.00    -0.432 C  
HETATM   17  N   UNL     1     -11.138  17.736  66.710  1.00  0.00     0.202 NA 
HETATM   18  O   UNL     1     -10.868  19.489  65.178  1.00  0.00    -0.409 OA 
ENDBRANCH   9  11
ENDBRANCH   6   9
ENDBRANCH   2   3
TORSDOF 3
ENDMDL
MODEL      180
REMARK 921   NORMALIZED FREE ENERGY PREDICTED BY IDOCK:   -3.59 KCAL/MOL
REMARK 922        TOTAL FREE ENERGY PREDICTED BY IDOCK:   -4.61 KCAL/MOL
REMARK 923 INTER-LIGAND FREE ENERGY PREDICTED BY IDOCK:   -4.43 KCAL/MOL
REMARK 924 INTRA-LIGAND FREE ENERGY PREDICTED BY IDOCK:   -0.18 KCAL/MOL
REMARK 927      BINDING AFFINITY PREDICTED BY RF-SCORE:    0.00 PKD
ROOT
HETATM    1  C   UNL     1      -9.418   4.155  66.580  1.00  0.00    -0.191 C  
HETATM    2  S   UNL     1      -8.298   4.987  67.738  1.00  0.00    -0.104 SA 
ENDROOT
BRANCH   2   3
HETATM    3  C   UNL     1      -9.033   6.610  67.743  1.00  0.00    -0.112 A  
HETATM    4  C   UNL     1      -8.457   7.659  68.461  1.00  0.00    -0.129 A  
HETATM    5  C   UNL     1      -9.048   8.925  68.451  1.00  0.00    -0.137 A  
HETATM    6  C   UNL     1     -10.222   9.162  67.720  1.00  0.00    -0.278 A  
HETATM    7  C   UNL     1     -10.183   6.851  66.983  1.00  0.00    -0.317 A  
HETATM    8  C   UNL     1     -10.773   8.122  66.963  1.00  0.00    -0.247 A  
BRANCH   6   9
HETATM    9  C   UNL     1     -10.766  10.547  67.734  1.00  0.00    -0.272 C  
HETATM   10  O   UNL     1     -10.606  11.242  66.733  1.00  0.00    -0.237 OA 
BRANCH   9  11
HETATM   11  C   UNL     1     -11.440  11.092  68.943  1.00  0.00    -0.296 C  
HETATM   12  C   UNL     1     -11.418  12.375  69.363  1.00  0.00    -0.271 C  
HETATM   13  C   UNL     1     -10.793  13.603  68.804  1.00  0.00    -0.279 C  
HETATM   14  N   UNL     1     -12.118  12.450  70.550  1.00  0.00    -0.484 N  
HETATM   15  H   UNL     1     -12.272  13.302  71.088  1.00  0.00     0.000 HD 
HETATM   16  C   UNL     1     -12.581  11.182  70.900  1.00  0.00    -0.386 C  
HETATM   17  N   UNL     1     -12.142  10.349  69.868  1.00  0.00    -0.222 NA 
HETATM   18  O   UNL     1     -13.218  10.865  71.885  1.00  0.00    -0.467 OA 
ENDBRANCH   9  11
ENDBRANCH   6   9
ENDBRANCH   2   3
TORSDOF 3
ENDMDL
MODEL      181
REMARK 921   NORMALIZED FREE ENERGY PREDICTED BY IDOCK:   -3.57 KCAL/MOL
REMARK 922        TOTAL FREE ENERGY PREDICTED BY IDOCK:   -4.59 KCAL/MOL
REMARK 923 INTER-LIGAND FREE ENERGY PREDICTED BY IDOCK:   -4.14 KCAL/MOL
REMARK 924 INTRA-LIGAND FREE ENERGY PREDICTED BY IDOCK:   -0.46 KCAL/MOL
REMARK 927      BINDING AFFINITY PREDICTED BY RF-SCORE:    0.00 PKD
ROOT
HETATM    1  C   UNL     1      -7.455   8.886  64.647  1.00  0.00    -0.104 C  
HETATM    2  S   UNL     1      -7.575   8.788  66.453  1.00  0.00    -0.092 SA 
ENDROOT
BRANCH   2   3
HETATM    3  C   UNL     1      -8.693  10.145  66.747  1.00  0.00    -0.125 A  
HETATM    4  C   UNL     1      -9.339  10.786  65.690  1.00  0.00    -0.241 A  
HETATM    5  C   UNL     1     -10.214  11.847  65.941  1.00  0.00    -0.270 A  
HETATM    6  C   UNL     1     -10.457  12.280  67.253  1.00  0.00    -0.236 A  
HETATM    7  C   UNL     1      -8.960  10.549  68.060  1.00  0.00    -0.135 A  
HETATM    8  C   UNL     1      -9.844  11.607  68.316  1.00  0.00    -0.199 A  
BRANCH   6   9
HETATM    9  C   UNL     1     -11.428  13.392  67.436  1.00  0.00    -0.333 C  
HETATM   10  O   UNL     1     -12.405  13.436  66.690  1.00  0.00    -0.361 OA 
BRANCH   9  11
HETATM   11  C   UNL     1     -11.200  14.448  68.458  1.00  0.00    -0.265 C  
HETATM   12  C   UNL     1     -10.406  15.532  68.327  1.00  0.00    -0.235 C  
HETATM   13  C   UNL     1      -9.573  16.035  67.204  1.00  0.00    -0.224 C  
HETATM   14  N   UNL     1     -10.428  16.226  69.520  1.00  0.00    -0.285 N  
HETATM   15  H   UNL     1      -9.926  17.095  69.703  1.00  0.00     0.000 HD 
HETATM   16  C   UNL     1     -11.240  15.558  70.435  1.00  0.00    -0.337 C  
HETATM   17  N   UNL     1     -11.715  14.445  69.737  1.00  0.00    -0.287 NA 
HETATM   18  O   UNL     1     -11.479  15.867  71.586  1.00  0.00    -0.407 OA 
ENDBRANCH   9  11
ENDBRANCH   6   9
ENDBRANCH   2   3
TORSDOF 3
ENDMDL
MODEL      182
REMARK 921   NORMALIZED FREE ENERGY PREDICTED BY IDOCK:   -3.55 KCAL/MOL
REMARK 922        TOTAL FREE ENERGY PREDICTED BY IDOCK:   -4.56 KCAL/MOL
REMARK 923 INTER-LIGAND FREE ENERGY PREDICTED BY IDOCK:   -4.18 KCAL/MOL
REMARK 924 INTRA-LIGAND FREE ENERGY PREDICTED BY IDOCK:   -0.38 KCAL/MOL
REMARK 927      BINDING AFFINITY PREDICTED BY RF-SCORE:    0.00 PKD
ROOT
HETATM    1  C   UNL     1     -11.035   3.038  73.460  1.00  0.00    -0.225 C  
HETATM    2  S   UNL     1     -10.669   4.814  73.483  1.00  0.00    -0.301 SA 
ENDROOT
BRANCH   2   3
HETATM    3  C   UNL     1     -10.601   5.123  71.729  1.00  0.00    -0.168 A  
HETATM    4  C   UNL     1      -9.767   4.373  70.899  1.00  0.00    -0.267 A  
HETATM    5  C   UNL     1      -9.729   4.630  69.525  1.00  0.00    -0.278 A  
HETATM    6  C   UNL     1     -10.526   5.638  68.962  1.00  0.00    -0.321 A  
HETATM    7  C   UNL     1     -11.425   6.104  71.167  1.00  0.00    -0.314 A  
HETATM    8  C   UNL     1     -11.397   6.357  69.789  1.00  0.00    -0.494 A  
BRANCH   6   9
HETATM    9  C   UNL     1     -10.453   5.821  67.488  1.00  0.00    -0.245 C  
HETATM   10  O   UNL     1     -10.737   4.865  66.770  1.00  0.00    -0.187 OA 
BRANCH   9  11
HETATM   11  C   UNL     1     -10.000   7.110  66.899  1.00  0.00    -0.224 C  
HETATM   12  C   UNL     1      -8.775   7.377  66.400  1.00  0.00    -0.142 C  
HETATM   13  C   UNL     1      -7.552   6.545  66.243  1.00  0.00    -0.090 C  
HETATM   14  N   UNL     1      -8.750   8.700  66.006  1.00  0.00    -0.159 N  
HETATM   15  H   UNL     1      -7.952   9.172  65.582  1.00  0.00     0.000 HD 
HETATM   16  C   UNL     1      -9.983   9.291  66.278  1.00  0.00    -0.286 C  
HETATM   17  N   UNL     1     -10.750   8.266  66.836  1.00  0.00    -0.236 NA 
HETATM   18  O   UNL     1     -10.318  10.443  66.082  1.00  0.00    -0.242 OA 
ENDBRANCH   9  11
ENDBRANCH   6   9
ENDBRANCH   2   3
TORSDOF 3
ENDMDL
MODEL      183
REMARK 921   NORMALIZED FREE ENERGY PREDICTED BY IDOCK:   -3.54 KCAL/MOL
REMARK 922        TOTAL FREE ENERGY PREDICTED BY IDOCK:   -4.55 KCAL/MOL
REMARK 923 INTER-LIGAND FREE ENERGY PREDICTED BY IDOCK:   -4.26 KCAL/MOL
REMARK 924 INTRA-LIGAND FREE ENERGY PREDICTED BY IDOCK:   -0.29 KCAL/MOL
REMARK 927      BINDING AFFINITY PREDICTED BY RF-SCORE:    0.00 PKD
ROOT
HETATM    1  C   UNL     1      -7.315   9.758  64.780  1.00  0.00    -0.130 C  
HETATM    2  S   UNL     1      -7.047  10.462  66.429  1.00  0.00    -0.125 SA 
ENDROOT
BRANCH   2   3
HETATM    3  C   UNL     1      -8.180   9.456  67.366  1.00  0.00    -0.121 A  
HETATM    4  C   UNL     1      -7.986   9.231  68.729  1.00  0.00    -0.099 A  
HETATM    5  C   UNL     1      -8.887   8.439  69.446  1.00  0.00    -0.142 A  
HETATM    6  C   UNL     1      -9.998   7.864  68.812  1.00  0.00    -0.194 A  
HETATM    7  C   UNL     1      -9.307   8.914  66.736  1.00  0.00    -0.224 A  
HETATM    8  C   UNL     1     -10.218   8.128  67.455  1.00  0.00    -0.309 A  
BRANCH   6   9
HETATM    9  C   UNL     1     -10.927   7.066  69.655  1.00  0.00    -0.236 C  
HETATM   10  O   UNL     1     -11.127   5.892  69.347  1.00  0.00    -0.363 OA 
BRANCH   9  11
HETATM   11  C   UNL     1     -11.633   7.683  70.810  1.00  0.00    -0.265 C  
HETATM   12  C   UNL     1     -11.796   7.137  72.034  1.00  0.00    -0.295 C  
HETATM   13  C   UNL     1     -11.345   5.851  72.628  1.00  0.00    -0.337 C  
HETATM   14  N   UNL     1     -12.553   8.005  72.794  1.00  0.00    -0.583 N  
HETATM   15  H   UNL     1     -12.823   7.854  73.766  1.00  0.00     0.000 HD 
HETATM   16  C   UNL     1     -12.892   9.121  72.029  1.00  0.00    -0.408 C  
HETATM   17  N   UNL     1     -12.296   8.892  70.787  1.00  0.00    -0.086 NA 
HETATM   18  O   UNL     1     -13.563  10.079  72.362  1.00  0.00    -0.341 OA 
ENDBRANCH   9  11
ENDBRANCH   6   9
ENDBRANCH   2   3
TORSDOF 3
ENDMDL
MODEL      184
REMARK 921   NORMALIZED FREE ENERGY PREDICTED BY IDOCK:   -3.53 KCAL/MOL
REMARK 922        TOTAL FREE ENERGY PREDICTED BY IDOCK:   -4.54 KCAL/MOL
REMARK 923 INTER-LIGAND FREE ENERGY PREDICTED BY IDOCK:   -4.19 KCAL/MOL
REMARK 924 INTRA-LIGAND FREE ENERGY PREDICTED BY IDOCK:   -0.35 KCAL/MOL
REMARK 927      BINDING AFFINITY PREDICTED BY RF-SCORE:    0.00 PKD
ROOT
HETATM    1  C   UNL     1      -7.451  10.456  68.490  1.00  0.00    -0.089 C  
HETATM    2  S   UNL     1      -8.992  11.222  67.918  1.00  0.00    -0.151 SA 
ENDROOT
BRANCH   2   3
HETATM    3  C   UNL     1      -8.388  12.856  67.548  1.00  0.00    -0.183 A  
HETATM    4  C   UNL     1      -7.088  13.237  67.884  1.00  0.00    -0.133 A  
HETATM    5  C   UNL     1      -6.632  14.523  67.584  1.00  0.00    -0.174 A  
HETATM    6  C   UNL     1      -7.468  15.448  66.940  1.00  0.00    -0.054 A  
HETATM    7  C   UNL     1      -9.213  13.763  66.873  1.00  0.00    -0.263 A  
HETATM    8  C   UNL     1      -8.756  15.051  66.561  1.00  0.00    -0.244 A  
BRANCH   6   9
HETATM    9  C   UNL     1      -6.893  16.783  66.624  1.00  0.00    -0.220 C  
HETATM   10  O   UNL     1      -5.737  16.833  66.211  1.00  0.00    -0.283 OA 
BRANCH   9  11
HETATM   11  C   UNL     1      -7.678  18.026  66.849  1.00  0.00    -0.223 C  
HETATM   12  C   UNL     1      -7.562  18.869  67.897  1.00  0.00    -0.259 C  
HETATM   13  C   UNL     1      -6.666  18.877  69.084  1.00  0.00    -0.326 C  
HETATM   14  N   UNL     1      -8.507  19.865  67.755  1.00  0.00    -0.312 N  
HETATM   15  H   UNL     1      -8.639  20.645  68.397  1.00  0.00     0.000 HD 
HETATM   16  C   UNL     1      -9.253  19.638  66.598  1.00  0.00    -0.364 C  
HETATM   17  N   UNL     1      -8.706  18.477  66.048  1.00  0.00    -0.497 NA 
HETATM   18  O   UNL     1     -10.178  20.298  66.166  1.00  0.00    -0.418 OA 
ENDBRANCH   9  11
ENDBRANCH   6   9
ENDBRANCH   2   3
TORSDOF 3
ENDMDL
MODEL      185
REMARK 921   NORMALIZED FREE ENERGY PREDICTED BY IDOCK:   -3.50 KCAL/MOL
REMARK 922        TOTAL FREE ENERGY PREDICTED BY IDOCK:   -4.51 KCAL/MOL
REMARK 923 INTER-LIGAND FREE ENERGY PREDICTED BY IDOCK:   -4.39 KCAL/MOL
REMARK 924 INTRA-LIGAND FREE ENERGY PREDICTED BY IDOCK:   -0.12 KCAL/MOL
REMARK 927      BINDING AFFINITY PREDICTED BY RF-SCORE:    0.00 PKD
ROOT
HETATM    1  C   UNL     1      -9.907   6.028  70.790  1.00  0.00    -0.181 C  
HETATM    2  S   UNL     1      -9.997   5.277  69.141  1.00  0.00    -0.214 SA 
ENDROOT
BRANCH   2   3
HETATM    3  C   UNL     1     -10.009   6.755  68.146  1.00  0.00    -0.149 A  
HETATM    4  C   UNL     1      -9.473   6.760  66.858  1.00  0.00    -0.189 A  
HETATM    5  C   UNL     1      -9.493   7.929  66.092  1.00  0.00    -0.158 A  
HETATM    6  C   UNL     1     -10.052   9.110  66.603  1.00  0.00    -0.343 A  
HETATM    7  C   UNL     1     -10.600   7.921  68.646  1.00  0.00    -0.145 A  
HETATM    8  C   UNL     1     -10.631   9.093  67.877  1.00  0.00    -0.272 A  
BRANCH   6   9
HETATM    9  C   UNL     1     -10.066  10.299  65.709  1.00  0.00    -0.255 C  
HETATM   10  O   UNL     1      -9.588  10.183  64.583  1.00  0.00    -0.278 OA 
BRANCH   9  11
HETATM   11  C   UNL     1     -10.598  11.605  66.183  1.00  0.00    -0.262 C  
HETATM   12  C   UNL     1     -11.495  12.385  65.542  1.00  0.00    -0.361 C  
HETATM   13  C   UNL     1     -12.234  12.221  64.262  1.00  0.00    -0.514 C  
HETATM   14  N   UNL     1     -11.678  13.531  66.288  1.00  0.00    -0.349 N  
HETATM   15  H   UNL     1     -12.310  14.294  66.048  1.00  0.00     0.000 HD 
HETATM   16  C   UNL     1     -10.864  13.486  67.421  1.00  0.00    -0.269 C  
HETATM   17  N   UNL     1     -10.200  12.261  67.329  1.00  0.00    -0.210 NA 
HETATM   18  O   UNL     1     -10.750  14.326  68.292  1.00  0.00    -0.237 OA 
ENDBRANCH   9  11
ENDBRANCH   6   9
ENDBRANCH   2   3
TORSDOF 3
ENDMDL
MODEL      186
REMARK 921   NORMALIZED FREE ENERGY PREDICTED BY IDOCK:   -3.50 KCAL/MOL
REMARK 922        TOTAL FREE ENERGY PREDICTED BY IDOCK:   -4.50 KCAL/MOL
REMARK 923 INTER-LIGAND FREE ENERGY PREDICTED BY IDOCK:   -4.21 KCAL/MOL
REMARK 924 INTRA-LIGAND FREE ENERGY PREDICTED BY IDOCK:   -0.30 KCAL/MOL
REMARK 927      BINDING AFFINITY PREDICTED BY RF-SCORE:    0.00 PKD
ROOT
HETATM    1  C   UNL     1      -7.117  13.369  69.010  1.00  0.00    -0.053 C  
HETATM    2  S   UNL     1      -8.329  13.122  67.685  1.00  0.00    -0.188 SA 
ENDROOT
BRANCH   2   3
HETATM    3  C   UNL     1      -9.003  11.552  68.192  1.00  0.00    -0.172 A  
HETATM    4  C   UNL     1     -10.292  11.167  67.820  1.00  0.00    -0.215 A  
HETATM    5  C   UNL     1     -10.801   9.931  68.226  1.00  0.00    -0.275 A  
HETATM    6  C   UNL     1     -10.029   9.060  69.009  1.00  0.00    -0.191 A  
HETATM    7  C   UNL     1      -8.216  10.671  68.942  1.00  0.00    -0.145 A  
HETATM    8  C   UNL     1      -8.720   9.426  69.343  1.00  0.00    -0.157 A  
BRANCH   6   9
HETATM    9  C   UNL     1     -10.633   7.749  69.368  1.00  0.00    -0.208 C  
HETATM   10  O   UNL     1     -10.841   6.940  68.466  1.00  0.00    -0.215 OA 
BRANCH   9  11
HETATM   11  C   UNL     1     -11.020   7.444  70.772  1.00  0.00    -0.255 C  
HETATM   12  C   UNL     1     -11.700   8.255  71.610  1.00  0.00    -0.292 C  
HETATM   13  C   UNL     1     -12.283   9.612  71.440  1.00  0.00    -0.471 C  
HETATM   14  N   UNL     1     -11.803   7.621  72.831  1.00  0.00    -0.607 N  
HETATM   15  H   UNL     1     -12.278   7.998  73.651  1.00  0.00     0.000 HD 
HETATM   16  C   UNL     1     -11.159   6.385  72.772  1.00  0.00    -0.248 C  
HETATM   17  N   UNL     1     -10.680   6.300  71.463  1.00  0.00    -0.237 NA 
HETATM   18  O   UNL     1     -11.034   5.565  73.660  1.00  0.00    -0.279 OA 
ENDBRANCH   9  11
ENDBRANCH   6   9
ENDBRANCH   2   3
TORSDOF 3
ENDMDL
MODEL      187
REMARK 921   NORMALIZED FREE ENERGY PREDICTED BY IDOCK:   -3.50 KCAL/MOL
REMARK 922        TOTAL FREE ENERGY PREDICTED BY IDOCK:   -4.50 KCAL/MOL
REMARK 923 INTER-LIGAND FREE ENERGY PREDICTED BY IDOCK:   -4.03 KCAL/MOL
REMARK 924 INTRA-LIGAND FREE ENERGY PREDICTED BY IDOCK:   -0.47 KCAL/MOL
REMARK 927      BINDING AFFINITY PREDICTED BY RF-SCORE:    0.00 PKD
ROOT
HETATM    1  C   UNL     1     -12.414  14.122  65.737  1.00  0.00    -0.466 C  
HETATM    2  S   UNL     1     -11.476  13.241  64.459  1.00  0.00    -0.385 SA 
ENDROOT
BRANCH   2   3
HETATM    3  C   UNL     1     -10.617  12.064  65.486  1.00  0.00    -0.273 A  
HETATM    4  C   UNL     1     -10.464  10.736  65.084  1.00  0.00    -0.299 A  
HETATM    5  C   UNL     1      -9.786   9.828  65.903  1.00  0.00    -0.352 A  
HETATM    6  C   UNL     1      -9.249  10.236  67.133  1.00  0.00    -0.163 A  
HETATM    7  C   UNL     1     -10.052  12.483  66.695  1.00  0.00    -0.241 A  
HETATM    8  C   UNL     1      -9.362  11.578  67.513  1.00  0.00    -0.166 A  
BRANCH   6   9
HETATM    9  C   UNL     1      -8.511   9.216  67.926  1.00  0.00    -0.117 C  
HETATM   10  O   UNL     1      -7.493   8.728  67.439  1.00  0.00    -0.087 OA 
BRANCH   9  11
HETATM   11  C   UNL     1      -9.017   8.763  69.249  1.00  0.00    -0.144 C  
HETATM   12  C   UNL     1      -9.966   7.828  69.467  1.00  0.00    -0.187 C  
HETATM   13  C   UNL     1     -10.757   6.967  68.548  1.00  0.00    -0.219 C  
HETATM   14  N   UNL     1     -10.183   7.745  70.828  1.00  0.00    -0.197 N  
HETATM   15  H   UNL     1     -10.841   7.111  71.281  1.00  0.00     0.000 HD 
HETATM   16  C   UNL     1      -9.364   8.662  71.488  1.00  0.00    -0.249 C  
HETATM   17  N   UNL     1      -8.640   9.284  70.469  1.00  0.00    -0.218 NA 
HETATM   18  O   UNL     1      -9.298   8.878  72.682  1.00  0.00    -0.266 OA 
ENDBRANCH   9  11
ENDBRANCH   6   9
ENDBRANCH   2   3
TORSDOF 3
ENDMDL
MODEL      188
REMARK 921   NORMALIZED FREE ENERGY PREDICTED BY IDOCK:   -3.47 KCAL/MOL
REMARK 922        TOTAL FREE ENERGY PREDICTED BY IDOCK:   -4.46 KCAL/MOL
REMARK 923 INTER-LIGAND FREE ENERGY PREDICTED BY IDOCK:   -4.03 KCAL/MOL
REMARK 924 INTRA-LIGAND FREE ENERGY PREDICTED BY IDOCK:   -0.44 KCAL/MOL
REMARK 927      BINDING AFFINITY PREDICTED BY RF-SCORE:    0.00 PKD
ROOT
HETATM    1  C   UNL     1      -9.186  15.324  66.727  1.00  0.00    -0.250 C  
HETATM    2  S   UNL     1     -10.249  14.449  65.548  1.00  0.00    -0.373 SA 
ENDROOT
BRANCH   2   3
HETATM    3  C   UNL     1     -10.293  12.846  66.326  1.00  0.00    -0.268 A  
HETATM    4  C   UNL     1     -10.244  12.719  67.715  1.00  0.00    -0.223 A  
HETATM    5  C   UNL     1     -10.281  11.453  68.306  1.00  0.00    -0.204 A  
HETATM    6  C   UNL     1     -10.371  10.296  67.518  1.00  0.00    -0.276 A  
HETATM    7  C   UNL     1     -10.419  11.698  65.537  1.00  0.00    -0.321 A  
HETATM    8  C   UNL     1     -10.467  10.427  66.127  1.00  0.00    -0.224 A  
BRANCH   6   9
HETATM    9  C   UNL     1     -10.441   8.991  68.227  1.00  0.00    -0.200 C  
HETATM   10  O   UNL     1     -10.770   8.993  69.412  1.00  0.00    -0.229 OA 
BRANCH   9  11
HETATM   11  C   UNL     1     -10.077   7.724  67.538  1.00  0.00    -0.209 C  
HETATM   12  C   UNL     1      -8.841   7.355  67.140  1.00  0.00    -0.125 C  
HETATM   13  C   UNL     1      -7.511   8.008  67.263  1.00  0.00    -0.093 C  
HETATM   14  N   UNL     1      -8.943   6.141  66.492  1.00  0.00    -0.134 N  
HETATM   15  H   UNL     1      -8.162   5.619  66.096  1.00  0.00     0.000 HD 
HETATM   16  C   UNL     1     -10.278   5.738  66.464  1.00  0.00    -0.189 C  
HETATM   17  N   UNL     1     -10.967   6.752  67.132  1.00  0.00    -0.390 NA 
HETATM   18  O   UNL     1     -10.744   4.733  65.964  1.00  0.00    -0.319 OA 
ENDBRANCH   9  11
ENDBRANCH   6   9
ENDBRANCH   2   3
TORSDOF 3
ENDMDL
MODEL      189
REMARK 921   NORMALIZED FREE ENERGY PREDICTED BY IDOCK:   -3.46 KCAL/MOL
REMARK 922        TOTAL FREE ENERGY PREDICTED BY IDOCK:   -4.46 KCAL/MOL
REMARK 923 INTER-LIGAND FREE ENERGY PREDICTED BY IDOCK:   -4.00 KCAL/MOL
REMARK 924 INTRA-LIGAND FREE ENERGY PREDICTED BY IDOCK:   -0.46 KCAL/MOL
REMARK 927      BINDING AFFINITY PREDICTED BY RF-SCORE:    0.00 PKD
ROOT
HETATM    1  C   UNL     1     -11.984  14.511  71.382  1.00  0.00    -0.315 C  
HETATM    2  S   UNL     1     -11.536  15.706  70.094  1.00  0.00    -0.384 SA 
ENDROOT
BRANCH   2   3
HETATM    3  C   UNL     1     -11.048  14.578  68.804  1.00  0.00    -0.251 A  
HETATM    4  C   UNL     1      -9.701  14.364  68.507  1.00  0.00    -0.225 A  
HETATM    5  C   UNL     1      -9.338  13.475  67.492  1.00  0.00    -0.220 A  
HETATM    6  C   UNL     1     -10.315  12.783  66.761  1.00  0.00    -0.248 A  
HETATM    7  C   UNL     1     -12.025  13.864  68.102  1.00  0.00    -0.385 A  
HETATM    8  C   UNL     1     -11.664  12.963  67.090  1.00  0.00    -0.437 A  
BRANCH   6   9
HETATM    9  C   UNL     1      -9.843  11.828  65.724  1.00  0.00    -0.240 C  
HETATM   10  O   UNL     1     -10.250  11.974  64.573  1.00  0.00    -0.269 OA 
BRANCH   9  11
HETATM   11  C   UNL     1      -8.942  10.699  66.077  1.00  0.00    -0.172 C  
HETATM   12  C   UNL     1      -9.219   9.687  66.927  1.00  0.00    -0.143 C  
HETATM   13  C   UNL     1     -10.429   9.349  67.722  1.00  0.00    -0.310 C  
HETATM   14  N   UNL     1      -8.101   8.884  67.019  1.00  0.00    -0.109 N  
HETATM   15  H   UNL     1      -8.030   8.038  67.583  1.00  0.00     0.000 HD 
HETATM   16  C   UNL     1      -7.083   9.408  66.222  1.00  0.00    -0.088 C  
HETATM   17  N   UNL     1      -7.643  10.547  65.639  1.00  0.00    -0.149 NA 
HETATM   18  O   UNL     1      -5.957   8.977  66.071  1.00  0.00    -0.050 OA 
ENDBRANCH   9  11
ENDBRANCH   6   9
ENDBRANCH   2   3
TORSDOF 3
ENDMDL
MODEL      190
REMARK 921   NORMALIZED FREE ENERGY PREDICTED BY IDOCK:   -3.45 KCAL/MOL
REMARK 922        TOTAL FREE ENERGY PREDICTED BY IDOCK:   -4.44 KCAL/MOL
REMARK 923 INTER-LIGAND FREE ENERGY PREDICTED BY IDOCK:   -3.97 KCAL/MOL
REMARK 924 INTRA-LIGAND FREE ENERGY PREDICTED BY IDOCK:   -0.47 KCAL/MOL
REMARK 927      BINDING AFFINITY PREDICTED BY RF-SCORE:    0.00 PKD
ROOT
HETATM    1  C   UNL     1     -10.440   3.062  72.765  1.00  0.00    -0.127 C  
HETATM    2  S   UNL     1     -10.988   4.424  73.829  1.00  0.00    -0.251 SA 
ENDROOT
BRANCH   2   3
HETATM    3  C   UNL     1     -10.336   5.800  72.904  1.00  0.00    -0.199 A  
HETATM    4  C   UNL     1     -10.397   7.100  73.408  1.00  0.00    -0.391 A  
HETATM    5  C   UNL     1      -9.878   8.166  72.668  1.00  0.00    -0.364 A  
HETATM    6  C   UNL     1      -9.288   7.947  71.414  1.00  0.00    -0.174 A  
HETATM    7  C   UNL     1      -9.715   5.573  71.671  1.00  0.00    -0.203 A  
HETATM    8  C   UNL     1      -9.185   6.638  70.930  1.00  0.00    -0.157 A  
BRANCH   6   9
HETATM    9  C   UNL     1      -8.728   9.131  70.709  1.00  0.00    -0.236 C  
HETATM   10  O   UNL     1      -7.756   9.697  71.206  1.00  0.00    -0.275 OA 
BRANCH   9  11
HETATM   11  C   UNL     1      -9.356   9.646  69.462  1.00  0.00    -0.200 C  
HETATM   12  C   UNL     1     -10.564  10.241  69.360  1.00  0.00    -0.237 C  
HETATM   13  C   UNL     1     -11.598  10.592  70.369  1.00  0.00    -0.441 C  
HETATM   14  N   UNL     1     -10.795  10.517  68.028  1.00  0.00    -0.241 N  
HETATM   15  H   UNL     1     -11.627  10.976  67.659  1.00  0.00     0.000 HD 
HETATM   16  C   UNL     1      -9.716  10.072  67.265  1.00  0.00    -0.167 C  
HETATM   17  N   UNL     1      -8.825   9.532  68.195  1.00  0.00    -0.124 NA 
HETATM   18  O   UNL     1      -9.580  10.132  66.058  1.00  0.00    -0.183 OA 
ENDBRANCH   9  11
ENDBRANCH   6   9
ENDBRANCH   2   3
TORSDOF 3
ENDMDL
MODEL      191
REMARK 921   NORMALIZED FREE ENERGY PREDICTED BY IDOCK:   -3.41 KCAL/MOL
REMARK 922        TOTAL FREE ENERGY PREDICTED BY IDOCK:   -4.39 KCAL/MOL
REMARK 923 INTER-LIGAND FREE ENERGY PREDICTED BY IDOCK:   -3.92 KCAL/MOL
REMARK 924 INTRA-LIGAND FREE ENERGY PREDICTED BY IDOCK:   -0.47 KCAL/MOL
REMARK 927      BINDING AFFINITY PREDICTED BY RF-SCORE:    0.00 PKD
ROOT
HETATM    1  C   UNL     1      -7.326   9.892  64.358  1.00  0.00    -0.133 C  
HETATM    2  S   UNL     1      -6.758  10.320  66.026  1.00  0.00    -0.121 SA 
ENDROOT
BRANCH   2   3
HETATM    3  C   UNL     1      -7.935   9.386  66.984  1.00  0.00    -0.102 A  
HETATM    4  C   UNL     1      -7.560   8.762  68.175  1.00  0.00    -0.097 A  
HETATM    5  C   UNL     1      -8.498   8.035  68.913  1.00  0.00    -0.131 A  
HETATM    6  C   UNL     1      -9.826   7.924  68.473  1.00  0.00    -0.186 A  
HETATM    7  C   UNL     1      -9.267   9.309  66.561  1.00  0.00    -0.206 A  
HETATM    8  C   UNL     1     -10.212   8.589  67.304  1.00  0.00    -0.346 A  
BRANCH   6   9
HETATM    9  C   UNL     1     -10.769   7.164  69.336  1.00  0.00    -0.231 C  
HETATM   10  O   UNL     1     -11.516   6.348  68.800  1.00  0.00    -0.283 OA 
BRANCH   9  11
HETATM   11  C   UNL     1     -10.840   7.417  70.801  1.00  0.00    -0.241 C  
HETATM   12  C   UNL     1     -11.241   8.559  71.398  1.00  0.00    -0.266 C  
HETATM   13  C   UNL     1     -11.742   9.851  70.859  1.00  0.00    -0.449 C  
HETATM   14  N   UNL     1     -11.105   8.401  72.762  1.00  0.00    -0.255 N  
HETATM   15  H   UNL     1     -11.345   9.103  73.462  1.00  0.00     0.000 HD 
HETATM   16  C   UNL     1     -10.589   7.135  73.036  1.00  0.00    -0.308 C  
HETATM   17  N   UNL     1     -10.436   6.537  71.783  1.00  0.00    -0.209 NA 
HETATM   18  O   UNL     1     -10.323   6.656  74.121  1.00  0.00    -0.356 OA 
ENDBRANCH   9  11
ENDBRANCH   6   9
ENDBRANCH   2   3
TORSDOF 3
ENDMDL
MODEL      192
REMARK 921   NORMALIZED FREE ENERGY PREDICTED BY IDOCK:   -3.39 KCAL/MOL
REMARK 922        TOTAL FREE ENERGY PREDICTED BY IDOCK:   -4.37 KCAL/MOL
REMARK 923 INTER-LIGAND FREE ENERGY PREDICTED BY IDOCK:   -3.94 KCAL/MOL
REMARK 924 INTRA-LIGAND FREE ENERGY PREDICTED BY IDOCK:   -0.44 KCAL/MOL
REMARK 927      BINDING AFFINITY PREDICTED BY RF-SCORE:    0.00 PKD
ROOT
HETATM    1  C   UNL     1     -13.039  10.747  71.793  1.00  0.00    -0.468 C  
HETATM    2  S   UNL     1     -13.346   9.043  72.330  1.00  0.00    -0.477 SA 
ENDROOT
BRANCH   2   3
HETATM    3  C   UNL     1     -11.968   8.234  71.541  1.00  0.00    -0.296 A  
HETATM    4  C   UNL     1     -10.713   8.843  71.482  1.00  0.00    -0.398 A  
HETATM    5  C   UNL     1      -9.645   8.191  70.860  1.00  0.00    -0.187 A  
HETATM    6  C   UNL     1      -9.814   6.921  70.290  1.00  0.00    -0.186 A  
HETATM    7  C   UNL     1     -12.132   6.952  71.006  1.00  0.00    -0.429 A  
HETATM    8  C   UNL     1     -11.060   6.291  70.390  1.00  0.00    -0.416 A  
BRANCH   6   9
HETATM    9  C   UNL     1      -8.617   6.282  69.680  1.00  0.00    -0.133 C  
HETATM   10  O   UNL     1      -7.731   5.876  70.430  1.00  0.00    -0.091 OA 
BRANCH   9  11
HETATM   11  C   UNL     1      -8.472   6.183  68.203  1.00  0.00    -0.116 C  
HETATM   12  C   UNL     1      -8.847   5.142  67.430  1.00  0.00    -0.105 C  
HETATM   13  C   UNL     1      -9.508   3.847  67.741  1.00  0.00    -0.230 C  
HETATM   14  N   UNL     1      -8.488   5.423  66.127  1.00  0.00    -0.117 N  
HETATM   15  H   UNL     1      -8.659   4.816  65.326  1.00  0.00     0.000 HD 
HETATM   16  C   UNL     1      -7.855   6.665  66.075  1.00  0.00    -0.104 C  
HETATM   17  N   UNL     1      -7.863   7.120  67.396  1.00  0.00    -0.110 NA 
HETATM   18  O   UNL     1      -7.391   7.227  65.102  1.00  0.00    -0.073 OA 
ENDBRANCH   9  11
ENDBRANCH   6   9
ENDBRANCH   2   3
TORSDOF 3
ENDMDL
MODEL      193
REMARK 921   NORMALIZED FREE ENERGY PREDICTED BY IDOCK:   -3.39 KCAL/MOL
REMARK 922        TOTAL FREE ENERGY PREDICTED BY IDOCK:   -4.37 KCAL/MOL
REMARK 923 INTER-LIGAND FREE ENERGY PREDICTED BY IDOCK:   -4.19 KCAL/MOL
REMARK 924 INTRA-LIGAND FREE ENERGY PREDICTED BY IDOCK:   -0.18 KCAL/MOL
REMARK 927      BINDING AFFINITY PREDICTED BY RF-SCORE:    0.00 PKD
ROOT
HETATM    1  C   UNL     1     -11.246   6.806  70.276  1.00  0.00    -0.334 C  
HETATM    2  S   UNL     1      -9.549   6.626  69.664  1.00  0.00    -0.150 SA 
ENDROOT
BRANCH   2   3
HETATM    3  C   UNL     1      -9.622   7.729  68.267  1.00  0.00    -0.155 A  
HETATM    4  C   UNL     1      -8.822   7.521  67.143  1.00  0.00    -0.127 A  
HETATM    5  C   UNL     1      -8.895   8.397  66.056  1.00  0.00    -0.202 A  
HETATM    6  C   UNL     1      -9.772   9.492  66.076  1.00  0.00    -0.341 A  
HETATM    7  C   UNL     1     -10.524   8.799  68.276  1.00  0.00    -0.236 A  
HETATM    8  C   UNL     1     -10.608   9.674  67.184  1.00  0.00    -0.298 A  
BRANCH   6   9
HETATM    9  C   UNL     1      -9.814  10.354  64.864  1.00  0.00    -0.334 C  
HETATM   10  O   UNL     1      -9.659   9.820  63.768  1.00  0.00    -0.156 OA 
BRANCH   9  11
HETATM   11  C   UNL     1      -9.990  11.827  64.979  1.00  0.00    -0.254 C  
HETATM   12  C   UNL     1      -9.363  12.643  65.851  1.00  0.00    -0.004 C  
HETATM   13  C   UNL     1      -8.337  12.395  66.899  1.00  0.00    -0.117 C  
HETATM   14  N   UNL     1      -9.847  13.922  65.668  1.00  0.00    -0.478 N  
HETATM   15  H   UNL     1      -9.543  14.746  66.185  1.00  0.00     0.000 HD 
HETATM   16  C   UNL     1     -10.818  13.914  64.666  1.00  0.00    -0.408 C  
HETATM   17  N   UNL     1     -10.884  12.583  64.249  1.00  0.00    -0.337 NA 
HETATM   18  O   UNL     1     -11.470  14.852  64.250  1.00  0.00    -0.256 OA 
ENDBRANCH   9  11
ENDBRANCH   6   9
ENDBRANCH   2   3
TORSDOF 3
ENDMDL
MODEL      194
REMARK 921   NORMALIZED FREE ENERGY PREDICTED BY IDOCK:   -3.37 KCAL/MOL
REMARK 922        TOTAL FREE ENERGY PREDICTED BY IDOCK:   -4.36 KCAL/MOL
REMARK 923 INTER-LIGAND FREE ENERGY PREDICTED BY IDOCK:   -3.93 KCAL/MOL
REMARK 924 INTRA-LIGAND FREE ENERGY PREDICTED BY IDOCK:   -0.43 KCAL/MOL
REMARK 927      BINDING AFFINITY PREDICTED BY RF-SCORE:    0.00 PKD
ROOT
HETATM    1  C   UNL     1      -5.529  20.891  69.268  1.00  0.00    -0.372 C  
HETATM    2  S   UNL     1      -6.286  21.189  67.647  1.00  0.00    -0.343 SA 
ENDROOT
BRANCH   2   3
HETATM    3  C   UNL     1      -7.531  19.915  67.665  1.00  0.00    -0.285 A  
HETATM    4  C   UNL     1      -8.838  20.180  67.254  1.00  0.00    -0.445 A  
HETATM    5  C   UNL     1      -9.800  19.167  67.274  1.00  0.00    -0.408 A  
HETATM    6  C   UNL     1      -9.469  17.873  67.703  1.00  0.00    -0.260 A  
HETATM    7  C   UNL     1      -7.187  18.617  68.060  1.00  0.00    -0.261 A  
HETATM    8  C   UNL     1      -8.148  17.596  68.072  1.00  0.00    -0.243 A  
BRANCH   6   9
HETATM    9  C   UNL     1     -10.543  16.844  67.660  1.00  0.00    -0.325 C  
HETATM   10  O   UNL     1     -11.626  17.157  67.168  1.00  0.00     0.593 OA 
BRANCH   9  11
HETATM   11  C   UNL     1     -10.330  15.490  68.238  1.00  0.00    -0.235 C  
HETATM   12  C   UNL     1     -10.636  15.098  69.493  1.00  0.00    -0.270 C  
HETATM   13  C   UNL     1     -11.268  15.803  70.639  1.00  0.00    -0.395 C  
HETATM   14  N   UNL     1     -10.228  13.788  69.645  1.00  0.00    -0.123 N  
HETATM   15  H   UNL     1     -10.344  13.231  70.491  1.00  0.00     0.000 HD 
HETATM   16  C   UNL     1      -9.634  13.344  68.463  1.00  0.00    -0.141 C  
HETATM   17  N   UNL     1      -9.716  14.436  67.596  1.00  0.00    -0.217 NA 
HETATM   18  O   UNL     1      -9.146  12.255  68.237  1.00  0.00    -0.194 OA 
ENDBRANCH   9  11
ENDBRANCH   6   9
ENDBRANCH   2   3
TORSDOF 3
ENDMDL
MODEL      195
REMARK 921   NORMALIZED FREE ENERGY PREDICTED BY IDOCK:   -3.36 KCAL/MOL
REMARK 922        TOTAL FREE ENERGY PREDICTED BY IDOCK:   -4.35 KCAL/MOL
REMARK 923 INTER-LIGAND FREE ENERGY PREDICTED BY IDOCK:   -4.28 KCAL/MOL
REMARK 924 INTRA-LIGAND FREE ENERGY PREDICTED BY IDOCK:   -0.07 KCAL/MOL
REMARK 927      BINDING AFFINITY PREDICTED BY RF-SCORE:    0.00 PKD
ROOT
HETATM    1  C   UNL     1     -11.093   4.751  73.631  1.00  0.00    -0.304 C  
HETATM    2  S   UNL     1     -10.293   6.378  73.646  1.00  0.00    -0.309 SA 
ENDROOT
BRANCH   2   3
HETATM    3  C   UNL     1     -10.377   6.763  71.909  1.00  0.00    -0.197 A  
HETATM    4  C   UNL     1      -9.261   7.243  71.223  1.00  0.00    -0.151 A  
HETATM    5  C   UNL     1      -9.347   7.538  69.859  1.00  0.00    -0.150 A  
HETATM    6  C   UNL     1     -10.550   7.354  69.161  1.00  0.00    -0.213 A  
HETATM    7  C   UNL     1     -11.569   6.544  71.209  1.00  0.00    -0.381 A  
HETATM    8  C   UNL     1     -11.656   6.829  69.839  1.00  0.00    -0.326 A  
BRANCH   6   9
HETATM    9  C   UNL     1     -10.546   7.657  67.705  1.00  0.00    -0.224 C  
HETATM   10  O   UNL     1     -10.517   6.714  66.916  1.00  0.00    -0.243 OA 
BRANCH   9  11
HETATM   11  C   UNL     1     -10.528   9.062  67.216  1.00  0.00    -0.273 C  
HETATM   12  C   UNL     1     -10.972  10.148  67.883  1.00  0.00    -0.277 C  
HETATM   13  C   UNL     1     -11.559  10.324  69.237  1.00  0.00    -0.186 C  
HETATM   14  N   UNL     1     -10.828  11.247  67.060  1.00  0.00    -0.267 N  
HETATM   15  H   UNL     1     -11.073  12.204  67.309  1.00  0.00     0.000 HD 
HETATM   16  C   UNL     1     -10.295  10.845  65.835  1.00  0.00    -0.250 C  
HETATM   17  N   UNL     1     -10.113   9.466  65.964  1.00  0.00    -0.283 NA 
HETATM   18  O   UNL     1     -10.048  11.536  64.865  1.00  0.00    -0.243 OA 
ENDBRANCH   9  11
ENDBRANCH   6   9
ENDBRANCH   2   3
TORSDOF 3
ENDMDL
MODEL      196
REMARK 921   NORMALIZED FREE ENERGY PREDICTED BY IDOCK:   -3.34 KCAL/MOL
REMARK 922        TOTAL FREE ENERGY PREDICTED BY IDOCK:   -4.31 KCAL/MOL
REMARK 923 INTER-LIGAND FREE ENERGY PREDICTED BY IDOCK:   -3.91 KCAL/MOL
REMARK 924 INTRA-LIGAND FREE ENERGY PREDICTED BY IDOCK:   -0.41 KCAL/MOL
REMARK 927      BINDING AFFINITY PREDICTED BY RF-SCORE:    0.00 PKD
ROOT
HETATM    1  C   UNL     1     -13.020  10.740  71.784  1.00  0.00    -0.463 C  
HETATM    2  S   UNL     1     -13.563   9.070  72.235  1.00  0.00    -0.489 SA 
ENDROOT
BRANCH   2   3
HETATM    3  C   UNL     1     -12.133   8.145  71.710  1.00  0.00    -0.315 A  
HETATM    4  C   UNL     1     -10.844   8.645  71.897  1.00  0.00    -0.419 A  
HETATM    5  C   UNL     1      -9.735   7.904  71.479  1.00  0.00    -0.201 A  
HETATM    6  C   UNL     1      -9.899   6.650  70.872  1.00  0.00    -0.197 A  
HETATM    7  C   UNL     1     -12.300   6.879  71.138  1.00  0.00    -0.419 A  
HETATM    8  C   UNL     1     -11.189   6.128  70.727  1.00  0.00    -0.373 A  
BRANCH   6   9
HETATM    9  C   UNL     1      -8.666   5.910  70.491  1.00  0.00    -0.140 C  
HETATM   10  O   UNL     1      -7.746   5.859  71.305  1.00  0.00    -0.104 OA 
BRANCH   9  11
HETATM   11  C   UNL     1      -8.530   5.293  69.144  1.00  0.00    -0.098 C  
HETATM   12  C   UNL     1      -7.949   5.851  68.061  1.00  0.00    -0.105 C  
HETATM   13  C   UNL     1      -7.269   7.156  67.848  1.00  0.00    -0.091 C  
HETATM   14  N   UNL     1      -8.082   4.975  67.003  1.00  0.00    -0.107 N  
HETATM   15  H   UNL     1      -7.725   5.133  66.061  1.00  0.00     0.000 HD 
HETATM   16  C   UNL     1      -8.778   3.841  67.421  1.00  0.00    -0.112 C  
HETATM   17  N   UNL     1      -9.043   4.068  68.773  1.00  0.00    -0.122 NA 
HETATM   18  O   UNL     1      -9.092   2.872  66.758  1.00  0.00    -0.151 OA 
ENDBRANCH   9  11
ENDBRANCH   6   9
ENDBRANCH   2   3
TORSDOF 3
ENDMDL
MODEL      197
REMARK 921   NORMALIZED FREE ENERGY PREDICTED BY IDOCK:   -3.32 KCAL/MOL
REMARK 922        TOTAL FREE ENERGY PREDICTED BY IDOCK:   -4.30 KCAL/MOL
REMARK 923 INTER-LIGAND FREE ENERGY PREDICTED BY IDOCK:   -3.86 KCAL/MOL
REMARK 924 INTRA-LIGAND FREE ENERGY PREDICTED BY IDOCK:   -0.43 KCAL/MOL
REMARK 927      BINDING AFFINITY PREDICTED BY RF-SCORE:    0.00 PKD
ROOT
HETATM    1  C   UNL     1     -10.418  16.656  65.717  1.00  0.00    -0.311 C  
HETATM    2  S   UNL     1     -10.756  16.334  67.469  1.00  0.00    -0.265 SA 
ENDROOT
BRANCH   2   3
HETATM    3  C   UNL     1     -10.549  14.564  67.488  1.00  0.00    -0.262 A  
HETATM    4  C   UNL     1     -11.642  13.713  67.655  1.00  0.00    -0.381 A  
HETATM    5  C   UNL     1     -11.460  12.328  67.665  1.00  0.00    -0.401 A  
HETATM    6  C   UNL     1     -10.181  11.773  67.507  1.00  0.00    -0.214 A  
HETATM    7  C   UNL     1      -9.277  14.014  67.293  1.00  0.00    -0.231 A  
HETATM    8  C   UNL     1      -9.091  12.625  67.293  1.00  0.00    -0.191 A  
BRANCH   6   9
HETATM    9  C   UNL     1     -10.079  10.289  67.494  1.00  0.00    -0.198 C  
HETATM   10  O   UNL     1     -10.256   9.705  66.426  1.00  0.00    -0.247 OA 
BRANCH   9  11
HETATM   11  C   UNL     1      -9.819   9.529  68.746  1.00  0.00    -0.169 C  
HETATM   12  C   UNL     1      -8.610   9.234  69.268  1.00  0.00    -0.139 C  
HETATM   13  C   UNL     1      -7.224   9.558  68.836  1.00  0.00    -0.072 C  
HETATM   14  N   UNL     1      -8.805   8.470  70.401  1.00  0.00    -0.144 N  
HETATM   15  H   UNL     1      -8.065   8.114  71.004  1.00  0.00     0.000 HD 
HETATM   16  C   UNL     1     -10.171   8.262  70.593  1.00  0.00    -0.193 C  
HETATM   17  N   UNL     1     -10.784   8.943  69.539  1.00  0.00    -0.224 NA 
HETATM   18  O   UNL     1     -10.712   7.625  71.475  1.00  0.00    -0.220 OA 
ENDBRANCH   9  11
ENDBRANCH   6   9
ENDBRANCH   2   3
TORSDOF 3
ENDMDL
MODEL      198
REMARK 921   NORMALIZED FREE ENERGY PREDICTED BY IDOCK:   -3.31 KCAL/MOL
REMARK 922        TOTAL FREE ENERGY PREDICTED BY IDOCK:   -4.28 KCAL/MOL
REMARK 923 INTER-LIGAND FREE ENERGY PREDICTED BY IDOCK:   -4.15 KCAL/MOL
REMARK 924 INTRA-LIGAND FREE ENERGY PREDICTED BY IDOCK:   -0.13 KCAL/MOL
REMARK 927      BINDING AFFINITY PREDICTED BY RF-SCORE:    0.00 PKD
ROOT
HETATM    1  C   UNL     1      -9.367   4.463  67.390  1.00  0.00    -0.155 C  
HETATM    2  S   UNL     1      -9.011   5.504  68.831  1.00  0.00    -0.115 SA 
ENDROOT
BRANCH   2   3
HETATM    3  C   UNL     1      -9.593   7.070  68.213  1.00  0.00    -0.134 A  
HETATM    4  C   UNL     1      -9.198   8.270  68.807  1.00  0.00    -0.143 A  
HETATM    5  C   UNL     1      -9.665   9.489  68.307  1.00  0.00    -0.163 A  
HETATM    6  C   UNL     1     -10.531   9.526  67.204  1.00  0.00    -0.322 A  
HETATM    7  C   UNL     1     -10.427   7.104  67.091  1.00  0.00    -0.389 A  
HETATM    8  C   UNL     1     -10.889   8.326  66.580  1.00  0.00     0.594 A  
BRANCH   6   9
HETATM    9  C   UNL     1     -10.951  10.865  66.712  1.00  0.00    -0.185 C  
HETATM   10  O   UNL     1     -11.583  11.592  67.477  1.00  0.00    -0.477 OA 
BRANCH   9  11
HETATM   11  C   UNL     1     -10.659  11.295  65.318  1.00  0.00    -0.261 C  
HETATM   12  C   UNL     1     -11.425  12.098  64.550  1.00  0.00    -0.334 C  
HETATM   13  C   UNL     1     -12.707  12.807  64.805  1.00  0.00    -0.469 C  
HETATM   14  N   UNL     1     -10.829  12.203  63.310  1.00  0.00    -0.647 N  
HETATM   15  H   UNL     1     -11.184  12.757  62.531  1.00  0.00     0.000 HD 
HETATM   16  C   UNL     1      -9.665  11.433  63.285  1.00  0.00    -0.394 C  
HETATM   17  N   UNL     1      -9.583  10.877  64.563  1.00  0.00    -0.244 NA 
HETATM   18  O   UNL     1      -8.896  11.274  62.357  1.00  0.00    -0.314 OA 
ENDBRANCH   9  11
ENDBRANCH   6   9
ENDBRANCH   2   3
TORSDOF 3
ENDMDL
MODEL      199
REMARK 921   NORMALIZED FREE ENERGY PREDICTED BY IDOCK:   -3.31 KCAL/MOL
REMARK 922        TOTAL FREE ENERGY PREDICTED BY IDOCK:   -4.28 KCAL/MOL
REMARK 923 INTER-LIGAND FREE ENERGY PREDICTED BY IDOCK:   -3.84 KCAL/MOL
REMARK 924 INTRA-LIGAND FREE ENERGY PREDICTED BY IDOCK:   -0.44 KCAL/MOL
REMARK 927      BINDING AFFINITY PREDICTED BY RF-SCORE:    0.00 PKD
ROOT
HETATM    1  C   UNL     1     -10.163   3.613  72.721  1.00  0.00    -0.167 C  
HETATM    2  S   UNL     1     -10.873   5.157  73.354  1.00  0.00    -0.321 SA 
ENDROOT
BRANCH   2   3
HETATM    3  C   UNL     1     -10.745   6.162  71.888  1.00  0.00    -0.232 A  
HETATM    4  C   UNL     1     -11.852   6.380  71.067  1.00  0.00    -0.321 A  
HETATM    5  C   UNL     1     -11.732   7.173  69.922  1.00  0.00    -0.038 A  
HETATM    6  C   UNL     1     -10.504   7.761  69.584  1.00  0.00    -0.229 A  
HETATM    7  C   UNL     1      -9.528   6.776  71.574  1.00  0.00    -0.156 A  
HETATM    8  C   UNL     1      -9.406   7.580  70.432  1.00  0.00    -0.161 A  
BRANCH   6   9
HETATM    9  C   UNL     1     -10.471   8.619  68.369  1.00  0.00    -0.176 C  
HETATM   10  O   UNL     1     -10.649   8.085  67.276  1.00  0.00    -0.303 OA 
BRANCH   9  11
HETATM   11  C   UNL     1     -10.182  10.075  68.469  1.00  0.00    -0.175 C  
HETATM   12  C   UNL     1     -10.947  11.004  69.082  1.00  0.00    -0.237 C  
HETATM   13  C   UNL     1     -12.223  10.912  69.839  1.00  0.00    -0.408 C  
HETATM   14  N   UNL     1     -10.355  12.237  68.898  1.00  0.00    -0.409 N  
HETATM   15  H   UNL     1     -10.710  13.120  69.264  1.00  0.00     0.000 HD 
HETATM   16  C   UNL     1      -9.196  12.090  68.135  1.00  0.00    -0.195 C  
HETATM   17  N   UNL     1      -9.112  10.718  67.883  1.00  0.00    -0.147 NA 
HETATM   18  O   UNL     1      -8.432  12.958  67.764  1.00  0.00    -0.159 OA 
ENDBRANCH   9  11
ENDBRANCH   6   9
ENDBRANCH   2   3
TORSDOF 3
ENDMDL
MODEL      200
REMARK 921   NORMALIZED FREE ENERGY PREDICTED BY IDOCK:   -3.30 KCAL/MOL
REMARK 922        TOTAL FREE ENERGY PREDICTED BY IDOCK:   -4.27 KCAL/MOL
REMARK 923 INTER-LIGAND FREE ENERGY PREDICTED BY IDOCK:   -3.89 KCAL/MOL
REMARK 924 INTRA-LIGAND FREE ENERGY PREDICTED BY IDOCK:   -0.38 KCAL/MOL
REMARK 927      BINDING AFFINITY PREDICTED BY RF-SCORE:    0.00 PKD
ROOT
HETATM    1  C   UNL     1     -11.372   7.051  73.069  1.00  0.00    -0.135 C  
HETATM    2  S   UNL     1     -11.340   6.189  71.475  1.00  0.00    -0.252 SA 
ENDROOT
BRANCH   2   3
HETATM    3  C   UNL     1     -11.043   7.576  70.396  1.00  0.00    -0.261 A  
HETATM    4  C   UNL     1     -10.589   7.388  69.090  1.00  0.00    -0.213 A  
HETATM    5  C   UNL     1     -10.363   8.489  68.259  1.00  0.00    -0.246 A  
HETATM    6  C   UNL     1     -10.590   9.794  68.722  1.00  0.00    -0.244 A  
HETATM    7  C   UNL     1     -11.305   8.873  70.850  1.00  0.00    -0.336 A  
HETATM    8  C   UNL     1     -11.089   9.979  70.016  1.00  0.00    -0.350 A  
BRANCH   6   9
HETATM    9  C   UNL     1     -10.360  10.907  67.762  1.00  0.00    -0.187 C  
HETATM   10  O   UNL     1     -11.175  11.827  67.735  1.00  0.00    -0.228 OA 
BRANCH   9  11
HETATM   11  C   UNL     1      -9.204  10.883  66.827  1.00  0.00    -0.158 C  
HETATM   12  C   UNL     1      -9.264  10.842  65.479  1.00  0.00    -0.202 C  
HETATM   13  C   UNL     1     -10.404  10.837  64.525  1.00  0.00    -0.401 C  
HETATM   14  N   UNL     1      -7.974  10.775  64.993  1.00  0.00    -0.353 N  
HETATM   15  H   UNL     1      -7.718  10.744  64.006  1.00  0.00     0.000 HD 
HETATM   16  C   UNL     1      -7.074  10.756  66.059  1.00  0.00    -0.102 C  
HETATM   17  N   UNL     1      -7.877  10.829  67.199  1.00  0.00    -0.120 NA 
HETATM   18  O   UNL     1      -5.862  10.685  66.011  1.00  0.00    -0.098 OA 
ENDBRANCH   9  11
ENDBRANCH   6   9
ENDBRANCH   2   3
TORSDOF 3
ENDMDL
MODEL      201
REMARK 921   NORMALIZED FREE ENERGY PREDICTED BY IDOCK:   -3.30 KCAL/MOL
REMARK 922        TOTAL FREE ENERGY PREDICTED BY IDOCK:   -4.26 KCAL/MOL
REMARK 923 INTER-LIGAND FREE ENERGY PREDICTED BY IDOCK:   -3.86 KCAL/MOL
REMARK 924 INTRA-LIGAND FREE ENERGY PREDICTED BY IDOCK:   -0.40 KCAL/MOL
REMARK 927      BINDING AFFINITY PREDICTED BY RF-SCORE:    0.00 PKD
ROOT
HETATM    1  C   UNL     1     -12.424  13.975  66.160  1.00  0.00    -0.430 C  
HETATM    2  S   UNL     1     -12.049  13.271  64.531  1.00  0.00    -0.419 SA 
ENDROOT
BRANCH   2   3
HETATM    3  C   UNL     1     -10.944  11.963  65.024  1.00  0.00    -0.312 A  
HETATM    4  C   UNL     1     -10.484  11.023  64.101  1.00  0.00    -0.434 A  
HETATM    5  C   UNL     1      -9.617  10.005  64.506  1.00  0.00    -0.346 A  
HETATM    6  C   UNL     1      -9.193   9.914  65.841  1.00  0.00    -0.223 A  
HETATM    7  C   UNL     1     -10.495  11.898  66.348  1.00  0.00    -0.258 A  
HETATM    8  C   UNL     1      -9.617  10.884  66.756  1.00  0.00    -0.210 A  
BRANCH   6   9
HETATM    9  C   UNL     1      -8.241   8.823  66.181  1.00  0.00    -0.117 C  
HETATM   10  O   UNL     1      -7.059   9.116  66.348  1.00  0.00    -0.082 OA 
BRANCH   9  11
HETATM   11  C   UNL     1      -8.697   7.410  66.269  1.00  0.00    -0.149 C  
HETATM   12  C   UNL     1      -9.670   6.930  67.073  1.00  0.00    -0.163 C  
HETATM   13  C   UNL     1     -10.578   7.586  68.051  1.00  0.00    -0.217 C  
HETATM   14  N   UNL     1      -9.743   5.564  66.890  1.00  0.00    -0.139 N  
HETATM   15  H   UNL     1     -10.399   4.942  67.362  1.00  0.00     0.000 HD 
HETATM   16  C   UNL     1      -8.782   5.165  65.961  1.00  0.00    -0.130 C  
HETATM   17  N   UNL     1      -8.142   6.349  65.585  1.00  0.00    -0.124 NA 
HETATM   18  O   UNL     1      -8.546   4.040  65.568  1.00  0.00    -0.111 OA 
ENDBRANCH   9  11
ENDBRANCH   6   9
ENDBRANCH   2   3
TORSDOF 3
ENDMDL
MODEL      202
REMARK 921   NORMALIZED FREE ENERGY PREDICTED BY IDOCK:   -3.29 KCAL/MOL
REMARK 922        TOTAL FREE ENERGY PREDICTED BY IDOCK:   -4.25 KCAL/MOL
REMARK 923 INTER-LIGAND FREE ENERGY PREDICTED BY IDOCK:   -3.88 KCAL/MOL
REMARK 924 INTRA-LIGAND FREE ENERGY PREDICTED BY IDOCK:   -0.37 KCAL/MOL
REMARK 927      BINDING AFFINITY PREDICTED BY RF-SCORE:    0.00 PKD
ROOT
HETATM    1  C   UNL     1     -11.613  10.371  70.712  1.00  0.00    -0.358 C  
HETATM    2  S   UNL     1     -10.709   9.510  69.397  1.00  0.00    -0.209 SA 
ENDROOT
BRANCH   2   3
HETATM    3  C   UNL     1      -9.613  10.820  68.889  1.00  0.00    -0.195 A  
HETATM    4  C   UNL     1      -8.233  10.625  68.841  1.00  0.00    -0.145 A  
HETATM    5  C   UNL     1      -7.390  11.665  68.438  1.00  0.00    -0.096 A  
HETATM    6  C   UNL     1      -7.916  12.914  68.074  1.00  0.00    -0.158 A  
HETATM    7  C   UNL     1     -10.145  12.052  68.492  1.00  0.00    -0.201 A  
HETATM    8  C   UNL     1      -9.304  13.094  68.077  1.00  0.00    -0.219 A  
BRANCH   6   9
HETATM    9  C   UNL     1      -6.953  13.954  67.622  1.00  0.00    -0.175 C  
HETATM   10  O   UNL     1      -5.784  13.620  67.437  1.00  0.00    -0.354 OA 
BRANCH   9  11
HETATM   11  C   UNL     1      -7.380  15.368  67.448  1.00  0.00    -0.213 C  
HETATM   12  C   UNL     1      -7.197  16.375  68.328  1.00  0.00    -0.149 C  
HETATM   13  C   UNL     1      -6.534  16.438  69.657  1.00  0.00    -0.201 C  
HETATM   14  N   UNL     1      -7.788  17.510  67.811  1.00  0.00    -0.203 N  
HETATM   15  H   UNL     1      -7.795  18.425  68.260  1.00  0.00     0.000 HD 
HETATM   16  C   UNL     1      -8.376  17.211  66.582  1.00  0.00    -0.251 C  
HETATM   17  N   UNL     1      -8.100  15.858  66.378  1.00  0.00    -0.239 NA 
HETATM   18  O   UNL     1      -8.997  17.958  65.851  1.00  0.00    -0.512 OA 
ENDBRANCH   9  11
ENDBRANCH   6   9
ENDBRANCH   2   3
TORSDOF 3
ENDMDL
MODEL      203
REMARK 921   NORMALIZED FREE ENERGY PREDICTED BY IDOCK:   -3.28 KCAL/MOL
REMARK 922        TOTAL FREE ENERGY PREDICTED BY IDOCK:   -4.25 KCAL/MOL
REMARK 923 INTER-LIGAND FREE ENERGY PREDICTED BY IDOCK:   -3.78 KCAL/MOL
REMARK 924 INTRA-LIGAND FREE ENERGY PREDICTED BY IDOCK:   -0.47 KCAL/MOL
REMARK 927      BINDING AFFINITY PREDICTED BY RF-SCORE:    0.00 PKD
ROOT
HETATM    1  C   UNL     1     -11.728  12.221  64.962  1.00  0.00    -0.352 C  
HETATM    2  S   UNL     1      -9.959  11.899  65.201  1.00  0.00    -0.227 SA 
ENDROOT
BRANCH   2   3
HETATM    3  C   UNL     1     -10.058  10.349  66.074  1.00  0.00    -0.243 A  
HETATM    4  C   UNL     1      -9.302   9.247  65.672  1.00  0.00    -0.308 A  
HETATM    5  C   UNL     1      -9.392   8.041  66.371  1.00  0.00    -0.259 A  
HETATM    6  C   UNL     1     -10.237   7.919  67.484  1.00  0.00    -0.308 A  
HETATM    7  C   UNL     1     -10.874  10.243  67.206  1.00  0.00    -0.312 A  
HETATM    8  C   UNL     1     -10.960   9.037  67.915  1.00  0.00    -0.001 A  
BRANCH   6   9
HETATM    9  C   UNL     1     -10.247   6.611  68.193  1.00  0.00    -0.170 C  
HETATM   10  O   UNL     1     -10.417   5.592  67.527  1.00  0.00    -0.214 OA 
BRANCH   9  11
HETATM   11  C   UNL     1     -10.103   6.542  69.672  1.00  0.00    -0.181 C  
HETATM   12  C   UNL     1      -8.979   6.780  70.381  1.00  0.00    -0.152 C  
HETATM   13  C   UNL     1      -7.608   7.190  69.979  1.00  0.00    -0.091 C  
HETATM   14  N   UNL     1      -9.255   6.554  71.714  1.00  0.00    -0.149 N  
HETATM   15  H   UNL     1      -8.591   6.667  72.479  1.00  0.00     0.000 HD 
HETATM   16  C   UNL     1     -10.582   6.146  71.853  1.00  0.00    -0.220 C  
HETATM   17  N   UNL     1     -11.091   6.152  70.552  1.00  0.00    -0.325 NA 
HETATM   18  O   UNL     1     -11.167   5.845  72.875  1.00  0.00    -0.267 OA 
ENDBRANCH   9  11
ENDBRANCH   6   9
ENDBRANCH   2   3
TORSDOF 3
ENDMDL
MODEL      204
REMARK 921   NORMALIZED FREE ENERGY PREDICTED BY IDOCK:   -3.27 KCAL/MOL
REMARK 922        TOTAL FREE ENERGY PREDICTED BY IDOCK:   -4.24 KCAL/MOL
REMARK 923 INTER-LIGAND FREE ENERGY PREDICTED BY IDOCK:   -3.77 KCAL/MOL
REMARK 924 INTRA-LIGAND FREE ENERGY PREDICTED BY IDOCK:   -0.47 KCAL/MOL
REMARK 927      BINDING AFFINITY PREDICTED BY RF-SCORE:    0.00 PKD
ROOT
HETATM    1  C   UNL     1     -10.383   3.405  72.707  1.00  0.00    -0.159 C  
HETATM    2  S   UNL     1     -10.799   4.696  73.910  1.00  0.00    -0.256 SA 
ENDROOT
BRANCH   2   3
HETATM    3  C   UNL     1     -10.786   6.116  72.834  1.00  0.00    -0.247 A  
HETATM    4  C   UNL     1     -11.894   6.433  72.048  1.00  0.00    -0.382 A  
HETATM    5  C   UNL     1     -11.865   7.552  71.211  1.00  0.00    -0.319 A  
HETATM    6  C   UNL     1     -10.729   8.372  71.150  1.00  0.00    -0.280 A  
HETATM    7  C   UNL     1      -9.664   6.952  72.804  1.00  0.00    -0.171 A  
HETATM    8  C   UNL     1      -9.635   8.080  71.973  1.00  0.00    -0.262 A  
BRANCH   6   9
HETATM    9  C   UNL     1     -10.794   9.563  70.261  1.00  0.00    -0.269 C  
HETATM   10  O   UNL     1     -11.702  10.372  70.441  1.00  0.00    -0.280 OA 
BRANCH   9  11
HETATM   11  C   UNL     1      -9.817   9.746  69.155  1.00  0.00    -0.188 C  
HETATM   12  C   UNL     1      -9.781   9.057  67.995  1.00  0.00    -0.155 C  
HETATM   13  C   UNL     1     -10.646   7.983  67.439  1.00  0.00    -0.337 C  
HETATM   14  N   UNL     1      -8.691   9.493  67.269  1.00  0.00    -0.128 N  
HETATM   15  H   UNL     1      -8.425   9.153  66.346  1.00  0.00     0.000 HD 
HETATM   16  C   UNL     1      -8.008  10.470  67.994  1.00  0.00    -0.106 C  
HETATM   17  N   UNL     1      -8.742  10.611  69.174  1.00  0.00    -0.154 NA 
HETATM   18  O   UNL     1      -6.997  11.064  67.677  1.00  0.00    -0.078 OA 
ENDBRANCH   9  11
ENDBRANCH   6   9
ENDBRANCH   2   3
TORSDOF 3
ENDMDL
MODEL      205
REMARK 921   NORMALIZED FREE ENERGY PREDICTED BY IDOCK:   -3.27 KCAL/MOL
REMARK 922        TOTAL FREE ENERGY PREDICTED BY IDOCK:   -4.23 KCAL/MOL
REMARK 923 INTER-LIGAND FREE ENERGY PREDICTED BY IDOCK:   -5.08 KCAL/MOL
REMARK 924 INTRA-LIGAND FREE ENERGY PREDICTED BY IDOCK:    0.85 KCAL/MOL
REMARK 927      BINDING AFFINITY PREDICTED BY RF-SCORE:    0.00 PKD
ROOT
HETATM    1  C   UNL     1     -11.178   5.908  69.737  1.00  0.00    -0.261 C  
HETATM    2  S   UNL     1     -10.840   6.335  71.466  1.00  0.00    -0.264 SA 
ENDROOT
BRANCH   2   3
HETATM    3  C   UNL     1     -11.473   8.000  71.487  1.00  0.00    -0.264 A  
HETATM    4  C   UNL     1     -10.659   9.084  71.155  1.00  0.00    -0.361 A  
HETATM    5  C   UNL     1     -11.175  10.383  71.176  1.00  0.00     0.041 A  
HETATM    6  C   UNL     1     -12.514  10.616  71.526  1.00  0.00    -0.471 A  
HETATM    7  C   UNL     1     -12.818   8.225  71.801  1.00  0.00    -0.362 A  
HETATM    8  C   UNL     1     -13.342   9.525  71.813  1.00  0.00    -0.501 A  
BRANCH   6   9
HETATM    9  C   UNL     1     -12.992  12.024  71.488  1.00  0.00    -0.304 C  
HETATM   10  O   UNL     1     -13.833  12.373  72.314  1.00  0.00    -0.353 OA 
BRANCH   9  11
HETATM   11  C   UNL     1     -12.504  12.970  70.449  1.00  0.00    -0.194 C  
HETATM   12  C   UNL     1     -12.061  12.647  69.215  1.00  0.00    -0.166 C  
HETATM   13  C   UNL     1     -11.939  11.349  68.501  1.00  0.00    -0.295 C  
HETATM   14  N   UNL     1     -11.650  13.806  68.589  1.00  0.00    -0.310 N  
HETATM   15  H   UNL     1     -11.279  13.862  67.641  1.00  0.00     0.000 HD 
HETATM   16  C   UNL     1     -11.821  14.889  69.452  1.00  0.00    -0.324 C  
HETATM   17  N   UNL     1     -12.364  14.332  70.612  1.00  0.00    -0.337 NA 
HETATM   18  O   UNL     1     -11.553  16.056  69.247  1.00  0.00    -0.352 OA 
ENDBRANCH   9  11
ENDBRANCH   6   9
ENDBRANCH   2   3
TORSDOF 3
ENDMDL
MODEL      206
REMARK 921   NORMALIZED FREE ENERGY PREDICTED BY IDOCK:   -3.26 KCAL/MOL
REMARK 922        TOTAL FREE ENERGY PREDICTED BY IDOCK:   -4.22 KCAL/MOL
REMARK 923 INTER-LIGAND FREE ENERGY PREDICTED BY IDOCK:   -3.75 KCAL/MOL
REMARK 924 INTRA-LIGAND FREE ENERGY PREDICTED BY IDOCK:   -0.47 KCAL/MOL
REMARK 927      BINDING AFFINITY PREDICTED BY RF-SCORE:    0.00 PKD
ROOT
HETATM    1  C   UNL     1     -12.047  12.460  66.318  1.00  0.00    -0.180 C  
HETATM    2  S   UNL     1     -11.630  12.783  68.053  1.00  0.00    -0.356 SA 
ENDROOT
BRANCH   2   3
HETATM    3  C   UNL     1     -11.449  11.107  68.629  1.00  0.00    -0.298 A  
HETATM    4  C   UNL     1     -10.967  10.104  67.787  1.00  0.00    -0.338 A  
HETATM    5  C   UNL     1     -10.831   8.796  68.258  1.00  0.00    -0.025 A  
HETATM    6  C   UNL     1     -11.173   8.471  69.579  1.00  0.00     0.139 A  
HETATM    7  C   UNL     1     -11.757  10.795  69.958  1.00  0.00    -0.417 A  
HETATM    8  C   UNL     1     -11.613   9.486  70.437  1.00  0.00    -0.268 A  
BRANCH   6   9
HETATM    9  C   UNL     1     -10.965   7.063  70.011  1.00  0.00    -0.270 C  
HETATM   10  O   UNL     1     -11.299   6.165  69.241  1.00  0.00    -0.416 OA 
BRANCH   9  11
HETATM   11  C   UNL     1     -10.412   6.749  71.356  1.00  0.00    -0.215 C  
HETATM   12  C   UNL     1      -9.138   6.931  71.761  1.00  0.00    -0.138 C  
HETATM   13  C   UNL     1      -7.939   7.489  71.082  1.00  0.00    -0.095 C  
HETATM   14  N   UNL     1      -9.027   6.462  73.054  1.00  0.00    -0.130 N  
HETATM   15  H   UNL     1      -8.177   6.483  73.617  1.00  0.00     0.000 HD 
HETATM   16  C   UNL     1     -10.257   5.954  73.474  1.00  0.00    -0.217 C  
HETATM   17  N   UNL     1     -11.109   6.152  72.385  1.00  0.00    -0.260 NA 
HETATM   18  O   UNL     1     -10.529   5.446  74.544  1.00  0.00    -0.268 OA 
ENDBRANCH   9  11
ENDBRANCH   6   9
ENDBRANCH   2   3
TORSDOF 3
ENDMDL
MODEL      207
REMARK 921   NORMALIZED FREE ENERGY PREDICTED BY IDOCK:   -3.26 KCAL/MOL
REMARK 922        TOTAL FREE ENERGY PREDICTED BY IDOCK:   -4.22 KCAL/MOL
REMARK 923 INTER-LIGAND FREE ENERGY PREDICTED BY IDOCK:   -4.15 KCAL/MOL
REMARK 924 INTRA-LIGAND FREE ENERGY PREDICTED BY IDOCK:   -0.06 KCAL/MOL
REMARK 927      BINDING AFFINITY PREDICTED BY RF-SCORE:    0.00 PKD
ROOT
HETATM    1  C   UNL     1      -6.208  17.647  68.169  1.00  0.00    -0.167 C  
HETATM    2  S   UNL     1      -7.921  18.229  68.295  1.00  0.00    -0.307 SA 
ENDROOT
BRANCH   2   3
HETATM    3  C   UNL     1      -8.771  16.760  67.751  1.00  0.00    -0.210 A  
HETATM    4  C   UNL     1      -9.578  16.030  68.625  1.00  0.00    -0.222 A  
HETATM    5  C   UNL     1     -10.237  14.882  68.180  1.00  0.00    -0.226 A  
HETATM    6  C   UNL     1     -10.102  14.447  66.853  1.00  0.00    -0.259 A  
HETATM    7  C   UNL     1      -8.662  16.351  66.418  1.00  0.00    -0.355 A  
HETATM    8  C   UNL     1      -9.330  15.205  65.965  1.00  0.00    -0.326 A  
BRANCH   6   9
HETATM    9  C   UNL     1     -10.866  13.236  66.451  1.00  0.00    -0.288 C  
HETATM   10  O   UNL     1     -11.934  13.393  65.863  1.00  0.00    -0.366 OA 
BRANCH   9  11
HETATM   11  C   UNL     1     -10.376  11.874  66.793  1.00  0.00    -0.209 C  
HETATM   12  C   UNL     1      -9.092  11.511  66.996  1.00  0.00    -0.175 C  
HETATM   13  C   UNL     1      -7.819  12.279  66.984  1.00  0.00    -0.108 C  
HETATM   14  N   UNL     1      -9.061  10.152  67.235  1.00  0.00    -0.138 N  
HETATM   15  H   UNL     1      -8.222   9.609  67.432  1.00  0.00     0.000 HD 
HETATM   16  C   UNL     1     -10.356   9.637  67.164  1.00  0.00    -0.254 C  
HETATM   17  N   UNL     1     -11.162  10.744  66.889  1.00  0.00    -0.267 NA 
HETATM   18  O   UNL     1     -10.708   8.482  67.303  1.00  0.00    -0.279 OA 
ENDBRANCH   9  11
ENDBRANCH   6   9
ENDBRANCH   2   3
TORSDOF 3
ENDMDL
MODEL      208
REMARK 921   NORMALIZED FREE ENERGY PREDICTED BY IDOCK:   -3.25 KCAL/MOL
REMARK 922        TOTAL FREE ENERGY PREDICTED BY IDOCK:   -4.21 KCAL/MOL
REMARK 923 INTER-LIGAND FREE ENERGY PREDICTED BY IDOCK:   -3.77 KCAL/MOL
REMARK 924 INTRA-LIGAND FREE ENERGY PREDICTED BY IDOCK:   -0.43 KCAL/MOL
REMARK 927      BINDING AFFINITY PREDICTED BY RF-SCORE:    0.00 PKD
ROOT
HETATM    1  C   UNL     1     -13.148  10.822  71.702  1.00  0.00    -0.446 C  
HETATM    2  S   UNL     1     -13.761   9.144  72.012  1.00  0.00    -0.443 SA 
ENDROOT
BRANCH   2   3
HETATM    3  C   UNL     1     -12.286   8.219  71.635  1.00  0.00    -0.315 A  
HETATM    4  C   UNL     1     -11.028   8.681  72.021  1.00  0.00    -0.432 A  
HETATM    5  C   UNL     1      -9.883   7.939  71.716  1.00  0.00    -0.223 A  
HETATM    6  C   UNL     1      -9.980   6.723  71.024  1.00  0.00    -0.196 A  
HETATM    7  C   UNL     1     -12.391   6.988  70.976  1.00  0.00    -0.402 A  
HETATM    8  C   UNL     1     -11.246   6.237  70.678  1.00  0.00    -0.401 A  
BRANCH   6   9
HETATM    9  C   UNL     1      -8.717   5.979  70.772  1.00  0.00    -0.135 C  
HETATM   10  O   UNL     1      -7.860   6.512  70.069  1.00  0.00    -0.106 OA 
BRANCH   9  11
HETATM   11  C   UNL     1      -8.516   4.608  71.313  1.00  0.00    -0.105 C  
HETATM   12  C   UNL     1      -8.744   3.448  70.662  1.00  0.00    -0.075 C  
HETATM   13  C   UNL     1      -9.208   3.146  69.282  1.00  0.00    -0.218 C  
HETATM   14  N   UNL     1      -8.486   2.409  71.533  1.00  0.00    -0.061 N  
HETATM   15  H   UNL     1      -8.565   1.418  71.306  1.00  0.00     0.000 HD 
HETATM   16  C   UNL     1      -8.102   2.922  72.772  1.00  0.00    -0.067 C  
HETATM   17  N   UNL     1      -8.126   4.308  72.602  1.00  0.00    -0.095 NA 
HETATM   18  O   UNL     1      -7.817   2.306  73.779  1.00  0.00    -0.051 OA 
ENDBRANCH   9  11
ENDBRANCH   6   9
ENDBRANCH   2   3
TORSDOF 3
ENDMDL
MODEL      209
REMARK 921   NORMALIZED FREE ENERGY PREDICTED BY IDOCK:   -3.23 KCAL/MOL
REMARK 922        TOTAL FREE ENERGY PREDICTED BY IDOCK:   -4.19 KCAL/MOL
REMARK 923 INTER-LIGAND FREE ENERGY PREDICTED BY IDOCK:   -3.77 KCAL/MOL
REMARK 924 INTRA-LIGAND FREE ENERGY PREDICTED BY IDOCK:   -0.42 KCAL/MOL
REMARK 927      BINDING AFFINITY PREDICTED BY RF-SCORE:    0.00 PKD
ROOT
HETATM    1  C   UNL     1      -8.800   4.131  66.022  1.00  0.00    -0.121 C  
HETATM    2  S   UNL     1      -7.391   5.254  65.823  1.00  0.00    -0.081 SA 
ENDROOT
BRANCH   2   3
HETATM    3  C   UNL     1      -8.117   6.752  66.459  1.00  0.00    -0.108 A  
HETATM    4  C   UNL     1      -8.409   6.890  67.816  1.00  0.00    -0.120 A  
HETATM    5  C   UNL     1      -8.978   8.073  68.296  1.00  0.00    -0.132 A  
HETATM    6  C   UNL     1      -9.259   9.137  67.426  1.00  0.00    -0.150 A  
HETATM    7  C   UNL     1      -8.363   7.823  65.593  1.00  0.00    -0.143 A  
HETATM    8  C   UNL     1      -8.923   9.016  66.072  1.00  0.00    -0.227 A  
BRANCH   6   9
HETATM    9  C   UNL     1      -9.830  10.374  68.023  1.00  0.00    -0.150 C  
HETATM   10  O   UNL     1      -9.814  10.487  69.247  1.00  0.00    -0.213 OA 
BRANCH   9  11
HETATM   11  C   UNL     1     -10.446  11.423  67.167  1.00  0.00    -0.224 C  
HETATM   12  C   UNL     1      -9.886  12.598  66.811  1.00  0.00    -0.235 C  
HETATM   13  C   UNL     1      -8.558  13.203  67.094  1.00  0.00    -0.194 C  
HETATM   14  N   UNL     1     -10.806  13.303  66.062  1.00  0.00    -0.272 N  
HETATM   15  H   UNL     1     -10.649  14.223  65.651  1.00  0.00     0.000 HD 
HETATM   16  C   UNL     1     -11.985  12.565  65.955  1.00  0.00    -0.409 C  
HETATM   17  N   UNL     1     -11.727  11.385  66.657  1.00  0.00    -0.372 NA 
HETATM   18  O   UNL     1     -13.012  12.877  65.385  1.00  0.00    -0.615 OA 
ENDBRANCH   9  11
ENDBRANCH   6   9
ENDBRANCH   2   3
TORSDOF 3
ENDMDL
MODEL      210
REMARK 921   NORMALIZED FREE ENERGY PREDICTED BY IDOCK:   -3.22 KCAL/MOL
REMARK 922        TOTAL FREE ENERGY PREDICTED BY IDOCK:   -4.18 KCAL/MOL
REMARK 923 INTER-LIGAND FREE ENERGY PREDICTED BY IDOCK:   -4.00 KCAL/MOL
REMARK 924 INTRA-LIGAND FREE ENERGY PREDICTED BY IDOCK:   -0.18 KCAL/MOL
REMARK 927      BINDING AFFINITY PREDICTED BY RF-SCORE:    0.00 PKD
ROOT
HETATM    1  C   UNL     1      -9.637  10.338  66.031  1.00  0.00    -0.206 C  
HETATM    2  S   UNL     1      -8.379  10.916  67.202  1.00  0.00    -0.128 SA 
ENDROOT
BRANCH   2   3
HETATM    3  C   UNL     1      -8.921  12.601  67.407  1.00  0.00    -0.190 A  
HETATM    4  C   UNL     1      -8.792  13.255  68.633  1.00  0.00     0.038 A  
HETATM    5  C   UNL     1      -9.222  14.578  68.772  1.00  0.00    -0.162 A  
HETATM    6  C   UNL     1      -9.784  15.267  67.688  1.00  0.00    -0.208 A  
HETATM    7  C   UNL     1      -9.448  13.296  66.312  1.00  0.00    -0.196 A  
HETATM    8  C   UNL     1      -9.871  14.626  66.446  1.00  0.00    -0.302 A  
BRANCH   6   9
HETATM    9  C   UNL     1     -10.182  16.682  67.912  1.00  0.00    -0.284 C  
HETATM   10  O   UNL     1     -11.360  16.919  68.171  1.00  0.00    -0.217 OA 
BRANCH   9  11
HETATM   11  C   UNL     1      -9.193  17.786  67.777  1.00  0.00    -0.256 C  
HETATM   12  C   UNL     1      -9.391  18.967  67.154  1.00  0.00    -0.307 C  
HETATM   13  C   UNL     1     -10.571  19.554  66.467  1.00  0.00    -0.579 C  
HETATM   14  N   UNL     1      -8.211  19.682  67.205  1.00  0.00    -0.286 N  
HETATM   15  H   UNL     1      -8.073  20.616  66.822  1.00  0.00     0.000 HD 
HETATM   16  C   UNL     1      -7.237  18.928  67.861  1.00  0.00    -0.239 C  
HETATM   17  N   UNL     1      -7.885  17.742  68.212  1.00  0.00    -0.269 NA 
HETATM   18  O   UNL     1      -6.079  19.230  68.074  1.00  0.00    -0.208 OA 
ENDBRANCH   9  11
ENDBRANCH   6   9
ENDBRANCH   2   3
TORSDOF 3
ENDMDL
MODEL      211
REMARK 921   NORMALIZED FREE ENERGY PREDICTED BY IDOCK:   -3.21 KCAL/MOL
REMARK 922        TOTAL FREE ENERGY PREDICTED BY IDOCK:   -4.17 KCAL/MOL
REMARK 923 INTER-LIGAND FREE ENERGY PREDICTED BY IDOCK:   -3.77 KCAL/MOL
REMARK 924 INTRA-LIGAND FREE ENERGY PREDICTED BY IDOCK:   -0.39 KCAL/MOL
REMARK 927      BINDING AFFINITY PREDICTED BY RF-SCORE:    0.00 PKD
ROOT
HETATM    1  C   UNL     1     -12.611  14.086  65.855  1.00  0.00    -0.449 C  
HETATM    2  S   UNL     1     -11.072  14.487  66.726  1.00  0.00    -0.332 SA 
ENDROOT
BRANCH   2   3
HETATM    3  C   UNL     1     -10.800  12.941  67.569  1.00  0.00    -0.235 A  
HETATM    4  C   UNL     1      -9.509  12.474  67.819  1.00  0.00    -0.197 A  
HETATM    5  C   UNL     1      -9.317  11.260  68.482  1.00  0.00    -0.182 A  
HETATM    6  C   UNL     1     -10.413  10.494  68.908  1.00  0.00    -0.226 A  
HETATM    7  C   UNL     1     -11.896  12.199  68.023  1.00  0.00    -0.351 A  
HETATM    8  C   UNL     1     -11.707  10.985  68.698  1.00  0.00    -0.367 A  
BRANCH   6   9
HETATM    9  C   UNL     1     -10.121   9.232  69.639  1.00  0.00    -0.197 C  
HETATM   10  O   UNL     1     -11.050   8.456  69.850  1.00  0.00    -0.216 OA 
BRANCH   9  11
HETATM   11  C   UNL     1      -8.752   8.940  70.143  1.00  0.00    -0.161 C  
HETATM   12  C   UNL     1      -7.853   8.104  69.582  1.00  0.00    -0.103 C  
HETATM   13  C   UNL     1      -7.889   7.271  68.351  1.00  0.00    -0.122 C  
HETATM   14  N   UNL     1      -6.733   8.073  70.389  1.00  0.00    -0.037 N  
HETATM   15  H   UNL     1      -5.890   7.531  70.202  1.00  0.00     0.000 HD 
HETATM   16  C   UNL     1      -6.934   8.895  71.497  1.00  0.00    -0.067 C  
HETATM   17  N   UNL     1      -8.211   9.430  71.313  1.00  0.00    -0.280 NA 
HETATM   18  O   UNL     1      -6.173   9.099  72.423  1.00  0.00    -0.250 OA 
ENDBRANCH   9  11
ENDBRANCH   6   9
ENDBRANCH   2   3
TORSDOF 3
ENDMDL
MODEL      212
REMARK 921   NORMALIZED FREE ENERGY PREDICTED BY IDOCK:   -3.20 KCAL/MOL
REMARK 922        TOTAL FREE ENERGY PREDICTED BY IDOCK:   -4.15 KCAL/MOL
REMARK 923 INTER-LIGAND FREE ENERGY PREDICTED BY IDOCK:   -3.73 KCAL/MOL
REMARK 924 INTRA-LIGAND FREE ENERGY PREDICTED BY IDOCK:   -0.42 KCAL/MOL
REMARK 927      BINDING AFFINITY PREDICTED BY RF-SCORE:    0.00 PKD
ROOT
HETATM    1  C   UNL     1     -12.382  15.331  70.540  1.00  0.00    -0.387 C  
HETATM    2  S   UNL     1     -11.811  15.792  68.882  1.00  0.00    -0.240 SA 
ENDROOT
BRANCH   2   3
HETATM    3  C   UNL     1     -10.982  14.281  68.427  1.00  0.00    -0.253 A  
HETATM    4  C   UNL     1     -11.705  13.122  68.142  1.00  0.00    -0.391 A  
HETATM    5  C   UNL     1     -11.036  11.948  67.785  1.00  0.00    -0.295 A  
HETATM    6  C   UNL     1      -9.636  11.916  67.706  1.00  0.00    -0.190 A  
HETATM    7  C   UNL     1      -9.588  14.264  68.314  1.00  0.00    -0.221 A  
HETATM    8  C   UNL     1      -8.914  13.091  67.947  1.00  0.00    -0.200 A  
BRANCH   6   9
HETATM    9  C   UNL     1      -9.005  10.637  67.284  1.00  0.00    -0.136 C  
HETATM   10  O   UNL     1      -8.721   9.816  68.154  1.00  0.00    -0.119 OA 
BRANCH   9  11
HETATM   11  C   UNL     1      -8.682  10.377  65.855  1.00  0.00    -0.158 C  
HETATM   12  C   UNL     1      -7.469  10.492  65.274  1.00  0.00    -0.065 C  
HETATM   13  C   UNL     1      -6.131  10.855  65.810  1.00  0.00    -0.073 C  
HETATM   14  N   UNL     1      -7.609  10.217  63.929  1.00  0.00    -0.256 N  
HETATM   15  H   UNL     1      -6.852  10.218  63.247  1.00  0.00     0.000 HD 
HETATM   16  C   UNL     1      -8.947   9.939  63.646  1.00  0.00    -0.251 C  
HETATM   17  N   UNL     1      -9.597  10.044  64.878  1.00  0.00    -0.294 NA 
HETATM   18  O   UNL     1      -9.442   9.672  62.569  1.00  0.00    -0.203 OA 
ENDBRANCH   9  11
ENDBRANCH   6   9
ENDBRANCH   2   3
TORSDOF 3
ENDMDL
MODEL      213
REMARK 921   NORMALIZED FREE ENERGY PREDICTED BY IDOCK:   -3.19 KCAL/MOL
REMARK 922        TOTAL FREE ENERGY PREDICTED BY IDOCK:   -4.14 KCAL/MOL
REMARK 923 INTER-LIGAND FREE ENERGY PREDICTED BY IDOCK:   -3.70 KCAL/MOL
REMARK 924 INTRA-LIGAND FREE ENERGY PREDICTED BY IDOCK:   -0.44 KCAL/MOL
REMARK 927      BINDING AFFINITY PREDICTED BY RF-SCORE:    0.00 PKD
ROOT
HETATM    1  C   UNL     1     -13.082  10.755  71.819  1.00  0.00    -0.468 C  
HETATM    2  S   UNL     1     -13.840   9.119  72.004  1.00  0.00    -0.396 SA 
ENDROOT
BRANCH   2   3
HETATM    3  C   UNL     1     -12.372   8.109  71.962  1.00  0.00    -0.338 A  
HETATM    4  C   UNL     1     -12.455   6.726  71.800  1.00  0.00    -0.394 A  
HETATM    5  C   UNL     1     -11.292   5.951  71.768  1.00  0.00    -0.289 A  
HETATM    6  C   UNL     1     -10.029   6.549  71.895  1.00  0.00    -0.192 A  
HETATM    7  C   UNL     1     -11.114   8.714  72.053  1.00  0.00    -0.437 A  
HETATM    8  C   UNL     1      -9.945   7.941  72.011  1.00  0.00    -0.251 A  
BRANCH   6   9
HETATM    9  C   UNL     1      -8.842   5.657  71.814  1.00  0.00    -0.136 C  
HETATM   10  O   UNL     1      -8.075   5.624  72.774  1.00  0.00    -0.105 OA 
BRANCH   9  11
HETATM   11  C   UNL     1      -8.562   4.864  70.587  1.00  0.00    -0.109 C  
HETATM   12  C   UNL     1      -8.808   3.549  70.409  1.00  0.00    -0.082 C  
HETATM   13  C   UNL     1      -9.419   2.515  71.285  1.00  0.00    -0.220 C  
HETATM   14  N   UNL     1      -8.352   3.192  69.156  1.00  0.00    -0.059 N  
HETATM   15  H   UNL     1      -8.417   2.259  68.751  1.00  0.00     0.000 HD 
HETATM   16  C   UNL     1      -7.788   4.304  68.530  1.00  0.00    -0.074 C  
HETATM   17  N   UNL     1      -7.939   5.342  69.453  1.00  0.00    -0.087 NA 
HETATM   18  O   UNL     1      -7.274   4.361  67.431  1.00  0.00    -0.067 OA 
ENDBRANCH   9  11
ENDBRANCH   6   9
ENDBRANCH   2   3
TORSDOF 3
ENDMDL
MODEL      214
REMARK 921   NORMALIZED FREE ENERGY PREDICTED BY IDOCK:   -3.19 KCAL/MOL
REMARK 922        TOTAL FREE ENERGY PREDICTED BY IDOCK:   -4.14 KCAL/MOL
REMARK 923 INTER-LIGAND FREE ENERGY PREDICTED BY IDOCK:   -3.70 KCAL/MOL
REMARK 924 INTRA-LIGAND FREE ENERGY PREDICTED BY IDOCK:   -0.44 KCAL/MOL
REMARK 927      BINDING AFFINITY PREDICTED BY RF-SCORE:    0.00 PKD
ROOT
HETATM    1  C   UNL     1      -8.655   9.208  65.461  1.00  0.00    -0.170 C  
HETATM    2  S   UNL     1      -7.419   9.158  66.786  1.00  0.00    -0.086 SA 
ENDROOT
BRANCH   2   3
HETATM    3  C   UNL     1      -8.490   8.848  68.176  1.00  0.00    -0.129 A  
HETATM    4  C   UNL     1      -9.238   9.876  68.752  1.00  0.00    -0.147 A  
HETATM    5  C   UNL     1     -10.073   9.612  69.841  1.00  0.00    -0.279 A  
HETATM    6  C   UNL     1     -10.177   8.316  70.367  1.00  0.00    -0.209 A  
HETATM    7  C   UNL     1      -8.618   7.547  68.675  1.00  0.00    -0.129 A  
HETATM    8  C   UNL     1      -9.463   7.277  69.760  1.00  0.00    -0.149 A  
BRANCH   6   9
HETATM    9  C   UNL     1     -11.116   8.114  71.503  1.00  0.00    -0.252 C  
HETATM   10  O   UNL     1     -12.005   8.946  71.674  1.00  0.00    -0.301 OA 
BRANCH   9  11
HETATM   11  C   UNL     1     -10.955   6.966  72.434  1.00  0.00    -0.246 C  
HETATM   12  C   UNL     1     -10.050   6.862  73.430  1.00  0.00    -0.259 C  
HETATM   13  C   UNL     1      -9.000   7.788  73.933  1.00  0.00    -0.317 C  
HETATM   14  N   UNL     1     -10.196   5.622  74.017  1.00  0.00    -0.236 N  
HETATM   15  H   UNL     1      -9.649   5.276  74.805  1.00  0.00     0.000 HD 
HETATM   16  C   UNL     1     -11.207   4.914  73.367  1.00  0.00    -0.338 C  
HETATM   17  N   UNL     1     -11.668   5.786  72.378  1.00  0.00    -0.280 NA 
HETATM   18  O   UNL     1     -11.598   3.787  73.600  1.00  0.00    -0.166 OA 
ENDBRANCH   9  11
ENDBRANCH   6   9
ENDBRANCH   2   3
TORSDOF 3
ENDMDL
MODEL      215
REMARK 921   NORMALIZED FREE ENERGY PREDICTED BY IDOCK:   -3.17 KCAL/MOL
REMARK 922        TOTAL FREE ENERGY PREDICTED BY IDOCK:   -4.11 KCAL/MOL
REMARK 923 INTER-LIGAND FREE ENERGY PREDICTED BY IDOCK:   -3.67 KCAL/MOL
REMARK 924 INTRA-LIGAND FREE ENERGY PREDICTED BY IDOCK:   -0.44 KCAL/MOL
REMARK 927      BINDING AFFINITY PREDICTED BY RF-SCORE:    0.00 PKD
ROOT
HETATM    1  C   UNL     1     -12.970  10.700  71.785  1.00  0.00    -0.472 C  
HETATM    2  S   UNL     1     -13.713   9.053  71.930  1.00  0.00    -0.442 SA 
ENDROOT
BRANCH   2   3
HETATM    3  C   UNL     1     -12.258   8.052  71.691  1.00  0.00    -0.307 A  
HETATM    4  C   UNL     1     -12.295   6.907  70.894  1.00  0.00    -0.365 A  
HETATM    5  C   UNL     1     -11.143   6.136  70.718  1.00  0.00    -0.375 A  
HETATM    6  C   UNL     1      -9.936   6.500  71.334  1.00  0.00    -0.202 A  
HETATM    7  C   UNL     1     -11.048   8.439  72.278  1.00  0.00    -0.438 A  
HETATM    8  C   UNL     1      -9.888   7.674  72.095  1.00  0.00    -0.226 A  
BRANCH   6   9
HETATM    9  C   UNL     1      -8.749   5.646  71.066  1.00  0.00    -0.134 C  
HETATM   10  O   UNL     1      -8.386   5.507  69.899  1.00  0.00    -0.102 OA 
BRANCH   9  11
HETATM   11  C   UNL     1      -8.049   4.938  72.172  1.00  0.00    -0.111 C  
HETATM   12  C   UNL     1      -8.579   3.999  72.984  1.00  0.00    -0.099 C  
HETATM   13  C   UNL     1      -9.923   3.365  73.043  1.00  0.00    -0.208 C  
HETATM   14  N   UNL     1      -7.619   3.640  73.909  1.00  0.00    -0.068 N  
HETATM   15  H   UNL     1      -7.741   2.940  74.640  1.00  0.00     0.000 HD 
HETATM   16  C   UNL     1      -6.459   4.381  73.689  1.00  0.00    -0.051 C  
HETATM   17  N   UNL     1      -6.758   5.187  72.587  1.00  0.00    -0.067 NA 
HETATM   18  O   UNL     1      -5.419   4.344  74.316  1.00  0.00    -0.008 OA 
ENDBRANCH   9  11
ENDBRANCH   6   9
ENDBRANCH   2   3
TORSDOF 3
ENDMDL
MODEL      216
REMARK 921   NORMALIZED FREE ENERGY PREDICTED BY IDOCK:   -3.16 KCAL/MOL
REMARK 922        TOTAL FREE ENERGY PREDICTED BY IDOCK:   -4.10 KCAL/MOL
REMARK 923 INTER-LIGAND FREE ENERGY PREDICTED BY IDOCK:   -3.73 KCAL/MOL
REMARK 924 INTRA-LIGAND FREE ENERGY PREDICTED BY IDOCK:   -0.37 KCAL/MOL
REMARK 927      BINDING AFFINITY PREDICTED BY RF-SCORE:    0.00 PKD
ROOT
HETATM    1  C   UNL     1     -10.905  15.725  67.015  1.00  0.00    -0.273 C  
HETATM    2  S   UNL     1     -10.750  14.403  65.784  1.00  0.00    -0.323 SA 
ENDROOT
BRANCH   2   3
HETATM    3  C   UNL     1     -10.751  12.989  66.869  1.00  0.00    -0.262 A  
HETATM    4  C   UNL     1     -10.059  11.824  66.534  1.00  0.00    -0.232 A  
HETATM    5  C   UNL     1     -10.071  10.727  67.399  1.00  0.00    -0.227 A  
HETATM    6  C   UNL     1     -10.771  10.779  68.613  1.00  0.00    -0.242 A  
HETATM    7  C   UNL     1     -11.420  13.059  68.096  1.00  0.00    -0.356 A  
HETATM    8  C   UNL     1     -11.425  11.963  68.970  1.00  0.00    -0.355 A  
BRANCH   6   9
HETATM    9  C   UNL     1     -10.702   9.581  69.492  1.00  0.00    -0.228 C  
HETATM   10  O   UNL     1     -11.448   9.534  70.468  1.00  0.00    -0.262 OA 
BRANCH   9  11
HETATM   11  C   UNL     1      -9.723   8.492  69.226  1.00  0.00    -0.173 C  
HETATM   12  C   UNL     1      -9.913   7.422  68.425  1.00  0.00    -0.164 C  
HETATM   13  C   UNL     1     -11.054   6.997  67.571  1.00  0.00    -0.231 C  
HETATM   14  N   UNL     1      -8.787   6.627  68.497  1.00  0.00    -0.123 N  
HETATM   15  H   UNL     1      -8.649   5.756  67.985  1.00  0.00     0.000 HD 
HETATM   16  C   UNL     1      -7.868   7.197  69.377  1.00  0.00    -0.113 C  
HETATM   17  N   UNL     1      -8.483   8.372  69.817  1.00  0.00    -0.125 NA 
HETATM   18  O   UNL     1      -6.778   6.768  69.699  1.00  0.00    -0.047 OA 
ENDBRANCH   9  11
ENDBRANCH   6   9
ENDBRANCH   2   3
TORSDOF 3
ENDMDL
MODEL      217
REMARK 921   NORMALIZED FREE ENERGY PREDICTED BY IDOCK:   -3.16 KCAL/MOL
REMARK 922        TOTAL FREE ENERGY PREDICTED BY IDOCK:   -4.10 KCAL/MOL
REMARK 923 INTER-LIGAND FREE ENERGY PREDICTED BY IDOCK:   -3.87 KCAL/MOL
REMARK 924 INTRA-LIGAND FREE ENERGY PREDICTED BY IDOCK:   -0.23 KCAL/MOL
REMARK 927      BINDING AFFINITY PREDICTED BY RF-SCORE:    0.00 PKD
ROOT
HETATM    1  C   UNL     1      -8.085  15.159  67.192  1.00  0.00    -0.214 C  
HETATM    2  S   UNL     1      -9.792  14.893  66.642  1.00  0.00    -0.272 SA 
ENDROOT
BRANCH   2   3
HETATM    3  C   UNL     1      -9.920  13.138  66.921  1.00  0.00    -0.245 A  
HETATM    4  C   UNL     1     -11.153  12.487  66.859  1.00  0.00    -0.323 A  
HETATM    5  C   UNL     1     -11.233  11.110  67.079  1.00  0.00    -0.291 A  
HETATM    6  C   UNL     1     -10.081  10.361  67.363  1.00  0.00    -0.237 A  
HETATM    7  C   UNL     1      -8.764  12.390  67.168  1.00  0.00    -0.195 A  
HETATM    8  C   UNL     1      -8.839  11.006  67.379  1.00  0.00    -0.138 A  
BRANCH   6   9
HETATM    9  C   UNL     1     -10.248   8.895  67.549  1.00  0.00    -0.248 C  
HETATM   10  O   UNL     1     -10.307   8.187  66.546  1.00  0.00    -0.273 OA 
BRANCH   9  11
HETATM   11  C   UNL     1     -10.391   8.308  68.908  1.00  0.00    -0.215 C  
HETATM   12  C   UNL     1      -9.860   7.143  69.337  1.00  0.00    -0.161 C  
HETATM   13  C   UNL     1      -8.994   6.131  68.676  1.00  0.00    -0.126 C  
HETATM   14  N   UNL     1     -10.274   6.936  70.637  1.00  0.00    -0.195 N  
HETATM   15  H   UNL     1     -10.016   6.137  71.216  1.00  0.00     0.000 HD 
HETATM   16  C   UNL     1     -11.101   7.986  71.037  1.00  0.00    -0.253 C  
HETATM   17  N   UNL     1     -11.153   8.835  69.929  1.00  0.00    -0.180 NA 
HETATM   18  O   UNL     1     -11.660   8.130  72.106  1.00  0.00    -0.307 OA 
ENDBRANCH   9  11
ENDBRANCH   6   9
ENDBRANCH   2   3
TORSDOF 3
ENDMDL
MODEL      218
REMARK 921   NORMALIZED FREE ENERGY PREDICTED BY IDOCK:   -3.14 KCAL/MOL
REMARK 922        TOTAL FREE ENERGY PREDICTED BY IDOCK:   -4.08 KCAL/MOL
REMARK 923 INTER-LIGAND FREE ENERGY PREDICTED BY IDOCK:   -3.66 KCAL/MOL
REMARK 924 INTRA-LIGAND FREE ENERGY PREDICTED BY IDOCK:   -0.42 KCAL/MOL
REMARK 927      BINDING AFFINITY PREDICTED BY RF-SCORE:    0.00 PKD
ROOT
HETATM    1  C   UNL     1     -10.755  15.361  64.959  1.00  0.00    -0.438 C  
HETATM    2  S   UNL     1     -11.012  15.160  66.742  1.00  0.00    -0.304 SA 
ENDROOT
BRANCH   2   3
HETATM    3  C   UNL     1     -10.311  13.536  66.959  1.00  0.00    -0.252 A  
HETATM    4  C   UNL     1      -9.145  13.349  67.703  1.00  0.00    -0.203 A  
HETATM    5  C   UNL     1      -8.612  12.067  67.862  1.00  0.00    -0.165 A  
HETATM    6  C   UNL     1      -9.238  10.953  67.283  1.00  0.00    -0.160 A  
HETATM    7  C   UNL     1     -10.959  12.424  66.410  1.00  0.00    -0.315 A  
HETATM    8  C   UNL     1     -10.432  11.136  66.577  1.00  0.00    -0.305 A  
BRANCH   6   9
HETATM    9  C   UNL     1      -8.625   9.621  67.532  1.00  0.00    -0.126 C  
HETATM   10  O   UNL     1      -8.124   9.410  68.634  1.00  0.00    -0.101 OA 
BRANCH   9  11
HETATM   11  C   UNL     1      -8.576   8.590  66.461  1.00  0.00    -0.121 C  
HETATM   12  C   UNL     1      -9.375   7.507  66.353  1.00  0.00    -0.157 C  
HETATM   13  C   UNL     1     -10.513   7.014  67.174  1.00  0.00    -0.383 C  
HETATM   14  N   UNL     1      -8.966   6.779  65.255  1.00  0.00    -0.358 N  
HETATM   15  H   UNL     1      -9.399   5.916  64.928  1.00  0.00     0.000 HD 
HETATM   16  C   UNL     1      -7.870   7.405  64.661  1.00  0.00    -0.123 C  
HETATM   17  N   UNL     1      -7.650   8.543  65.440  1.00  0.00    -0.085 NA 
HETATM   18  O   UNL     1      -7.239   7.041  63.688  1.00  0.00    -0.060 OA 
ENDBRANCH   9  11
ENDBRANCH   6   9
ENDBRANCH   2   3
TORSDOF 3
ENDMDL
MODEL      219
REMARK 921   NORMALIZED FREE ENERGY PREDICTED BY IDOCK:   -3.13 KCAL/MOL
REMARK 922        TOTAL FREE ENERGY PREDICTED BY IDOCK:   -4.07 KCAL/MOL
REMARK 923 INTER-LIGAND FREE ENERGY PREDICTED BY IDOCK:   -3.83 KCAL/MOL
REMARK 924 INTRA-LIGAND FREE ENERGY PREDICTED BY IDOCK:   -0.25 KCAL/MOL
REMARK 927      BINDING AFFINITY PREDICTED BY RF-SCORE:    0.00 PKD
ROOT
HETATM    1  C   UNL     1     -11.159   2.763  73.498  1.00  0.00    -0.213 C  
HETATM    2  S   UNL     1     -10.578   4.421  73.947  1.00  0.00    -0.281 SA 
ENDROOT
BRANCH   2   3
HETATM    3  C   UNL     1     -10.556   5.172  72.332  1.00  0.00    -0.221 A  
HETATM    4  C   UNL     1      -9.590   4.821  71.388  1.00  0.00    -0.224 A  
HETATM    5  C   UNL     1      -9.590   5.421  70.126  1.00  0.00    -0.235 A  
HETATM    6  C   UNL     1     -10.559   6.378  69.787  1.00  0.00    -0.309 A  
HETATM    7  C   UNL     1     -11.546   6.099  71.986  1.00  0.00    -0.364 A  
HETATM    8  C   UNL     1     -11.555   6.695  70.717  1.00  0.00    -0.432 A  
BRANCH   6   9
HETATM    9  C   UNL     1     -10.510   6.941  68.411  1.00  0.00    -0.204 C  
HETATM   10  O   UNL     1     -11.273   6.475  67.567  1.00  0.00    -0.343 OA 
BRANCH   9  11
HETATM   11  C   UNL     1      -9.531   8.003  68.053  1.00  0.00    -0.146 C  
HETATM   12  C   UNL     1      -9.277   9.127  68.755  1.00  0.00    -0.136 C  
HETATM   13  C   UNL     1      -9.810   9.650  70.041  1.00  0.00    -0.286 C  
HETATM   14  N   UNL     1      -8.348   9.870  68.055  1.00  0.00    -0.113 N  
HETATM   15  H   UNL     1      -7.962  10.764  68.356  1.00  0.00     0.000 HD 
HETATM   16  C   UNL     1      -8.019   9.209  66.871  1.00  0.00    -0.105 C  
HETATM   17  N   UNL     1      -8.776   8.036  66.900  1.00  0.00    -0.127 NA 
HETATM   18  O   UNL     1      -7.250   9.572  66.002  1.00  0.00    -0.090 OA 
ENDBRANCH   9  11
ENDBRANCH   6   9
ENDBRANCH   2   3
TORSDOF 3
ENDMDL
MODEL      220
REMARK 921   NORMALIZED FREE ENERGY PREDICTED BY IDOCK:   -3.13 KCAL/MOL
REMARK 922        TOTAL FREE ENERGY PREDICTED BY IDOCK:   -4.07 KCAL/MOL
REMARK 923 INTER-LIGAND FREE ENERGY PREDICTED BY IDOCK:   -3.67 KCAL/MOL
REMARK 924 INTRA-LIGAND FREE ENERGY PREDICTED BY IDOCK:   -0.39 KCAL/MOL
REMARK 927      BINDING AFFINITY PREDICTED BY RF-SCORE:    0.00 PKD
ROOT
HETATM    1  C   UNL     1     -13.137  10.437  71.847  1.00  0.00    -0.458 C  
HETATM    2  S   UNL     1     -12.977   8.695  72.325  1.00  0.00    -0.362 SA 
ENDROOT
BRANCH   2   3
HETATM    3  C   UNL     1     -11.877   8.137  71.039  1.00  0.00    -0.260 A  
HETATM    4  C   UNL     1     -11.911   6.818  70.585  1.00  0.00    -0.442 A  
HETATM    5  C   UNL     1     -11.040   6.401  69.574  1.00  0.00    -0.460 A  
HETATM    6  C   UNL     1     -10.125   7.297  69.001  1.00  0.00    -0.186 A  
HETATM    7  C   UNL     1     -10.991   9.043  70.446  1.00  0.00    -0.283 A  
HETATM    8  C   UNL     1     -10.123   8.631  69.425  1.00  0.00    -0.204 A  
BRANCH   6   9
HETATM    9  C   UNL     1      -9.260   6.781  67.907  1.00  0.00    -0.112 C  
HETATM   10  O   UNL     1      -8.973   7.543  66.986  1.00  0.00    -0.123 OA 
BRANCH   9  11
HETATM   11  C   UNL     1      -8.795   5.368  67.901  1.00  0.00    -0.105 C  
HETATM   12  C   UNL     1      -9.171   4.404  67.034  1.00  0.00    -0.141 C  
HETATM   13  C   UNL     1     -10.080   4.412  65.857  1.00  0.00    -0.262 C  
HETATM   14  N   UNL     1      -8.556   3.226  67.407  1.00  0.00    -0.102 N  
HETATM   15  H   UNL     1      -8.651   2.334  66.922  1.00  0.00     0.000 HD 
HETATM   16  C   UNL     1      -7.784   3.444  68.548  1.00  0.00    -0.055 C  
HETATM   17  N   UNL     1      -7.952   4.801  68.833  1.00  0.00    -0.075 NA 
HETATM   18  O   UNL     1      -7.119   2.635  69.165  1.00  0.00    -0.043 OA 
ENDBRANCH   9  11
ENDBRANCH   6   9
ENDBRANCH   2   3
TORSDOF 3
ENDMDL
MODEL      221
REMARK 921   NORMALIZED FREE ENERGY PREDICTED BY IDOCK:   -3.10 KCAL/MOL
REMARK 922        TOTAL FREE ENERGY PREDICTED BY IDOCK:   -4.03 KCAL/MOL
REMARK 923 INTER-LIGAND FREE ENERGY PREDICTED BY IDOCK:   -3.58 KCAL/MOL
REMARK 924 INTRA-LIGAND FREE ENERGY PREDICTED BY IDOCK:   -0.45 KCAL/MOL
REMARK 927      BINDING AFFINITY PREDICTED BY RF-SCORE:    0.00 PKD
ROOT
HETATM    1  C   UNL     1     -12.270  13.626  66.095  1.00  0.00    -0.444 C  
HETATM    2  S   UNL     1     -11.431  14.004  67.658  1.00  0.00    -0.355 SA 
ENDROOT
BRANCH   2   3
HETATM    3  C   UNL     1     -10.936  12.359  68.130  1.00  0.00    -0.228 A  
HETATM    4  C   UNL     1     -11.874  11.421  68.563  1.00  0.00    -0.364 A  
HETATM    5  C   UNL     1     -11.465  10.135  68.928  1.00  0.00    -0.125 A  
HETATM    6  C   UNL     1     -10.113   9.767  68.863  1.00  0.00    -0.194 A  
HETATM    7  C   UNL     1      -9.591  11.986  68.030  1.00  0.00    -0.199 A  
HETATM    8  C   UNL     1      -9.179  10.694  68.385  1.00  0.00    -0.159 A  
BRANCH   6   9
HETATM    9  C   UNL     1      -9.768   8.369  69.235  1.00  0.00    -0.177 C  
HETATM   10  O   UNL     1      -9.614   8.107  70.426  1.00  0.00    -0.169 OA 
BRANCH   9  11
HETATM   11  C   UNL     1      -9.566   7.328  68.191  1.00  0.00    -0.140 C  
HETATM   12  C   UNL     1      -8.409   7.043  67.557  1.00  0.00    -0.119 C  
HETATM   13  C   UNL     1      -7.034   7.596  67.681  1.00  0.00    -0.081 C  
HETATM   14  N   UNL     1      -8.661   6.055  66.627  1.00  0.00    -0.111 N  
HETATM   15  H   UNL     1      -7.965   5.637  66.010  1.00  0.00     0.000 HD 
HETATM   16  C   UNL     1     -10.014   5.717  66.660  1.00  0.00    -0.176 C  
HETATM   17  N   UNL     1     -10.556   6.532  67.656  1.00  0.00    -0.231 NA 
HETATM   18  O   UNL     1     -10.597   4.902  65.972  1.00  0.00    -0.305 OA 
ENDBRANCH   9  11
ENDBRANCH   6   9
ENDBRANCH   2   3
TORSDOF 3
ENDMDL
MODEL      222
REMARK 921   NORMALIZED FREE ENERGY PREDICTED BY IDOCK:   -3.07 KCAL/MOL
REMARK 922        TOTAL FREE ENERGY PREDICTED BY IDOCK:   -4.00 KCAL/MOL
REMARK 923 INTER-LIGAND FREE ENERGY PREDICTED BY IDOCK:   -3.55 KCAL/MOL
REMARK 924 INTRA-LIGAND FREE ENERGY PREDICTED BY IDOCK:   -0.45 KCAL/MOL
REMARK 927      BINDING AFFINITY PREDICTED BY RF-SCORE:    0.00 PKD
ROOT
HETATM    1  C   UNL     1     -11.406   5.342  72.834  1.00  0.00    -0.303 C  
HETATM    2  S   UNL     1     -10.605   6.822  73.509  1.00  0.00    -0.310 SA 
ENDROOT
BRANCH   2   3
HETATM    3  C   UNL     1      -9.879   7.470  72.017  1.00  0.00    -0.163 A  
HETATM    4  C   UNL     1      -9.758   8.846  71.813  1.00  0.00    -0.365 A  
HETATM    5  C   UNL     1      -9.185   9.334  70.636  1.00  0.00    -0.321 A  
HETATM    6  C   UNL     1      -8.720   8.455  69.647  1.00  0.00    -0.133 A  
HETATM    7  C   UNL     1      -9.384   6.589  71.049  1.00  0.00    -0.164 A  
HETATM    8  C   UNL     1      -8.799   7.076  69.871  1.00  0.00    -0.142 A  
BRANCH   6   9
HETATM    9  C   UNL     1      -8.091   9.057  68.441  1.00  0.00    -0.108 C  
HETATM   10  O   UNL     1      -6.880   9.267  68.464  1.00  0.00    -0.061 OA 
BRANCH   9  11
HETATM   11  C   UNL     1      -8.910   9.438  67.260  1.00  0.00    -0.128 C  
HETATM   12  C   UNL     1      -9.450   8.597  66.353  1.00  0.00    -0.230 C  
HETATM   13  C   UNL     1      -9.447   7.115  66.233  1.00  0.00    -0.125 C  
HETATM   14  N   UNL     1     -10.084   9.353  65.389  1.00  0.00    -0.317 N  
HETATM   15  H   UNL     1     -10.589   8.979  64.586  1.00  0.00     0.000 HD 
HETATM   16  C   UNL     1      -9.930  10.708  65.682  1.00  0.00    -0.268 C  
HETATM   17  N   UNL     1      -9.190  10.730  66.866  1.00  0.00    -0.155 NA 
HETATM   18  O   UNL     1     -10.339  11.661  65.047  1.00  0.00    -0.256 OA 
ENDBRANCH   9  11
ENDBRANCH   6   9
ENDBRANCH   2   3
TORSDOF 3
ENDMDL
MODEL      223
REMARK 921   NORMALIZED FREE ENERGY PREDICTED BY IDOCK:   -3.07 KCAL/MOL
REMARK 922        TOTAL FREE ENERGY PREDICTED BY IDOCK:   -4.00 KCAL/MOL
REMARK 923 INTER-LIGAND FREE ENERGY PREDICTED BY IDOCK:   -3.67 KCAL/MOL
REMARK 924 INTRA-LIGAND FREE ENERGY PREDICTED BY IDOCK:   -0.33 KCAL/MOL
REMARK 927      BINDING AFFINITY PREDICTED BY RF-SCORE:    0.00 PKD
ROOT
HETATM    1  C   UNL     1      -8.283   6.051  63.661  1.00  0.00    -0.025 C  
HETATM    2  S   UNL     1      -8.674   4.524  64.558  1.00  0.00    -0.152 SA 
ENDROOT
BRANCH   2   3
HETATM    3  C   UNL     1      -9.057   5.212  66.156  1.00  0.00    -0.144 A  
HETATM    4  C   UNL     1     -10.343   5.116  66.691  1.00  0.00    -0.325 A  
HETATM    5  C   UNL     1     -10.623   5.662  67.947  1.00  0.00    -0.266 A  
HETATM    6  C   UNL     1      -9.622   6.308  68.688  1.00  0.00    -0.128 A  
HETATM    7  C   UNL     1      -8.047   5.824  66.906  1.00  0.00    -0.102 A  
HETATM    8  C   UNL     1      -8.323   6.363  68.171  1.00  0.00    -0.116 A  
BRANCH   6   9
HETATM    9  C   UNL     1      -9.996   6.828  70.030  1.00  0.00    -0.176 C  
HETATM   10  O   UNL     1      -9.662   6.176  71.018  1.00  0.00    -0.174 OA 
BRANCH   9  11
HETATM   11  C   UNL     1     -10.793   8.076  70.173  1.00  0.00    -0.242 C  
HETATM   12  C   UNL     1     -11.954   8.213  70.847  1.00  0.00    -0.183 C  
HETATM   13  C   UNL     1     -12.769   7.260  71.646  1.00  0.00    -0.410 C  
HETATM   14  N   UNL     1     -12.393   9.511  70.687  1.00  0.00    -0.483 N  
HETATM   15  H   UNL     1     -13.242   9.899  71.097  1.00  0.00     0.000 HD 
HETATM   16  C   UNL     1     -11.498  10.210  69.877  1.00  0.00    -0.254 C  
HETATM   17  N   UNL     1     -10.500   9.283  69.572  1.00  0.00    -0.214 NA 
HETATM   18  O   UNL     1     -11.570  11.367  69.510  1.00  0.00    -0.272 OA 
ENDBRANCH   9  11
ENDBRANCH   6   9
ENDBRANCH   2   3
TORSDOF 3
ENDMDL
MODEL      224
REMARK 921   NORMALIZED FREE ENERGY PREDICTED BY IDOCK:   -3.05 KCAL/MOL
REMARK 922        TOTAL FREE ENERGY PREDICTED BY IDOCK:   -3.97 KCAL/MOL
REMARK 923 INTER-LIGAND FREE ENERGY PREDICTED BY IDOCK:   -3.54 KCAL/MOL
REMARK 924 INTRA-LIGAND FREE ENERGY PREDICTED BY IDOCK:   -0.43 KCAL/MOL
REMARK 927      BINDING AFFINITY PREDICTED BY RF-SCORE:    0.00 PKD
ROOT
HETATM    1  C   UNL     1     -10.374   3.734  64.654  1.00  0.00    -0.163 C  
HETATM    2  S   UNL     1      -9.284   2.694  65.663  1.00  0.00    -0.033 SA 
ENDROOT
BRANCH   2   3
HETATM    3  C   UNL     1      -9.491   3.495  67.241  1.00  0.00    -0.187 A  
HETATM    4  C   UNL     1     -10.155   4.718  67.345  1.00  0.00    -0.177 A  
HETATM    5  C   UNL     1     -10.309   5.330  68.593  1.00  0.00    -0.193 A  
HETATM    6  C   UNL     1      -9.803   4.726  69.754  1.00  0.00    -0.288 A  
HETATM    7  C   UNL     1      -9.017   2.872  68.401  1.00  0.00    -0.192 A  
HETATM    8  C   UNL     1      -9.178   3.478  69.654  1.00  0.00    -0.223 A  
BRANCH   6   9
HETATM    9  C   UNL     1     -10.041   5.426  71.045  1.00  0.00    -0.216 C  
HETATM   10  O   UNL     1     -10.442   4.762  71.998  1.00  0.00    -0.202 OA 
BRANCH   9  11
HETATM   11  C   UNL     1      -9.845   6.896  71.165  1.00  0.00    -0.177 C  
HETATM   12  C   UNL     1     -10.811   7.820  71.357  1.00  0.00    -0.228 C  
HETATM   13  C   UNL     1     -12.283   7.711  71.531  1.00  0.00    -0.351 C  
HETATM   14  N   UNL     1     -10.219   9.066  71.356  1.00  0.00    -0.304 N  
HETATM   15  H   UNL     1     -10.709   9.950  71.491  1.00  0.00     0.000 HD 
HETATM   16  C   UNL     1      -8.847   8.931  71.142  1.00  0.00    -0.237 C  
HETATM   17  N   UNL     1      -8.641   7.554  71.030  1.00  0.00    -0.131 NA 
HETATM   18  O   UNL     1      -8.013   9.812  71.063  1.00  0.00    -0.242 OA 
ENDBRANCH   9  11
ENDBRANCH   6   9
ENDBRANCH   2   3
TORSDOF 3
ENDMDL
MODEL      225
REMARK 921   NORMALIZED FREE ENERGY PREDICTED BY IDOCK:   -3.03 KCAL/MOL
REMARK 922        TOTAL FREE ENERGY PREDICTED BY IDOCK:   -3.95 KCAL/MOL
REMARK 923 INTER-LIGAND FREE ENERGY PREDICTED BY IDOCK:   -3.75 KCAL/MOL
REMARK 924 INTRA-LIGAND FREE ENERGY PREDICTED BY IDOCK:   -0.20 KCAL/MOL
REMARK 927      BINDING AFFINITY PREDICTED BY RF-SCORE:    0.00 PKD
ROOT
HETATM    1  C   UNL     1      -9.021   2.730  68.627  1.00  0.00    -0.136 C  
HETATM    2  S   UNL     1      -8.020   3.594  69.868  1.00  0.00    -0.049 SA 
ENDROOT
BRANCH   2   3
HETATM    3  C   UNL     1      -8.933   5.121  69.969  1.00  0.00    -0.122 A  
HETATM    4  C   UNL     1      -8.285   6.332  70.216  1.00  0.00    -0.125 A  
HETATM    5  C   UNL     1      -9.018   7.519  70.290  1.00  0.00    -0.147 A  
HETATM    6  C   UNL     1     -10.410   7.514  70.115  1.00  0.00    -0.217 A  
HETATM    7  C   UNL     1     -10.316   5.116  69.758  1.00  0.00    -0.332 A  
HETATM    8  C   UNL     1     -11.054   6.306  69.821  1.00  0.00    -0.473 A  
BRANCH   6   9
HETATM    9  C   UNL     1     -11.110   8.825  70.173  1.00  0.00    -0.202 C  
HETATM   10  O   UNL     1     -11.950   8.995  71.054  1.00  0.00    -0.287 OA 
BRANCH   9  11
HETATM   11  C   UNL     1     -10.836   9.884  69.164  1.00  0.00    -0.221 C  
HETATM   12  C   UNL     1     -10.562   9.693  67.857  1.00  0.00    -0.255 C  
HETATM   13  C   UNL     1     -10.471   8.468  67.019  1.00  0.00    -0.362 C  
HETATM   14  N   UNL     1     -10.316  10.924  67.285  1.00  0.00    -0.205 N  
HETATM   15  H   UNL     1     -10.092  11.083  66.303  1.00  0.00     0.000 HD 
HETATM   16  C   UNL     1     -10.420  11.920  68.257  1.00  0.00    -0.205 C  
HETATM   17  N   UNL     1     -10.752  11.235  69.428  1.00  0.00    -0.186 NA 
HETATM   18  O   UNL     1     -10.253  13.116  68.122  1.00  0.00    -0.227 OA 
ENDBRANCH   9  11
ENDBRANCH   6   9
ENDBRANCH   2   3
TORSDOF 3
ENDMDL
MODEL      226
REMARK 921   NORMALIZED FREE ENERGY PREDICTED BY IDOCK:   -3.01 KCAL/MOL
REMARK 922        TOTAL FREE ENERGY PREDICTED BY IDOCK:   -3.93 KCAL/MOL
REMARK 923 INTER-LIGAND FREE ENERGY PREDICTED BY IDOCK:   -3.49 KCAL/MOL
REMARK 924 INTRA-LIGAND FREE ENERGY PREDICTED BY IDOCK:   -0.45 KCAL/MOL
REMARK 927      BINDING AFFINITY PREDICTED BY RF-SCORE:    0.00 PKD
ROOT
HETATM    1  C   UNL     1     -10.556   3.782  63.632  1.00  0.00    -0.246 C  
HETATM    2  S   UNL     1      -8.782   3.779  64.007  1.00  0.00    -0.104 SA 
ENDROOT
BRANCH   2   3
HETATM    3  C   UNL     1      -8.721   5.147  65.147  1.00  0.00    -0.151 A  
HETATM    4  C   UNL     1      -9.245   5.035  66.436  1.00  0.00    -0.139 A  
HETATM    5  C   UNL     1      -9.186   6.119  67.315  1.00  0.00    -0.117 A  
HETATM    6  C   UNL     1      -8.599   7.331  66.921  1.00  0.00    -0.124 A  
HETATM    7  C   UNL     1      -8.102   6.342  64.762  1.00  0.00    -0.127 A  
HETATM    8  C   UNL     1      -8.032   7.428  65.645  1.00  0.00    -0.118 A  
BRANCH   6   9
HETATM    9  C   UNL     1      -8.545   8.422  67.930  1.00  0.00    -0.131 C  
HETATM   10  O   UNL     1      -7.479   8.623  68.510  1.00  0.00    -0.090 OA 
BRANCH   9  11
HETATM   11  C   UNL     1      -9.758   9.216  68.264  1.00  0.00    -0.154 C  
HETATM   12  C   UNL     1     -10.611   8.986  69.285  1.00  0.00    -0.213 C  
HETATM   13  C   UNL     1     -10.629   7.965  70.366  1.00  0.00    -0.228 C  
HETATM   14  N   UNL     1     -11.630   9.913  69.210  1.00  0.00    -0.460 N  
HETATM   15  H   UNL     1     -12.411   9.981  69.862  1.00  0.00     0.000 HD 
HETATM   16  C   UNL     1     -11.428  10.741  68.106  1.00  0.00    -0.271 C  
HETATM   17  N   UNL     1     -10.241  10.281  67.533  1.00  0.00    -0.198 NA 
HETATM   18  O   UNL     1     -12.130  11.655  67.721  1.00  0.00    -0.613 OA 
ENDBRANCH   9  11
ENDBRANCH   6   9
ENDBRANCH   2   3
TORSDOF 3
ENDMDL
MODEL      227
REMARK 921   NORMALIZED FREE ENERGY PREDICTED BY IDOCK:   -2.97 KCAL/MOL
REMARK 922        TOTAL FREE ENERGY PREDICTED BY IDOCK:   -3.88 KCAL/MOL
REMARK 923 INTER-LIGAND FREE ENERGY PREDICTED BY IDOCK:   -3.44 KCAL/MOL
REMARK 924 INTRA-LIGAND FREE ENERGY PREDICTED BY IDOCK:   -0.44 KCAL/MOL
REMARK 927      BINDING AFFINITY PREDICTED BY RF-SCORE:    0.00 PKD
ROOT
HETATM    1  C   UNL     1     -11.245   5.388  72.859  1.00  0.00    -0.314 C  
HETATM    2  S   UNL     1     -12.024   6.861  72.144  1.00  0.00    -0.230 SA 
ENDROOT
BRANCH   2   3
HETATM    3  C   UNL     1     -10.983   7.080  70.715  1.00  0.00    -0.255 A  
HETATM    4  C   UNL     1      -9.814   7.839  70.785  1.00  0.00    -0.183 A  
HETATM    5  C   UNL     1      -9.010   7.998  69.653  1.00  0.00    -0.145 A  
HETATM    6  C   UNL     1      -9.361   7.397  68.435  1.00  0.00    -0.144 A  
HETATM    7  C   UNL     1     -11.318   6.449  69.512  1.00  0.00    -0.460 A  
HETATM    8  C   UNL     1     -10.508   6.597  68.377  1.00  0.00    -0.248 A  
BRANCH   6   9
HETATM    9  C   UNL     1      -8.431   7.585  67.289  1.00  0.00    -0.118 C  
HETATM   10  O   UNL     1      -7.641   6.681  67.029  1.00  0.00    -0.092 OA 
BRANCH   9  11
HETATM   11  C   UNL     1      -8.425   8.853  66.510  1.00  0.00    -0.119 C  
HETATM   12  C   UNL     1      -7.618   9.916  66.716  1.00  0.00    -0.095 C  
HETATM   13  C   UNL     1      -6.522  10.171  67.688  1.00  0.00    -0.063 C  
HETATM   14  N   UNL     1      -7.970  10.902  65.817  1.00  0.00    -0.303 N  
HETATM   15  H   UNL     1      -7.520  11.813  65.739  1.00  0.00     0.000 HD 
HETATM   16  C   UNL     1      -9.037  10.461  65.034  1.00  0.00    -0.203 C  
HETATM   17  N   UNL     1      -9.298   9.167  65.491  1.00  0.00    -0.238 NA 
HETATM   18  O   UNL     1      -9.618  11.067  64.155  1.00  0.00    -0.232 OA 
ENDBRANCH   9  11
ENDBRANCH   6   9
ENDBRANCH   2   3
TORSDOF 3
ENDMDL
MODEL      228
REMARK 921   NORMALIZED FREE ENERGY PREDICTED BY IDOCK:   -2.96 KCAL/MOL
REMARK 922        TOTAL FREE ENERGY PREDICTED BY IDOCK:   -3.87 KCAL/MOL
REMARK 923 INTER-LIGAND FREE ENERGY PREDICTED BY IDOCK:   -3.40 KCAL/MOL
REMARK 924 INTRA-LIGAND FREE ENERGY PREDICTED BY IDOCK:   -0.46 KCAL/MOL
REMARK 927      BINDING AFFINITY PREDICTED BY RF-SCORE:    0.00 PKD
ROOT
HETATM    1  C   UNL     1     -10.229  16.675  65.994  1.00  0.00    -0.351 C  
HETATM    2  S   UNL     1     -11.160  15.452  65.031  1.00  0.00    -0.394 SA 
ENDROOT
BRANCH   2   3
HETATM    3  C   UNL     1     -10.545  13.957  65.781  1.00  0.00    -0.297 A  
HETATM    4  C   UNL     1     -10.008  13.967  67.069  1.00  0.00    -0.258 A  
HETATM    5  C   UNL     1      -9.531  12.784  67.641  1.00  0.00    -0.190 A  
HETATM    6  C   UNL     1      -9.588  11.573  66.934  1.00  0.00    -0.203 A  
HETATM    7  C   UNL     1     -10.637  12.746  65.087  1.00  0.00    -0.324 A  
HETATM    8  C   UNL     1     -10.170  11.556  65.661  1.00  0.00    -0.292 A  
BRANCH   6   9
HETATM    9  C   UNL     1      -9.094  10.354  67.629  1.00  0.00    -0.138 C  
HETATM   10  O   UNL     1      -9.145  10.326  68.857  1.00  0.00    -0.149 OA 
BRANCH   9  11
HETATM   11  C   UNL     1      -8.508   9.222  66.863  1.00  0.00    -0.127 C  
HETATM   12  C   UNL     1      -7.268   9.169  66.334  1.00  0.00    -0.091 C  
HETATM   13  C   UNL     1      -6.128  10.124  66.349  1.00  0.00    -0.070 C  
HETATM   14  N   UNL     1      -7.140   7.973  65.657  1.00  0.00    -0.062 N  
HETATM   15  H   UNL     1      -6.302   7.661  65.168  1.00  0.00     0.000 HD 
HETATM   16  C   UNL     1      -8.334   7.257  65.744  1.00  0.00    -0.139 C  
HETATM   17  N   UNL     1      -9.175   8.066  66.512  1.00  0.00    -0.177 NA 
HETATM   18  O   UNL     1      -8.593   6.174  65.257  1.00  0.00    -0.143 OA 
ENDBRANCH   9  11
ENDBRANCH   6   9
ENDBRANCH   2   3
TORSDOF 3
ENDMDL
MODEL      229
REMARK 921   NORMALIZED FREE ENERGY PREDICTED BY IDOCK:   -2.94 KCAL/MOL
REMARK 922        TOTAL FREE ENERGY PREDICTED BY IDOCK:   -3.85 KCAL/MOL
REMARK 923 INTER-LIGAND FREE ENERGY PREDICTED BY IDOCK:   -3.41 KCAL/MOL
REMARK 924 INTRA-LIGAND FREE ENERGY PREDICTED BY IDOCK:   -0.44 KCAL/MOL
REMARK 927      BINDING AFFINITY PREDICTED BY RF-SCORE:    0.00 PKD
ROOT
HETATM    1  C   UNL     1      -8.550   9.849  64.711  1.00  0.00    -0.178 C  
HETATM    2  S   UNL     1      -7.383   9.895  66.098  1.00  0.00    -0.109 SA 
ENDROOT
BRANCH   2   3
HETATM    3  C   UNL     1      -8.540   9.907  67.454  1.00  0.00    -0.125 A  
HETATM    4  C   UNL     1      -8.801  11.078  68.167  1.00  0.00    -0.141 A  
HETATM    5  C   UNL     1      -9.712  11.066  69.227  1.00  0.00    -0.033 A  
HETATM    6  C   UNL     1     -10.378   9.886  69.587  1.00  0.00    -0.265 A  
HETATM    7  C   UNL     1      -9.228   8.735  67.786  1.00  0.00    -0.146 A  
HETATM    8  C   UNL     1     -10.151   8.723  68.842  1.00  0.00    -0.210 A  
BRANCH   6   9
HETATM    9  C   UNL     1     -11.358   9.969  70.702  1.00  0.00    -0.348 C  
HETATM   10  O   UNL     1     -11.815  11.073  70.991  1.00  0.00    -0.280 OA 
BRANCH   9  11
HETATM   11  C   UNL     1     -11.738   8.758  71.478  1.00  0.00    -0.309 C  
HETATM   12  C   UNL     1     -10.966   8.102  72.370  1.00  0.00    -0.345 C  
HETATM   13  C   UNL     1      -9.590   8.347  72.877  1.00  0.00    -0.269 C  
HETATM   14  N   UNL     1     -11.669   7.004  72.822  1.00  0.00    -0.520 N  
HETATM   15  H   UNL     1     -11.332   6.334  73.513  1.00  0.00     0.000 HD 
HETATM   16  C   UNL     1     -12.911   6.952  72.190  1.00  0.00    -0.022 C  
HETATM   17  N   UNL     1     -12.928   8.071  71.353  1.00  0.00    -0.289 NA 
HETATM   18  O   UNL     1     -13.785   6.119  72.328  1.00  0.00     0.177 OA 
ENDBRANCH   9  11
ENDBRANCH   6   9
ENDBRANCH   2   3
TORSDOF 3
ENDMDL
MODEL      230
REMARK 921   NORMALIZED FREE ENERGY PREDICTED BY IDOCK:   -2.94 KCAL/MOL
REMARK 922        TOTAL FREE ENERGY PREDICTED BY IDOCK:   -3.85 KCAL/MOL
REMARK 923 INTER-LIGAND FREE ENERGY PREDICTED BY IDOCK:   -3.40 KCAL/MOL
REMARK 924 INTRA-LIGAND FREE ENERGY PREDICTED BY IDOCK:   -0.45 KCAL/MOL
REMARK 927      BINDING AFFINITY PREDICTED BY RF-SCORE:    0.00 PKD
ROOT
HETATM    1  C   UNL     1     -10.826  12.720  65.777  1.00  0.00    -0.272 C  
HETATM    2  S   UNL     1      -9.406  13.152  66.819  1.00  0.00    -0.231 SA 
ENDROOT
BRANCH   2   3
HETATM    3  C   UNL     1      -9.160  11.590  67.641  1.00  0.00    -0.168 A  
HETATM    4  C   UNL     1      -8.059  11.380  68.473  1.00  0.00    -0.149 A  
HETATM    5  C   UNL     1      -7.884  10.148  69.109  1.00  0.00    -0.120 A  
HETATM    6  C   UNL     1      -8.809   9.110  68.927  1.00  0.00    -0.139 A  
HETATM    7  C   UNL     1     -10.104  10.569  67.485  1.00  0.00    -0.225 A  
HETATM    8  C   UNL     1      -9.937   9.336  68.130  1.00  0.00    -0.206 A  
BRANCH   6   9
HETATM    9  C   UNL     1      -8.568   7.844  69.670  1.00  0.00    -0.133 C  
HETATM   10  O   UNL     1      -7.619   7.142  69.326  1.00  0.00    -0.097 OA 
BRANCH   9  11
HETATM   11  C   UNL     1      -9.478   7.414  70.765  1.00  0.00    -0.167 C  
HETATM   12  C   UNL     1     -10.452   6.483  70.679  1.00  0.00    -0.214 C  
HETATM   13  C   UNL     1     -10.906   5.606  69.568  1.00  0.00    -0.345 C  
HETATM   14  N   UNL     1     -11.098   6.424  71.897  1.00  0.00    -0.255 N  
HETATM   15  H   UNL     1     -11.871   5.798  72.122  1.00  0.00     0.000 HD 
HETATM   16  C   UNL     1     -10.533   7.352  72.771  1.00  0.00    -0.275 C  
HETATM   17  N   UNL     1      -9.514   7.957  72.032  1.00  0.00    -0.162 NA 
HETATM   18  O   UNL     1     -10.856   7.590  73.918  1.00  0.00    -0.244 OA 
ENDBRANCH   9  11
ENDBRANCH   6   9
ENDBRANCH   2   3
TORSDOF 3
ENDMDL
MODEL      231
REMARK 921   NORMALIZED FREE ENERGY PREDICTED BY IDOCK:   -2.93 KCAL/MOL
REMARK 922        TOTAL FREE ENERGY PREDICTED BY IDOCK:   -3.83 KCAL/MOL
REMARK 923 INTER-LIGAND FREE ENERGY PREDICTED BY IDOCK:   -4.08 KCAL/MOL
REMARK 924 INTRA-LIGAND FREE ENERGY PREDICTED BY IDOCK:    0.25 KCAL/MOL
REMARK 927      BINDING AFFINITY PREDICTED BY RF-SCORE:    0.00 PKD
ROOT
HETATM    1  C   UNL     1      -5.434  12.575  70.569  1.00  0.00    -0.162 C  
HETATM    2  S   UNL     1      -5.839  10.846  70.204  1.00  0.00    -0.115 SA 
ENDROOT
BRANCH   2   3
HETATM    3  C   UNL     1      -6.967  11.088  68.846  1.00  0.00    -0.088 A  
HETATM    4  C   UNL     1      -6.740  10.490  67.606  1.00  0.00    -0.073 A  
HETATM    5  C   UNL     1      -7.637  10.691  66.554  1.00  0.00    -0.134 A  
HETATM    6  C   UNL     1      -8.776  11.491  66.726  1.00  0.00    -0.178 A  
HETATM    7  C   UNL     1      -8.120  11.858  69.034  1.00  0.00     0.166 A  
HETATM    8  C   UNL     1      -9.028  12.054  67.983  1.00  0.00    -0.187 A  
BRANCH   6   9
HETATM    9  C   UNL     1      -9.698  11.624  65.567  1.00  0.00    -0.232 C  
HETATM   10  O   UNL     1      -9.864  10.645  64.843  1.00  0.00    -0.252 OA 
BRANCH   9  11
HETATM   11  C   UNL     1     -10.363  12.920  65.263  1.00  0.00    -0.300 C  
HETATM   12  C   UNL     1     -11.280  13.143  64.298  1.00  0.00    -0.388 C  
HETATM   13  C   UNL     1     -11.923  12.249  63.299  1.00  0.00    -0.499 C  
HETATM   14  N   UNL     1     -11.602  14.485  64.313  1.00  0.00    -0.637 N  
HETATM   15  H   UNL     1     -12.279  14.934  63.697  1.00  0.00     0.000 HD 
HETATM   16  C   UNL     1     -10.858  15.132  65.300  1.00  0.00    -0.400 C  
HETATM   17  N   UNL     1     -10.091  14.121  65.883  1.00  0.00    -0.309 NA 
HETATM   18  O   UNL     1     -10.867  16.313  65.587  1.00  0.00    -0.297 OA 
ENDBRANCH   9  11
ENDBRANCH   6   9
ENDBRANCH   2   3
TORSDOF 3
ENDMDL
MODEL      232
REMARK 921   NORMALIZED FREE ENERGY PREDICTED BY IDOCK:   -2.93 KCAL/MOL
REMARK 922        TOTAL FREE ENERGY PREDICTED BY IDOCK:   -3.83 KCAL/MOL
REMARK 923 INTER-LIGAND FREE ENERGY PREDICTED BY IDOCK:   -3.39 KCAL/MOL
REMARK 924 INTRA-LIGAND FREE ENERGY PREDICTED BY IDOCK:   -0.44 KCAL/MOL
REMARK 927      BINDING AFFINITY PREDICTED BY RF-SCORE:    0.00 PKD
ROOT
HETATM    1  C   UNL     1      -6.660   7.483  65.996  1.00  0.00    -0.046 C  
HETATM    2  S   UNL     1      -5.460   7.886  67.294  1.00  0.00    -0.037 SA 
ENDROOT
BRANCH   2   3
HETATM    3  C   UNL     1      -6.559   7.975  68.694  1.00  0.00    -0.057 A  
HETATM    4  C   UNL     1      -6.357   8.909  69.710  1.00  0.00    -0.035 A  
HETATM    5  C   UNL     1      -7.231   8.963  70.799  1.00  0.00    -0.083 A  
HETATM    6  C   UNL     1      -8.323   8.086  70.886  1.00  0.00    -0.119 A  
HETATM    7  C   UNL     1      -7.667   7.122  68.758  1.00  0.00    -0.116 A  
HETATM    8  C   UNL     1      -8.552   7.180  69.844  1.00  0.00    -0.141 A  
BRANCH   6   9
HETATM    9  C   UNL     1      -9.225   8.234  72.060  1.00  0.00    -0.204 C  
HETATM   10  O   UNL     1      -8.798   8.828  73.048  1.00  0.00    -0.340 OA 
BRANCH   9  11
HETATM   11  C   UNL     1     -10.588   7.638  72.057  1.00  0.00    -0.220 C  
HETATM   12  C   UNL     1     -10.949   6.462  72.611  1.00  0.00    -0.253 C  
HETATM   13  C   UNL     1     -10.191   5.441  73.382  1.00  0.00    -0.219 C  
HETATM   14  N   UNL     1     -12.285   6.251  72.338  1.00  0.00    -0.540 N  
HETATM   15  H   UNL     1     -12.828   5.444  72.644  1.00  0.00     0.000 HD 
HETATM   16  C   UNL     1     -12.780   7.311  71.578  1.00  0.00    -0.384 C  
HETATM   17  N   UNL     1     -11.690   8.170  71.420  1.00  0.00    -0.278 NA 
HETATM   18  O   UNL     1     -13.905   7.456  71.142  1.00  0.00    -0.316 OA 
ENDBRANCH   9  11
ENDBRANCH   6   9
ENDBRANCH   2   3
TORSDOF 3
ENDMDL
MODEL      233
REMARK 921   NORMALIZED FREE ENERGY PREDICTED BY IDOCK:   -2.91 KCAL/MOL
REMARK 922        TOTAL FREE ENERGY PREDICTED BY IDOCK:   -3.81 KCAL/MOL
REMARK 923 INTER-LIGAND FREE ENERGY PREDICTED BY IDOCK:   -3.79 KCAL/MOL
REMARK 924 INTRA-LIGAND FREE ENERGY PREDICTED BY IDOCK:   -0.03 KCAL/MOL
REMARK 927      BINDING AFFINITY PREDICTED BY RF-SCORE:    0.00 PKD
ROOT
HETATM    1  C   UNL     1      -5.149  12.840  71.588  1.00  0.00    -0.118 C  
HETATM    2  S   UNL     1      -5.246  11.334  70.582  1.00  0.00    -0.124 SA 
ENDROOT
BRANCH   2   3
HETATM    3  C   UNL     1      -6.590  11.788  69.503  1.00  0.00    -0.102 A  
HETATM    4  C   UNL     1      -7.694  10.951  69.338  1.00  0.00    -0.072 A  
HETATM    5  C   UNL     1      -8.739  11.325  68.488  1.00  0.00    -0.156 A  
HETATM    6  C   UNL     1      -8.696  12.543  67.793  1.00  0.00    -0.178 A  
HETATM    7  C   UNL     1      -6.560  13.020  68.841  1.00  0.00    -0.094 A  
HETATM    8  C   UNL     1      -7.610  13.403  67.995  1.00  0.00    -0.143 A  
BRANCH   6   9
HETATM    9  C   UNL     1      -9.865  12.882  66.938  1.00  0.00    -0.235 C  
HETATM   10  O   UNL     1     -10.618  13.778  67.314  1.00  0.00    -0.271 OA 
BRANCH   9  11
HETATM   11  C   UNL     1     -10.143  12.125  65.688  1.00  0.00    -0.248 C  
HETATM   12  C   UNL     1     -11.319  12.073  65.028  1.00  0.00    -0.310 C  
HETATM   13  C   UNL     1     -12.636  12.718  65.271  1.00  0.00    -0.460 C  
HETATM   14  N   UNL     1     -11.170  11.219  63.953  1.00  0.00    -0.486 N  
HETATM   15  H   UNL     1     -11.897  10.999  63.273  1.00  0.00     0.000 HD 
HETATM   16  C   UNL     1      -9.874  10.705  63.941  1.00  0.00    -0.338 C  
HETATM   17  N   UNL     1      -9.250  11.296  65.042  1.00  0.00    -0.175 NA 
HETATM   18  O   UNL     1      -9.392   9.913  63.155  1.00  0.00    -0.275 OA 
ENDBRANCH   9  11
ENDBRANCH   6   9
ENDBRANCH   2   3
TORSDOF 3
ENDMDL
MODEL      234
REMARK 921   NORMALIZED FREE ENERGY PREDICTED BY IDOCK:   -2.90 KCAL/MOL
REMARK 922        TOTAL FREE ENERGY PREDICTED BY IDOCK:   -3.80 KCAL/MOL
REMARK 923 INTER-LIGAND FREE ENERGY PREDICTED BY IDOCK:   -4.02 KCAL/MOL
REMARK 924 INTRA-LIGAND FREE ENERGY PREDICTED BY IDOCK:    0.22 KCAL/MOL
REMARK 927      BINDING AFFINITY PREDICTED BY RF-SCORE:    0.00 PKD
ROOT
HETATM    1  C   UNL     1      -9.416   3.524  67.134  1.00  0.00    -0.183 C  
HETATM    2  S   UNL     1      -7.899   4.516  67.070  1.00  0.00    -0.098 SA 
ENDROOT
BRANCH   2   3
HETATM    3  C   UNL     1      -8.617   6.144  66.968  1.00  0.00    -0.108 A  
HETATM    4  C   UNL     1      -7.816   7.274  66.797  1.00  0.00    -0.113 A  
HETATM    5  C   UNL     1      -8.399   8.542  66.718  1.00  0.00    -0.109 A  
HETATM    6  C   UNL     1      -9.790   8.698  66.805  1.00  0.00    -0.322 A  
HETATM    7  C   UNL     1     -10.007   6.291  67.019  1.00  0.00    -0.201 A  
HETATM    8  C   UNL     1     -10.596   7.561  66.930  1.00  0.00    -0.367 A  
BRANCH   6   9
HETATM    9  C   UNL     1     -10.331  10.078  66.675  1.00  0.00    -0.213 C  
HETATM   10  O   UNL     1     -10.396  10.571  65.551  1.00  0.00    -0.270 OA 
BRANCH   9  11
HETATM   11  C   UNL     1     -10.735  10.857  67.876  1.00  0.00    -0.231 C  
HETATM   12  C   UNL     1     -10.732  10.421  69.153  1.00  0.00    -0.234 C  
HETATM   13  C   UNL     1     -10.332   9.129  69.771  1.00  0.00    -0.226 C  
HETATM   14  N   UNL     1     -11.230  11.429  69.953  1.00  0.00    -0.462 N  
HETATM   15  H   UNL     1     -11.332  11.380  70.966  1.00  0.00     0.000 HD 
HETATM   16  C   UNL     1     -11.572  12.526  69.162  1.00  0.00    -0.320 C  
HETATM   17  N   UNL     1     -11.246  12.138  67.861  1.00  0.00    -0.252 NA 
HETATM   18  O   UNL     1     -12.054  13.583  69.520  1.00  0.00    -0.316 OA 
ENDBRANCH   9  11
ENDBRANCH   6   9
ENDBRANCH   2   3
TORSDOF 3
ENDMDL
MODEL      235
REMARK 921   NORMALIZED FREE ENERGY PREDICTED BY IDOCK:   -2.90 KCAL/MOL
REMARK 922        TOTAL FREE ENERGY PREDICTED BY IDOCK:   -3.80 KCAL/MOL
REMARK 923 INTER-LIGAND FREE ENERGY PREDICTED BY IDOCK:   -3.45 KCAL/MOL
REMARK 924 INTRA-LIGAND FREE ENERGY PREDICTED BY IDOCK:   -0.35 KCAL/MOL
REMARK 927      BINDING AFFINITY PREDICTED BY RF-SCORE:    0.00 PKD
ROOT
HETATM    1  C   UNL     1      -8.251   3.249  63.027  1.00  0.00    -0.077 C  
HETATM    2  S   UNL     1      -8.189   2.618  64.726  1.00  0.00    -0.088 SA 
ENDROOT
BRANCH   2   3
HETATM    3  C   UNL     1      -8.802   4.049  65.593  1.00  0.00    -0.123 A  
HETATM    4  C   UNL     1     -10.169   4.329  65.644  1.00  0.00    -0.217 A  
HETATM    5  C   UNL     1     -10.630   5.456  66.330  1.00  0.00    -0.322 A  
HETATM    6  C   UNL     1      -9.732   6.317  66.979  1.00  0.00    -0.173 A  
HETATM    7  C   UNL     1      -7.907   4.885  66.268  1.00  0.00    -0.096 A  
HETATM    8  C   UNL     1      -8.367   6.011  66.966  1.00  0.00    -0.105 A  
BRANCH   6   9
HETATM    9  C   UNL     1     -10.309   7.473  67.716  1.00  0.00    -0.216 C  
HETATM   10  O   UNL     1     -10.447   8.535  67.113  1.00  0.00    -0.290 OA 
BRANCH   9  11
HETATM   11  C   UNL     1     -10.663   7.361  69.157  1.00  0.00    -0.166 C  
HETATM   12  C   UNL     1     -10.106   8.052  70.175  1.00  0.00    -0.194 C  
HETATM   13  C   UNL     1      -9.054   9.101  70.219  1.00  0.00    -0.247 C  
HETATM   14  N   UNL     1     -10.676   7.613  71.353  1.00  0.00    -0.222 N  
HETATM   15  H   UNL     1     -10.452   7.969  72.282  1.00  0.00     0.000 HD 
HETATM   16  C   UNL     1     -11.604   6.609  71.078  1.00  0.00    -0.346 C  
HETATM   17  N   UNL     1     -11.576   6.475  69.688  1.00  0.00    -0.353 NA 
HETATM   18  O   UNL     1     -12.282   5.982  71.868  1.00  0.00    -0.209 OA 
ENDBRANCH   9  11
ENDBRANCH   6   9
ENDBRANCH   2   3
TORSDOF 3
ENDMDL
MODEL      236
REMARK 921   NORMALIZED FREE ENERGY PREDICTED BY IDOCK:   -2.88 KCAL/MOL
REMARK 922        TOTAL FREE ENERGY PREDICTED BY IDOCK:   -3.78 KCAL/MOL
REMARK 923 INTER-LIGAND FREE ENERGY PREDICTED BY IDOCK:   -3.42 KCAL/MOL
REMARK 924 INTRA-LIGAND FREE ENERGY PREDICTED BY IDOCK:   -0.36 KCAL/MOL
REMARK 927      BINDING AFFINITY PREDICTED BY RF-SCORE:    0.00 PKD
ROOT
HETATM    1  C   UNL     1      -6.498  15.549  69.264  1.00  0.00    -0.141 C  
HETATM    2  S   UNL     1      -5.836  14.061  68.467  1.00  0.00    -0.102 SA 
ENDROOT
BRANCH   2   3
HETATM    3  C   UNL     1      -7.334  13.105  68.340  1.00  0.00    -0.116 A  
HETATM    4  C   UNL     1      -7.343  11.739  68.625  1.00  0.00    -0.115 A  
HETATM    5  C   UNL     1      -8.529  11.007  68.520  1.00  0.00    -0.153 A  
HETATM    6  C   UNL     1      -9.724  11.630  68.132  1.00  0.00    -0.189 A  
HETATM    7  C   UNL     1      -8.531  13.738  67.988  1.00  0.00    -0.176 A  
HETATM    8  C   UNL     1      -9.725  13.009  67.892  1.00  0.00    -0.218 A  
BRANCH   6   9
HETATM    9  C   UNL     1     -10.948  10.786  68.081  1.00  0.00    -0.257 C  
HETATM   10  O   UNL     1     -12.017  11.332  67.816  1.00  0.00    -0.637 OA 
BRANCH   9  11
HETATM   11  C   UNL     1     -10.888   9.332  68.391  1.00  0.00    -0.076 C  
HETATM   12  C   UNL     1     -11.165   8.754  69.578  1.00  0.00     0.129 C  
HETATM   13  C   UNL     1     -11.620   9.306  70.882  1.00  0.00    -0.364 C  
HETATM   14  N   UNL     1     -10.935   7.398  69.460  1.00  0.00    -0.396 N  
HETATM   15  H   UNL     1     -11.072   6.712  70.201  1.00  0.00     0.000 HD 
HETATM   16  C   UNL     1     -10.484   7.112  68.171  1.00  0.00    -0.200 C  
HETATM   17  N   UNL     1     -10.468   8.348  67.521  1.00  0.00    -0.262 NA 
HETATM   18  O   UNL     1     -10.167   6.032  67.714  1.00  0.00    -0.145 OA 
ENDBRANCH   9  11
ENDBRANCH   6   9
ENDBRANCH   2   3
TORSDOF 3
ENDMDL
MODEL      237
REMARK 921   NORMALIZED FREE ENERGY PREDICTED BY IDOCK:   -2.88 KCAL/MOL
REMARK 922        TOTAL FREE ENERGY PREDICTED BY IDOCK:   -3.78 KCAL/MOL
REMARK 923 INTER-LIGAND FREE ENERGY PREDICTED BY IDOCK:   -3.35 KCAL/MOL
REMARK 924 INTRA-LIGAND FREE ENERGY PREDICTED BY IDOCK:   -0.43 KCAL/MOL
REMARK 927      BINDING AFFINITY PREDICTED BY RF-SCORE:    0.00 PKD
ROOT
HETATM    1  C   UNL     1     -10.933   2.379  62.783  1.00  0.00    -0.212 C  
HETATM    2  S   UNL     1      -9.336   1.770  63.387  1.00  0.00    -0.099 SA 
ENDROOT
BRANCH   2   3
HETATM    3  C   UNL     1      -9.148   2.810  64.821  1.00  0.00    -0.134 A  
HETATM    4  C   UNL     1      -9.214   2.278  66.110  1.00  0.00     0.003 A  
HETATM    5  C   UNL     1      -9.063   3.111  67.222  1.00  0.00    -0.201 A  
HETATM    6  C   UNL     1      -8.840   4.487  67.063  1.00  0.00    -0.113 A  
HETATM    7  C   UNL     1      -8.890   4.176  64.657  1.00  0.00    -0.136 A  
HETATM    8  C   UNL     1      -8.728   5.012  65.770  1.00  0.00    -0.135 A  
BRANCH   6   9
HETATM    9  C   UNL     1      -8.654   5.295  68.297  1.00  0.00    -0.099 C  
HETATM   10  O   UNL     1      -7.509   5.465  68.712  1.00  0.00    -0.073 OA 
BRANCH   9  11
HETATM   11  C   UNL     1      -9.823   5.841  69.037  1.00  0.00    -0.158 C  
HETATM   12  C   UNL     1     -10.639   6.835  68.626  1.00  0.00    -0.227 C  
HETATM   13  C   UNL     1     -10.681   7.649  67.383  1.00  0.00    -0.318 C  
HETATM   14  N   UNL     1     -11.560   7.076  69.625  1.00  0.00    -0.559 N  
HETATM   15  H   UNL     1     -12.307   7.769  69.582  1.00  0.00     0.000 HD 
HETATM   16  C   UNL     1     -11.312   6.227  70.704  1.00  0.00    -0.343 C  
HETATM   17  N   UNL     1     -10.216   5.460  70.303  1.00  0.00    -0.245 NA 
HETATM   18  O   UNL     1     -11.908   6.169  71.761  1.00  0.00    -0.299 OA 
ENDBRANCH   9  11
ENDBRANCH   6   9
ENDBRANCH   2   3
TORSDOF 3
ENDMDL
MODEL      238
REMARK 921   NORMALIZED FREE ENERGY PREDICTED BY IDOCK:   -2.87 KCAL/MOL
REMARK 922        TOTAL FREE ENERGY PREDICTED BY IDOCK:   -3.77 KCAL/MOL
REMARK 923 INTER-LIGAND FREE ENERGY PREDICTED BY IDOCK:   -3.34 KCAL/MOL
REMARK 924 INTRA-LIGAND FREE ENERGY PREDICTED BY IDOCK:   -0.43 KCAL/MOL
REMARK 927      BINDING AFFINITY PREDICTED BY RF-SCORE:    0.00 PKD
ROOT
HETATM    1  C   UNL     1      -7.121  12.931  67.468  1.00  0.00    -0.152 C  
HETATM    2  S   UNL     1      -8.924  13.119  67.518  1.00  0.00    -0.209 SA 
ENDROOT
BRANCH   2   3
HETATM    3  C   UNL     1      -9.386  11.431  67.849  1.00  0.00    -0.164 A  
HETATM    4  C   UNL     1      -8.794  10.713  68.889  1.00  0.00    -0.160 A  
HETATM    5  C   UNL     1      -9.172   9.390  69.133  1.00  0.00    -0.155 A  
HETATM    6  C   UNL     1     -10.149   8.766  68.344  1.00  0.00    -0.217 A  
HETATM    7  C   UNL     1     -10.388  10.824  67.082  1.00  0.00    -0.269 A  
HETATM    8  C   UNL     1     -10.776   9.501  67.331  1.00  0.00    -0.297 A  
BRANCH   6   9
HETATM    9  C   UNL     1     -10.518   7.368  68.694  1.00  0.00    -0.189 C  
HETATM   10  O   UNL     1     -11.047   7.164  69.785  1.00  0.00    -0.254 OA 
BRANCH   9  11
HETATM   11  C   UNL     1     -10.212   6.242  67.772  1.00  0.00    -0.170 C  
HETATM   12  C   UNL     1      -9.124   5.444  67.816  1.00  0.00    -0.108 C  
HETATM   13  C   UNL     1      -7.958   5.386  68.736  1.00  0.00    -0.087 C  
HETATM   14  N   UNL     1      -9.193   4.565  66.754  1.00  0.00    -0.124 N  
HETATM   15  H   UNL     1      -8.508   3.839  66.546  1.00  0.00     0.000 HD 
HETATM   16  C   UNL     1     -10.344   4.822  66.009  1.00  0.00    -0.293 C  
HETATM   17  N   UNL     1     -10.966   5.880  66.676  1.00  0.00    -0.238 NA 
HETATM   18  O   UNL     1     -10.722   4.259  65.000  1.00  0.00    -0.253 OA 
ENDBRANCH   9  11
ENDBRANCH   6   9
ENDBRANCH   2   3
TORSDOF 3
ENDMDL
MODEL      239
REMARK 921   NORMALIZED FREE ENERGY PREDICTED BY IDOCK:   -2.86 KCAL/MOL
REMARK 922        TOTAL FREE ENERGY PREDICTED BY IDOCK:   -3.75 KCAL/MOL
REMARK 923 INTER-LIGAND FREE ENERGY PREDICTED BY IDOCK:   -3.34 KCAL/MOL
REMARK 924 INTRA-LIGAND FREE ENERGY PREDICTED BY IDOCK:   -0.41 KCAL/MOL
REMARK 927      BINDING AFFINITY PREDICTED BY RF-SCORE:    0.00 PKD
ROOT
HETATM    1  C   UNL     1      -8.977   3.448  63.781  1.00  0.00    -0.093 C  
HETATM    2  S   UNL     1      -8.820   2.404  65.255  1.00  0.00    -0.123 SA 
ENDROOT
BRANCH   2   3
HETATM    3  C   UNL     1      -9.431   3.538  66.486  1.00  0.00    -0.153 A  
HETATM    4  C   UNL     1      -9.152   3.349  67.840  1.00  0.00    -0.207 A  
HETATM    5  C   UNL     1      -9.639   4.251  68.790  1.00  0.00    -0.219 A  
HETATM    6  C   UNL     1     -10.410   5.357  68.400  1.00  0.00    -0.216 A  
HETATM    7  C   UNL     1     -10.168   4.659  66.088  1.00  0.00    -0.308 A  
HETATM    8  C   UNL     1     -10.650   5.571  67.037  1.00  0.00    -0.332 A  
BRANCH   6   9
HETATM    9  C   UNL     1     -10.858   6.287  69.470  1.00  0.00    -0.340 C  
HETATM   10  O   UNL     1     -12.027   6.218  69.846  1.00  0.00    -0.226 OA 
BRANCH   9  11
HETATM   11  C   UNL     1      -9.933   7.306  70.035  1.00  0.00    -0.184 C  
HETATM   12  C   UNL     1      -9.897   8.618  69.720  1.00  0.00    -0.183 C  
HETATM   13  C   UNL     1     -10.716   9.453  68.801  1.00  0.00    -0.200 C  
HETATM   14  N   UNL     1      -8.861   9.200  70.422  1.00  0.00    -0.200 N  
HETATM   15  H   UNL     1      -8.609  10.187  70.387  1.00  0.00     0.000 HD 
HETATM   16  C   UNL     1      -8.213   8.230  71.187  1.00  0.00    -0.120 C  
HETATM   17  N   UNL     1      -8.912   7.050  70.926  1.00  0.00    -0.151 NA 
HETATM   18  O   UNL     1      -7.250   8.374  71.915  1.00  0.00    -0.084 OA 
ENDBRANCH   9  11
ENDBRANCH   6   9
ENDBRANCH   2   3
TORSDOF 3
ENDMDL
MODEL      240
REMARK 921   NORMALIZED FREE ENERGY PREDICTED BY IDOCK:   -2.86 KCAL/MOL
REMARK 922        TOTAL FREE ENERGY PREDICTED BY IDOCK:   -3.75 KCAL/MOL
REMARK 923 INTER-LIGAND FREE ENERGY PREDICTED BY IDOCK:   -3.29 KCAL/MOL
REMARK 924 INTRA-LIGAND FREE ENERGY PREDICTED BY IDOCK:   -0.45 KCAL/MOL
REMARK 927      BINDING AFFINITY PREDICTED BY RF-SCORE:    0.00 PKD
ROOT
HETATM    1  C   UNL     1     -12.521   7.204  71.531  1.00  0.00    -0.381 C  
HETATM    2  S   UNL     1     -10.729   6.959  71.408  1.00  0.00    -0.224 SA 
ENDROOT
BRANCH   2   3
HETATM    3  C   UNL     1     -10.354   8.164  70.149  1.00  0.00    -0.215 A  
HETATM    4  C   UNL     1     -10.519   9.529  70.388  1.00  0.00    -0.336 A  
HETATM    5  C   UNL     1     -10.218  10.458  69.388  1.00  0.00    -0.257 A  
HETATM    6  C   UNL     1      -9.745  10.036  68.137  1.00  0.00    -0.156 A  
HETATM    7  C   UNL     1      -9.848   7.741  68.915  1.00  0.00    -0.166 A  
HETATM    8  C   UNL     1      -9.536   8.671  67.914  1.00  0.00    -0.157 A  
BRANCH   6   9
HETATM    9  C   UNL     1      -9.414  11.092  67.142  1.00  0.00    -0.164 C  
HETATM   10  O   UNL     1     -10.294  11.448  66.361  1.00  0.00    -0.226 OA 
BRANCH   9  11
HETATM   11  C   UNL     1      -8.044  11.665  67.062  1.00  0.00    -0.164 C  
HETATM   12  C   UNL     1      -6.990  11.134  66.408  1.00  0.00    -0.093 C  
HETATM   13  C   UNL     1      -6.837   9.909  65.579  1.00  0.00    -0.105 C  
HETATM   14  N   UNL     1      -5.895  11.945  66.628  1.00  0.00    -0.257 N  
HETATM   15  H   UNL     1      -4.963  11.791  66.245  1.00  0.00     0.000 HD 
HETATM   16  C   UNL     1      -6.259  13.007  67.456  1.00  0.00    -0.139 C  
HETATM   17  N   UNL     1      -7.618  12.806  67.710  1.00  0.00    -0.126 NA 
HETATM   18  O   UNL     1      -5.553  13.904  67.873  1.00  0.00    -0.128 OA 
ENDBRANCH   9  11
ENDBRANCH   6   9
ENDBRANCH   2   3
TORSDOF 3
ENDMDL
MODEL      241
REMARK 921   NORMALIZED FREE ENERGY PREDICTED BY IDOCK:   -2.85 KCAL/MOL
REMARK 922        TOTAL FREE ENERGY PREDICTED BY IDOCK:   -3.74 KCAL/MOL
REMARK 923 INTER-LIGAND FREE ENERGY PREDICTED BY IDOCK:   -3.30 KCAL/MOL
REMARK 924 INTRA-LIGAND FREE ENERGY PREDICTED BY IDOCK:   -0.44 KCAL/MOL
REMARK 927      BINDING AFFINITY PREDICTED BY RF-SCORE:    0.00 PKD
ROOT
HETATM    1  C   UNL     1     -10.967  15.431  67.800  1.00  0.00    -0.311 C  
HETATM    2  S   UNL     1     -11.727  14.647  66.353  1.00  0.00    -0.273 SA 
ENDROOT
BRANCH   2   3
HETATM    3  C   UNL     1     -11.195  12.967  66.615  1.00  0.00    -0.307 A  
HETATM    4  C   UNL     1     -11.081  12.074  65.549  1.00  0.00    -0.361 A  
HETATM    5  C   UNL     1     -10.660  10.760  65.775  1.00  0.00    -0.204 A  
HETATM    6  C   UNL     1     -10.346  10.321  67.069  1.00  0.00    -0.299 A  
HETATM    7  C   UNL     1     -10.848  12.544  67.902  1.00  0.00    -0.251 A  
HETATM    8  C   UNL     1     -10.416  11.230  68.131  1.00  0.00    -0.215 A  
BRANCH   6   9
HETATM    9  C   UNL     1      -9.872   8.919  67.218  1.00  0.00    -0.199 C  
HETATM   10  O   UNL     1     -10.714   8.026  67.280  1.00  0.00    -0.300 OA 
BRANCH   9  11
HETATM   11  C   UNL     1      -8.421   8.611  67.337  1.00  0.00    -0.123 C  
HETATM   12  C   UNL     1      -7.600   8.223  66.338  1.00  0.00    -0.091 C  
HETATM   13  C   UNL     1      -7.819   8.012  64.883  1.00  0.00    -0.129 C  
HETATM   14  N   UNL     1      -6.352   7.984  66.877  1.00  0.00    -0.054 N  
HETATM   15  H   UNL     1      -5.531   7.689  66.350  1.00  0.00     0.000 HD 
HETATM   16  C   UNL     1      -6.386   8.210  68.254  1.00  0.00    -0.051 C  
HETATM   17  N   UNL     1      -7.700   8.607  68.513  1.00  0.00    -0.098 NA 
HETATM   18  O   UNL     1      -5.480   8.084  69.054  1.00  0.00    -0.028 OA 
ENDBRANCH   9  11
ENDBRANCH   6   9
ENDBRANCH   2   3
TORSDOF 3
ENDMDL
MODEL      242
REMARK 921   NORMALIZED FREE ENERGY PREDICTED BY IDOCK:   -2.85 KCAL/MOL
REMARK 922        TOTAL FREE ENERGY PREDICTED BY IDOCK:   -3.74 KCAL/MOL
REMARK 923 INTER-LIGAND FREE ENERGY PREDICTED BY IDOCK:   -3.55 KCAL/MOL
REMARK 924 INTRA-LIGAND FREE ENERGY PREDICTED BY IDOCK:   -0.19 KCAL/MOL
REMARK 927      BINDING AFFINITY PREDICTED BY RF-SCORE:    0.00 PKD
ROOT
HETATM    1  C   UNL     1      -9.117   3.982  69.376  1.00  0.00    -0.127 C  
HETATM    2  S   UNL     1      -8.138   5.052  70.463  1.00  0.00    -0.095 SA 
ENDROOT
BRANCH   2   3
HETATM    3  C   UNL     1      -8.966   6.603  70.172  1.00  0.00    -0.152 A  
HETATM    4  C   UNL     1      -8.260   7.807  70.171  1.00  0.00    -0.123 A  
HETATM    5  C   UNL     1      -8.927   9.013  69.939  1.00  0.00    -0.170 A  
HETATM    6  C   UNL     1     -10.310   9.032  69.701  1.00  0.00    -0.217 A  
HETATM    7  C   UNL     1     -10.338   6.614  69.899  1.00  0.00    -0.232 A  
HETATM    8  C   UNL     1     -11.009   7.821  69.655  1.00  0.00    -0.128 A  
BRANCH   6   9
HETATM    9  C   UNL     1     -10.936  10.353  69.426  1.00  0.00    -0.251 C  
HETATM   10  O   UNL     1     -11.646  10.851  70.298  1.00  0.00    -0.299 OA 
BRANCH   9  11
HETATM   11  C   UNL     1     -10.748  11.032  68.116  1.00  0.00    -0.205 C  
HETATM   12  C   UNL     1     -10.736  12.364  67.897  1.00  0.00    -0.220 C  
HETATM   13  C   UNL     1     -10.863  13.531  68.809  1.00  0.00    -0.279 C  
HETATM   14  N   UNL     1     -10.592  12.575  66.541  1.00  0.00    -0.239 N  
HETATM   15  H   UNL     1     -10.540  13.488  66.091  1.00  0.00     0.000 HD 
HETATM   16  C   UNL     1     -10.529  11.348  65.881  1.00  0.00    -0.258 C  
HETATM   17  N   UNL     1     -10.626  10.395  66.898  1.00  0.00    -0.246 NA 
HETATM   18  O   UNL     1     -10.422  11.147  64.688  1.00  0.00    -0.309 OA 
ENDBRANCH   9  11
ENDBRANCH   6   9
ENDBRANCH   2   3
TORSDOF 3
ENDMDL
MODEL      243
REMARK 921   NORMALIZED FREE ENERGY PREDICTED BY IDOCK:   -2.82 KCAL/MOL
REMARK 922        TOTAL FREE ENERGY PREDICTED BY IDOCK:   -3.71 KCAL/MOL
REMARK 923 INTER-LIGAND FREE ENERGY PREDICTED BY IDOCK:   -3.41 KCAL/MOL
REMARK 924 INTRA-LIGAND FREE ENERGY PREDICTED BY IDOCK:   -0.29 KCAL/MOL
REMARK 927      BINDING AFFINITY PREDICTED BY RF-SCORE:    0.00 PKD
ROOT
HETATM    1  C   UNL     1     -11.239  19.669  66.468  1.00  0.00     0.182 C  
HETATM    2  S   UNL     1      -9.651  20.372  66.988  1.00  0.00    -0.406 SA 
ENDROOT
BRANCH   2   3
HETATM    3  C   UNL     1      -8.712  18.870  67.175  1.00  0.00    -0.284 A  
HETATM    4  C   UNL     1      -8.882  17.800  66.296  1.00  0.00    -0.201 A  
HETATM    5  C   UNL     1      -8.135  16.630  66.459  1.00  0.00    -0.337 A  
HETATM    6  C   UNL     1      -7.204  16.514  67.502  1.00  0.00    -0.168 A  
HETATM    7  C   UNL     1      -7.759  18.772  68.195  1.00  0.00    -0.310 A  
HETATM    8  C   UNL     1      -7.000  17.604  68.356  1.00  0.00    -0.222 A  
BRANCH   6   9
HETATM    9  C   UNL     1      -6.425  15.250  67.583  1.00  0.00    -0.163 C  
HETATM   10  O   UNL     1      -5.239  15.278  67.261  1.00  0.00    -0.331 OA 
BRANCH   9  11
HETATM   11  C   UNL     1      -7.074  13.976  67.994  1.00  0.00    -0.145 C  
HETATM   12  C   UNL     1      -6.791  13.252  69.098  1.00  0.00    -0.067 C  
HETATM   13  C   UNL     1      -5.836  13.462  70.218  1.00  0.00    -0.157 C  
HETATM   14  N   UNL     1      -7.574  12.116  69.080  1.00  0.00    -0.336 N  
HETATM   15  H   UNL     1      -7.577  11.393  69.798  1.00  0.00     0.000 HD 
HETATM   16  C   UNL     1      -8.361  12.110  67.928  1.00  0.00    -0.161 C  
HETATM   17  N   UNL     1      -8.027  13.295  67.267  1.00  0.00    -0.157 NA 
HETATM   18  O   UNL     1      -9.156  11.263  67.572  1.00  0.00    -0.149 OA 
ENDBRANCH   9  11
ENDBRANCH   6   9
ENDBRANCH   2   3
TORSDOF 3
ENDMDL
MODEL      244
REMARK 921   NORMALIZED FREE ENERGY PREDICTED BY IDOCK:   -2.82 KCAL/MOL
REMARK 922        TOTAL FREE ENERGY PREDICTED BY IDOCK:   -3.70 KCAL/MOL
REMARK 923 INTER-LIGAND FREE ENERGY PREDICTED BY IDOCK:   -3.29 KCAL/MOL
REMARK 924 INTRA-LIGAND FREE ENERGY PREDICTED BY IDOCK:   -0.41 KCAL/MOL
REMARK 927      BINDING AFFINITY PREDICTED BY RF-SCORE:    0.00 PKD
ROOT
HETATM    1  C   UNL     1     -10.366   3.542  72.701  1.00  0.00    -0.145 C  
HETATM    2  S   UNL     1     -11.294   5.052  73.086  1.00  0.00    -0.265 SA 
ENDROOT
BRANCH   2   3
HETATM    3  C   UNL     1     -10.536   6.167  71.921  1.00  0.00    -0.220 A  
HETATM    4  C   UNL     1     -10.768   6.042  70.550  1.00  0.00    -0.349 A  
HETATM    5  C   UNL     1     -10.166   6.928  69.652  1.00  0.00    -0.206 A  
HETATM    6  C   UNL     1      -9.326   7.953  70.112  1.00  0.00    -0.156 A  
HETATM    7  C   UNL     1      -9.728   7.210  72.386  1.00  0.00    -0.173 A  
HETATM    8  C   UNL     1      -9.131   8.106  71.489  1.00  0.00    -0.203 A  
BRANCH   6   9
HETATM    9  C   UNL     1      -8.754   8.874  69.093  1.00  0.00    -0.132 C  
HETATM   10  O   UNL     1      -7.541   8.841  68.897  1.00  0.00    -0.088 OA 
BRANCH   9  11
HETATM   11  C   UNL     1      -9.619   9.843  68.367  1.00  0.00    -0.148 C  
HETATM   12  C   UNL     1     -10.230   9.640  67.181  1.00  0.00    -0.243 C  
HETATM   13  C   UNL     1     -10.282   8.469  66.266  1.00  0.00    -0.065 C  
HETATM   14  N   UNL     1     -10.887  10.803  66.832  1.00  0.00    -0.254 N  
HETATM   15  H   UNL     1     -11.443  10.932  65.987  1.00  0.00     0.000 HD 
HETATM   16  C   UNL     1     -10.673  11.772  67.811  1.00  0.00    -0.205 C  
HETATM   17  N   UNL     1      -9.875  11.138  68.766  1.00  0.00    -0.202 NA 
HETATM   18  O   UNL     1     -11.082  12.917  67.831  1.00  0.00    -0.233 OA 
ENDBRANCH   9  11
ENDBRANCH   6   9
ENDBRANCH   2   3
TORSDOF 3
ENDMDL
MODEL      245
REMARK 921   NORMALIZED FREE ENERGY PREDICTED BY IDOCK:   -2.80 KCAL/MOL
REMARK 922        TOTAL FREE ENERGY PREDICTED BY IDOCK:   -3.68 KCAL/MOL
REMARK 923 INTER-LIGAND FREE ENERGY PREDICTED BY IDOCK:   -3.29 KCAL/MOL
REMARK 924 INTRA-LIGAND FREE ENERGY PREDICTED BY IDOCK:   -0.39 KCAL/MOL
REMARK 927      BINDING AFFINITY PREDICTED BY RF-SCORE:    0.00 PKD
ROOT
HETATM    1  C   UNL     1      -7.866  11.488  67.761  1.00  0.00    -0.126 C  
HETATM    2  S   UNL     1      -9.671  11.430  67.610  1.00  0.00    -0.175 SA 
ENDROOT
BRANCH   2   3
HETATM    3  C   UNL     1     -10.053  10.426  69.032  1.00  0.00    -0.213 A  
HETATM    4  C   UNL     1      -9.210   9.386  69.426  1.00  0.00    -0.167 A  
HETATM    5  C   UNL     1      -9.526   8.611  70.545  1.00  0.00    -0.206 A  
HETATM    6  C   UNL     1     -10.688   8.867  71.290  1.00  0.00    -0.357 A  
HETATM    7  C   UNL     1     -11.193  10.709  69.793  1.00  0.00    -0.363 A  
HETATM    8  C   UNL     1     -11.508   9.940  70.922  1.00  0.00    -0.456 A  
BRANCH   6   9
HETATM    9  C   UNL     1     -10.931   8.020  72.487  1.00  0.00    -0.364 C  
HETATM   10  O   UNL     1     -11.724   8.427  73.334  1.00  0.00     0.246 OA 
BRANCH   9  11
HETATM   11  C   UNL     1     -10.199   6.739  72.680  1.00  0.00    -0.186 C  
HETATM   12  C   UNL     1      -9.026   6.576  73.328  1.00  0.00    -0.127 C  
HETATM   13  C   UNL     1      -8.136   7.525  74.047  1.00  0.00    -0.202 C  
HETATM   14  N   UNL     1      -8.663   5.247  73.231  1.00  0.00    -0.116 N  
HETATM   15  H   UNL     1      -7.825   4.836  73.639  1.00  0.00     0.000 HD 
HETATM   16  C   UNL     1      -9.620   4.555  72.489  1.00  0.00    -0.140 C  
HETATM   17  N   UNL     1     -10.576   5.519  72.159  1.00  0.00    -0.219 NA 
HETATM   18  O   UNL     1      -9.623   3.377  72.188  1.00  0.00    -0.120 OA 
ENDBRANCH   9  11
ENDBRANCH   6   9
ENDBRANCH   2   3
TORSDOF 3
ENDMDL
MODEL      246
REMARK 921   NORMALIZED FREE ENERGY PREDICTED BY IDOCK:   -2.73 KCAL/MOL
REMARK 922        TOTAL FREE ENERGY PREDICTED BY IDOCK:   -3.60 KCAL/MOL
REMARK 923 INTER-LIGAND FREE ENERGY PREDICTED BY IDOCK:   -3.24 KCAL/MOL
REMARK 924 INTRA-LIGAND FREE ENERGY PREDICTED BY IDOCK:   -0.36 KCAL/MOL
REMARK 927      BINDING AFFINITY PREDICTED BY RF-SCORE:    0.00 PKD
ROOT
HETATM    1  C   UNL     1      -8.619   5.642  72.250  1.00  0.00    -0.129 C  
HETATM    2  S   UNL     1      -7.475   5.988  70.887  1.00  0.00    -0.093 SA 
ENDROOT
BRANCH   2   3
HETATM    3  C   UNL     1      -8.352   7.324  70.099  1.00  0.00    -0.137 A  
HETATM    4  C   UNL     1      -8.706   7.257  68.751  1.00  0.00    -0.125 A  
HETATM    5  C   UNL     1      -9.395   8.315  68.152  1.00  0.00    -0.140 A  
HETATM    6  C   UNL     1      -9.742   9.455  68.892  1.00  0.00    -0.166 A  
HETATM    7  C   UNL     1      -8.727   8.444  70.851  1.00  0.00    -0.178 A  
HETATM    8  C   UNL     1      -9.427   9.502  70.255  1.00  0.00    -0.307 A  
BRANCH   6   9
HETATM    9  C   UNL     1     -10.506  10.520  68.188  1.00  0.00    -0.186 C  
HETATM   10  O   UNL     1     -11.547  10.204  67.615  1.00  0.00    -0.204 OA 
BRANCH   9  11
HETATM   11  C   UNL     1      -9.999  11.918  68.136  1.00  0.00    -0.197 C  
HETATM   12  C   UNL     1     -10.641  13.019  68.580  1.00  0.00    -0.258 C  
HETATM   13  C   UNL     1     -11.954  13.215  69.249  1.00  0.00    -0.344 C  
HETATM   14  N   UNL     1      -9.856  14.118  68.295  1.00  0.00    -0.229 N  
HETATM   15  H   UNL     1     -10.088  15.083  68.527  1.00  0.00     0.000 HD 
HETATM   16  C   UNL     1      -8.696  13.705  67.639  1.00  0.00    -0.182 C  
HETATM   17  N   UNL     1      -8.813  12.315  67.557  1.00  0.00    -0.173 NA 
HETATM   18  O   UNL     1      -7.787  14.396  67.223  1.00  0.00    -0.195 OA 
ENDBRANCH   9  11
ENDBRANCH   6   9
ENDBRANCH   2   3
TORSDOF 3
ENDMDL
MODEL      247
REMARK 921   NORMALIZED FREE ENERGY PREDICTED BY IDOCK:   -2.68 KCAL/MOL
REMARK 922        TOTAL FREE ENERGY PREDICTED BY IDOCK:   -3.54 KCAL/MOL
REMARK 923 INTER-LIGAND FREE ENERGY PREDICTED BY IDOCK:   -3.11 KCAL/MOL
REMARK 924 INTRA-LIGAND FREE ENERGY PREDICTED BY IDOCK:   -0.44 KCAL/MOL
REMARK 927      BINDING AFFINITY PREDICTED BY RF-SCORE:    0.00 PKD
ROOT
HETATM    1  C   UNL     1      -8.686   4.392  73.205  1.00  0.00    -0.107 C  
HETATM    2  S   UNL     1      -7.288   5.182  72.363  1.00  0.00    -0.095 SA 
ENDROOT
BRANCH   2   3
HETATM    3  C   UNL     1      -8.173   6.081  71.104  1.00  0.00    -0.123 A  
HETATM    4  C   UNL     1      -8.291   5.578  69.808  1.00  0.00    -0.105 A  
HETATM    5  C   UNL     1      -8.990   6.297  68.835  1.00  0.00    -0.126 A  
HETATM    6  C   UNL     1      -9.585   7.529  69.145  1.00  0.00    -0.157 A  
HETATM    7  C   UNL     1      -8.796   7.292  71.427  1.00  0.00    -0.130 A  
HETATM    8  C   UNL     1      -9.507   8.012  70.457  1.00  0.00    -0.166 A  
BRANCH   6   9
HETATM    9  C   UNL     1     -10.342   8.212  68.062  1.00  0.00    -0.211 C  
HETATM   10  O   UNL     1     -10.853   7.518  67.185  1.00  0.00    -0.324 OA 
BRANCH   9  11
HETATM   11  C   UNL     1     -10.436   9.696  68.013  1.00  0.00    -0.229 C  
HETATM   12  C   UNL     1      -9.425  10.556  67.770  1.00  0.00    -0.149 C  
HETATM   13  C   UNL     1      -7.985  10.350  67.460  1.00  0.00    -0.106 C  
HETATM   14  N   UNL     1      -9.919  11.841  67.870  1.00  0.00    -0.177 N  
HETATM   15  H   UNL     1      -9.378  12.692  67.724  1.00  0.00     0.000 HD 
HETATM   16  C   UNL     1     -11.274  11.795  68.201  1.00  0.00    -0.260 C  
HETATM   17  N   UNL     1     -11.571  10.433  68.281  1.00  0.00    -0.322 NA 
HETATM   18  O   UNL     1     -12.028  12.729  68.387  1.00  0.00    -0.319 OA 
ENDBRANCH   9  11
ENDBRANCH   6   9
ENDBRANCH   2   3
TORSDOF 3
ENDMDL
MODEL      248
REMARK 921   NORMALIZED FREE ENERGY PREDICTED BY IDOCK:   -2.67 KCAL/MOL
REMARK 922        TOTAL FREE ENERGY PREDICTED BY IDOCK:   -3.53 KCAL/MOL
REMARK 923 INTER-LIGAND FREE ENERGY PREDICTED BY IDOCK:   -3.13 KCAL/MOL
REMARK 924 INTRA-LIGAND FREE ENERGY PREDICTED BY IDOCK:   -0.40 KCAL/MOL
REMARK 927      BINDING AFFINITY PREDICTED BY RF-SCORE:    0.00 PKD
ROOT
HETATM    1  C   UNL     1      -9.468   9.006  65.984  1.00  0.00    -0.256 C  
HETATM    2  S   UNL     1      -8.540   8.737  67.519  1.00  0.00    -0.127 SA 
ENDROOT
BRANCH   2   3
HETATM    3  C   UNL     1      -8.135  10.426  67.916  1.00  0.00    -0.102 A  
HETATM    4  C   UNL     1      -6.862  10.773  68.372  1.00  0.00    -0.068 A  
HETATM    5  C   UNL     1      -6.564  12.104  68.678  1.00  0.00    -0.077 A  
HETATM    6  C   UNL     1      -7.533  13.108  68.528  1.00  0.00    -0.117 A  
HETATM    7  C   UNL     1      -9.093  11.429  67.731  1.00  0.00    -0.158 A  
HETATM    8  C   UNL     1      -8.794  12.767  68.027  1.00  0.00    -0.195 A  
BRANCH   6   9
HETATM    9  C   UNL     1      -7.122  14.503  68.840  1.00  0.00    -0.118 C  
HETATM   10  O   UNL     1      -6.297  14.678  69.734  1.00  0.00    -0.128 OA 
BRANCH   9  11
HETATM   11  C   UNL     1      -7.730  15.658  68.125  1.00  0.00    -0.124 C  
HETATM   12  C   UNL     1      -8.892  16.270  68.435  1.00  0.00    -0.202 C  
HETATM   13  C   UNL     1      -9.882  16.054  69.523  1.00  0.00    -0.235 C  
HETATM   14  N   UNL     1      -9.123  17.254  67.495  1.00  0.00    -0.222 N  
HETATM   15  H   UNL     1      -9.925  17.883  67.487  1.00  0.00     0.000 HD 
HETATM   16  C   UNL     1      -8.091  17.254  66.556  1.00  0.00    -0.278 C  
HETATM   17  N   UNL     1      -7.228  16.241  66.981  1.00  0.00    -0.210 NA 
HETATM   18  O   UNL     1      -7.970  17.968  65.580  1.00  0.00    -0.514 OA 
ENDBRANCH   9  11
ENDBRANCH   6   9
ENDBRANCH   2   3
TORSDOF 3
ENDMDL
MODEL      249
REMARK 921   NORMALIZED FREE ENERGY PREDICTED BY IDOCK:   -2.66 KCAL/MOL
REMARK 922        TOTAL FREE ENERGY PREDICTED BY IDOCK:   -3.51 KCAL/MOL
REMARK 923 INTER-LIGAND FREE ENERGY PREDICTED BY IDOCK:   -3.10 KCAL/MOL
REMARK 924 INTRA-LIGAND FREE ENERGY PREDICTED BY IDOCK:   -0.41 KCAL/MOL
REMARK 927      BINDING AFFINITY PREDICTED BY RF-SCORE:    0.00 PKD
ROOT
HETATM    1  C   UNL     1     -10.714   2.712  63.362  1.00  0.00    -0.223 C  
HETATM    2  S   UNL     1      -9.209   2.047  64.124  1.00  0.00    -0.122 SA 
ENDROOT
BRANCH   2   3
HETATM    3  C   UNL     1      -9.025   3.204  65.468  1.00  0.00    -0.144 A  
HETATM    4  C   UNL     1      -8.650   4.527  65.232  1.00  0.00    -0.128 A  
HETATM    5  C   UNL     1      -8.512   5.419  66.299  1.00  0.00    -0.117 A  
HETATM    6  C   UNL     1      -8.750   5.002  67.617  1.00  0.00    -0.103 A  
HETATM    7  C   UNL     1      -9.298   2.792  66.777  1.00  0.00    -0.070 A  
HETATM    8  C   UNL     1      -9.170   3.687  67.849  1.00  0.00    -0.223 A  
BRANCH   6   9
HETATM    9  C   UNL     1      -8.616   6.023  68.690  1.00  0.00    -0.112 C  
HETATM   10  O   UNL     1      -7.827   5.801  69.606  1.00  0.00    -0.092 OA 
BRANCH   9  11
HETATM   11  C   UNL     1      -9.450   7.255  68.682  1.00  0.00    -0.137 C  
HETATM   12  C   UNL     1     -10.660   7.407  69.261  1.00  0.00    -0.213 C  
HETATM   13  C   UNL     1     -11.509   6.492  70.069  1.00  0.00    -0.476 C  
HETATM   14  N   UNL     1     -11.117   8.677  68.973  1.00  0.00    -0.421 N  
HETATM   15  H   UNL     1     -12.002   9.070  69.292  1.00  0.00     0.000 HD 
HETATM   16  C   UNL     1     -10.182   9.341  68.179  1.00  0.00    -0.205 C  
HETATM   17  N   UNL     1      -9.143   8.422  68.016  1.00  0.00    -0.137 NA 
HETATM   18  O   UNL     1     -10.254  10.465  67.723  1.00  0.00    -0.176 OA 
ENDBRANCH   9  11
ENDBRANCH   6   9
ENDBRANCH   2   3
TORSDOF 3
ENDMDL
MODEL      250
REMARK 921   NORMALIZED FREE ENERGY PREDICTED BY IDOCK:   -2.64 KCAL/MOL
REMARK 922        TOTAL FREE ENERGY PREDICTED BY IDOCK:   -3.49 KCAL/MOL
REMARK 923 INTER-LIGAND FREE ENERGY PREDICTED BY IDOCK:   -3.10 KCAL/MOL
REMARK 924 INTRA-LIGAND FREE ENERGY PREDICTED BY IDOCK:   -0.39 KCAL/MOL
REMARK 927      BINDING AFFINITY PREDICTED BY RF-SCORE:    0.00 PKD
ROOT
HETATM    1  C   UNL     1     -10.155   2.642  73.917  1.00  0.00    -0.113 C  
HETATM    2  S   UNL     1     -10.644   4.374  74.144  1.00  0.00    -0.257 SA 
ENDROOT
BRANCH   2   3
HETATM    3  C   UNL     1      -9.978   5.066  72.643  1.00  0.00    -0.166 A  
HETATM    4  C   UNL     1     -10.815   5.615  71.670  1.00  0.00    -0.301 A  
HETATM    5  C   UNL     1     -10.273   6.154  70.501  1.00  0.00    -0.251 A  
HETATM    6  C   UNL     1      -8.886   6.155  70.288  1.00  0.00    -0.149 A  
HETATM    7  C   UNL     1      -8.593   5.098  72.451  1.00  0.00    -0.125 A  
HETATM    8  C   UNL     1      -8.045   5.647  71.284  1.00  0.00    -0.114 A  
BRANCH   6   9
HETATM    9  C   UNL     1      -8.390   6.781  69.033  1.00  0.00    -0.124 C  
HETATM   10  O   UNL     1      -7.609   7.726  69.126  1.00  0.00    -0.095 OA 
BRANCH   9  11
HETATM   11  C   UNL     1      -8.863   6.310  67.704  1.00  0.00    -0.111 C  
HETATM   12  C   UNL     1      -9.560   7.030  66.800  1.00  0.00    -0.171 C  
HETATM   13  C   UNL     1     -10.038   8.438  66.791  1.00  0.00    -0.373 C  
HETATM   14  N   UNL     1      -9.850   6.210  65.728  1.00  0.00    -0.337 N  
HETATM   15  H   UNL     1     -10.359   6.494  64.892  1.00  0.00     0.000 HD 
HETATM   16  C   UNL     1      -9.339   4.934  65.966  1.00  0.00    -0.156 C  
HETATM   17  N   UNL     1      -8.720   5.029  67.214  1.00  0.00    -0.104 NA 
HETATM   18  O   UNL     1      -9.418   3.953  65.252  1.00  0.00    -0.150 OA 
ENDBRANCH   9  11
ENDBRANCH   6   9
ENDBRANCH   2   3
TORSDOF 3
ENDMDL
MODEL      251
REMARK 921   NORMALIZED FREE ENERGY PREDICTED BY IDOCK:   -2.62 KCAL/MOL
REMARK 922        TOTAL FREE ENERGY PREDICTED BY IDOCK:   -3.47 KCAL/MOL
REMARK 923 INTER-LIGAND FREE ENERGY PREDICTED BY IDOCK:   -3.11 KCAL/MOL
REMARK 924 INTRA-LIGAND FREE ENERGY PREDICTED BY IDOCK:   -0.36 KCAL/MOL
REMARK 927      BINDING AFFINITY PREDICTED BY RF-SCORE:    0.00 PKD
ROOT
HETATM    1  C   UNL     1      -7.096  15.342  67.244  1.00  0.00    -0.152 C  
HETATM    2  S   UNL     1      -8.820  15.546  67.768  1.00  0.00    -0.173 SA 
ENDROOT
BRANCH   2   3
HETATM    3  C   UNL     1      -9.236  13.841  68.078  1.00  0.00    -0.195 A  
HETATM    4  C   UNL     1     -10.555  13.394  67.984  1.00  0.00    -0.252 A  
HETATM    5  C   UNL     1     -10.861  12.053  68.230  1.00  0.00    -0.263 A  
HETATM    6  C   UNL     1      -9.853  11.138  68.569  1.00  0.00    -0.199 A  
HETATM    7  C   UNL     1      -8.223  12.925  68.380  1.00  0.00    -0.121 A  
HETATM    8  C   UNL     1      -8.525  11.577  68.617  1.00  0.00    -0.115 A  
BRANCH   6   9
HETATM    9  C   UNL     1     -10.259   9.722  68.778  1.00  0.00    -0.194 C  
HETATM   10  O   UNL     1     -11.117   9.485  69.627  1.00  0.00    -0.234 OA 
BRANCH   9  11
HETATM   11  C   UNL     1      -9.612   8.620  68.017  1.00  0.00    -0.149 C  
HETATM   12  C   UNL     1      -9.400   8.583  66.685  1.00  0.00    -0.189 C  
HETATM   13  C   UNL     1      -9.684   9.555  65.596  1.00  0.00    -0.361 C  
HETATM   14  N   UNL     1      -8.827   7.366  66.375  1.00  0.00    -0.150 N  
HETATM   15  H   UNL     1      -8.548   7.069  65.440  1.00  0.00     0.000 HD 
HETATM   16  C   UNL     1      -8.686   6.607  67.537  1.00  0.00    -0.118 C  
HETATM   17  N   UNL     1      -9.185   7.424  68.554  1.00  0.00    -0.143 NA 
HETATM   18  O   UNL     1      -8.238   5.483  67.644  1.00  0.00    -0.101 OA 
ENDBRANCH   9  11
ENDBRANCH   6   9
ENDBRANCH   2   3
TORSDOF 3
ENDMDL
MODEL      252
REMARK 921   NORMALIZED FREE ENERGY PREDICTED BY IDOCK:   -2.60 KCAL/MOL
REMARK 922        TOTAL FREE ENERGY PREDICTED BY IDOCK:   -3.45 KCAL/MOL
REMARK 923 INTER-LIGAND FREE ENERGY PREDICTED BY IDOCK:   -3.02 KCAL/MOL
REMARK 924 INTRA-LIGAND FREE ENERGY PREDICTED BY IDOCK:   -0.43 KCAL/MOL
REMARK 927      BINDING AFFINITY PREDICTED BY RF-SCORE:    0.00 PKD
ROOT
HETATM    1  C   UNL     1     -10.171   3.962  73.320  1.00  0.00    -0.149 C  
HETATM    2  S   UNL     1     -11.588   4.993  72.857  1.00  0.00    -0.077 SA 
ENDROOT
BRANCH   2   3
HETATM    3  C   UNL     1     -10.740   6.263  71.939  1.00  0.00    -0.230 A  
HETATM    4  C   UNL     1      -9.754   5.940  71.006  1.00  0.00    -0.209 A  
HETATM    5  C   UNL     1      -9.101   6.951  70.296  1.00  0.00    -0.153 A  
HETATM    6  C   UNL     1      -9.426   8.299  70.505  1.00  0.00    -0.178 A  
HETATM    7  C   UNL     1     -11.093   7.604  72.125  1.00  0.00    -0.314 A  
HETATM    8  C   UNL     1     -10.447   8.620  71.407  1.00  0.00    -0.327 A  
BRANCH   6   9
HETATM    9  C   UNL     1      -8.710   9.309  69.681  1.00  0.00    -0.153 C  
HETATM   10  O   UNL     1      -8.115  10.215  70.262  1.00  0.00    -0.134 OA 
BRANCH   9  11
HETATM   11  C   UNL     1      -8.752   9.254  68.195  1.00  0.00    -0.125 C  
HETATM   12  C   UNL     1      -7.791   8.766  67.383  1.00  0.00    -0.098 C  
HETATM   13  C   UNL     1      -6.472   8.135  67.656  1.00  0.00    -0.057 C  
HETATM   14  N   UNL     1      -8.196   8.952  66.077  1.00  0.00    -0.114 N  
HETATM   15  H   UNL     1      -7.669   8.668  65.252  1.00  0.00     0.000 HD 
HETATM   16  C   UNL     1      -9.436   9.590  66.060  1.00  0.00    -0.233 C  
HETATM   17  N   UNL     1      -9.763   9.763  67.406  1.00  0.00    -0.157 NA 
HETATM   18  O   UNL     1     -10.088   9.927  65.091  1.00  0.00    -0.309 OA 
ENDBRANCH   9  11
ENDBRANCH   6   9
ENDBRANCH   2   3
TORSDOF 3
ENDMDL
MODEL      253
REMARK 921   NORMALIZED FREE ENERGY PREDICTED BY IDOCK:   -2.54 KCAL/MOL
REMARK 922        TOTAL FREE ENERGY PREDICTED BY IDOCK:   -3.37 KCAL/MOL
REMARK 923 INTER-LIGAND FREE ENERGY PREDICTED BY IDOCK:   -2.90 KCAL/MOL
REMARK 924 INTRA-LIGAND FREE ENERGY PREDICTED BY IDOCK:   -0.47 KCAL/MOL
REMARK 927      BINDING AFFINITY PREDICTED BY RF-SCORE:    0.00 PKD
ROOT
HETATM    1  C   UNL     1     -10.597  16.478  69.803  1.00  0.00    -0.265 C  
HETATM    2  S   UNL     1     -10.138  16.780  68.075  1.00  0.00    -0.298 SA 
ENDROOT
BRANCH   2   3
HETATM    3  C   UNL     1      -9.686  15.123  67.598  1.00  0.00    -0.211 A  
HETATM    4  C   UNL     1      -8.347  14.743  67.499  1.00  0.00    -0.197 A  
HETATM    5  C   UNL     1      -8.013  13.438  67.125  1.00  0.00    -0.068 A  
HETATM    6  C   UNL     1      -9.013  12.494  66.847  1.00  0.00    -0.212 A  
HETATM    7  C   UNL     1     -10.687  14.175  67.357  1.00  0.00    -0.284 A  
HETATM    8  C   UNL     1     -10.355  12.863  66.992  1.00  0.00    -0.245 A  
BRANCH   6   9
HETATM    9  C   UNL     1      -8.572  11.119  66.491  1.00  0.00    -0.169 C  
HETATM   10  O   UNL     1      -8.437  10.843  65.301  1.00  0.00    -0.151 OA 
BRANCH   9  11
HETATM   11  C   UNL     1      -8.348  10.091  67.543  1.00  0.00    -0.118 C  
HETATM   12  C   UNL     1      -9.295   9.338  68.143  1.00  0.00    -0.134 C  
HETATM   13  C   UNL     1     -10.769   9.249  67.963  1.00  0.00    -0.231 C  
HETATM   14  N   UNL     1      -8.680   8.553  69.096  1.00  0.00    -0.133 N  
HETATM   15  H   UNL     1      -9.153   7.877  69.695  1.00  0.00     0.000 HD 
HETATM   16  C   UNL     1      -7.312   8.826  69.114  1.00  0.00    -0.072 C  
HETATM   17  N   UNL     1      -7.133   9.795  68.124  1.00  0.00    -0.077 NA 
HETATM   18  O   UNL     1      -6.463   8.339  69.834  1.00  0.00    -0.038 OA 
ENDBRANCH   9  11
ENDBRANCH   6   9
ENDBRANCH   2   3
TORSDOF 3
ENDMDL
MODEL      254
REMARK 921   NORMALIZED FREE ENERGY PREDICTED BY IDOCK:   -2.46 KCAL/MOL
REMARK 922        TOTAL FREE ENERGY PREDICTED BY IDOCK:   -3.28 KCAL/MOL
REMARK 923 INTER-LIGAND FREE ENERGY PREDICTED BY IDOCK:   -2.90 KCAL/MOL
REMARK 924 INTRA-LIGAND FREE ENERGY PREDICTED BY IDOCK:   -0.38 KCAL/MOL
REMARK 927      BINDING AFFINITY PREDICTED BY RF-SCORE:    0.00 PKD
ROOT
HETATM    1  C   UNL     1      -7.513  11.264  66.210  1.00  0.00    -0.010 C  
HETATM    2  S   UNL     1      -9.200  10.600  66.161  1.00  0.00    -0.179 SA 
ENDROOT
BRANCH   2   3
HETATM    3  C   UNL     1      -9.134   9.527  67.582  1.00  0.00    -0.120 A  
HETATM    4  C   UNL     1      -7.985   8.790  67.875  1.00  0.00    -0.107 A  
HETATM    5  C   UNL     1      -7.953   7.955  68.995  1.00  0.00    -0.122 A  
HETATM    6  C   UNL     1      -9.067   7.846  69.841  1.00  0.00    -0.146 A  
HETATM    7  C   UNL     1     -10.235   9.449  68.442  1.00  0.00    -0.224 A  
HETATM    8  C   UNL     1     -10.202   8.621  69.572  1.00  0.00    -0.209 A  
BRANCH   6   9
HETATM    9  C   UNL     1      -8.937   6.964  71.031  1.00  0.00    -0.151 C  
HETATM   10  O   UNL     1      -9.206   5.771  70.900  1.00  0.00    -0.153 OA 
BRANCH   9  11
HETATM   11  C   UNL     1      -8.540   7.517  72.353  1.00  0.00    -0.122 C  
HETATM   12  C   UNL     1      -9.303   7.557  73.466  1.00  0.00    -0.263 C  
HETATM   13  C   UNL     1     -10.680   7.080  73.757  1.00  0.00    -0.220 C  
HETATM   14  N   UNL     1      -8.585   8.198  74.456  1.00  0.00    -0.392 N  
HETATM   15  H   UNL     1      -8.912   8.361  75.408  1.00  0.00     0.000 HD 
HETATM   16  C   UNL     1      -7.343   8.588  73.954  1.00  0.00    -0.044 C  
HETATM   17  N   UNL     1      -7.343   8.143  72.630  1.00  0.00    -0.106 NA 
HETATM   18  O   UNL     1      -6.459   9.189  74.532  1.00  0.00    -0.331 OA 
ENDBRANCH   9  11
ENDBRANCH   6   9
ENDBRANCH   2   3
TORSDOF 3
ENDMDL
MODEL      255
REMARK 921   NORMALIZED FREE ENERGY PREDICTED BY IDOCK:   -2.42 KCAL/MOL
REMARK 922        TOTAL FREE ENERGY PREDICTED BY IDOCK:   -3.23 KCAL/MOL
REMARK 923 INTER-LIGAND FREE ENERGY PREDICTED BY IDOCK:   -3.95 KCAL/MOL
REMARK 924 INTRA-LIGAND FREE ENERGY PREDICTED BY IDOCK:    0.72 KCAL/MOL
REMARK 927      BINDING AFFINITY PREDICTED BY RF-SCORE:    0.00 PKD
ROOT
HETATM    1  C   UNL     1     -11.229  11.741  65.726  1.00  0.00    -0.281 C  
HETATM    2  S   UNL     1     -11.561  13.290  64.845  1.00  0.00    -0.341 SA 
ENDROOT
BRANCH   2   3
HETATM    3  C   UNL     1     -10.471  14.377  65.742  1.00  0.00    -0.318 A  
HETATM    4  C   UNL     1      -9.386  13.875  66.462  1.00  0.00    -0.264 A  
HETATM    5  C   UNL     1      -8.541  14.744  67.158  1.00  0.00    -0.248 A  
HETATM    6  C   UNL     1      -8.767  16.128  67.142  1.00  0.00    -0.216 A  
HETATM    7  C   UNL     1     -10.678  15.760  65.693  1.00  0.00    -0.360 A  
HETATM    8  C   UNL     1      -9.827  16.636  66.382  1.00  0.00    -0.308 A  
BRANCH   6   9
HETATM    9  C   UNL     1      -7.800  16.986  67.878  1.00  0.00    -0.184 C  
HETATM   10  O   UNL     1      -7.701  18.165  67.547  1.00  0.00    -0.214 OA 
BRANCH   9  11
HETATM   11  C   UNL     1      -6.940  16.420  68.953  1.00  0.00    -0.186 C  
HETATM   12  C   UNL     1      -6.125  17.114  69.776  1.00  0.00    -0.229 C  
HETATM   13  C   UNL     1      -5.839  18.566  69.915  1.00  0.00    -0.242 C  
HETATM   14  N   UNL     1      -5.466  16.212  70.587  1.00  0.00    -0.142 N  
HETATM   15  H   UNL     1      -4.795  16.458  71.314  1.00  0.00     0.000 HD 
HETATM   16  C   UNL     1      -5.860  14.915  70.260  1.00  0.00    -0.149 C  
HETATM   17  N   UNL     1      -6.791  15.078  69.231  1.00  0.00    -0.135 NA 
HETATM   18  O   UNL     1      -5.476  13.872  70.752  1.00  0.00    -0.129 OA 
ENDBRANCH   9  11
ENDBRANCH   6   9
ENDBRANCH   2   3
TORSDOF 3
ENDMDL
MODEL      256
REMARK 921   NORMALIZED FREE ENERGY PREDICTED BY IDOCK:   -2.39 KCAL/MOL
REMARK 922        TOTAL FREE ENERGY PREDICTED BY IDOCK:   -3.20 KCAL/MOL
REMARK 923 INTER-LIGAND FREE ENERGY PREDICTED BY IDOCK:   -3.12 KCAL/MOL
REMARK 924 INTRA-LIGAND FREE ENERGY PREDICTED BY IDOCK:   -0.09 KCAL/MOL
REMARK 927      BINDING AFFINITY PREDICTED BY RF-SCORE:    0.00 PKD
ROOT
HETATM    1  C   UNL     1      -5.920  16.438  69.282  1.00  0.00    -0.154 C  
HETATM    2  S   UNL     1      -7.723  16.542  69.123  1.00  0.00    -0.147 SA 
ENDROOT
BRANCH   2   3
HETATM    3  C   UNL     1      -8.091  14.825  68.823  1.00  0.00    -0.158 A  
HETATM    4  C   UNL     1      -7.097  13.850  68.912  1.00  0.00    -0.110 A  
HETATM    5  C   UNL     1      -7.406  12.508  68.674  1.00  0.00    -0.099 A  
HETATM    6  C   UNL     1      -8.714  12.121  68.346  1.00  0.00    -0.141 A  
HETATM    7  C   UNL     1      -9.404  14.440  68.532  1.00  0.00    -0.204 A  
HETATM    8  C   UNL     1      -9.720  13.093  68.303  1.00  0.00    -0.223 A  
BRANCH   6   9
HETATM    9  C   UNL     1      -8.966  10.669  68.145  1.00  0.00    -0.141 C  
HETATM   10  O   UNL     1      -8.705  10.183  67.046  1.00  0.00    -0.132 OA 
BRANCH   9  11
HETATM   11  C   UNL     1      -9.561   9.838  69.225  1.00  0.00    -0.197 C  
HETATM   12  C   UNL     1      -9.397   8.509  69.398  1.00  0.00    -0.154 C  
HETATM   13  C   UNL     1      -8.608   7.491  68.656  1.00  0.00    -0.129 C  
HETATM   14  N   UNL     1     -10.160   8.119  70.479  1.00  0.00    -0.191 N  
HETATM   15  H   UNL     1     -10.219   7.169  70.844  1.00  0.00     0.000 HD 
HETATM   16  C   UNL     1     -10.839   9.223  70.995  1.00  0.00    -0.314 C  
HETATM   17  N   UNL     1     -10.439  10.291  70.188  1.00  0.00    -0.253 NA 
HETATM   18  O   UNL     1     -11.612   9.253  71.932  1.00  0.00    -0.372 OA 
ENDBRANCH   9  11
ENDBRANCH   6   9
ENDBRANCH   2   3
TORSDOF 3
ENDMDL
MODEL      257
REMARK 921   NORMALIZED FREE ENERGY PREDICTED BY IDOCK:   -2.34 KCAL/MOL
REMARK 922        TOTAL FREE ENERGY PREDICTED BY IDOCK:   -3.15 KCAL/MOL
REMARK 923 INTER-LIGAND FREE ENERGY PREDICTED BY IDOCK:   -2.90 KCAL/MOL
REMARK 924 INTRA-LIGAND FREE ENERGY PREDICTED BY IDOCK:   -0.25 KCAL/MOL
REMARK 927      BINDING AFFINITY PREDICTED BY RF-SCORE:    0.00 PKD
ROOT
HETATM    1  C   UNL     1      -5.770   5.011  64.854  1.00  0.00    -0.017 C  
HETATM    2  S   UNL     1      -6.107   3.911  66.255  1.00  0.00    -0.032 SA 
ENDROOT
BRANCH   2   3
HETATM    3  C   UNL     1      -7.427   4.821  67.033  1.00  0.00    -0.086 A  
HETATM    4  C   UNL     1      -8.745   4.694  66.593  1.00  0.00    -0.111 A  
HETATM    5  C   UNL     1      -9.767   5.416  67.217  1.00  0.00    -0.157 A  
HETATM    6  C   UNL     1      -9.485   6.273  68.291  1.00  0.00    -0.117 A  
HETATM    7  C   UNL     1      -7.147   5.647  68.127  1.00  0.00    -0.071 A  
HETATM    8  C   UNL     1      -8.171   6.364  68.762  1.00  0.00    -0.121 A  
BRANCH   6   9
HETATM    9  C   UNL     1     -10.635   6.976  68.922  1.00  0.00    -0.215 C  
HETATM   10  O   UNL     1     -11.503   6.296  69.465  1.00  0.00    -0.428 OA 
BRANCH   9  11
HETATM   11  C   UNL     1     -10.756   8.457  68.854  1.00  0.00    -0.068 C  
HETATM   12  C   UNL     1     -10.433   9.240  67.803  1.00  0.00    -0.255 C  
HETATM   13  C   UNL     1      -9.916   8.933  66.444  1.00  0.00    -0.354 C  
HETATM   14  N   UNL     1     -10.641  10.555  68.168  1.00  0.00    -0.189 N  
HETATM   15  H   UNL     1     -10.489  11.363  67.565  1.00  0.00     0.000 HD 
HETATM   16  C   UNL     1     -11.090  10.608  69.488  1.00  0.00    -0.274 C  
HETATM   17  N   UNL     1     -11.156   9.273  69.892  1.00  0.00    -0.217 NA 
HETATM   18  O   UNL     1     -11.358  11.594  70.146  1.00  0.00    -0.187 OA 
ENDBRANCH   9  11
ENDBRANCH   6   9
ENDBRANCH   2   3
TORSDOF 3
ENDMDL
MODEL      258
REMARK 921   NORMALIZED FREE ENERGY PREDICTED BY IDOCK:   -2.33 KCAL/MOL
REMARK 922        TOTAL FREE ENERGY PREDICTED BY IDOCK:   -3.13 KCAL/MOL
REMARK 923 INTER-LIGAND FREE ENERGY PREDICTED BY IDOCK:   -2.76 KCAL/MOL
REMARK 924 INTRA-LIGAND FREE ENERGY PREDICTED BY IDOCK:   -0.36 KCAL/MOL
REMARK 927      BINDING AFFINITY PREDICTED BY RF-SCORE:    0.00 PKD
ROOT
HETATM    1  C   UNL     1      -7.505   3.586  73.760  1.00  0.00    -0.061 C  
HETATM    2  S   UNL     1      -8.131   5.216  74.247  1.00  0.00    -0.095 SA 
ENDROOT
BRANCH   2   3
HETATM    3  C   UNL     1      -8.102   6.029  72.662  1.00  0.00    -0.104 A  
HETATM    4  C   UNL     1      -9.224   6.029  71.832  1.00  0.00    -0.156 A  
HETATM    5  C   UNL     1      -9.181   6.673  70.593  1.00  0.00    -0.159 A  
HETATM    6  C   UNL     1      -8.017   7.329  70.165  1.00  0.00    -0.112 A  
HETATM    7  C   UNL     1      -6.950   6.712  72.256  1.00  0.00    -0.068 A  
HETATM    8  C   UNL     1      -6.907   7.368  71.018  1.00  0.00    -0.054 A  
BRANCH   6   9
HETATM    9  C   UNL     1      -8.067   8.020  68.849  1.00  0.00    -0.124 C  
HETATM   10  O   UNL     1      -7.017   8.157  68.226  1.00  0.00    -0.072 OA 
BRANCH   9  11
HETATM   11  C   UNL     1      -9.345   8.572  68.324  1.00  0.00    -0.137 C  
HETATM   12  C   UNL     1     -10.218   7.940  67.512  1.00  0.00    -0.242 C  
HETATM   13  C   UNL     1     -10.235   6.573  66.926  1.00  0.00    -0.279 C  
HETATM   14  N   UNL     1     -11.241   8.817  67.214  1.00  0.00    -0.119 N  
HETATM   15  H   UNL     1     -12.047   8.603  66.628  1.00  0.00     0.000 HD 
HETATM   16  C   UNL     1     -11.002  10.042  67.838  1.00  0.00    -0.252 C  
HETATM   17  N   UNL     1      -9.804   9.856  68.532  1.00  0.00    -0.153 NA 
HETATM   18  O   UNL     1     -11.679  11.050  67.787  1.00  0.00    -0.573 OA 
ENDBRANCH   9  11
ENDBRANCH   6   9
ENDBRANCH   2   3
TORSDOF 3
ENDMDL
MODEL      259
REMARK 921   NORMALIZED FREE ENERGY PREDICTED BY IDOCK:   -2.32 KCAL/MOL
REMARK 922        TOTAL FREE ENERGY PREDICTED BY IDOCK:   -3.12 KCAL/MOL
REMARK 923 INTER-LIGAND FREE ENERGY PREDICTED BY IDOCK:   -2.85 KCAL/MOL
REMARK 924 INTRA-LIGAND FREE ENERGY PREDICTED BY IDOCK:   -0.27 KCAL/MOL
REMARK 927      BINDING AFFINITY PREDICTED BY RF-SCORE:    0.00 PKD
ROOT
HETATM    1  C   UNL     1      -8.041   5.442  63.539  1.00  0.00    -0.113 C  
HETATM    2  S   UNL     1      -9.082   4.199  64.350  1.00  0.00    -0.151 SA 
ENDROOT
BRANCH   2   3
HETATM    3  C   UNL     1      -9.305   4.990  65.932  1.00  0.00    -0.159 A  
HETATM    4  C   UNL     1     -10.573   5.372  66.372  1.00  0.00    -0.322 A  
HETATM    5  C   UNL     1     -10.727   5.990  67.616  1.00  0.00    -0.377 A  
HETATM    6  C   UNL     1      -9.617   6.232  68.439  1.00  0.00    -0.121 A  
HETATM    7  C   UNL     1      -8.200   5.196  66.764  1.00  0.00    -0.108 A  
HETATM    8  C   UNL     1      -8.352   5.806  68.017  1.00  0.00    -0.103 A  
BRANCH   6   9
HETATM    9  C   UNL     1      -9.873   6.860  69.763  1.00  0.00    -0.171 C  
HETATM   10  O   UNL     1     -10.371   7.984  69.784  1.00  0.00    -0.209 OA 
BRANCH   9  11
HETATM   11  C   UNL     1      -9.493   6.170  71.024  1.00  0.00    -0.171 C  
HETATM   12  C   UNL     1      -8.821   6.711  72.063  1.00  0.00    -0.135 C  
HETATM   13  C   UNL     1      -8.293   8.078  72.314  1.00  0.00    -0.193 C  
HETATM   14  N   UNL     1      -8.622   5.724  73.007  1.00  0.00    -0.121 N  
HETATM   15  H   UNL     1      -8.150   5.853  73.901  1.00  0.00     0.000 HD 
HETATM   16  C   UNL     1      -9.165   4.524  72.548  1.00  0.00    -0.127 C  
HETATM   17  N   UNL     1      -9.709   4.836  71.301  1.00  0.00    -0.168 NA 
HETATM   18  O   UNL     1      -9.162   3.443  73.104  1.00  0.00    -0.096 OA 
ENDBRANCH   9  11
ENDBRANCH   6   9
ENDBRANCH   2   3
TORSDOF 3
ENDMDL
MODEL      260
REMARK 921   NORMALIZED FREE ENERGY PREDICTED BY IDOCK:   -2.20 KCAL/MOL
REMARK 922        TOTAL FREE ENERGY PREDICTED BY IDOCK:   -2.98 KCAL/MOL
REMARK 923 INTER-LIGAND FREE ENERGY PREDICTED BY IDOCK:   -2.56 KCAL/MOL
REMARK 924 INTRA-LIGAND FREE ENERGY PREDICTED BY IDOCK:   -0.42 KCAL/MOL
REMARK 927      BINDING AFFINITY PREDICTED BY RF-SCORE:    0.00 PKD
ROOT
HETATM    1  C   UNL     1     -10.418  16.295  66.237  1.00  0.00    -0.308 C  
HETATM    2  S   UNL     1     -10.697  15.300  64.747  1.00  0.00    -0.215 SA 
ENDROOT
BRANCH   2   3
HETATM    3  C   UNL     1      -9.984  13.758  65.286  1.00  0.00    -0.218 A  
HETATM    4  C   UNL     1      -8.967  13.731  66.241  1.00  0.00     0.100 A  
HETATM    5  C   UNL     1      -8.421  12.512  66.652  1.00  0.00    -0.006 A  
HETATM    6  C   UNL     1      -8.887  11.302  66.116  1.00  0.00    -0.194 A  
HETATM    7  C   UNL     1     -10.476  12.552  64.776  1.00  0.00    -0.336 A  
HETATM    8  C   UNL     1      -9.938  11.327  65.193  1.00  0.00    -0.312 A  
BRANCH   6   9
HETATM    9  C   UNL     1      -8.277  10.047  66.634  1.00  0.00    -0.122 C  
HETATM   10  O   UNL     1      -8.073   9.131  65.840  1.00  0.00    -0.107 OA 
BRANCH   9  11
HETATM   11  C   UNL     1      -7.969   9.887  68.080  1.00  0.00    -0.100 C  
HETATM   12  C   UNL     1      -6.763  10.047  68.665  1.00  0.00    -0.053 C  
HETATM   13  C   UNL     1      -5.431  10.435  68.129  1.00  0.00    -0.033 C  
HETATM   14  N   UNL     1      -6.893   9.752  70.007  1.00  0.00    -0.081 N  
HETATM   15  H   UNL     1      -6.142   9.799  70.695  1.00  0.00     0.000 HD 
HETATM   16  C   UNL     1      -8.211   9.380  70.277  1.00  0.00    -0.175 C  
HETATM   17  N   UNL     1      -8.864   9.479  69.047  1.00  0.00    -0.138 NA 
HETATM   18  O   UNL     1      -8.686   9.040  71.342  1.00  0.00    -0.258 OA 
ENDBRANCH   9  11
ENDBRANCH   6   9
ENDBRANCH   2   3
TORSDOF 3
ENDMDL
MODEL      261
REMARK 921   NORMALIZED FREE ENERGY PREDICTED BY IDOCK:   -2.20 KCAL/MOL
REMARK 922        TOTAL FREE ENERGY PREDICTED BY IDOCK:   -2.97 KCAL/MOL
REMARK 923 INTER-LIGAND FREE ENERGY PREDICTED BY IDOCK:   -2.60 KCAL/MOL
REMARK 924 INTRA-LIGAND FREE ENERGY PREDICTED BY IDOCK:   -0.37 KCAL/MOL
REMARK 927      BINDING AFFINITY PREDICTED BY RF-SCORE:    0.00 PKD
ROOT
HETATM    1  C   UNL     1     -10.989   3.132  73.408  1.00  0.00    -0.200 C  
HETATM    2  S   UNL     1     -10.998   4.945  73.416  1.00  0.00    -0.342 SA 
ENDROOT
BRANCH   2   3
HETATM    3  C   UNL     1     -10.271   5.250  71.818  1.00  0.00    -0.210 A  
HETATM    4  C   UNL     1     -10.992   5.891  70.810  1.00  0.00    -0.343 A  
HETATM    5  C   UNL     1     -10.404   6.122  69.564  1.00  0.00    -0.277 A  
HETATM    6  C   UNL     1      -9.085   5.718  69.308  1.00  0.00    -0.128 A  
HETATM    7  C   UNL     1      -8.943   4.878  71.580  1.00  0.00    -0.160 A  
HETATM    8  C   UNL     1      -8.347   5.117  70.334  1.00  0.00    -0.105 A  
BRANCH   6   9
HETATM    9  C   UNL     1      -8.523   6.035  67.967  1.00  0.00    -0.115 C  
HETATM   10  O   UNL     1      -8.352   7.217  67.675  1.00  0.00    -0.116 OA 
BRANCH   9  11
HETATM   11  C   UNL     1      -8.222   4.955  66.990  1.00  0.00    -0.107 C  
HETATM   12  C   UNL     1      -7.012   4.659  66.469  1.00  0.00    -0.066 C  
HETATM   13  C   UNL     1      -5.658   5.233  66.688  1.00  0.00    -0.017 C  
HETATM   14  N   UNL     1      -7.174   3.631  65.563  1.00  0.00    -0.070 N  
HETATM   15  H   UNL     1      -6.424   3.197  65.026  1.00  0.00     0.000 HD 
HETATM   16  C   UNL     1      -8.522   3.277  65.494  1.00  0.00    -0.106 C  
HETATM   17  N   UNL     1      -9.156   4.125  66.405  1.00  0.00    -0.127 NA 
HETATM   18  O   UNL     1      -9.036   2.428  64.793  1.00  0.00    -0.112 OA 
ENDBRANCH   9  11
ENDBRANCH   6   9
ENDBRANCH   2   3
TORSDOF 3
ENDMDL
MODEL      262
REMARK 921   NORMALIZED FREE ENERGY PREDICTED BY IDOCK:   -2.15 KCAL/MOL
REMARK 922        TOTAL FREE ENERGY PREDICTED BY IDOCK:   -2.92 KCAL/MOL
REMARK 923 INTER-LIGAND FREE ENERGY PREDICTED BY IDOCK:   -2.50 KCAL/MOL
REMARK 924 INTRA-LIGAND FREE ENERGY PREDICTED BY IDOCK:   -0.43 KCAL/MOL
REMARK 927      BINDING AFFINITY PREDICTED BY RF-SCORE:    0.00 PKD
ROOT
HETATM    1  C   UNL     1      -9.323   4.411  64.112  1.00  0.00    -0.118 C  
HETATM    2  S   UNL     1      -7.778   3.783  64.825  1.00  0.00    -0.082 SA 
ENDROOT
BRANCH   2   3
HETATM    3  C   UNL     1      -7.902   4.484  66.458  1.00  0.00    -0.099 A  
HETATM    4  C   UNL     1      -8.931   4.113  67.324  1.00  0.00    -0.142 A  
HETATM    5  C   UNL     1      -9.010   4.673  68.602  1.00  0.00    -0.142 A  
HETATM    6  C   UNL     1      -8.059   5.610  69.034  1.00  0.00    -0.097 A  
HETATM    7  C   UNL     1      -6.931   5.391  66.897  1.00  0.00    -0.065 A  
HETATM    8  C   UNL     1      -7.001   5.947  68.182  1.00  0.00    -0.069 A  
BRANCH   6   9
HETATM    9  C   UNL     1      -8.195   6.130  70.421  1.00  0.00    -0.117 C  
HETATM   10  O   UNL     1      -7.184   6.537  70.989  1.00  0.00    -0.074 OA 
BRANCH   9  11
HETATM   11  C   UNL     1      -9.509   6.113  71.119  1.00  0.00    -0.167 C  
HETATM   12  C   UNL     1     -10.539   6.960  70.910  1.00  0.00    -0.218 C  
HETATM   13  C   UNL     1     -10.729   8.096  69.969  1.00  0.00    -0.243 C  
HETATM   14  N   UNL     1     -11.546   6.640  71.797  1.00  0.00    -0.287 N  
HETATM   15  H   UNL     1     -12.449   7.110  71.856  1.00  0.00     0.000 HD 
HETATM   16  C   UNL     1     -11.139   5.575  72.600  1.00  0.00    -0.282 C  
HETATM   17  N   UNL     1      -9.855   5.263  72.148  1.00  0.00    -0.167 NA 
HETATM   18  O   UNL     1     -11.757   5.039  73.499  1.00  0.00    -0.128 OA 
ENDBRANCH   9  11
ENDBRANCH   6   9
ENDBRANCH   2   3
TORSDOF 3
ENDMDL
MODEL      263
REMARK 921   NORMALIZED FREE ENERGY PREDICTED BY IDOCK:   -1.91 KCAL/MOL
REMARK 922        TOTAL FREE ENERGY PREDICTED BY IDOCK:   -2.63 KCAL/MOL
REMARK 923 INTER-LIGAND FREE ENERGY PREDICTED BY IDOCK:   -2.83 KCAL/MOL
REMARK 924 INTRA-LIGAND FREE ENERGY PREDICTED BY IDOCK:    0.20 KCAL/MOL
REMARK 927      BINDING AFFINITY PREDICTED BY RF-SCORE:    0.00 PKD
ROOT
HETATM    1  C   UNL     1      -7.909   1.761  74.067  1.00  0.00    -0.037 C  
HETATM    2  S   UNL     1      -9.416   2.676  74.487  1.00  0.00    -0.092 SA 
ENDROOT
BRANCH   2   3
HETATM    3  C   UNL     1      -9.480   3.791  73.098  1.00  0.00    -0.109 A  
HETATM    4  C   UNL     1     -10.685   4.366  72.692  1.00  0.00    -0.204 A  
HETATM    5  C   UNL     1     -10.715   5.238  71.601  1.00  0.00    -0.227 A  
HETATM    6  C   UNL     1      -9.539   5.551  70.902  1.00  0.00    -0.219 A  
HETATM    7  C   UNL     1      -8.300   4.128  72.427  1.00  0.00    -0.100 A  
HETATM    8  C   UNL     1      -8.324   5.011  71.338  1.00  0.00    -0.118 A  
BRANCH   6   9
HETATM    9  C   UNL     1      -9.652   6.517  69.776  1.00  0.00    -0.152 C  
HETATM   10  O   UNL     1      -9.659   6.072  68.630  1.00  0.00    -0.122 OA 
BRANCH   9  11
HETATM   11  C   UNL     1      -9.706   7.982  70.027  1.00  0.00    -0.173 C  
HETATM   12  C   UNL     1      -9.491   8.601  71.207  1.00  0.00    -0.224 C  
HETATM   13  C   UNL     1      -9.124   8.093  72.555  1.00  0.00    -0.302 C  
HETATM   14  N   UNL     1      -9.692   9.955  71.024  1.00  0.00    -0.128 N  
HETATM   15  H   UNL     1      -9.587  10.667  71.746  1.00  0.00     0.000 HD 
HETATM   16  C   UNL     1     -10.060  10.198  69.701  1.00  0.00    -0.234 C  
HETATM   17  N   UNL     1     -10.057   8.938  69.097  1.00  0.00    -0.191 NA 
HETATM   18  O   UNL     1     -10.332  11.264  69.186  1.00  0.00    -0.202 OA 
ENDBRANCH   9  11
ENDBRANCH   6   9
ENDBRANCH   2   3
TORSDOF 3
ENDMDL
MODEL      264
REMARK 921   NORMALIZED FREE ENERGY PREDICTED BY IDOCK:   -1.77 KCAL/MOL
REMARK 922        TOTAL FREE ENERGY PREDICTED BY IDOCK:   -2.47 KCAL/MOL
REMARK 923 INTER-LIGAND FREE ENERGY PREDICTED BY IDOCK:   -2.87 KCAL/MOL
REMARK 924 INTRA-LIGAND FREE ENERGY PREDICTED BY IDOCK:    0.40 KCAL/MOL
REMARK 927      BINDING AFFINITY PREDICTED BY RF-SCORE:    0.00 PKD
ROOT
HETATM    1  C   UNL     1     -11.216   9.055  71.544  1.00  0.00    -0.348 C  
HETATM    2  S   UNL     1      -9.490   8.536  71.348  1.00  0.00    -0.238 SA 
ENDROOT
BRANCH   2   3
HETATM    3  C   UNL     1      -9.294   8.821  69.600  1.00  0.00    -0.158 A  
HETATM    4  C   UNL     1      -9.070  10.104  69.101  1.00  0.00    -0.189 A  
HETATM    5  C   UNL     1      -8.918  10.307  67.726  1.00  0.00    -0.135 A  
HETATM    6  C   UNL     1      -8.985   9.229  66.831  1.00  0.00    -0.149 A  
HETATM    7  C   UNL     1      -9.325   7.738  68.715  1.00  0.00    -0.146 A  
HETATM    8  C   UNL     1      -9.163   7.936  67.336  1.00  0.00    -0.160 A  
BRANCH   6   9
HETATM    9  C   UNL     1      -8.776   9.527  65.389  1.00  0.00    -0.164 C  
HETATM   10  O   UNL     1      -8.184   8.695  64.705  1.00  0.00    -0.145 OA 
BRANCH   9  11
HETATM   11  C   UNL     1      -9.229  10.816  64.801  1.00  0.00    -0.214 C  
HETATM   12  C   UNL     1      -8.818  11.351  63.632  1.00  0.00     0.227 C  
HETATM   13  C   UNL     1      -7.873  10.875  62.587  1.00  0.00    -0.052 C  
HETATM   14  N   UNL     1      -9.434  12.577  63.480  1.00  0.00    -0.102 N  
HETATM   15  H   UNL     1      -9.316  13.200  62.681  1.00  0.00     0.000 HD 
HETATM   16  C   UNL     1     -10.242  12.833  64.588  1.00  0.00    -0.297 C  
HETATM   17  N   UNL     1     -10.095  11.706  65.400  1.00  0.00    -0.248 NA 
HETATM   18  O   UNL     1     -10.918  13.819  64.806  1.00  0.00    -0.351 OA 
ENDBRANCH   9  11
ENDBRANCH   6   9
ENDBRANCH   2   3
TORSDOF 3
ENDMDL
MODEL      265
REMARK 921   NORMALIZED FREE ENERGY PREDICTED BY IDOCK:   -1.69 KCAL/MOL
REMARK 922        TOTAL FREE ENERGY PREDICTED BY IDOCK:   -2.38 KCAL/MOL
REMARK 923 INTER-LIGAND FREE ENERGY PREDICTED BY IDOCK:   -2.00 KCAL/MOL
REMARK 924 INTRA-LIGAND FREE ENERGY PREDICTED BY IDOCK:   -0.38 KCAL/MOL
REMARK 927      BINDING AFFINITY PREDICTED BY RF-SCORE:    0.00 PKD
ROOT
HETATM    1  C   UNL     1      -7.851  11.158  65.703  1.00  0.00     0.156 C  
HETATM    2  S   UNL     1      -9.289  11.639  66.698  1.00  0.00    -0.199 SA 
ENDROOT
BRANCH   2   3
HETATM    3  C   UNL     1      -9.056  10.557  68.094  1.00  0.00    -0.141 A  
HETATM    4  C   UNL     1     -10.120  10.227  68.935  1.00  0.00    -0.216 A  
HETATM    5  C   UNL     1      -9.917   9.376  70.024  1.00  0.00    -0.253 A  
HETATM    6  C   UNL     1      -8.647   8.839  70.287  1.00  0.00    -0.158 A  
HETATM    7  C   UNL     1      -7.796   9.995  68.331  1.00  0.00    -0.089 A  
HETATM    8  C   UNL     1      -7.591   9.133  69.417  1.00  0.00    -0.079 A  
BRANCH   6   9
HETATM    9  C   UNL     1      -8.525   7.913  71.445  1.00  0.00    -0.119 C  
HETATM   10  O   UNL     1      -7.542   8.024  72.175  1.00  0.00    -0.089 OA 
BRANCH   9  11
HETATM   11  C   UNL     1      -9.539   6.851  71.685  1.00  0.00    -0.161 C  
HETATM   12  C   UNL     1      -9.946   5.917  70.800  1.00  0.00    -0.189 C  
HETATM   13  C   UNL     1      -9.544   5.618  69.400  1.00  0.00    -0.187 C  
HETATM   14  N   UNL     1     -10.935   5.162  71.397  1.00  0.00    -0.016 N  
HETATM   15  H   UNL     1     -11.418   4.376  70.962  1.00  0.00     0.000 HD 
HETATM   16  C   UNL     1     -11.173   5.639  72.686  1.00  0.00    -0.300 C  
HETATM   17  N   UNL     1     -10.277   6.699  72.841  1.00  0.00    -0.185 NA 
HETATM   18  O   UNL     1     -11.982   5.230  73.496  1.00  0.00     0.226 OA 
ENDBRANCH   9  11
ENDBRANCH   6   9
ENDBRANCH   2   3
TORSDOF 3
ENDMDL
MODEL      266
REMARK 921   NORMALIZED FREE ENERGY PREDICTED BY IDOCK:   -1.42 KCAL/MOL
REMARK 922        TOTAL FREE ENERGY PREDICTED BY IDOCK:   -2.06 KCAL/MOL
REMARK 923 INTER-LIGAND FREE ENERGY PREDICTED BY IDOCK:   -2.19 KCAL/MOL
REMARK 924 INTRA-LIGAND FREE ENERGY PREDICTED BY IDOCK:    0.14 KCAL/MOL
REMARK 927      BINDING AFFINITY PREDICTED BY RF-SCORE:    0.00 PKD
ROOT
HETATM    1  C   UNL     1     -11.135  18.176  65.211  1.00  0.00     0.809 C  
HETATM    2  S   UNL     1     -10.716  19.797  65.907  1.00  0.00    -0.251 SA 
ENDROOT
BRANCH   2   3
HETATM    3  C   UNL     1      -9.338  19.328  66.936  1.00  0.00    -0.318 A  
HETATM    4  C   UNL     1      -8.261  18.612  66.413  1.00  0.00    -0.295 A  
HETATM    5  C   UNL     1      -7.189  18.254  67.235  1.00  0.00    -0.211 A  
HETATM    6  C   UNL     1      -7.177  18.610  68.592  1.00  0.00    -0.315 A  
HETATM    7  C   UNL     1      -9.314  19.716  68.280  1.00  0.00    -0.426 A  
HETATM    8  C   UNL     1      -8.236  19.368  69.105  1.00  0.00    -0.174 A  
BRANCH   6   9
HETATM    9  C   UNL     1      -5.982  18.222  69.388  1.00  0.00    -0.247 C  
HETATM   10  O   UNL     1      -5.229  19.113  69.775  1.00  0.00    -0.191 OA 
BRANCH   9  11
HETATM   11  C   UNL     1      -5.680  16.792  69.668  1.00  0.00    -0.194 C  
HETATM   12  C   UNL     1      -5.344  15.852  68.760  1.00  0.00    -0.104 C  
HETATM   13  C   UNL     1      -5.142  15.905  67.288  1.00  0.00     0.072 C  
HETATM   14  N   UNL     1      -5.203  14.648  69.420  1.00  0.00    -0.087 N  
HETATM   15  H   UNL     1      -4.942  13.765  68.983  1.00  0.00     0.000 HD 
HETATM   16  C   UNL     1      -5.473  14.826  70.777  1.00  0.00    -0.146 C  
HETATM   17  N   UNL     1      -5.766  16.185  70.903  1.00  0.00     0.074 NA 
HETATM   18  O   UNL     1      -5.463  13.986  71.656  1.00  0.00    -0.191 OA 
ENDBRANCH   9  11
ENDBRANCH   6   9
ENDBRANCH   2   3
TORSDOF 3
ENDMDL
MODEL      267
REMARK 921   NORMALIZED FREE ENERGY PREDICTED BY IDOCK:   -1.41 KCAL/MOL
REMARK 922        TOTAL FREE ENERGY PREDICTED BY IDOCK:   -2.04 KCAL/MOL
REMARK 923 INTER-LIGAND FREE ENERGY PREDICTED BY IDOCK:   -1.61 KCAL/MOL
REMARK 924 INTRA-LIGAND FREE ENERGY PREDICTED BY IDOCK:   -0.44 KCAL/MOL
REMARK 927      BINDING AFFINITY PREDICTED BY RF-SCORE:    0.00 PKD
ROOT
HETATM    1  C   UNL     1      -5.127  12.815  71.613  1.00  0.00    -0.118 C  
HETATM    2  S   UNL     1      -5.323  11.422  70.469  1.00  0.00    -0.135 SA 
ENDROOT
BRANCH   2   3
HETATM    3  C   UNL     1      -6.904  11.842  69.763  1.00  0.00     0.090 A  
HETATM    4  C   UNL     1      -7.125  13.093  69.187  1.00  0.00     0.021 A  
HETATM    5  C   UNL     1      -8.372  13.403  68.637  1.00  0.00    -0.010 A  
HETATM    6  C   UNL     1      -9.415  12.465  68.652  1.00  0.00    -0.018 A  
HETATM    7  C   UNL     1      -7.930  10.891  69.748  1.00  0.00     0.301 A  
HETATM    8  C   UNL     1      -9.179  11.194  69.188  1.00  0.00     0.038 A  
BRANCH   6   9
HETATM    9  C   UNL     1     -10.699  12.862  68.014  1.00  0.00    -0.228 C  
HETATM   10  O   UNL     1     -10.949  12.422  66.893  1.00  0.00    -0.246 OA 
BRANCH   9  11
HETATM   11  C   UNL     1     -11.631  13.804  68.690  1.00  0.00    -0.334 C  
HETATM   12  C   UNL     1     -11.626  15.150  68.586  1.00  0.00    -0.338 C  
HETATM   13  C   UNL     1     -10.783  16.093  67.804  1.00  0.00    -0.325 C  
HETATM   14  N   UNL     1     -12.612  15.648  69.413  1.00  0.00    -0.526 N  
HETATM   15  H   UNL     1     -12.841  16.635  69.526  1.00  0.00     0.000 HD 
HETATM   16  C   UNL     1     -13.247  14.594  70.071  1.00  0.00     0.394 C  
HETATM   17  N   UNL     1     -12.610  13.446  69.593  1.00  0.00     0.004 NA 
HETATM   18  O   UNL     1     -14.147  14.656  70.884  1.00  0.00    -0.174 OA 
ENDBRANCH   9  11
ENDBRANCH   6   9
ENDBRANCH   2   3
TORSDOF 3
ENDMDL
MODEL      268
REMARK 921   NORMALIZED FREE ENERGY PREDICTED BY IDOCK:   -1.15 KCAL/MOL
REMARK 922        TOTAL FREE ENERGY PREDICTED BY IDOCK:   -1.75 KCAL/MOL
REMARK 923 INTER-LIGAND FREE ENERGY PREDICTED BY IDOCK:   -1.37 KCAL/MOL
REMARK 924 INTRA-LIGAND FREE ENERGY PREDICTED BY IDOCK:   -0.38 KCAL/MOL
REMARK 927      BINDING AFFINITY PREDICTED BY RF-SCORE:    0.00 PKD
ROOT
HETATM    1  C   UNL     1      -9.046   8.222  74.129  1.00  0.00     0.546 C  
HETATM    2  S   UNL     1      -7.385   8.797  73.684  1.00  0.00     0.317 SA 
ENDROOT
BRANCH   2   3
HETATM    3  C   UNL     1      -7.397   8.412  71.945  1.00  0.00    -0.097 A  
HETATM    4  C   UNL     1      -6.290   8.683  71.140  1.00  0.00    -0.049 A  
HETATM    5  C   UNL     1      -6.318   8.372  69.778  1.00  0.00    -0.035 A  
HETATM    6  C   UNL     1      -7.453   7.783  69.200  1.00  0.00    -0.094 A  
HETATM    7  C   UNL     1      -8.517   7.791  71.381  1.00  0.00    -0.125 A  
HETATM    8  C   UNL     1      -8.545   7.469  70.017  1.00  0.00    -0.139 A  
BRANCH   6   9
HETATM    9  C   UNL     1      -7.387   7.451  67.752  1.00  0.00    -0.092 C  
HETATM   10  O   UNL     1      -6.476   7.939  67.086  1.00  0.00    -0.053 OA 
BRANCH   9  11
HETATM   11  C   UNL     1      -8.423   6.593  67.116  1.00  0.00    -0.113 C  
HETATM   12  C   UNL     1      -9.675   6.966  66.777  1.00  0.00    -0.177 C  
HETATM   13  C   UNL     1     -10.398   8.261  66.878  1.00  0.00    -0.391 C  
HETATM   14  N   UNL     1     -10.329   5.863  66.267  1.00  0.00    -0.435 N  
HETATM   15  H   UNL     1     -11.287   5.856  65.920  1.00  0.00     0.000 HD 
HETATM   16  C   UNL     1      -9.477   4.759  66.300  1.00  0.00    -0.160 C  
HETATM   17  N   UNL     1      -8.284   5.250  66.835  1.00  0.00    -0.108 NA 
HETATM   18  O   UNL     1      -9.716   3.620  65.949  1.00  0.00    -0.165 OA 
ENDBRANCH   9  11
ENDBRANCH   6   9
ENDBRANCH   2   3
TORSDOF 3
ENDMDL
MODEL      269
REMARK 921   NORMALIZED FREE ENERGY PREDICTED BY IDOCK:   -1.05 KCAL/MOL
REMARK 922        TOTAL FREE ENERGY PREDICTED BY IDOCK:   -1.63 KCAL/MOL
REMARK 923 INTER-LIGAND FREE ENERGY PREDICTED BY IDOCK:   -1.23 KCAL/MOL
REMARK 924 INTRA-LIGAND FREE ENERGY PREDICTED BY IDOCK:   -0.40 KCAL/MOL
REMARK 927      BINDING AFFINITY PREDICTED BY RF-SCORE:    0.00 PKD
ROOT
HETATM    1  C   UNL     1      -5.611  12.720  72.646  1.00  0.00     0.917 C  
HETATM    2  S   UNL     1      -5.126  11.097  71.999  1.00  0.00     0.225 SA 
ENDROOT
BRANCH   2   3
HETATM    3  C   UNL     1      -6.108  11.069  70.512  1.00  0.00    -0.094 A  
HETATM    4  C   UNL     1      -5.965  12.056  69.536  1.00  0.00    -0.100 A  
HETATM    5  C   UNL     1      -6.744  12.015  68.377  1.00  0.00    -0.065 A  
HETATM    6  C   UNL     1      -7.676  10.986  68.175  1.00  0.00    -0.105 A  
HETATM    7  C   UNL     1      -7.010  10.021  70.299  1.00  0.00    -0.153 A  
HETATM    8  C   UNL     1      -7.786   9.971  69.132  1.00  0.00    -0.104 A  
BRANCH   6   9
HETATM    9  C   UNL     1      -8.438  10.997  66.898  1.00  0.00    -0.139 C  
HETATM   10  O   UNL     1      -8.246  10.081  66.100  1.00  0.00    -0.117 OA 
BRANCH   9  11
HETATM   11  C   UNL     1      -9.370  12.110  66.573  1.00  0.00    -0.228 C  
HETATM   12  C   UNL     1     -10.382  12.558  67.345  1.00  0.00    -0.216 C  
HETATM   13  C   UNL     1     -10.870  12.160  68.691  1.00  0.00    -0.268 C  
HETATM   14  N   UNL     1     -11.035  13.561  66.657  1.00  0.00    -0.286 N  
HETATM   15  H   UNL     1     -11.835  14.089  67.005  1.00  0.00     0.000 HD 
HETATM   16  C   UNL     1     -10.434  13.741  65.411  1.00  0.00    -0.331 C  
HETATM   17  N   UNL     1      -9.387  12.817  65.388  1.00  0.00     0.191 NA 
HETATM   18  O   UNL     1     -10.751  14.521  64.535  1.00  0.00    -0.356 OA 
ENDBRANCH   9  11
ENDBRANCH   6   9
ENDBRANCH   2   3
TORSDOF 3
ENDMDL
MODEL      270
REMARK 921   NORMALIZED FREE ENERGY PREDICTED BY IDOCK:   -0.86 KCAL/MOL
REMARK 922        TOTAL FREE ENERGY PREDICTED BY IDOCK:   -1.40 KCAL/MOL
REMARK 923 INTER-LIGAND FREE ENERGY PREDICTED BY IDOCK:   -1.49 KCAL/MOL
REMARK 924 INTRA-LIGAND FREE ENERGY PREDICTED BY IDOCK:    0.09 KCAL/MOL
REMARK 927      BINDING AFFINITY PREDICTED BY RF-SCORE:    0.00 PKD
ROOT
HETATM    1  C   UNL     1      -5.801  16.188  69.337  1.00  0.00    -0.141 C  
HETATM    2  S   UNL     1      -7.444  15.436  69.488  1.00  0.00    -0.182 SA 
ENDROOT
BRANCH   2   3
HETATM    3  C   UNL     1      -7.089  13.819  68.830  1.00  0.00    -0.107 A  
HETATM    4  C   UNL     1      -5.775  13.404  68.610  1.00  0.00    -0.084 A  
HETATM    5  C   UNL     1      -5.517  12.131  68.095  1.00  0.00    -0.054 A  
HETATM    6  C   UNL     1      -6.568  11.253  67.794  1.00  0.00    -0.068 A  
HETATM    7  C   UNL     1      -8.139  12.933  68.566  1.00  0.00    -0.080 A  
HETATM    8  C   UNL     1      -7.884  11.652  68.058  1.00  0.00    -0.128 A  
BRANCH   6   9
HETATM    9  C   UNL     1      -6.206   9.904  67.283  1.00  0.00    -0.066 C  
HETATM   10  O   UNL     1      -5.548   9.834  66.247  1.00  0.00    -0.050 OA 
BRANCH   9  11
HETATM   11  C   UNL     1      -6.667   8.673  67.980  1.00  0.00    -0.069 C  
HETATM   12  C   UNL     1      -6.660   7.419  67.480  1.00  0.00    -0.061 C  
HETATM   13  C   UNL     1      -6.201   6.859  66.181  1.00  0.00    -0.042 C  
HETATM   14  N   UNL     1      -7.221   6.578  68.420  1.00  0.00    -0.083 N  
HETATM   15  H   UNL     1      -7.334   5.571  68.314  1.00  0.00     0.000 HD 
HETATM   16  C   UNL     1      -7.609   7.319  69.536  1.00  0.00    -0.100 C  
HETATM   17  N   UNL     1      -7.244   8.633  69.232  1.00  0.00    -0.062 NA 
HETATM   18  O   UNL     1      -8.150   6.917  70.547  1.00  0.00    -0.112 OA 
ENDBRANCH   9  11
ENDBRANCH   6   9
ENDBRANCH   2   3
TORSDOF 3
ENDMDL
MODEL      271
REMARK 921   NORMALIZED FREE ENERGY PREDICTED BY IDOCK:   -0.75 KCAL/MOL
REMARK 922        TOTAL FREE ENERGY PREDICTED BY IDOCK:   -1.27 KCAL/MOL
REMARK 923 INTER-LIGAND FREE ENERGY PREDICTED BY IDOCK:   -1.12 KCAL/MOL
REMARK 924 INTRA-LIGAND FREE ENERGY PREDICTED BY IDOCK:   -0.15 KCAL/MOL
REMARK 927      BINDING AFFINITY PREDICTED BY RF-SCORE:    0.00 PKD
ROOT
HETATM    1  C   UNL     1     -11.412  19.031  65.977  1.00  0.00     1.347 C  
HETATM    2  S   UNL     1     -10.500  20.328  66.858  1.00  0.00    -0.042 SA 
ENDROOT
BRANCH   2   3
HETATM    3  C   UNL     1      -9.201  19.339  67.572  1.00  0.00    -0.300 A  
HETATM    4  C   UNL     1      -8.389  18.533  66.774  1.00  0.00    -0.279 A  
HETATM    5  C   UNL     1      -7.374  17.766  67.354  1.00  0.00    -0.202 A  
HETATM    6  C   UNL     1      -7.156  17.796  68.739  1.00  0.00    -0.263 A  
HETATM    7  C   UNL     1      -8.964  19.400  68.950  1.00  0.00    -0.344 A  
HETATM    8  C   UNL     1      -7.940  18.640  69.533  1.00  0.00     0.387 A  
BRANCH   6   9
HETATM    9  C   UNL     1      -6.032  16.978  69.270  1.00  0.00    -0.204 C  
HETATM   10  O   UNL     1      -5.145  17.551  69.900  1.00  0.00    -0.167 OA 
BRANCH   9  11
HETATM   11  C   UNL     1      -5.959  15.516  69.005  1.00  0.00    -0.104 C  
HETATM   12  C   UNL     1      -5.939  14.534  69.931  1.00  0.00    -0.132 C  
HETATM   13  C   UNL     1      -6.008  14.553  71.416  1.00  0.00    -0.003 C  
HETATM   14  N   UNL     1      -5.808  13.327  69.274  1.00  0.00    -0.083 N  
HETATM   15  H   UNL     1      -5.777  12.413  69.724  1.00  0.00     0.000 HD 
HETATM   16  C   UNL     1      -5.727  13.550  67.899  1.00  0.00    -0.125 C  
HETATM   17  N   UNL     1      -5.828  14.936  67.761  1.00  0.00    -0.268 NA 
HETATM   18  O   UNL     1      -5.590  12.727  67.016  1.00  0.00    -0.341 OA 
ENDBRANCH   9  11
ENDBRANCH   6   9
ENDBRANCH   2   3
TORSDOF 3
ENDMDL
MODEL      272
REMARK 921   NORMALIZED FREE ENERGY PREDICTED BY IDOCK:   -0.66 KCAL/MOL
REMARK 922        TOTAL FREE ENERGY PREDICTED BY IDOCK:   -1.16 KCAL/MOL
REMARK 923 INTER-LIGAND FREE ENERGY PREDICTED BY IDOCK:   -0.97 KCAL/MOL
REMARK 924 INTRA-LIGAND FREE ENERGY PREDICTED BY IDOCK:   -0.20 KCAL/MOL
REMARK 927      BINDING AFFINITY PREDICTED BY RF-SCORE:    0.00 PKD
ROOT
HETATM    1  C   UNL     1      -5.609  13.176  72.590  1.00  0.00     0.565 C  
HETATM    2  S   UNL     1      -5.133  11.427  72.539  1.00  0.00     0.473 SA 
ENDROOT
BRANCH   2   3
HETATM    3  C   UNL     1      -5.573  11.052  70.854  1.00  0.00    -0.083 A  
HETATM    4  C   UNL     1      -5.178  11.882  69.805  1.00  0.00    -0.075 A  
HETATM    5  C   UNL     1      -5.533  11.570  68.489  1.00  0.00    -0.042 A  
HETATM    6  C   UNL     1      -6.284  10.420  68.203  1.00  0.00    -0.051 A  
HETATM    7  C   UNL     1      -6.292   9.885  70.570  1.00  0.00    -0.109 A  
HETATM    8  C   UNL     1      -6.640   9.563  69.251  1.00  0.00    -0.048 A  
BRANCH   6   9
HETATM    9  C   UNL     1      -6.588  10.142  66.774  1.00  0.00    -0.073 C  
HETATM   10  O   UNL     1      -5.645  10.009  65.997  1.00  0.00    -0.053 OA 
BRANCH   9  11
HETATM   11  C   UNL     1      -7.993  10.075  66.289  1.00  0.00    -0.111 C  
HETATM   12  C   UNL     1      -8.877   9.084  66.530  1.00  0.00    -0.135 C  
HETATM   13  C   UNL     1      -8.787   7.829  67.321  1.00  0.00    -0.130 C  
HETATM   14  N   UNL     1     -10.045   9.378  65.856  1.00  0.00    -0.327 N  
HETATM   15  H   UNL     1     -10.890   8.807  65.867  1.00  0.00     0.000 HD 
HETATM   16  C   UNL     1      -9.892  10.576  65.157  1.00  0.00    -0.297 C  
HETATM   17  N   UNL     1      -8.592  10.992  65.452  1.00  0.00    -0.121 NA 
HETATM   18  O   UNL     1     -10.704  11.132  64.444  1.00  0.00    -0.350 OA 
ENDBRANCH   9  11
ENDBRANCH   6   9
ENDBRANCH   2   3
TORSDOF 3
ENDMDL
MODEL      273
REMARK 921   NORMALIZED FREE ENERGY PREDICTED BY IDOCK:    2.34 KCAL/MOL
REMARK 922        TOTAL FREE ENERGY PREDICTED BY IDOCK:    2.36 KCAL/MOL
REMARK 923 INTER-LIGAND FREE ENERGY PREDICTED BY IDOCK:    2.39 KCAL/MOL
REMARK 924 INTRA-LIGAND FREE ENERGY PREDICTED BY IDOCK:   -0.03 KCAL/MOL
REMARK 927      BINDING AFFINITY PREDICTED BY RF-SCORE:    0.00 PKD
ROOT
HETATM    1  C   UNL     1      -5.824  16.187  69.413  1.00  0.00    -0.141 C  
HETATM    2  S   UNL     1      -7.444  15.594  69.970  1.00  0.00     0.428 SA 
ENDROOT
BRANCH   2   3
HETATM    3  C   UNL     1      -7.264  13.860  69.602  1.00  0.00     0.233 A  
HETATM    4  C   UNL     1      -6.038  13.334  69.193  1.00  0.00    -0.094 A  
HETATM    5  C   UNL     1      -5.917  11.971  68.909  1.00  0.00    -0.060 A  
HETATM    6  C   UNL     1      -7.020  11.113  69.034  1.00  0.00    -0.101 A  
HETATM    7  C   UNL     1      -8.358  13.001  69.762  1.00  0.00     2.100 A  
HETATM    8  C   UNL     1      -8.238  11.632  69.489  1.00  0.00     0.772 A  
BRANCH   6   9
HETATM    9  C   UNL     1      -6.797   9.670  68.748  1.00  0.00    -0.051 C  
HETATM   10  O   UNL     1      -6.179   9.004  69.576  1.00  0.00    -0.039 OA 
BRANCH   9  11
HETATM   11  C   UNL     1      -7.265   9.061  67.474  1.00  0.00    -0.080 C  
HETATM   12  C   UNL     1      -6.890   7.866  66.972  1.00  0.00    -0.073 C  
HETATM   13  C   UNL     1      -5.979   6.805  67.479  1.00  0.00    -0.024 C  
HETATM   14  N   UNL     1      -7.508   7.700  65.749  1.00  0.00    -0.076 N  
HETATM   15  H   UNL     1      -7.414   6.881  65.149  1.00  0.00     0.000 HD 
HETATM   16  C   UNL     1      -8.281   8.825  65.461  1.00  0.00    -0.132 C  
HETATM   17  N   UNL     1      -8.111   9.662  66.566  1.00  0.00    -0.118 NA 
HETATM   18  O   UNL     1      -8.948   9.038  64.468  1.00  0.00    -0.152 OA 
ENDBRANCH   9  11
ENDBRANCH   6   9
ENDBRANCH   2   3
TORSDOF 3
ENDMDL
MODEL      274
REMARK 921   NORMALIZED FREE ENERGY PREDICTED BY IDOCK:    6.04 KCAL/MOL
REMARK 922        TOTAL FREE ENERGY PREDICTED BY IDOCK:    6.71 KCAL/MOL
REMARK 923 INTER-LIGAND FREE ENERGY PREDICTED BY IDOCK:    6.41 KCAL/MOL
REMARK 924 INTRA-LIGAND FREE ENERGY PREDICTED BY IDOCK:    0.29 KCAL/MOL
REMARK 927      BINDING AFFINITY PREDICTED BY RF-SCORE:    0.00 PKD
ROOT
HETATM    1  C   UNL     1      -7.794  19.183  64.469  1.00  0.00     3.528 C  
HETATM    2  S   UNL     1      -9.410  19.840  64.962  1.00  0.00     2.393 SA 
ENDROOT
BRANCH   2   3
HETATM    3  C   UNL     1      -9.681  18.876  66.436  1.00  0.00    -0.363 A  
HETATM    4  C   UNL     1     -10.894  18.937  67.123  1.00  0.00    -0.425 A  
HETATM    5  C   UNL     1     -11.088  18.172  68.277  1.00  0.00     0.361 A  
HETATM    6  C   UNL     1     -10.072  17.333  68.759  1.00  0.00    -0.337 A  
HETATM    7  C   UNL     1      -8.679  18.013  66.893  1.00  0.00    -0.261 A  
HETATM    8  C   UNL     1      -8.873  17.237  68.044  1.00  0.00    -0.238 A  
BRANCH   6   9
HETATM    9  C   UNL     1     -10.373  16.526  69.971  1.00  0.00     0.031 C  
HETATM   10  O   UNL     1      -9.552  16.525  70.886  1.00  0.00     2.306 OA 
BRANCH   9  11
HETATM   11  C   UNL     1     -11.610  15.703  70.055  1.00  0.00    -0.350 C  
HETATM   12  C   UNL     1     -12.292  15.173  69.018  1.00  0.00    -0.015 C  
HETATM   13  C   UNL     1     -12.058  15.190  67.550  1.00  0.00     0.172 C  
HETATM   14  N   UNL     1     -13.406  14.531  69.519  1.00  0.00     0.620 N  
HETATM   15  H   UNL     1     -14.097  14.031  68.961  1.00  0.00     0.000 HD 
HETATM   16  C   UNL     1     -13.441  14.672  70.907  1.00  0.00    -0.243 C  
HETATM   17  N   UNL     1     -12.297  15.411  71.215  1.00  0.00    -0.349 NA 
HETATM   18  O   UNL     1     -14.282  14.254  71.678  1.00  0.00    -0.416 OA 
ENDBRANCH   9  11
ENDBRANCH   6   9
ENDBRANCH   2   3
TORSDOF 3
ENDMDL
MODEL      275
REMARK 921   NORMALIZED FREE ENERGY PREDICTED BY IDOCK:    7.19 KCAL/MOL
REMARK 922        TOTAL FREE ENERGY PREDICTED BY IDOCK:    8.06 KCAL/MOL
REMARK 923 INTER-LIGAND FREE ENERGY PREDICTED BY IDOCK:    7.82 KCAL/MOL
REMARK 924 INTRA-LIGAND FREE ENERGY PREDICTED BY IDOCK:    0.24 KCAL/MOL
REMARK 927      BINDING AFFINITY PREDICTED BY RF-SCORE:    0.00 PKD
ROOT
HETATM    1  C   UNL     1      -5.129  16.224  65.566  1.00  0.00     3.679 C  
HETATM    2  S   UNL     1      -6.033  17.791  65.439  1.00  0.00     0.248 SA 
ENDROOT
BRANCH   2   3
HETATM    3  C   UNL     1      -7.558  17.315  66.228  1.00  0.00    -0.325 A  
HETATM    4  C   UNL     1      -7.878  15.971  66.424  1.00  0.00    -0.127 A  
HETATM    5  C   UNL     1      -9.079  15.618  67.046  1.00  0.00    -0.239 A  
HETATM    6  C   UNL     1      -9.976  16.604  67.484  1.00  0.00    -0.264 A  
HETATM    7  C   UNL     1      -8.433  18.302  66.695  1.00  0.00    -0.281 A  
HETATM    8  C   UNL     1      -9.633  17.952  67.329  1.00  0.00    -0.273 A  
BRANCH   6   9
HETATM    9  C   UNL     1     -11.214  16.145  68.169  1.00  0.00    -0.311 C  
HETATM   10  O   UNL     1     -11.537  16.700  69.217  1.00  0.00    -0.060 OA 
BRANCH   9  11
HETATM   11  C   UNL     1     -12.012  15.012  67.627  1.00  0.00    -0.068 C  
HETATM   12  C   UNL     1     -12.937  14.291  68.296  1.00  0.00     1.889 C  
HETATM   13  C   UNL     1     -13.467  14.379  69.682  1.00  0.00     1.806 C  
HETATM   14  N   UNL     1     -13.402  13.302  67.453  1.00  0.00     3.171 N  
HETATM   15  H   UNL     1     -14.117  12.615  67.692  1.00  0.00     0.000 HD 
HETATM   16  C   UNL     1     -12.745  13.387  66.226  1.00  0.00     0.005 C  
HETATM   17  N   UNL     1     -11.879  14.474  66.364  1.00  0.00    -0.375 NA 
HETATM   18  O   UNL     1     -12.885  12.672  65.253  1.00  0.00    -0.656 OA 
ENDBRANCH   9  11
ENDBRANCH   6   9
ENDBRANCH   2   3
TORSDOF 3
ENDMDL
MODEL      276
REMARK 921   NORMALIZED FREE ENERGY PREDICTED BY IDOCK:   14.71 KCAL/MOL
REMARK 922        TOTAL FREE ENERGY PREDICTED BY IDOCK:   16.90 KCAL/MOL
REMARK 923 INTER-LIGAND FREE ENERGY PREDICTED BY IDOCK:   16.29 KCAL/MOL
REMARK 924 INTRA-LIGAND FREE ENERGY PREDICTED BY IDOCK:    0.61 KCAL/MOL
REMARK 927      BINDING AFFINITY PREDICTED BY RF-SCORE:    0.00 PKD
ROOT
HETATM    1  C   UNL     1      -5.397  16.052  65.226  1.00  0.00     6.352 C  
HETATM    2  S   UNL     1      -5.745  17.814  64.976  1.00  0.00     0.664 SA 
ENDROOT
BRANCH   2   3
HETATM    3  C   UNL     1      -6.817  18.103  66.370  1.00  0.00    -0.229 A  
HETATM    4  C   UNL     1      -7.199  17.058  67.212  1.00  0.00    -0.190 A  
HETATM    5  C   UNL     1      -8.039  17.305  68.301  1.00  0.00    -0.246 A  
HETATM    6  C   UNL     1      -8.507  18.601  68.566  1.00  0.00    -0.367 A  
HETATM    7  C   UNL     1      -7.251  19.403  66.651  1.00  0.00    -0.231 A  
HETATM    8  C   UNL     1      -8.086  19.656  67.749  1.00  0.00    -0.336 A  
BRANCH   6   9
HETATM    9  C   UNL     1      -9.367  18.784  69.766  1.00  0.00     0.786 C  
HETATM   10  O   UNL     1      -9.284  19.844  70.383  1.00  0.00     0.767 OA 
BRANCH   9  11
HETATM   11  C   UNL     1     -10.266  17.696  70.236  1.00  0.00     1.248 C  
HETATM   12  C   UNL     1     -11.161  17.774  71.242  1.00  0.00     2.600 C  
HETATM   13  C   UNL     1     -11.561  18.886  72.146  1.00  0.00     6.906 C  
HETATM   14  N   UNL     1     -11.749  16.535  71.393  1.00  0.00    -0.613 N  
HETATM   15  H   UNL     1     -12.472  16.306  72.074  1.00  0.00     0.000 HD 
HETATM   16  C   UNL     1     -11.200  15.643  70.471  1.00  0.00    -0.362 C  
HETATM   17  N   UNL     1     -10.273  16.403  69.754  1.00  0.00    -0.199 NA 
HETATM   18  O   UNL     1     -11.463  14.466  70.324  1.00  0.00    -0.258 OA 
ENDBRANCH   9  11
ENDBRANCH   6   9
ENDBRANCH   2   3
TORSDOF 3
ENDMDL
MODEL      277
REMARK 921   NORMALIZED FREE ENERGY PREDICTED BY IDOCK:   38.32 KCAL/MOL
REMARK 922        TOTAL FREE ENERGY PREDICTED BY IDOCK:   44.65 KCAL/MOL
REMARK 923 INTER-LIGAND FREE ENERGY PREDICTED BY IDOCK:   44.09 KCAL/MOL
REMARK 924 INTRA-LIGAND FREE ENERGY PREDICTED BY IDOCK:    0.56 KCAL/MOL
REMARK 927      BINDING AFFINITY PREDICTED BY RF-SCORE:    0.00 PKD
ROOT
HETATM    1  C   UNL     1      -8.969  10.188  74.137  1.00  0.00     9.778 C  
HETATM    2  S   UNL     1      -8.153  11.615  73.372  1.00  0.00    22.241 SA 
ENDROOT
BRANCH   2   3
HETATM    3  C   UNL     1      -7.779  10.919  71.775  1.00  0.00     6.743 A  
HETATM    4  C   UNL     1      -6.475  10.552  71.438  1.00  0.00     0.865 A  
HETATM    5  C   UNL     1      -6.202  10.006  70.181  1.00  0.00    -0.077 A  
HETATM    6  C   UNL     1      -7.228   9.817  69.243  1.00  0.00    -0.072 A  
HETATM    7  C   UNL     1      -8.811  10.699  70.857  1.00  0.00     3.225 A  
HETATM    8  C   UNL     1      -8.542  10.142  69.599  1.00  0.00    -0.170 A  
BRANCH   6   9
HETATM    9  C   UNL     1      -6.858   9.197  67.943  1.00  0.00    -0.069 C  
HETATM   10  O   UNL     1      -5.677   9.224  67.603  1.00  0.00    -0.041 OA 
BRANCH   9  11
HETATM   11  C   UNL     1      -7.895   8.605  67.055  1.00  0.00    -0.096 C  
HETATM   12  C   UNL     1      -7.674   7.860  65.951  1.00  0.00    -0.093 C  
HETATM   13  C   UNL     1      -6.428   7.378  65.299  1.00  0.00    -0.041 C  
HETATM   14  N   UNL     1      -8.896   7.555  65.387  1.00  0.00    -0.373 N  
HETATM   15  H   UNL     1      -9.032   6.993  64.548  1.00  0.00     0.000 HD 
HETATM   16  C   UNL     1      -9.916   8.136  66.141  1.00  0.00     0.053 C  
HETATM   17  N   UNL     1      -9.255   8.786  67.186  1.00  0.00    -0.134 NA 
HETATM   18  O   UNL     1     -11.113   8.094  65.935  1.00  0.00     2.351 OA 
ENDBRANCH   9  11
ENDBRANCH   6   9
ENDBRANCH   2   3
TORSDOF 3
ENDMDL
