MODEL        1
REMARK 921   NORMALIZED FREE ENERGY PREDICTED BY IDOCK:   -7.54 KCAL/MOL
REMARK 922        TOTAL FREE ENERGY PREDICTED BY IDOCK:   -8.89 KCAL/MOL
REMARK 923 INTER-LIGAND FREE ENERGY PREDICTED BY IDOCK:   -8.42 KCAL/MOL
REMARK 924 INTRA-LIGAND FREE ENERGY PREDICTED BY IDOCK:   -0.46 KCAL/MOL
REMARK 927      BINDING AFFINITY PREDICTED BY RF-SCORE:    0.00 PKD
ROOT
HETATM    1  C   UNL     1     -12.971  15.889  73.265  1.00  0.00    -0.677 C  
HETATM    2  C   UNL     1     -11.934  16.216  72.200  1.00  0.00    -0.537 C  
ENDROOT
BRANCH   2   3
HETATM    3  N   UNL     1     -11.865  15.154  71.190  1.00  0.00    -0.314 NA 
HETATM    4  C   UNL     1     -12.301  13.861  71.428  1.00  0.00    -0.296 C  
HETATM    5  C   UNL     1     -12.273  12.847  70.552  1.00  0.00    -0.395 C  
HETATM    6  C   UNL     1     -12.767  11.516  70.958  1.00  0.00    -0.328 C  
HETATM    7  C   UNL     1     -11.726  13.148  69.213  1.00  0.00    -0.321 C  
HETATM    8  C   UNL     1     -11.261  14.522  68.933  1.00  0.00    -0.283 A  
HETATM    9  O   UNL     1     -11.665  12.264  68.360  1.00  0.00    -0.304 OA 
HETATM   10  O   UNL     1     -13.211  11.277  72.071  1.00  0.00    -0.506 OA 
HETATM   11  O   UNL     1     -12.687  10.569  69.998  1.00  0.00    -0.256 OA 
HETATM   12  C   UNL     1     -10.727  14.829  67.688  1.00  0.00    -0.270 A  
HETATM   13  C   UNL     1     -10.290  16.123  67.466  1.00  0.00    -0.286 A  
HETATM   14  F   UNL     1      -9.791  16.425  66.256  1.00  0.00    -0.255 F  
HETATM   15  C   UNL     1     -10.410  17.102  68.465  1.00  0.00    -0.364 A  
HETATM   16  C   UNL     1     -11.354  15.513  69.920  1.00  0.00    -0.314 A  
HETATM   17  N   UNL     1     -10.952  16.789  69.672  1.00  0.00    -0.226 NA 
BRANCH  15  18
HETATM   18  N   UNL     1     -10.013  18.406  68.221  1.00  0.00    -0.349 NA 
HETATM   19  C   UNL     1      -8.590  18.758  68.218  1.00  0.00    -0.327 C  
HETATM   20  C   UNL     1      -8.074  19.112  66.808  1.00  0.00    -0.273 C  
HETATM   21  N   UNL     1      -8.911  20.112  66.115  1.00  0.00    -0.567 NA 
HETATM   22  H   UNL     1      -8.545  20.357  65.195  1.00  0.00     0.000 HD 
HETATM   23  C   UNL     1     -10.295  19.610  66.055  1.00  0.00    -0.523 C  
HETATM   24  C   UNL     1     -10.896  19.288  67.444  1.00  0.00    -0.446 C  
ENDBRANCH  15  18
ENDBRANCH   2   3
TORSDOF 2
ENDMDL
MODEL        2
REMARK 921   NORMALIZED FREE ENERGY PREDICTED BY IDOCK:   -7.40 KCAL/MOL
REMARK 922        TOTAL FREE ENERGY PREDICTED BY IDOCK:   -8.73 KCAL/MOL
REMARK 923 INTER-LIGAND FREE ENERGY PREDICTED BY IDOCK:   -8.42 KCAL/MOL
REMARK 924 INTRA-LIGAND FREE ENERGY PREDICTED BY IDOCK:   -0.31 KCAL/MOL
REMARK 927      BINDING AFFINITY PREDICTED BY RF-SCORE:    0.00 PKD
ROOT
HETATM    1  C   UNL     1      -9.330  17.527  68.629  1.00  0.00    -0.277 C  
HETATM    2  C   UNL     1     -10.742  17.115  68.236  1.00  0.00    -0.363 C  
ENDROOT
BRANCH   2   3
HETATM    3  N   UNL     1     -11.221  16.015  69.080  1.00  0.00    -0.325 NA 
HETATM    4  C   UNL     1     -11.543  16.178  70.417  1.00  0.00    -0.277 C  
HETATM    5  C   UNL     1     -11.990  15.220  71.242  1.00  0.00    -0.409 C  
HETATM    6  C   UNL     1     -12.281  15.547  72.652  1.00  0.00    -0.420 C  
HETATM    7  C   UNL     1     -12.153  13.872  70.659  1.00  0.00    -0.347 C  
HETATM    8  C   UNL     1     -11.823  13.675  69.232  1.00  0.00    -0.395 A  
HETATM    9  O   UNL     1     -12.554  12.944  71.359  1.00  0.00    -0.322 OA 
HETATM   10  O   UNL     1     -12.136  16.665  73.124  1.00  0.00    -0.479 OA 
HETATM   11  O   UNL     1     -12.721  14.506  73.391  1.00  0.00    -0.472 OA 
HETATM   12  C   UNL     1     -11.951  12.414  68.663  1.00  0.00    -0.272 A  
HETATM   13  C   UNL     1     -11.621  12.265  67.328  1.00  0.00    -0.357 A  
HETATM   14  F   UNL     1     -11.763  11.051  66.772  1.00  0.00    -0.188 F  
HETATM   15  C   UNL     1     -11.196  13.365  66.566  1.00  0.00    -0.307 A  
HETATM   16  C   UNL     1     -11.380  14.754  68.456  1.00  0.00    -0.290 A  
HETATM   17  N   UNL     1     -11.093  14.595  67.135  1.00  0.00    -0.316 NA 
BRANCH  15  18
HETATM   18  N   UNL     1     -10.911  13.217  65.219  1.00  0.00    -0.286 NA 
HETATM   19  C   UNL     1      -9.838  12.319  64.784  1.00  0.00    -0.105 C  
HETATM   20  C   UNL     1     -10.376  11.070  64.056  1.00  0.00    -0.371 C  
HETATM   21  N   UNL     1     -11.328  11.390  62.973  1.00  0.00    -0.852 NA 
HETATM   22  H   UNL     1     -11.655  10.558  62.483  1.00  0.00     0.000 HD 
HETATM   23  C   UNL     1     -12.434  12.184  63.535  1.00  0.00    -0.555 C  
HETATM   24  C   UNL     1     -11.968  13.486  64.232  1.00  0.00    -0.432 C  
ENDBRANCH  15  18
ENDBRANCH   2   3
TORSDOF 2
ENDMDL
MODEL        3
REMARK 921   NORMALIZED FREE ENERGY PREDICTED BY IDOCK:   -7.29 KCAL/MOL
REMARK 922        TOTAL FREE ENERGY PREDICTED BY IDOCK:   -8.61 KCAL/MOL
REMARK 923 INTER-LIGAND FREE ENERGY PREDICTED BY IDOCK:   -8.26 KCAL/MOL
REMARK 924 INTRA-LIGAND FREE ENERGY PREDICTED BY IDOCK:   -0.35 KCAL/MOL
REMARK 927      BINDING AFFINITY PREDICTED BY RF-SCORE:    0.00 PKD
ROOT
HETATM    1  C   UNL     1     -13.002  10.491  71.880  1.00  0.00    -0.553 C  
HETATM    2  C   UNL     1     -12.676  10.977  70.476  1.00  0.00    -0.247 C  
ENDROOT
BRANCH   2   3
HETATM    3  N   UNL     1     -12.397  12.418  70.470  1.00  0.00    -0.306 NA 
HETATM    4  C   UNL     1     -12.419  13.192  71.618  1.00  0.00    -0.015 C  
HETATM    5  C   UNL     1     -12.169  14.507  71.685  1.00  0.00    -0.403 C  
HETATM    6  C   UNL     1     -12.243  15.200  72.987  1.00  0.00    -0.391 C  
HETATM    7  C   UNL     1     -11.839  15.181  70.412  1.00  0.00    -0.307 C  
HETATM    8  C   UNL     1     -11.801  14.374  69.175  1.00  0.00    -0.359 A  
HETATM    9  O   UNL     1     -11.603  16.388  70.398  1.00  0.00    -0.256 OA 
HETATM   10  O   UNL     1     -12.523  14.633  74.033  1.00  0.00    -0.475 OA 
HETATM   11  O   UNL     1     -11.976  16.523  72.936  1.00  0.00    -0.536 OA 
HETATM   12  C   UNL     1     -11.510  14.985  67.962  1.00  0.00    -0.357 A  
HETATM   13  C   UNL     1     -11.497  14.200  66.823  1.00  0.00    -0.369 A  
HETATM   14  F   UNL     1     -11.196  14.787  65.653  1.00  0.00    -0.318 F  
HETATM   15  C   UNL     1     -11.744  12.821  66.899  1.00  0.00    -0.380 A  
HETATM   16  C   UNL     1     -12.062  12.998  69.223  1.00  0.00    -0.200 A  
HETATM   17  N   UNL     1     -12.010  12.236  68.097  1.00  0.00    -0.423 NA 
BRANCH  15  18
HETATM   18  N   UNL     1     -11.684  12.033  65.762  1.00  0.00    -0.442 NA 
HETATM   19  C   UNL     1     -12.641  12.237  64.669  1.00  0.00    -0.289 C  
HETATM   20  C   UNL     1     -11.975  12.826  63.408  1.00  0.00    -0.535 C  
HETATM   21  N   UNL     1     -10.772  12.084  62.983  1.00  0.00    -0.642 NA 
HETATM   22  H   UNL     1     -10.357  12.467  62.133  1.00  0.00     0.000 HD 
HETATM   23  C   UNL     1      -9.819  12.044  64.105  1.00  0.00    -0.184 C  
HETATM   24  C   UNL     1     -10.405  11.411  65.391  1.00  0.00    -0.279 C  
ENDBRANCH  15  18
ENDBRANCH   2   3
TORSDOF 2
ENDMDL
MODEL        4
REMARK 921   NORMALIZED FREE ENERGY PREDICTED BY IDOCK:   -7.20 KCAL/MOL
REMARK 922        TOTAL FREE ENERGY PREDICTED BY IDOCK:   -8.51 KCAL/MOL
REMARK 923 INTER-LIGAND FREE ENERGY PREDICTED BY IDOCK:   -8.11 KCAL/MOL
REMARK 924 INTRA-LIGAND FREE ENERGY PREDICTED BY IDOCK:   -0.40 KCAL/MOL
REMARK 927      BINDING AFFINITY PREDICTED BY RF-SCORE:    0.00 PKD
ROOT
HETATM    1  C   UNL     1      -9.667   9.265  66.150  1.00  0.00    -0.349 C  
HETATM    2  C   UNL     1     -10.652   9.425  67.299  1.00  0.00    -0.244 C  
ENDROOT
BRANCH   2   3
HETATM    3  N   UNL     1     -10.979  10.838  67.517  1.00  0.00    -0.294 NA 
HETATM    4  C   UNL     1     -10.789  11.811  66.550  1.00  0.00    -0.282 C  
HETATM    5  C   UNL     1     -11.071  13.115  66.679  1.00  0.00    -0.316 C  
HETATM    6  C   UNL     1     -10.801  14.037  65.557  1.00  0.00    -0.309 C  
HETATM    7  C   UNL     1     -11.637  13.541  67.976  1.00  0.00    -0.337 C  
HETATM    8  C   UNL     1     -11.856  12.520  69.021  1.00  0.00    -0.344 A  
HETATM    9  O   UNL     1     -11.914  14.724  68.167  1.00  0.00    -0.310 OA 
HETATM   10  O   UNL     1     -10.327  13.673  64.491  1.00  0.00    -0.433 OA 
HETATM   11  O   UNL     1     -11.119  15.327  65.800  1.00  0.00    -0.338 OA 
HETATM   12  C   UNL     1     -12.371  12.896  70.255  1.00  0.00    -0.294 A  
HETATM   13  C   UNL     1     -12.550  11.914  71.213  1.00  0.00    -0.277 A  
HETATM   14  F   UNL     1     -13.066  12.274  72.400  1.00  0.00    -0.536 F  
HETATM   15  C   UNL     1     -12.244  10.573  70.933  1.00  0.00    -0.388 A  
HETATM   16  C   UNL     1     -11.541  11.178  68.771  1.00  0.00    -0.322 A  
HETATM   17  N   UNL     1     -11.757  10.221  69.713  1.00  0.00    -0.222 NA 
BRANCH  15  18
HETATM   18  N   UNL     1     -12.469   9.589  71.881  1.00  0.00    -0.384 NA 
HETATM   19  C   UNL     1     -13.838   9.206  72.239  1.00  0.00    -0.463 C  
HETATM   20  C   UNL     1     -14.199   7.789  71.749  1.00  0.00    -0.444 C  
HETATM   21  N   UNL     1     -13.202   6.768  72.130  1.00  0.00    -0.540 NA 
HETATM   22  H   UNL     1     -13.466   5.832  71.823  1.00  0.00     0.000 HD 
HETATM   23  C   UNL     1     -11.884   7.179  71.615  1.00  0.00    -0.306 C  
HETATM   24  C   UNL     1     -11.433   8.573  72.115  1.00  0.00    -0.376 C  
ENDBRANCH  15  18
ENDBRANCH   2   3
TORSDOF 2
ENDMDL
MODEL        5
REMARK 921   NORMALIZED FREE ENERGY PREDICTED BY IDOCK:   -7.12 KCAL/MOL
REMARK 922        TOTAL FREE ENERGY PREDICTED BY IDOCK:   -8.42 KCAL/MOL
REMARK 923 INTER-LIGAND FREE ENERGY PREDICTED BY IDOCK:   -7.94 KCAL/MOL
REMARK 924 INTRA-LIGAND FREE ENERGY PREDICTED BY IDOCK:   -0.48 KCAL/MOL
REMARK 927      BINDING AFFINITY PREDICTED BY RF-SCORE:    0.00 PKD
ROOT
HETATM    1  C   UNL     1     -11.095   9.341  71.390  1.00  0.00    -0.437 C  
HETATM    2  C   UNL     1     -11.928  10.498  70.859  1.00  0.00    -0.377 C  
ENDROOT
BRANCH   2   3
HETATM    3  N   UNL     1     -11.496  10.880  69.510  1.00  0.00    -0.273 NA 
HETATM    4  C   UNL     1     -11.030   9.964  68.582  1.00  0.00    -0.179 C  
HETATM    5  C   UNL     1     -10.625  10.244  67.335  1.00  0.00    -0.324 C  
HETATM    6  C   UNL     1     -10.142   9.155  66.462  1.00  0.00    -0.287 C  
HETATM    7  C   UNL     1     -10.688  11.661  66.924  1.00  0.00    -0.257 C  
HETATM    8  C   UNL     1     -11.189  12.656  67.894  1.00  0.00    -0.310 A  
HETATM    9  O   UNL     1     -10.328  11.991  65.795  1.00  0.00    -0.238 OA 
HETATM   10  O   UNL     1     -10.089   7.986  66.816  1.00  0.00    -0.253 OA 
HETATM   11  O   UNL     1      -9.757   9.551  65.230  1.00  0.00    -0.293 OA 
HETATM   12  C   UNL     1     -11.243  13.999  67.540  1.00  0.00    -0.328 A  
HETATM   13  C   UNL     1     -11.705  14.903  68.479  1.00  0.00    -0.310 A  
HETATM   14  F   UNL     1     -11.776  16.198  68.130  1.00  0.00    -0.324 F  
HETATM   15  C   UNL     1     -12.132  14.470  69.744  1.00  0.00    -0.331 A  
HETATM   16  C   UNL     1     -11.604  12.250  69.169  1.00  0.00    -0.318 A  
HETATM   17  N   UNL     1     -12.089  13.150  70.068  1.00  0.00    -0.326 NA 
BRANCH  15  18
HETATM   18  N   UNL     1     -12.636  15.374  70.662  1.00  0.00    -0.416 NA 
HETATM   19  C   UNL     1     -14.031  15.281  71.104  1.00  0.00    -0.374 C  
HETATM   20  C   UNL     1     -14.154  14.837  72.576  1.00  0.00    -0.361 C  
HETATM   21  N   UNL     1     -13.315  15.629  73.496  1.00  0.00    -0.659 NA 
HETATM   22  H   UNL     1     -13.426  15.343  74.469  1.00  0.00     0.000 HD 
HETATM   23  C   UNL     1     -11.916  15.556  73.043  1.00  0.00    -0.461 C  
HETATM   24  C   UNL     1     -11.711  16.044  71.588  1.00  0.00    -0.506 C  
ENDBRANCH  15  18
ENDBRANCH   2   3
TORSDOF 2
ENDMDL
MODEL        6
REMARK 921   NORMALIZED FREE ENERGY PREDICTED BY IDOCK:   -7.02 KCAL/MOL
REMARK 922        TOTAL FREE ENERGY PREDICTED BY IDOCK:   -8.31 KCAL/MOL
REMARK 923 INTER-LIGAND FREE ENERGY PREDICTED BY IDOCK:   -7.92 KCAL/MOL
REMARK 924 INTRA-LIGAND FREE ENERGY PREDICTED BY IDOCK:   -0.39 KCAL/MOL
REMARK 927      BINDING AFFINITY PREDICTED BY RF-SCORE:    0.00 PKD
ROOT
HETATM    1  C   UNL     1      -9.959  15.263  65.758  1.00  0.00    -0.391 C  
HETATM    2  C   UNL     1     -11.320  14.694  66.131  1.00  0.00    -0.350 C  
ENDROOT
BRANCH   2   3
HETATM    3  N   UNL     1     -11.187  13.358  66.721  1.00  0.00    -0.302 NA 
HETATM    4  C   UNL     1     -10.713  12.267  66.011  1.00  0.00    -0.261 C  
HETATM    5  C   UNL     1     -10.561  11.023  66.488  1.00  0.00    -0.310 C  
HETATM    6  C   UNL     1     -10.052   9.957  65.601  1.00  0.00    -0.237 C  
HETATM    7  C   UNL     1     -10.935  10.809  67.901  1.00  0.00    -0.289 C  
HETATM    8  C   UNL     1     -11.435  11.959  68.681  1.00  0.00    -0.350 A  
HETATM    9  O   UNL     1     -10.826   9.692  68.403  1.00  0.00    -0.219 OA 
HETATM   10  O   UNL     1      -9.753  10.145  64.431  1.00  0.00    -0.308 OA 
HETATM   11  O   UNL     1      -9.943   8.744  66.185  1.00  0.00    -0.275 OA 
HETATM   12  C   UNL     1     -11.810  11.783  70.007  1.00  0.00    -0.422 A  
HETATM   13  C   UNL     1     -12.286  12.880  70.702  1.00  0.00    -0.302 A  
HETATM   14  F   UNL     1     -12.630  12.714  71.990  1.00  0.00    -0.271 F  
HETATM   15  C   UNL     1     -12.362  14.141  70.089  1.00  0.00    -0.351 A  
HETATM   16  C   UNL     1     -11.537  13.224  68.086  1.00  0.00    -0.338 A  
HETATM   17  N   UNL     1     -11.975  14.299  68.796  1.00  0.00    -0.327 NA 
BRANCH  15  18
HETATM   18  N   UNL     1     -12.797  15.243  70.804  1.00  0.00    -0.422 NA 
HETATM   19  C   UNL     1     -14.179  15.314  71.289  1.00  0.00    -0.402 C  
HETATM   20  C   UNL     1     -14.270  15.199  72.824  1.00  0.00    -0.000 C  
HETATM   21  N   UNL     1     -13.368  16.128  73.534  1.00  0.00    -0.819 NA 
HETATM   22  H   UNL     1     -13.458  16.060  74.548  1.00  0.00     0.000 HD 
HETATM   23  C   UNL     1     -11.989  15.892  73.073  1.00  0.00    -0.491 C  
HETATM   24  C   UNL     1     -11.813  16.048  71.543  1.00  0.00    -0.486 C  
ENDBRANCH  15  18
ENDBRANCH   2   3
TORSDOF 2
ENDMDL
MODEL        7
REMARK 921   NORMALIZED FREE ENERGY PREDICTED BY IDOCK:   -6.99 KCAL/MOL
REMARK 922        TOTAL FREE ENERGY PREDICTED BY IDOCK:   -8.28 KCAL/MOL
REMARK 923 INTER-LIGAND FREE ENERGY PREDICTED BY IDOCK:   -7.85 KCAL/MOL
REMARK 924 INTRA-LIGAND FREE ENERGY PREDICTED BY IDOCK:   -0.43 KCAL/MOL
REMARK 927      BINDING AFFINITY PREDICTED BY RF-SCORE:    0.00 PKD
ROOT
HETATM    1  C   UNL     1     -12.261  16.078  72.756  1.00  0.00    -0.617 C  
HETATM    2  C   UNL     1     -11.648  16.316  71.384  1.00  0.00    -0.361 C  
ENDROOT
BRANCH   2   3
HETATM    3  N   UNL     1     -11.757  15.116  70.546  1.00  0.00    -0.278 NA 
HETATM    4  C   UNL     1     -12.236  13.907  71.023  1.00  0.00    -0.342 C  
HETATM    5  C   UNL     1     -12.366  12.778  70.313  1.00  0.00    -0.277 C  
HETATM    6  C   UNL     1     -12.884  11.559  70.967  1.00  0.00    -0.263 C  
HETATM    7  C   UNL     1     -11.962  12.841  68.894  1.00  0.00    -0.244 C  
HETATM    8  C   UNL     1     -11.455  14.122  68.360  1.00  0.00    -0.334 A  
HETATM    9  O   UNL     1     -12.050  11.841  68.184  1.00  0.00    -0.556 OA 
HETATM   10  O   UNL     1     -13.210  11.518  72.144  1.00  0.00    -0.505 OA 
HETATM   11  O   UNL     1     -12.970  10.480  70.159  1.00  0.00    -0.218 OA 
HETATM   12  C   UNL     1     -11.052  14.205  67.033  1.00  0.00    -0.314 A  
HETATM   13  C   UNL     1     -10.571  15.417  66.572  1.00  0.00    -0.306 A  
HETATM   14  F   UNL     1     -10.199  15.504  65.285  1.00  0.00    -0.337 F  
HETATM   15  C   UNL     1     -10.519  16.537  67.417  1.00  0.00    -0.310 A  
HETATM   16  C   UNL     1     -11.377  15.249  69.189  1.00  0.00    -0.297 A  
HETATM   17  N   UNL     1     -10.934  16.442  68.708  1.00  0.00    -0.332 NA 
BRANCH  15  18
HETATM   18  N   UNL     1     -10.079  17.759  66.937  1.00  0.00    -0.326 NA 
HETATM   19  C   UNL     1     -10.855  18.977  67.193  1.00  0.00    -0.387 C  
HETATM   20  C   UNL     1     -10.142  19.933  68.171  1.00  0.00    -0.441 C  
HETATM   21  N   UNL     1      -8.742  20.215  67.795  1.00  0.00    -0.293 NA 
HETATM   22  H   UNL     1      -8.291  20.869  68.435  1.00  0.00     0.000 HD 
HETATM   23  C   UNL     1      -8.015  18.939  67.688  1.00  0.00    -0.250 C  
HETATM   24  C   UNL     1      -8.645  17.951  66.677  1.00  0.00    -0.262 C  
ENDBRANCH  15  18
ENDBRANCH   2   3
TORSDOF 2
ENDMDL
MODEL        8
REMARK 921   NORMALIZED FREE ENERGY PREDICTED BY IDOCK:   -6.88 KCAL/MOL
REMARK 922        TOTAL FREE ENERGY PREDICTED BY IDOCK:   -8.15 KCAL/MOL
REMARK 923 INTER-LIGAND FREE ENERGY PREDICTED BY IDOCK:   -7.70 KCAL/MOL
REMARK 924 INTRA-LIGAND FREE ENERGY PREDICTED BY IDOCK:   -0.45 KCAL/MOL
REMARK 927      BINDING AFFINITY PREDICTED BY RF-SCORE:    0.00 PKD
ROOT
HETATM    1  C   UNL     1     -12.241  12.834  65.466  1.00  0.00    -0.519 C  
HETATM    2  C   UNL     1     -11.002  12.790  66.349  1.00  0.00    -0.276 C  
ENDROOT
BRANCH   2   3
HETATM    3  N   UNL     1     -11.323  13.189  67.723  1.00  0.00    -0.273 NA 
HETATM    4  C   UNL     1     -11.848  12.313  68.658  1.00  0.00    -0.305 C  
HETATM    5  C   UNL     1     -12.158  12.609  69.928  1.00  0.00    -0.322 C  
HETATM    6  C   UNL     1     -12.724  11.565  70.806  1.00  0.00    -0.227 C  
HETATM    7  C   UNL     1     -11.911  14.000  70.359  1.00  0.00    -0.286 C  
HETATM    8  C   UNL     1     -11.344  14.952  69.382  1.00  0.00    -0.312 A  
HETATM    9  O   UNL     1     -12.177  14.345  71.509  1.00  0.00    -0.341 OA 
HETATM   10  O   UNL     1     -12.930  10.418  70.435  1.00  0.00    -0.303 OA 
HETATM   11  O   UNL     1     -13.002  11.975  72.062  1.00  0.00    -0.385 OA 
HETATM   12  C   UNL     1     -11.117  16.271  69.756  1.00  0.00    -0.337 A  
HETATM   13  C   UNL     1     -10.597  17.137  68.810  1.00  0.00    -0.336 A  
HETATM   14  F   UNL     1     -10.359  18.407  69.176  1.00  0.00    -0.377 F  
HETATM   15  C   UNL     1     -10.283  16.685  67.518  1.00  0.00    -0.289 A  
HETATM   16  C   UNL     1     -11.039  14.530  68.081  1.00  0.00    -0.266 A  
HETATM   17  N   UNL     1     -10.496  15.387  67.175  1.00  0.00    -0.284 NA 
BRANCH  15  18
HETATM   18  N   UNL     1      -9.721  17.546  66.591  1.00  0.00    -0.286 NA 
HETATM   19  C   UNL     1     -10.534  18.591  65.963  1.00  0.00    -0.400 C  
HETATM   20  C   UNL     1     -10.135  20.006  66.428  1.00  0.00    -0.487 C  
HETATM   21  N   UNL     1      -8.686  20.269  66.322  1.00  0.00    -0.563 NA 
HETATM   22  H   UNL     1      -8.439  21.216  66.607  1.00  0.00     0.000 HD 
HETATM   23  C   UNL     1      -7.962  19.242  67.090  1.00  0.00    -0.264 C  
HETATM   24  C   UNL     1      -8.273  17.795  66.635  1.00  0.00    -0.259 C  
ENDBRANCH  15  18
ENDBRANCH   2   3
TORSDOF 2
ENDMDL
MODEL        9
REMARK 921   NORMALIZED FREE ENERGY PREDICTED BY IDOCK:   -6.80 KCAL/MOL
REMARK 922        TOTAL FREE ENERGY PREDICTED BY IDOCK:   -8.05 KCAL/MOL
REMARK 923 INTER-LIGAND FREE ENERGY PREDICTED BY IDOCK:   -7.65 KCAL/MOL
REMARK 924 INTRA-LIGAND FREE ENERGY PREDICTED BY IDOCK:   -0.40 KCAL/MOL
REMARK 927      BINDING AFFINITY PREDICTED BY RF-SCORE:    0.00 PKD
ROOT
HETATM    1  C   UNL     1     -10.497   7.800  67.044  1.00  0.00    -0.419 C  
HETATM    2  C   UNL     1      -9.795   9.009  67.644  1.00  0.00    -0.173 C  
ENDROOT
BRANCH   2   3
HETATM    3  N   UNL     1     -10.629   9.645  68.670  1.00  0.00    -0.216 NA 
HETATM    4  C   UNL     1     -11.008   9.001  69.836  1.00  0.00    -0.193 C  
HETATM    5  C   UNL     1     -11.762   9.523  70.814  1.00  0.00    -0.370 C  
HETATM    6  C   UNL     1     -12.093   8.704  71.998  1.00  0.00    -0.375 C  
HETATM    7  C   UNL     1     -12.222  10.913  70.620  1.00  0.00    -0.376 C  
HETATM    8  C   UNL     1     -11.824  11.624  69.388  1.00  0.00    -0.408 A  
HETATM    9  O   UNL     1     -12.922  11.454  71.475  1.00  0.00    -0.432 OA 
HETATM   10  O   UNL     1     -11.712   7.552  72.143  1.00  0.00    -0.284 OA 
HETATM   11  O   UNL     1     -12.860   9.329  72.917  1.00  0.00    -0.196 OA 
HETATM   12  C   UNL     1     -12.257  12.926  69.172  1.00  0.00    -0.083 A  
HETATM   13  C   UNL     1     -11.874  13.555  68.001  1.00  0.00    -0.365 A  
HETATM   14  F   UNL     1     -12.276  14.821  67.801  1.00  0.00    -0.349 F  
HETATM   15  C   UNL     1     -11.050  12.902  67.071  1.00  0.00    -0.275 A  
HETATM   16  C   UNL     1     -11.016  10.987  68.436  1.00  0.00    -0.230 A  
HETATM   17  N   UNL     1     -10.621  11.634  67.307  1.00  0.00    -0.219 NA 
BRANCH  15  18
HETATM   18  N   UNL     1     -10.634  13.554  65.923  1.00  0.00    -0.280 NA 
HETATM   19  C   UNL     1     -11.477  13.550  64.723  1.00  0.00    -0.346 C  
HETATM   20  C   UNL     1     -12.069  14.941  64.417  1.00  0.00    -0.401 C  
HETATM   21  N   UNL     1     -11.058  16.016  64.401  1.00  0.00    -0.960 NA 
HETATM   22  H   UNL     1     -11.458  16.926  64.171  1.00  0.00     0.000 HD 
HETATM   23  C   UNL     1     -10.353  16.022  65.694  1.00  0.00    -0.392 C  
HETATM   24  C   UNL     1      -9.683  14.669  66.039  1.00  0.00    -0.312 C  
ENDBRANCH  15  18
ENDBRANCH   2   3
TORSDOF 2
ENDMDL
MODEL       10
REMARK 921   NORMALIZED FREE ENERGY PREDICTED BY IDOCK:   -6.78 KCAL/MOL
REMARK 922        TOTAL FREE ENERGY PREDICTED BY IDOCK:   -8.04 KCAL/MOL
REMARK 923 INTER-LIGAND FREE ENERGY PREDICTED BY IDOCK:   -7.84 KCAL/MOL
REMARK 924 INTRA-LIGAND FREE ENERGY PREDICTED BY IDOCK:   -0.19 KCAL/MOL
REMARK 927      BINDING AFFINITY PREDICTED BY RF-SCORE:    0.00 PKD
ROOT
HETATM    1  C   UNL     1     -12.535  12.813  71.069  1.00  0.00    -0.369 C  
HETATM    2  C   UNL     1     -12.014  12.586  69.657  1.00  0.00    -0.272 C  
ENDROOT
BRANCH   2   3
HETATM    3  N   UNL     1     -11.545  11.206  69.486  1.00  0.00    -0.290 NA 
HETATM    4  C   UNL     1     -11.586  10.267  70.503  1.00  0.00    -0.338 C  
HETATM    5  C   UNL     1     -11.181   8.992  70.413  1.00  0.00    -0.275 C  
HETATM    6  C   UNL     1     -11.278   8.109  71.594  1.00  0.00    -0.261 C  
HETATM    7  C   UNL     1     -10.644   8.562  69.106  1.00  0.00    -0.173 C  
HETATM    8  C   UNL     1     -10.597   9.544  68.004  1.00  0.00    -0.282 A  
HETATM    9  O   UNL     1     -10.249   7.407  68.954  1.00  0.00    -0.185 OA 
HETATM   10  O   UNL     1     -11.718   8.479  72.672  1.00  0.00    -0.363 OA 
HETATM   11  O   UNL     1     -10.838   6.849  71.391  1.00  0.00    -0.224 OA 
HETATM   12  C   UNL     1     -10.081   9.171  66.769  1.00  0.00    -0.341 A  
HETATM   13  C   UNL     1     -10.042  10.121  65.765  1.00  0.00    -0.254 A  
HETATM   14  F   UNL     1      -9.561   9.755  64.565  1.00  0.00    -0.326 F  
HETATM   15  C   UNL     1     -10.533  11.418  65.983  1.00  0.00    -0.255 A  
HETATM   16  C   UNL     1     -11.066  10.849  68.203  1.00  0.00    -0.280 A  
HETATM   17  N   UNL     1     -11.051  11.760  67.192  1.00  0.00    -0.279 NA 
BRANCH  15  18
HETATM   18  N   UNL     1     -10.532  12.350  64.959  1.00  0.00    -0.286 NA 
HETATM   19  C   UNL     1     -11.090  12.009  63.647  1.00  0.00    -0.452 C  
HETATM   20  C   UNL     1     -12.400  12.769  63.350  1.00  0.00    -0.437 C  
HETATM   21  N   UNL     1     -12.290  14.226  63.563  1.00  0.00    -1.122 NA 
HETATM   22  H   UNL     1     -13.154  14.719  63.338  1.00  0.00     0.000 HD 
HETATM   23  C   UNL     1     -11.847  14.469  64.947  1.00  0.00    -0.416 C  
HETATM   24  C   UNL     1     -10.505  13.781  65.296  1.00  0.00    -0.363 C  
ENDBRANCH  15  18
ENDBRANCH   2   3
TORSDOF 2
ENDMDL
MODEL       11
REMARK 921   NORMALIZED FREE ENERGY PREDICTED BY IDOCK:   -6.77 KCAL/MOL
REMARK 922        TOTAL FREE ENERGY PREDICTED BY IDOCK:   -8.03 KCAL/MOL
REMARK 923 INTER-LIGAND FREE ENERGY PREDICTED BY IDOCK:   -7.58 KCAL/MOL
REMARK 924 INTRA-LIGAND FREE ENERGY PREDICTED BY IDOCK:   -0.44 KCAL/MOL
REMARK 927      BINDING AFFINITY PREDICTED BY RF-SCORE:    0.00 PKD
ROOT
HETATM    1  C   UNL     1     -10.458   6.651  66.815  1.00  0.00    -0.298 C  
HETATM    2  C   UNL     1     -10.073   8.114  66.976  1.00  0.00    -0.280 C  
ENDROOT
BRANCH   2   3
HETATM    3  N   UNL     1     -10.534   8.640  68.265  1.00  0.00    -0.209 NA 
HETATM    4  C   UNL     1     -10.533   7.888  69.428  1.00  0.00    -0.220 C  
HETATM    5  C   UNL     1     -10.934   8.306  70.636  1.00  0.00    -0.257 C  
HETATM    6  C   UNL     1     -10.883   7.379  71.785  1.00  0.00    -0.223 C  
HETATM    7  C   UNL     1     -11.418   9.699  70.724  1.00  0.00    -0.328 C  
HETATM    8  C   UNL     1     -11.422  10.524  69.499  1.00  0.00    -0.339 A  
HETATM    9  O   UNL     1     -11.807  10.148  71.801  1.00  0.00    -0.281 OA 
HETATM   10  O   UNL     1     -10.486   6.226  71.698  1.00  0.00    -0.208 OA 
HETATM   11  O   UNL     1     -11.314   7.905  72.952  1.00  0.00    -0.406 OA 
HETATM   12  C   UNL     1     -11.889  11.832  69.549  1.00  0.00    -0.402 A  
HETATM   13  C   UNL     1     -11.889  12.570  68.379  1.00  0.00    -0.304 A  
HETATM   14  F   UNL     1     -12.322  13.840  68.431  1.00  0.00    -0.392 F  
HETATM   15  C   UNL     1     -11.407  12.018  67.182  1.00  0.00    -0.333 A  
HETATM   16  C   UNL     1     -10.962   9.990  68.288  1.00  0.00    -0.227 A  
HETATM   17  N   UNL     1     -10.938  10.742  67.155  1.00  0.00    -0.280 NA 
BRANCH  15  18
HETATM   18  N   UNL     1     -11.368  12.777  66.025  1.00  0.00    -0.306 NA 
HETATM   19  C   UNL     1     -10.136  12.858  65.234  1.00  0.00    -0.238 C  
HETATM   20  C   UNL     1     -10.258  12.131  63.879  1.00  0.00    -0.400 C  
HETATM   21  N   UNL     1     -11.457  12.525  63.112  1.00  0.00    -0.753 NA 
HETATM   22  H   UNL     1     -11.511  12.057  62.207  1.00  0.00     0.000 HD 
HETATM   23  C   UNL     1     -12.650  12.286  63.942  1.00  0.00    -0.440 C  
HETATM   24  C   UNL     1     -12.619  13.034  65.297  1.00  0.00    -0.457 C  
ENDBRANCH  15  18
ENDBRANCH   2   3
TORSDOF 2
ENDMDL
MODEL       12
REMARK 921   NORMALIZED FREE ENERGY PREDICTED BY IDOCK:   -6.73 KCAL/MOL
REMARK 922        TOTAL FREE ENERGY PREDICTED BY IDOCK:   -7.98 KCAL/MOL
REMARK 923 INTER-LIGAND FREE ENERGY PREDICTED BY IDOCK:   -7.63 KCAL/MOL
REMARK 924 INTRA-LIGAND FREE ENERGY PREDICTED BY IDOCK:   -0.35 KCAL/MOL
REMARK 927      BINDING AFFINITY PREDICTED BY RF-SCORE:    0.00 PKD
ROOT
HETATM    1  C   UNL     1     -12.477  15.835  71.217  1.00  0.00    -0.505 C  
HETATM    2  C   UNL     1     -11.086  15.481  70.711  1.00  0.00    -0.351 C  
ENDROOT
BRANCH   2   3
HETATM    3  N   UNL     1     -10.965  15.750  69.274  1.00  0.00    -0.259 NA 
HETATM    4  C   UNL     1     -10.698  17.010  68.765  1.00  0.00    -0.313 C  
HETATM    5  C   UNL     1     -10.570  17.324  67.468  1.00  0.00    -0.329 C  
HETATM    6  C   UNL     1     -10.293  18.722  67.078  1.00  0.00    -0.403 C  
HETATM    7  C   UNL     1     -10.729  16.217  66.504  1.00  0.00    -0.220 C  
HETATM    8  C   UNL     1     -11.008  14.862  67.023  1.00  0.00    -0.327 A  
HETATM    9  O   UNL     1     -10.630  16.433  65.297  1.00  0.00    -0.548 OA 
HETATM   10  O   UNL     1     -10.170  19.631  67.886  1.00  0.00    -0.398 OA 
HETATM   11  O   UNL     1     -10.188  18.924  65.747  1.00  0.00    -0.531 OA 
HETATM   12  C   UNL     1     -11.179  13.806  66.137  1.00  0.00    -0.301 A  
HETATM   13  C   UNL     1     -11.451  12.554  66.659  1.00  0.00    -0.359 A  
HETATM   14  F   UNL     1     -11.598  11.529  65.804  1.00  0.00    -0.321 F  
HETATM   15  C   UNL     1     -11.525  12.356  68.047  1.00  0.00    -0.322 A  
HETATM   16  C   UNL     1     -11.104  14.642  68.403  1.00  0.00    -0.257 A  
HETATM   17  N   UNL     1     -11.337  13.398  68.900  1.00  0.00    -0.270 NA 
BRANCH  15  18
HETATM   18  N   UNL     1     -11.753  11.092  68.564  1.00  0.00    -0.459 NA 
HETATM   19  C   UNL     1     -10.764  10.026  68.374  1.00  0.00    -0.234 C  
HETATM   20  C   UNL     1     -10.059   9.637  69.690  1.00  0.00    -0.224 C  
HETATM   21  N   UNL     1     -10.998   9.355  70.794  1.00  0.00    -0.277 NA 
HETATM   22  H   UNL     1     -10.521   9.074  71.650  1.00  0.00     0.000 HD 
HETATM   23  C   UNL     1     -11.863  10.532  70.992  1.00  0.00    -0.340 C  
HETATM   24  C   UNL     1     -12.646  10.943  69.722  1.00  0.00    -0.083 C  
ENDBRANCH  15  18
ENDBRANCH   2   3
TORSDOF 2
ENDMDL
MODEL       13
REMARK 921   NORMALIZED FREE ENERGY PREDICTED BY IDOCK:   -6.70 KCAL/MOL
REMARK 922        TOTAL FREE ENERGY PREDICTED BY IDOCK:   -7.95 KCAL/MOL
REMARK 923 INTER-LIGAND FREE ENERGY PREDICTED BY IDOCK:   -7.54 KCAL/MOL
REMARK 924 INTRA-LIGAND FREE ENERGY PREDICTED BY IDOCK:   -0.41 KCAL/MOL
REMARK 927      BINDING AFFINITY PREDICTED BY RF-SCORE:    0.00 PKD
ROOT
HETATM    1  C   UNL     1     -13.600  12.457  72.438  1.00  0.00    -0.262 C  
HETATM    2  C   UNL     1     -12.684  12.877  71.298  1.00  0.00    -0.278 C  
ENDROOT
BRANCH   2   3
HETATM    3  N   UNL     1     -12.102  11.705  70.634  1.00  0.00    -0.370 NA 
HETATM    4  C   UNL     1     -11.912  10.493  71.277  1.00  0.00    -0.289 C  
HETATM    5  C   UNL     1     -11.394   9.385  70.730  1.00  0.00    -0.363 C  
HETATM    6  C   UNL     1     -11.243   8.166  71.551  1.00  0.00    -0.259 C  
HETATM    7  C   UNL     1     -10.993   9.476  69.311  1.00  0.00    -0.145 C  
HETATM    8  C   UNL     1     -11.193  10.755  68.601  1.00  0.00    -0.333 A  
HETATM    9  O   UNL     1     -10.505   8.498  68.746  1.00  0.00    -0.217 OA 
HETATM   10  O   UNL     1     -11.573   8.105  72.726  1.00  0.00    -0.411 OA 
HETATM   11  O   UNL     1     -10.707   7.112  70.899  1.00  0.00    -0.226 OA 
HETATM   12  C   UNL     1     -10.810  10.874  67.271  1.00  0.00    -0.342 A  
HETATM   13  C   UNL     1     -11.000  12.091  66.643  1.00  0.00    -0.287 A  
HETATM   14  F   UNL     1     -10.648  12.201  65.352  1.00  0.00    -0.271 F  
HETATM   15  C   UNL     1     -11.589  13.167  67.326  1.00  0.00    -0.355 A  
HETATM   16  C   UNL     1     -11.763  11.849  69.267  1.00  0.00    -0.328 A  
HETATM   17  N   UNL     1     -11.975  13.028  68.622  1.00  0.00    -0.308 NA 
BRANCH  15  18
HETATM   18  N   UNL     1     -11.819  14.369  66.678  1.00  0.00    -0.402 NA 
HETATM   19  C   UNL     1     -10.751  15.368  66.571  1.00  0.00    -0.308 C  
HETATM   20  C   UNL     1     -10.238  15.527  65.125  1.00  0.00    -0.299 C  
HETATM   21  N   UNL     1     -11.319  15.739  64.142  1.00  0.00    -0.873 NA 
HETATM   22  H   UNL     1     -10.964  15.870  63.195  1.00  0.00     0.000 HD 
HETATM   23  C   UNL     1     -12.271  14.620  64.238  1.00  0.00    -0.408 C  
HETATM   24  C   UNL     1     -12.871  14.438  65.653  1.00  0.00    -0.204 C  
ENDBRANCH  15  18
ENDBRANCH   2   3
TORSDOF 2
ENDMDL
MODEL       14
REMARK 921   NORMALIZED FREE ENERGY PREDICTED BY IDOCK:   -6.69 KCAL/MOL
REMARK 922        TOTAL FREE ENERGY PREDICTED BY IDOCK:   -7.94 KCAL/MOL
REMARK 923 INTER-LIGAND FREE ENERGY PREDICTED BY IDOCK:   -7.54 KCAL/MOL
REMARK 924 INTRA-LIGAND FREE ENERGY PREDICTED BY IDOCK:   -0.40 KCAL/MOL
REMARK 927      BINDING AFFINITY PREDICTED BY RF-SCORE:    0.00 PKD
ROOT
HETATM    1  C   UNL     1     -13.212  11.117  71.791  1.00  0.00    -0.486 C  
HETATM    2  C   UNL     1     -13.032  10.657  70.352  1.00  0.00    -0.145 C  
ENDROOT
BRANCH   2   3
HETATM    3  N   UNL     1     -11.621  10.380  70.062  1.00  0.00    -0.280 NA 
HETATM    4  C   UNL     1     -10.805   9.657  70.916  1.00  0.00    -0.339 C  
HETATM    5  C   UNL     1      -9.513   9.364  70.710  1.00  0.00    -0.307 C  
HETATM    6  C   UNL     1      -8.769   8.589  71.724  1.00  0.00    -0.201 C  
HETATM    7  C   UNL     1      -8.917   9.861  69.454  1.00  0.00    -0.195 C  
HETATM    8  C   UNL     1      -9.769  10.629  68.523  1.00  0.00    -0.177 A  
HETATM    9  O   UNL     1      -7.735   9.634  69.202  1.00  0.00    -0.079 OA 
HETATM   10  O   UNL     1      -9.273   8.188  72.763  1.00  0.00    -0.220 OA 
HETATM   11  O   UNL     1      -7.476   8.355  71.415  1.00  0.00    -0.077 OA 
HETATM   12  C   UNL     1      -9.229  11.124  67.342  1.00  0.00    -0.157 A  
HETATM   13  C   UNL     1     -10.054  11.849  66.501  1.00  0.00    -0.203 A  
HETATM   14  F   UNL     1      -9.538  12.311  65.350  1.00  0.00    -0.240 F  
HETATM   15  C   UNL     1     -11.405  12.055  66.822  1.00  0.00    -0.339 A  
HETATM   16  C   UNL     1     -11.116  10.863  68.830  1.00  0.00    -0.256 A  
HETATM   17  N   UNL     1     -11.921  11.548  67.974  1.00  0.00    -0.627 NA 
BRANCH  15  18
HETATM   18  N   UNL     1     -12.236  12.742  65.954  1.00  0.00    -0.559 NA 
HETATM   19  C   UNL     1     -12.305  14.206  66.000  1.00  0.00    -0.445 C  
HETATM   20  C   UNL     1     -11.676  14.863  64.754  1.00  0.00    -0.402 C  
HETATM   21  N   UNL     1     -12.182  14.307  63.483  1.00  0.00    -1.080 NA 
HETATM   22  H   UNL     1     -11.778  14.768  62.668  1.00  0.00     0.000 HD 
HETATM   23  C   UNL     1     -11.951  12.852  63.479  1.00  0.00    -0.556 C  
HETATM   24  C   UNL     1     -12.605  12.119  64.675  1.00  0.00    -0.175 C  
ENDBRANCH  15  18
ENDBRANCH   2   3
TORSDOF 2
ENDMDL
MODEL       15
REMARK 921   NORMALIZED FREE ENERGY PREDICTED BY IDOCK:   -6.58 KCAL/MOL
REMARK 922        TOTAL FREE ENERGY PREDICTED BY IDOCK:   -7.82 KCAL/MOL
REMARK 923 INTER-LIGAND FREE ENERGY PREDICTED BY IDOCK:   -7.41 KCAL/MOL
REMARK 924 INTRA-LIGAND FREE ENERGY PREDICTED BY IDOCK:   -0.41 KCAL/MOL
REMARK 927      BINDING AFFINITY PREDICTED BY RF-SCORE:    0.00 PKD
ROOT
HETATM    1  C   UNL     1      -6.904  14.512  67.871  1.00  0.00    -0.177 C  
HETATM    2  C   UNL     1      -8.386  14.245  68.094  1.00  0.00    -0.162 C  
ENDROOT
BRANCH   2   3
HETATM    3  N   UNL     1      -9.201  14.930  67.085  1.00  0.00    -0.210 NA 
HETATM    4  C   UNL     1      -9.328  16.308  67.031  1.00  0.00    -0.221 C  
HETATM    5  C   UNL     1     -10.050  16.997  66.136  1.00  0.00    -0.332 C  
HETATM    6  C   UNL     1     -10.096  18.471  66.213  1.00  0.00    -0.398 C  
HETATM    7  C   UNL     1     -10.768  16.204  65.118  1.00  0.00    -0.371 C  
HETATM    8  C   UNL     1     -10.642  14.732  65.151  1.00  0.00    -0.439 A  
HETATM    9  O   UNL     1     -11.454  16.770  64.268  1.00  0.00    -1.125 OA 
HETATM   10  O   UNL     1      -9.502  19.116  67.065  1.00  0.00    -0.302 OA 
HETATM   11  O   UNL     1     -10.856  19.061  65.265  1.00  0.00    -0.540 OA 
HETATM   12  C   UNL     1     -11.322  13.961  64.216  1.00  0.00    -0.309 A  
HETATM   13  C   UNL     1     -11.189  12.586  64.286  1.00  0.00    -0.355 A  
HETATM   14  F   UNL     1     -11.830  11.840  63.371  1.00  0.00    -0.515 F  
HETATM   15  C   UNL     1     -10.370  11.991  65.259  1.00  0.00    -0.275 A  
HETATM   16  C   UNL     1      -9.844  14.115  66.123  1.00  0.00    -0.308 A  
HETATM   17  N   UNL     1      -9.699  12.763  66.154  1.00  0.00    -0.260 NA 
BRANCH  15  18
HETATM   18  N   UNL     1     -10.207  10.617  65.294  1.00  0.00    -0.290 NA 
HETATM   19  C   UNL     1      -9.476   9.931  64.223  1.00  0.00    -0.216 C  
HETATM   20  C   UNL     1      -8.122   9.369  64.702  1.00  0.00    -0.133 C  
HETATM   21  N   UNL     1      -8.229   8.558  65.931  1.00  0.00    -0.118 NA 
HETATM   22  H   UNL     1      -7.331   8.170  66.222  1.00  0.00     0.000 HD 
HETATM   23  C   UNL     1      -8.857   9.374  66.984  1.00  0.00    -0.127 C  
HETATM   24  C   UNL     1     -10.250   9.925  66.590  1.00  0.00    -0.226 C  
ENDBRANCH  15  18
ENDBRANCH   2   3
TORSDOF 2
ENDMDL
MODEL       16
REMARK 921   NORMALIZED FREE ENERGY PREDICTED BY IDOCK:   -6.58 KCAL/MOL
REMARK 922        TOTAL FREE ENERGY PREDICTED BY IDOCK:   -7.81 KCAL/MOL
REMARK 923 INTER-LIGAND FREE ENERGY PREDICTED BY IDOCK:   -7.54 KCAL/MOL
REMARK 924 INTRA-LIGAND FREE ENERGY PREDICTED BY IDOCK:   -0.27 KCAL/MOL
REMARK 927      BINDING AFFINITY PREDICTED BY RF-SCORE:    0.00 PKD
ROOT
HETATM    1  C   UNL     1     -10.601   6.655  66.908  1.00  0.00    -0.376 C  
HETATM    2  C   UNL     1      -9.637   7.734  67.380  1.00  0.00    -0.151 C  
ENDROOT
BRANCH   2   3
HETATM    3  N   UNL     1      -9.999   9.042  66.823  1.00  0.00    -0.238 NA 
HETATM    4  C   UNL     1      -9.778   9.382  65.499  1.00  0.00    -0.230 C  
HETATM    5  C   UNL     1     -10.088  10.553  64.925  1.00  0.00    -0.403 C  
HETATM    6  C   UNL     1      -9.780  10.771  63.497  1.00  0.00    -0.341 C  
HETATM    7  C   UNL     1     -10.724  11.564  65.793  1.00  0.00    -0.271 C  
HETATM    8  C   UNL     1     -10.977  11.222  67.208  1.00  0.00    -0.342 A  
HETATM    9  O   UNL     1     -11.031  12.663  65.335  1.00  0.00    -0.276 OA 
HETATM   10  O   UNL     1      -9.247   9.929  62.790  1.00  0.00    -0.269 OA 
HETATM   11  O   UNL     1     -10.131  11.987  63.026  1.00  0.00    -0.348 OA 
HETATM   12  C   UNL     1     -11.558  12.161  68.052  1.00  0.00    -0.411 A  
HETATM   13  C   UNL     1     -11.767  11.809  69.373  1.00  0.00    -0.341 A  
HETATM   14  F   UNL     1     -12.347  12.709  70.184  1.00  0.00    -0.354 F  
HETATM   15  C   UNL     1     -11.425  10.530  69.839  1.00  0.00    -0.310 A  
HETATM   16  C   UNL     1     -10.628   9.958  67.701  1.00  0.00    -0.270 A  
HETATM   17  N   UNL     1     -10.874   9.618  68.995  1.00  0.00    -0.211 NA 
BRANCH  15  18
HETATM   18  N   UNL     1     -11.680  10.169  71.151  1.00  0.00    -0.369 NA 
HETATM   19  C   UNL     1     -13.037  10.272  71.696  1.00  0.00    -0.449 C  
HETATM   20  C   UNL     1     -13.668   8.891  71.965  1.00  0.00    -0.459 C  
HETATM   21  N   UNL     1     -12.801   7.997  72.757  1.00  0.00    -0.480 NA 
HETATM   22  H   UNL     1     -13.241   7.097  72.950  1.00  0.00     0.000 HD 
HETATM   23  C   UNL     1     -11.509   7.854  72.063  1.00  0.00    -0.300 C  
HETATM   24  C   UNL     1     -10.791   9.202  71.811  1.00  0.00    -0.345 C  
ENDBRANCH  15  18
ENDBRANCH   2   3
TORSDOF 2
ENDMDL
MODEL       17
REMARK 921   NORMALIZED FREE ENERGY PREDICTED BY IDOCK:   -6.53 KCAL/MOL
REMARK 922        TOTAL FREE ENERGY PREDICTED BY IDOCK:   -7.76 KCAL/MOL
REMARK 923 INTER-LIGAND FREE ENERGY PREDICTED BY IDOCK:   -7.30 KCAL/MOL
REMARK 924 INTRA-LIGAND FREE ENERGY PREDICTED BY IDOCK:   -0.46 KCAL/MOL
REMARK 927      BINDING AFFINITY PREDICTED BY RF-SCORE:    0.00 PKD
ROOT
HETATM    1  C   UNL     1      -9.057   8.631  65.764  1.00  0.00    -0.242 C  
HETATM    2  C   UNL     1     -10.156   9.635  66.079  1.00  0.00    -0.248 C  
ENDROOT
BRANCH   2   3
HETATM    3  N   UNL     1     -10.483   9.625  67.509  1.00  0.00    -0.245 NA 
HETATM    4  C   UNL     1     -10.262   8.526  68.323  1.00  0.00    -0.205 C  
HETATM    5  C   UNL     1     -10.531   8.450  69.634  1.00  0.00    -0.221 C  
HETATM    6  C   UNL     1     -10.249   7.200  70.367  1.00  0.00    -0.193 C  
HETATM    7  C   UNL     1     -11.114   9.656  70.257  1.00  0.00    -0.276 C  
HETATM    8  C   UNL     1     -11.351  10.844  69.412  1.00  0.00    -0.347 A  
HETATM    9  O   UNL     1     -11.391   9.656  71.456  1.00  0.00    -0.381 OA 
HETATM   10  O   UNL     1      -9.773   6.206  69.839  1.00  0.00    -0.159 OA 
HETATM   11  O   UNL     1     -10.563   7.235  71.680  1.00  0.00    -0.207 OA 
HETATM   12  C   UNL     1     -11.914  11.986  69.968  1.00  0.00    -0.400 A  
HETATM   13  C   UNL     1     -12.133  13.074  69.143  1.00  0.00    -0.187 A  
HETATM   14  F   UNL     1     -12.659  14.185  69.685  1.00  0.00    -0.374 F  
HETATM   15  C   UNL     1     -11.771  13.031  67.787  1.00  0.00    -0.359 A  
HETATM   16  C   UNL     1     -11.015  10.819  68.052  1.00  0.00    -0.283 A  
HETATM   17  N   UNL     1     -11.205  11.912  67.263  1.00  0.00    -0.296 NA 
BRANCH  15  18
HETATM   18  N   UNL     1     -11.952  14.140  66.978  1.00  0.00    -0.428 NA 
HETATM   19  C   UNL     1     -10.996  15.251  67.022  1.00  0.00    -0.324 C  
HETATM   20  C   UNL     1     -10.158  15.357  65.731  1.00  0.00    -0.363 C  
HETATM   21  N   UNL     1     -10.977  15.355  64.502  1.00  0.00    -0.680 NA 
HETATM   22  H   UNL     1     -10.413  15.452  63.657  1.00  0.00     0.000 HD 
HETATM   23  C   UNL     1     -11.806  14.138  64.488  1.00  0.00    -0.436 C  
HETATM   24  C   UNL     1     -12.718  13.997  65.731  1.00  0.00    -0.450 C  
ENDBRANCH  15  18
ENDBRANCH   2   3
TORSDOF 2
ENDMDL
MODEL       18
REMARK 921   NORMALIZED FREE ENERGY PREDICTED BY IDOCK:   -6.53 KCAL/MOL
REMARK 922        TOTAL FREE ENERGY PREDICTED BY IDOCK:   -7.76 KCAL/MOL
REMARK 923 INTER-LIGAND FREE ENERGY PREDICTED BY IDOCK:   -7.71 KCAL/MOL
REMARK 924 INTRA-LIGAND FREE ENERGY PREDICTED BY IDOCK:   -0.05 KCAL/MOL
REMARK 927      BINDING AFFINITY PREDICTED BY RF-SCORE:    0.00 PKD
ROOT
HETATM    1  C   UNL     1     -14.208  15.308  72.021  1.00  0.00    -0.679 C  
HETATM    2  C   UNL     1     -13.353  14.056  72.158  1.00  0.00    -0.453 C  
ENDROOT
BRANCH   2   3
HETATM    3  N   UNL     1     -12.621  13.782  70.917  1.00  0.00    -0.353 NA 
HETATM    4  C   UNL     1     -12.218  14.781  70.045  1.00  0.00    -0.333 C  
HETATM    5  C   UNL     1     -11.544  14.602  68.901  1.00  0.00    -0.340 C  
HETATM    6  C   UNL     1     -11.193  15.770  68.068  1.00  0.00    -0.338 C  
HETATM    7  C   UNL     1     -11.203  13.208  68.548  1.00  0.00    -0.272 C  
HETATM    8  C   UNL     1     -11.614  12.126  69.466  1.00  0.00    -0.382 A  
HETATM    9  O   UNL     1     -10.589  12.969  67.510  1.00  0.00    -0.228 OA 
HETATM   10  O   UNL     1     -11.487  16.918  68.367  1.00  0.00    -0.136 OA 
HETATM   11  O   UNL     1     -10.518  15.472  66.937  1.00  0.00    -0.289 OA 
HETATM   12  C   UNL     1     -11.321  10.805  69.151  1.00  0.00    -0.348 A  
HETATM   13  C   UNL     1     -11.734   9.819  70.028  1.00  0.00    -0.074 A  
HETATM   14  F   UNL     1     -11.434   8.543  69.733  1.00  0.00    -0.132 F  
HETATM   15  C   UNL     1     -12.406  10.148  71.215  1.00  0.00    -0.400 A  
HETATM   16  C   UNL     1     -12.302  12.429  70.649  1.00  0.00    -0.279 A  
HETATM   17  N   UNL     1     -12.669  11.448  71.516  1.00  0.00    -0.382 NA 
BRANCH  15  18
HETATM   18  N   UNL     1     -12.776   9.159  72.110  1.00  0.00    -0.387 NA 
HETATM   19  C   UNL     1     -14.170   8.709  72.182  1.00  0.00    -0.439 C  
HETATM   20  C   UNL     1     -14.352   7.273  71.649  1.00  0.00    -0.421 C  
HETATM   21  N   UNL     1     -13.408   6.306  72.243  1.00  0.00    -0.335 NA 
HETATM   22  H   UNL     1     -13.557   5.356  71.903  1.00  0.00     0.000 HD 
HETATM   23  C   UNL     1     -12.033   6.780  72.008  1.00  0.00    -0.317 C  
HETATM   24  C   UNL     1     -11.764   8.197  72.570  1.00  0.00    -0.394 C  
ENDBRANCH  15  18
ENDBRANCH   2   3
TORSDOF 2
ENDMDL
MODEL       19
REMARK 921   NORMALIZED FREE ENERGY PREDICTED BY IDOCK:   -6.49 KCAL/MOL
REMARK 922        TOTAL FREE ENERGY PREDICTED BY IDOCK:   -7.72 KCAL/MOL
REMARK 923 INTER-LIGAND FREE ENERGY PREDICTED BY IDOCK:   -7.24 KCAL/MOL
REMARK 924 INTRA-LIGAND FREE ENERGY PREDICTED BY IDOCK:   -0.48 KCAL/MOL
REMARK 927      BINDING AFFINITY PREDICTED BY RF-SCORE:    0.00 PKD
ROOT
HETATM    1  C   UNL     1     -12.894  14.643  73.205  1.00  0.00    -0.580 C  
HETATM    2  C   UNL     1     -13.403  14.363  71.799  1.00  0.00    -0.366 C  
ENDROOT
BRANCH   2   3
HETATM    3  N   UNL     1     -12.886  13.085  71.298  1.00  0.00    -0.333 NA 
HETATM    4  C   UNL     1     -13.260  11.863  71.830  1.00  0.00    -0.362 C  
HETATM    5  C   UNL     1     -12.832  10.661  71.418  1.00  0.00    -0.556 C  
HETATM    6  C   UNL     1     -13.316   9.441  72.096  1.00  0.00    -0.468 C  
HETATM    7  C   UNL     1     -11.876  10.652  70.293  1.00  0.00    -0.342 C  
HETATM    8  C   UNL     1     -11.468  11.944  69.703  1.00  0.00    -0.337 A  
HETATM    9  O   UNL     1     -11.437   9.585  69.866  1.00  0.00    -0.184 OA 
HETATM   10  O   UNL     1     -14.103   9.461  73.031  1.00  0.00    -0.310 OA 
HETATM   11  O   UNL     1     -12.817   8.287  71.602  1.00  0.00    -0.317 OA 
HETATM   12  C   UNL     1     -10.556  11.966  68.654  1.00  0.00    -0.259 A  
HETATM   13  C   UNL     1     -10.188  13.194  68.136  1.00  0.00    -0.239 A  
HETATM   14  F   UNL     1      -9.322  13.215  67.110  1.00  0.00    -0.202 F  
HETATM   15  C   UNL     1     -10.741  14.382  68.641  1.00  0.00    -0.253 A  
HETATM   16  C   UNL     1     -11.993  13.143  70.201  1.00  0.00    -0.310 A  
HETATM   17  N   UNL     1     -11.645  14.340  69.656  1.00  0.00    -0.280 NA 
BRANCH  15  18
HETATM   18  N   UNL     1     -10.403  15.604  68.087  1.00  0.00    -0.242 NA 
HETATM   19  C   UNL     1      -9.095  16.206  68.366  1.00  0.00    -0.199 C  
HETATM   20  C   UNL     1      -8.177  16.217  67.125  1.00  0.00    -0.189 C  
HETATM   21  N   UNL     1      -8.824  16.786  65.926  1.00  0.00    -0.513 NA 
HETATM   22  H   UNL     1      -8.198  16.812  65.121  1.00  0.00     0.000 HD 
HETATM   23  C   UNL     1     -10.061  16.033  65.654  1.00  0.00    -0.354 C  
HETATM   24  C   UNL     1     -11.055  16.029  66.840  1.00  0.00    -0.039 C  
ENDBRANCH  15  18
ENDBRANCH   2   3
TORSDOF 2
ENDMDL
MODEL       20
REMARK 921   NORMALIZED FREE ENERGY PREDICTED BY IDOCK:   -6.48 KCAL/MOL
REMARK 922        TOTAL FREE ENERGY PREDICTED BY IDOCK:   -7.70 KCAL/MOL
REMARK 923 INTER-LIGAND FREE ENERGY PREDICTED BY IDOCK:   -7.22 KCAL/MOL
REMARK 924 INTRA-LIGAND FREE ENERGY PREDICTED BY IDOCK:   -0.49 KCAL/MOL
REMARK 927      BINDING AFFINITY PREDICTED BY RF-SCORE:    0.00 PKD
ROOT
HETATM    1  C   UNL     1     -10.595  15.526  70.368  1.00  0.00    -0.294 C  
HETATM    2  C   UNL     1      -9.473  15.441  69.344  1.00  0.00    -0.267 C  
ENDROOT
BRANCH   2   3
HETATM    3  N   UNL     1      -9.929  15.899  68.027  1.00  0.00    -0.219 NA 
HETATM    4  C   UNL     1     -10.071  17.238  67.704  1.00  0.00    -0.313 C  
HETATM    5  C   UNL     1     -10.476  17.723  66.522  1.00  0.00    -0.297 C  
HETATM    6  C   UNL     1     -10.589  19.184  66.331  1.00  0.00    -0.435 C  
HETATM    7  C   UNL     1     -10.795  16.730  65.476  1.00  0.00    -0.129 C  
HETATM    8  C   UNL     1     -10.644  15.296  65.794  1.00  0.00    -0.359 A  
HETATM    9  O   UNL     1     -11.178  17.104  64.369  1.00  0.00    -1.143 OA 
HETATM   10  O   UNL     1     -10.328  19.995  67.207  1.00  0.00    -0.421 OA 
HETATM   11  O   UNL     1     -11.010  19.560  65.104  1.00  0.00    -0.410 OA 
HETATM   12  C   UNL     1     -10.954  14.339  64.835  1.00  0.00    -0.413 A  
HETATM   13  C   UNL     1     -10.812  13.006  65.173  1.00  0.00    -0.300 A  
HETATM   14  F   UNL     1     -11.092  12.082  64.240  1.00  0.00    -0.326 F  
HETATM   15  C   UNL     1     -10.343  12.633  66.443  1.00  0.00    -0.249 A  
HETATM   16  C   UNL     1     -10.194  14.898  67.060  1.00  0.00    -0.256 A  
HETATM   17  N   UNL     1     -10.027  13.583  67.364  1.00  0.00    -0.231 NA 
BRANCH  15  18
HETATM   18  N   UNL     1     -10.160  11.298  66.759  1.00  0.00    -0.213 NA 
HETATM   19  C   UNL     1      -8.815  10.713  66.752  1.00  0.00    -0.139 C  
HETATM   20  C   UNL     1      -8.320  10.360  68.169  1.00  0.00    -0.117 C  
HETATM   21  N   UNL     1      -9.288   9.556  68.942  1.00  0.00    -0.146 NA 
HETATM   22  H   UNL     1      -8.937   9.307  69.867  1.00  0.00     0.000 HD 
HETATM   23  C   UNL     1     -10.567  10.285  69.002  1.00  0.00    -0.224 C  
HETATM   24  C   UNL     1     -11.151  10.623  67.609  1.00  0.00    -0.319 C  
ENDBRANCH  15  18
ENDBRANCH   2   3
TORSDOF 2
ENDMDL
MODEL       21
REMARK 921   NORMALIZED FREE ENERGY PREDICTED BY IDOCK:   -6.42 KCAL/MOL
REMARK 922        TOTAL FREE ENERGY PREDICTED BY IDOCK:   -7.64 KCAL/MOL
REMARK 923 INTER-LIGAND FREE ENERGY PREDICTED BY IDOCK:   -7.40 KCAL/MOL
REMARK 924 INTRA-LIGAND FREE ENERGY PREDICTED BY IDOCK:   -0.24 KCAL/MOL
REMARK 927      BINDING AFFINITY PREDICTED BY RF-SCORE:    0.00 PKD
ROOT
HETATM    1  C   UNL     1     -11.434  12.831  66.663  1.00  0.00    -0.404 C  
HETATM    2  C   UNL     1     -10.535  12.696  67.883  1.00  0.00    -0.218 C  
ENDROOT
BRANCH   2   3
HETATM    3  N   UNL     1     -11.328  12.495  69.100  1.00  0.00    -0.271 NA 
HETATM    4  C   UNL     1     -12.024  13.518  69.723  1.00  0.00    -0.340 C  
HETATM    5  C   UNL     1     -12.770  13.402  70.830  1.00  0.00    -0.349 C  
HETATM    6  C   UNL     1     -13.446  14.593  71.384  1.00  0.00    -0.392 C  
HETATM    7  C   UNL     1     -12.852  12.056  71.432  1.00  0.00    -0.288 C  
HETATM    8  C   UNL     1     -12.125  10.946  70.782  1.00  0.00    -0.469 A  
HETATM    9  O   UNL     1     -13.515  11.877  72.452  1.00  0.00    -0.355 OA 
HETATM   10  O   UNL     1     -13.365  15.704  70.880  1.00  0.00    -0.556 OA 
HETATM   11  O   UNL     1     -14.167  14.361  72.502  1.00  0.00    -0.531 OA 
HETATM   12  C   UNL     1     -12.171   9.673  71.336  1.00  0.00    -0.471 A  
HETATM   13  C   UNL     1     -11.467   8.662  70.707  1.00  0.00    -0.259 A  
HETATM   14  F   UNL     1     -11.527   7.427  71.231  1.00  0.00    -0.262 F  
HETATM   15  C   UNL     1     -10.749   8.913  69.527  1.00  0.00    -0.199 A  
HETATM   16  C   UNL     1     -11.387  11.176  69.613  1.00  0.00    -0.294 A  
HETATM   17  N   UNL     1     -10.730  10.162  68.988  1.00  0.00    -0.211 NA 
BRANCH  15  18
HETATM   18  N   UNL     1     -10.085   7.887  68.877  1.00  0.00    -0.192 NA 
HETATM   19  C   UNL     1     -10.798   6.659  68.512  1.00  0.00    -0.258 C  
HETATM   20  C   UNL     1     -10.983   6.519  66.987  1.00  0.00    -0.396 C  
HETATM   21  N   UNL     1      -9.730   6.699  66.228  1.00  0.00    -0.379 NA 
HETATM   22  H   UNL     1      -9.861   6.578  65.223  1.00  0.00     0.000 HD 
HETATM   23  C   UNL     1      -9.157   8.014  66.566  1.00  0.00    -0.173 C  
HETATM   24  C   UNL     1      -8.891   8.201  68.079  1.00  0.00    -0.131 C  
ENDBRANCH  15  18
ENDBRANCH   2   3
TORSDOF 2
ENDMDL
MODEL       22
REMARK 921   NORMALIZED FREE ENERGY PREDICTED BY IDOCK:   -6.38 KCAL/MOL
REMARK 922        TOTAL FREE ENERGY PREDICTED BY IDOCK:   -7.59 KCAL/MOL
REMARK 923 INTER-LIGAND FREE ENERGY PREDICTED BY IDOCK:   -7.19 KCAL/MOL
REMARK 924 INTRA-LIGAND FREE ENERGY PREDICTED BY IDOCK:   -0.40 KCAL/MOL
REMARK 927      BINDING AFFINITY PREDICTED BY RF-SCORE:    0.00 PKD
ROOT
HETATM    1  C   UNL     1     -11.701  15.535  71.710  1.00  0.00    -0.509 C  
HETATM    2  C   UNL     1     -12.388  15.670  70.359  1.00  0.00    -0.391 C  
ENDROOT
BRANCH   2   3
HETATM    3  N   UNL     1     -11.709  14.859  69.342  1.00  0.00    -0.302 NA 
HETATM    4  C   UNL     1     -11.916  13.496  69.206  1.00  0.00    -0.330 C  
HETATM    5  C   UNL     1     -11.335  12.699  68.299  1.00  0.00    -0.337 C  
HETATM    6  C   UNL     1     -11.650  11.256  68.285  1.00  0.00    -0.300 C  
HETATM    7  C   UNL     1     -10.392  13.344  67.363  1.00  0.00    -0.240 C  
HETATM    8  C   UNL     1     -10.161  14.798  67.483  1.00  0.00    -0.233 A  
HETATM    9  O   UNL     1      -9.819  12.672  66.507  1.00  0.00    -0.243 OA 
HETATM   10  O   UNL     1     -12.427  10.733  69.070  1.00  0.00    -0.379 OA 
HETATM   11  O   UNL     1     -11.005  10.549  67.332  1.00  0.00    -0.293 OA 
HETATM   12  C   UNL     1      -9.266  15.428  66.626  1.00  0.00    -0.303 A  
HETATM   13  C   UNL     1      -9.066  16.788  66.777  1.00  0.00    -0.241 A  
HETATM   14  F   UNL     1      -8.216  17.400  65.937  1.00  0.00    -0.280 F  
HETATM   15  C   UNL     1      -9.769  17.514  67.752  1.00  0.00    -0.274 A  
HETATM   16  C   UNL     1     -10.837  15.541  68.460  1.00  0.00    -0.272 A  
HETATM   17  N   UNL     1     -10.654  16.884  68.570  1.00  0.00    -0.348 NA 
BRANCH  15  18
HETATM   18  N   UNL     1      -9.597  18.882  67.867  1.00  0.00    -0.306 NA 
HETATM   19  C   UNL     1      -8.496  19.425  68.668  1.00  0.00    -0.359 C  
HETATM   20  C   UNL     1      -7.415  20.102  67.799  1.00  0.00    -0.292 C  
HETATM   21  N   UNL     1      -7.965  21.084  66.844  1.00  0.00    -0.585 NA 
HETATM   22  H   UNL     1      -7.238  21.543  66.295  1.00  0.00     0.000 HD 
HETATM   23  C   UNL     1      -8.969  20.413  66.000  1.00  0.00     0.071 C  
HETATM   24  C   UNL     1     -10.117  19.759  66.807  1.00  0.00    -0.444 C  
ENDBRANCH  15  18
ENDBRANCH   2   3
TORSDOF 2
ENDMDL
MODEL       23
REMARK 921   NORMALIZED FREE ENERGY PREDICTED BY IDOCK:   -6.35 KCAL/MOL
REMARK 922        TOTAL FREE ENERGY PREDICTED BY IDOCK:   -7.56 KCAL/MOL
REMARK 923 INTER-LIGAND FREE ENERGY PREDICTED BY IDOCK:   -7.29 KCAL/MOL
REMARK 924 INTRA-LIGAND FREE ENERGY PREDICTED BY IDOCK:   -0.27 KCAL/MOL
REMARK 927      BINDING AFFINITY PREDICTED BY RF-SCORE:    0.00 PKD
ROOT
HETATM    1  C   UNL     1     -10.401   8.265  67.160  1.00  0.00    -0.387 C  
HETATM    2  C   UNL     1     -10.037   9.731  67.349  1.00  0.00    -0.208 C  
ENDROOT
BRANCH   2   3
HETATM    3  N   UNL     1     -10.832  10.334  68.425  1.00  0.00    -0.229 NA 
HETATM    4  C   UNL     1     -11.245   9.627  69.541  1.00  0.00    -0.109 C  
HETATM    5  C   UNL     1     -11.965  10.116  70.560  1.00  0.00    -0.400 C  
HETATM    6  C   UNL     1     -12.341   9.231  71.682  1.00  0.00    -0.372 C  
HETATM    7  C   UNL     1     -12.346  11.541  70.474  1.00  0.00    -0.342 C  
HETATM    8  C   UNL     1     -11.910  12.318  69.296  1.00  0.00    -0.363 A  
HETATM    9  O   UNL     1     -13.011  12.055  71.372  1.00  0.00    -0.370 OA 
HETATM   10  O   UNL     1     -12.025   8.051  71.738  1.00  0.00    -0.275 OA 
HETATM   11  O   UNL     1     -13.069   9.828  72.650  1.00  0.00    -0.222 OA 
HETATM   12  C   UNL     1     -12.268  13.656  69.182  1.00  0.00    -0.265 A  
HETATM   13  C   UNL     1     -11.853  14.348  68.059  1.00  0.00    -0.325 A  
HETATM   14  F   UNL     1     -12.182  15.646  67.956  1.00  0.00    -0.164 F  
HETATM   15  C   UNL     1     -11.069  13.721  67.077  1.00  0.00    -0.302 A  
HETATM   16  C   UNL     1     -11.142  11.710  68.295  1.00  0.00    -0.234 A  
HETATM   17  N   UNL     1     -10.713  12.416  67.214  1.00  0.00    -0.226 NA 
BRANCH  15  18
HETATM   18  N   UNL     1     -10.619  14.432  65.978  1.00  0.00    -0.293 NA 
HETATM   19  C   UNL     1     -11.402  14.454  64.739  1.00  0.00    -0.388 C  
HETATM   20  C   UNL     1     -12.023  15.838  64.461  1.00  0.00    -0.060 C  
HETATM   21  N   UNL     1     -11.047  16.943  64.538  1.00  0.00    -1.120 NA 
HETATM   22  H   UNL     1     -11.465  17.849  64.326  1.00  0.00     0.000 HD 
HETATM   23  C   UNL     1     -10.406  16.915  65.864  1.00  0.00    -0.315 C  
HETATM   24  C   UNL     1      -9.711  15.570  66.187  1.00  0.00    -0.319 C  
ENDBRANCH  15  18
ENDBRANCH   2   3
TORSDOF 2
ENDMDL
MODEL       24
REMARK 921   NORMALIZED FREE ENERGY PREDICTED BY IDOCK:   -6.35 KCAL/MOL
REMARK 922        TOTAL FREE ENERGY PREDICTED BY IDOCK:   -7.56 KCAL/MOL
REMARK 923 INTER-LIGAND FREE ENERGY PREDICTED BY IDOCK:   -7.85 KCAL/MOL
REMARK 924 INTRA-LIGAND FREE ENERGY PREDICTED BY IDOCK:    0.30 KCAL/MOL
REMARK 927      BINDING AFFINITY PREDICTED BY RF-SCORE:    0.00 PKD
ROOT
HETATM    1  C   UNL     1     -12.395  14.022  65.883  1.00  0.00    -0.515 C  
HETATM    2  C   UNL     1     -11.118  13.843  66.691  1.00  0.00    -0.306 C  
ENDROOT
BRANCH   2   3
HETATM    3  N   UNL     1     -11.020  12.479  67.223  1.00  0.00    -0.252 NA 
HETATM    4  C   UNL     1     -10.433  11.439  66.522  1.00  0.00    -0.249 C  
HETATM    5  C   UNL     1     -10.306  10.175  66.950  1.00  0.00    -0.298 C  
HETATM    6  C   UNL     1      -9.662   9.170  66.079  1.00  0.00    -0.287 C  
HETATM    7  C   UNL     1     -10.844   9.876  68.293  1.00  0.00    -0.230 C  
HETATM    8  C   UNL     1     -11.469  10.971  69.063  1.00  0.00    -0.368 A  
HETATM    9  O   UNL     1     -10.767   8.736  68.747  1.00  0.00    -0.181 OA 
HETATM   10  O   UNL     1      -9.227   9.428  64.967  1.00  0.00    -0.241 OA 
HETATM   11  O   UNL     1      -9.592   7.930  66.609  1.00  0.00    -0.197 OA 
HETATM   12  C   UNL     1     -11.998  10.714  70.322  1.00  0.00    -0.425 A  
HETATM   13  C   UNL     1     -12.586  11.761  71.008  1.00  0.00    -0.310 A  
HETATM   14  F   UNL     1     -13.081  11.518  72.233  1.00  0.00    -0.587 F  
HETATM   15  C   UNL     1     -12.622  13.052  70.456  1.00  0.00    -0.147 A  
HETATM   16  C   UNL     1     -11.532  12.264  68.526  1.00  0.00    -0.303 A  
HETATM   17  N   UNL     1     -12.083  13.289  69.230  1.00  0.00    -0.281 NA 
BRANCH  15  18
HETATM   18  N   UNL     1     -13.172  14.104  71.167  1.00  0.00    -0.327 NA 
HETATM   19  C   UNL     1     -13.568  13.924  72.567  1.00  0.00    -0.576 C  
HETATM   20  C   UNL     1     -12.658  14.702  73.540  1.00  0.00    -0.332 C  
HETATM   21  N   UNL     1     -12.489  16.122  73.173  1.00  0.00    -0.496 NA 
HETATM   22  H   UNL     1     -11.907  16.631  73.839  1.00  0.00     0.000 HD 
HETATM   23  C   UNL     1     -11.967  16.196  71.798  1.00  0.00    -0.489 C  
HETATM   24  C   UNL     1     -12.864  15.482  70.757  1.00  0.00    -0.458 C  
ENDBRANCH  15  18
ENDBRANCH   2   3
TORSDOF 2
ENDMDL
MODEL       25
REMARK 921   NORMALIZED FREE ENERGY PREDICTED BY IDOCK:   -6.31 KCAL/MOL
REMARK 922        TOTAL FREE ENERGY PREDICTED BY IDOCK:   -7.52 KCAL/MOL
REMARK 923 INTER-LIGAND FREE ENERGY PREDICTED BY IDOCK:   -7.05 KCAL/MOL
REMARK 924 INTRA-LIGAND FREE ENERGY PREDICTED BY IDOCK:   -0.46 KCAL/MOL
REMARK 927      BINDING AFFINITY PREDICTED BY RF-SCORE:    0.00 PKD
ROOT
HETATM    1  C   UNL     1     -10.800  11.100  66.828  1.00  0.00    -0.322 C  
HETATM    2  C   UNL     1     -10.129  11.231  68.188  1.00  0.00    -0.182 C  
ENDROOT
BRANCH   2   3
HETATM    3  N   UNL     1     -11.037  11.842  69.164  1.00  0.00    -0.238 NA 
HETATM    4  C   UNL     1     -11.353  13.191  69.156  1.00  0.00    -0.281 C  
HETATM    5  C   UNL     1     -12.176  13.812  70.012  1.00  0.00    -0.407 C  
HETATM    6  C   UNL     1     -12.407  15.265  69.881  1.00  0.00    -0.288 C  
HETATM    7  C   UNL     1     -12.800  12.970  71.054  1.00  0.00    -0.198 C  
HETATM    8  C   UNL     1     -12.485  11.528  71.079  1.00  0.00    -0.458 A  
HETATM    9  O   UNL     1     -13.563  13.474  71.876  1.00  0.00    -0.406 OA 
HETATM   10  O   UNL     1     -11.880  15.952  69.018  1.00  0.00    -0.389 OA 
HETATM   11  O   UNL     1     -13.250  15.785  70.798  1.00  0.00    -0.542 OA 
HETATM   12  C   UNL     1     -13.044  10.716  72.058  1.00  0.00    -0.501 A  
HETATM   13  C   UNL     1     -12.715   9.372  72.058  1.00  0.00    -0.403 A  
HETATM   14  F   UNL     1     -13.271   8.584  72.992  1.00  0.00    -0.264 F  
HETATM   15  C   UNL     1     -11.862   8.842  71.077  1.00  0.00    -0.276 A  
HETATM   16  C   UNL     1     -11.621  10.978  70.121  1.00  0.00    -0.334 A  
HETATM   17  N   UNL     1     -11.338   9.648  70.115  1.00  0.00    -0.243 NA 
BRANCH  15  18
HETATM   18  N   UNL     1     -11.574   7.488  71.056  1.00  0.00    -0.279 NA 
HETATM   19  C   UNL     1     -11.784   6.707  69.833  1.00  0.00    -0.270 C  
HETATM   20  C   UNL     1     -10.457   6.252  69.191  1.00  0.00    -0.239 C  
HETATM   21  N   UNL     1      -9.545   5.588  70.143  1.00  0.00    -0.162 NA 
HETATM   22  H   UNL     1      -8.684   5.269  69.700  1.00  0.00     0.000 HD 
HETATM   23  C   UNL     1      -9.293   6.501  71.271  1.00  0.00    -0.155 C  
HETATM   24  C   UNL     1     -10.582   6.953  72.000  1.00  0.00    -0.212 C  
ENDBRANCH  15  18
ENDBRANCH   2   3
TORSDOF 2
ENDMDL
MODEL       26
REMARK 921   NORMALIZED FREE ENERGY PREDICTED BY IDOCK:   -6.30 KCAL/MOL
REMARK 922        TOTAL FREE ENERGY PREDICTED BY IDOCK:   -7.50 KCAL/MOL
REMARK 923 INTER-LIGAND FREE ENERGY PREDICTED BY IDOCK:   -7.14 KCAL/MOL
REMARK 924 INTRA-LIGAND FREE ENERGY PREDICTED BY IDOCK:   -0.36 KCAL/MOL
REMARK 927      BINDING AFFINITY PREDICTED BY RF-SCORE:    0.00 PKD
ROOT
HETATM    1  C   UNL     1      -8.632  13.848  68.389  1.00  0.00    -0.169 C  
HETATM    2  C   UNL     1      -8.140  14.750  67.266  1.00  0.00    -0.207 C  
ENDROOT
BRANCH   2   3
HETATM    3  N   UNL     1      -9.241  15.121  66.371  1.00  0.00    -0.285 NA 
HETATM    4  C   UNL     1      -9.930  14.197  65.603  1.00  0.00    -0.306 C  
HETATM    5  C   UNL     1     -10.946  14.467  64.771  1.00  0.00    -0.409 C  
HETATM    6  C   UNL     1     -11.577  13.371  64.008  1.00  0.00    -0.385 C  
HETATM    7  C   UNL     1     -11.361  15.881  64.674  1.00  0.00    -0.322 C  
HETATM    8  C   UNL     1     -10.646  16.885  65.489  1.00  0.00    -0.215 A  
HETATM    9  O   UNL     1     -12.283  16.202  63.926  1.00  0.00    -0.935 OA 
HETATM   10  O   UNL     1     -11.220  12.205  64.092  1.00  0.00    -0.318 OA 
HETATM   11  O   UNL     1     -12.586  13.757  63.198  1.00  0.00    -0.793 OA 
HETATM   12  C   UNL     1     -11.004  18.224  65.404  1.00  0.00     0.452 A  
HETATM   13  C   UNL     1     -10.303  19.137  66.172  1.00  0.00    -0.484 A  
HETATM   14  F   UNL     1     -10.662  20.429  66.105  1.00  0.00    -0.415 F  
HETATM   15  C   UNL     1      -9.278  18.713  67.032  1.00  0.00    -0.291 A  
HETATM   16  C   UNL     1      -9.607  16.489  66.341  1.00  0.00    -0.285 A  
HETATM   17  N   UNL     1      -8.952  17.396  67.116  1.00  0.00    -0.235 NA 
BRANCH  15  18
HETATM   18  N   UNL     1      -8.612  19.626  67.832  1.00  0.00    -0.313 NA 
HETATM   19  C   UNL     1      -8.237  19.271  69.205  1.00  0.00    -0.148 C  
HETATM   20  C   UNL     1      -6.711  19.117  69.376  1.00  0.00    -0.281 C  
HETATM   21  N   UNL     1      -5.946  20.266  68.853  1.00  0.00    -0.294 NA 
HETATM   22  H   UNL     1      -4.941  20.163  68.996  1.00  0.00     0.000 HD 
HETATM   23  C   UNL     1      -6.295  20.461  67.436  1.00  0.00    -0.223 C  
HETATM   24  C   UNL     1      -7.809  20.681  67.197  1.00  0.00    -0.280 C  
ENDBRANCH  15  18
ENDBRANCH   2   3
TORSDOF 2
ENDMDL
MODEL       27
REMARK 921   NORMALIZED FREE ENERGY PREDICTED BY IDOCK:   -6.29 KCAL/MOL
REMARK 922        TOTAL FREE ENERGY PREDICTED BY IDOCK:   -7.49 KCAL/MOL
REMARK 923 INTER-LIGAND FREE ENERGY PREDICTED BY IDOCK:   -7.02 KCAL/MOL
REMARK 924 INTRA-LIGAND FREE ENERGY PREDICTED BY IDOCK:   -0.47 KCAL/MOL
REMARK 927      BINDING AFFINITY PREDICTED BY RF-SCORE:    0.00 PKD
ROOT
HETATM    1  C   UNL     1     -13.862   9.143  72.222  1.00  0.00    -0.527 C  
HETATM    2  C   UNL     1     -12.406   9.474  71.929  1.00  0.00    -0.373 C  
ENDROOT
BRANCH   2   3
HETATM    3  N   UNL     1     -12.290  10.758  71.228  1.00  0.00    -0.370 NA 
HETATM    4  C   UNL     1     -12.837  11.932  71.716  1.00  0.00    -0.284 C  
HETATM    5  C   UNL     1     -12.765  13.137  71.132  1.00  0.00    -0.386 C  
HETATM    6  C   UNL     1     -13.411  14.300  71.772  1.00  0.00    -0.371 C  
HETATM    7  C   UNL     1     -12.031  13.204  69.851  1.00  0.00    -0.317 C  
HETATM    8  C   UNL     1     -11.432  11.965  69.314  1.00  0.00    -0.366 A  
HETATM    9  O   UNL     1     -11.929  14.276  69.257  1.00  0.00    -0.310 OA 
HETATM   10  O   UNL     1     -14.021  14.230  72.829  1.00  0.00    -0.600 OA 
HETATM   11  O   UNL     1     -13.278  15.461  71.094  1.00  0.00    -0.462 OA 
HETATM   12  C   UNL     1     -10.751  11.997  68.103  1.00  0.00    -0.246 A  
HETATM   13  C   UNL     1     -10.215  10.815  67.626  1.00  0.00    -0.189 A  
HETATM   14  F   UNL     1      -9.540  10.849  66.465  1.00  0.00    -0.196 F  
HETATM   15  C   UNL     1     -10.335   9.624  68.359  1.00  0.00    -0.204 A  
HETATM   16  C   UNL     1     -11.554  10.761  70.019  1.00  0.00    -0.334 A  
HETATM   17  N   UNL     1     -10.989   9.615  69.550  1.00  0.00    -0.229 NA 
BRANCH  15  18
HETATM   18  N   UNL     1      -9.756   8.454  67.897  1.00  0.00    -0.153 NA 
HETATM   19  C   UNL     1      -8.841   7.693  68.753  1.00  0.00    -0.131 C  
HETATM   20  C   UNL     1      -9.445   6.349  69.210  1.00  0.00    -0.135 C  
HETATM   21  N   UNL     1      -9.988   5.545  68.098  1.00  0.00    -0.144 NA 
HETATM   22  H   UNL     1     -10.360   4.648  68.411  1.00  0.00     0.000 HD 
HETATM   23  C   UNL     1     -10.990   6.350  67.378  1.00  0.00    -0.376 C  
HETATM   24  C   UNL     1     -10.435   7.691  66.840  1.00  0.00    -0.318 C  
ENDBRANCH  15  18
ENDBRANCH   2   3
TORSDOF 2
ENDMDL
MODEL       28
REMARK 921   NORMALIZED FREE ENERGY PREDICTED BY IDOCK:   -6.25 KCAL/MOL
REMARK 922        TOTAL FREE ENERGY PREDICTED BY IDOCK:   -7.45 KCAL/MOL
REMARK 923 INTER-LIGAND FREE ENERGY PREDICTED BY IDOCK:   -7.01 KCAL/MOL
REMARK 924 INTRA-LIGAND FREE ENERGY PREDICTED BY IDOCK:   -0.44 KCAL/MOL
REMARK 927      BINDING AFFINITY PREDICTED BY RF-SCORE:    0.00 PKD
ROOT
HETATM    1  C   UNL     1      -9.124   9.605  64.569  1.00  0.00    -0.287 C  
HETATM    2  C   UNL     1      -9.507   9.314  66.013  1.00  0.00    -0.247 C  
ENDROOT
BRANCH   2   3
HETATM    3  N   UNL     1     -10.199  10.459  66.613  1.00  0.00    -0.227 NA 
HETATM    4  C   UNL     1     -10.435  11.639  65.928  1.00  0.00    -0.255 C  
HETATM    5  C   UNL     1     -11.064  12.719  66.413  1.00  0.00    -0.320 C  
HETATM    6  C   UNL     1     -11.231  13.913  65.559  1.00  0.00    -0.307 C  
HETATM    7  C   UNL     1     -11.546  12.630  67.806  1.00  0.00    -0.348 C  
HETATM    8  C   UNL     1     -11.313  11.378  68.556  1.00  0.00    -0.333 A  
HETATM    9  O   UNL     1     -12.128  13.585  68.318  1.00  0.00    -0.354 OA 
HETATM   10  O   UNL     1     -10.821  13.976  64.409  1.00  0.00    -0.374 OA 
HETATM   11  O   UNL     1     -11.875  14.941  66.151  1.00  0.00    -0.256 OA 
HETATM   12  C   UNL     1     -11.742  11.274  69.873  1.00  0.00    -0.430 A  
HETATM   13  C   UNL     1     -11.495  10.091  70.547  1.00  0.00    -0.330 A  
HETATM   14  F   UNL     1     -11.926   9.982  71.815  1.00  0.00    -0.443 F  
HETATM   15  C   UNL     1     -10.852   9.020  69.906  1.00  0.00    -0.218 A  
HETATM   16  C   UNL     1     -10.659  10.301  67.943  1.00  0.00    -0.239 A  
HETATM   17  N   UNL     1     -10.456   9.134  68.611  1.00  0.00    -0.216 NA 
BRANCH  15  18
HETATM   18  N   UNL     1     -10.649   7.824  70.573  1.00  0.00    -0.222 NA 
HETATM   19  C   UNL     1      -9.663   7.738  71.654  1.00  0.00    -0.163 C  
HETATM   20  C   UNL     1     -10.321   7.550  73.037  1.00  0.00    -0.322 C  
HETATM   21  N   UNL     1     -11.304   6.449  73.071  1.00  0.00    -0.462 NA 
HETATM   22  H   UNL     1     -11.712   6.319  73.997  1.00  0.00     0.000 HD 
HETATM   23  C   UNL     1     -12.323   6.693  72.036  1.00  0.00    -0.272 C  
HETATM   24  C   UNL     1     -11.735   6.833  70.610  1.00  0.00    -0.386 C  
ENDBRANCH  15  18
ENDBRANCH   2   3
TORSDOF 2
ENDMDL
MODEL       29
REMARK 921   NORMALIZED FREE ENERGY PREDICTED BY IDOCK:   -6.21 KCAL/MOL
REMARK 922        TOTAL FREE ENERGY PREDICTED BY IDOCK:   -7.40 KCAL/MOL
REMARK 923 INTER-LIGAND FREE ENERGY PREDICTED BY IDOCK:   -7.55 KCAL/MOL
REMARK 924 INTRA-LIGAND FREE ENERGY PREDICTED BY IDOCK:    0.15 KCAL/MOL
REMARK 927      BINDING AFFINITY PREDICTED BY RF-SCORE:    0.00 PKD
ROOT
HETATM    1  C   UNL     1      -6.670  14.773  69.220  1.00  0.00    -0.137 C  
HETATM    2  C   UNL     1      -8.172  14.761  68.976  1.00  0.00    -0.141 C  
ENDROOT
BRANCH   2   3
HETATM    3  N   UNL     1      -8.589  15.942  68.212  1.00  0.00    -0.172 NA 
HETATM    4  C   UNL     1      -8.155  17.223  68.512  1.00  0.00    -0.262 C  
HETATM    5  C   UNL     1      -8.491  18.342  67.854  1.00  0.00    -0.263 C  
HETATM    6  C   UNL     1      -7.953  19.642  68.302  1.00  0.00    -0.321 C  
HETATM    7  C   UNL     1      -9.406  18.181  66.706  1.00  0.00    -0.286 C  
HETATM    8  C   UNL     1      -9.877  16.824  66.362  1.00  0.00    -0.312 A  
HETATM    9  O   UNL     1      -9.761  19.165  66.060  1.00  0.00    -0.426 OA 
HETATM   10  O   UNL     1      -7.202  19.763  69.258  1.00  0.00    -0.340 OA 
HETATM   11  O   UNL     1      -8.361  20.701  67.569  1.00  0.00    -0.297 OA 
HETATM   12  C   UNL     1     -10.752  16.646  65.297  1.00  0.00    -0.219 A  
HETATM   13  C   UNL     1     -11.180  15.362  65.013  1.00  0.00    -0.387 A  
HETATM   14  F   UNL     1     -12.011  15.187  63.972  1.00  0.00    -0.393 F  
HETATM   15  C   UNL     1     -10.722  14.268  65.765  1.00  0.00    -0.305 A  
HETATM   16  C   UNL     1      -9.447  15.718  67.108  1.00  0.00    -0.213 A  
HETATM   17  N   UNL     1      -9.852  14.459  66.792  1.00  0.00    -0.256 NA 
BRANCH  15  18
HETATM   18  N   UNL     1     -11.119  12.981  65.446  1.00  0.00    -0.273 NA 
HETATM   19  C   UNL     1     -12.479  12.726  64.959  1.00  0.00    -0.506 C  
HETATM   20  C   UNL     1     -12.503  12.317  63.472  1.00  0.00    -0.534 C  
HETATM   21  N   UNL     1     -11.567  11.221  63.153  1.00  0.00    -0.806 NA 
HETATM   22  H   UNL     1     -11.612  10.942  62.173  1.00  0.00     0.000 HD 
HETATM   23  C   UNL     1     -10.210  11.623  63.562  1.00  0.00    -0.436 C  
HETATM   24  C   UNL     1     -10.101  11.994  65.061  1.00  0.00    -0.264 C  
ENDBRANCH  15  18
ENDBRANCH   2   3
TORSDOF 2
ENDMDL
MODEL       30
REMARK 921   NORMALIZED FREE ENERGY PREDICTED BY IDOCK:   -6.20 KCAL/MOL
REMARK 922        TOTAL FREE ENERGY PREDICTED BY IDOCK:   -7.39 KCAL/MOL
REMARK 923 INTER-LIGAND FREE ENERGY PREDICTED BY IDOCK:   -7.03 KCAL/MOL
REMARK 924 INTRA-LIGAND FREE ENERGY PREDICTED BY IDOCK:   -0.36 KCAL/MOL
REMARK 927      BINDING AFFINITY PREDICTED BY RF-SCORE:    0.00 PKD
ROOT
HETATM    1  C   UNL     1     -11.869  15.275  69.334  1.00  0.00    -0.367 C  
HETATM    2  C   UNL     1     -12.043  13.781  69.567  1.00  0.00    -0.334 C  
ENDROOT
BRANCH   2   3
HETATM    3  N   UNL     1     -11.557  13.010  68.418  1.00  0.00    -0.312 NA 
HETATM    4  C   UNL     1     -11.328  13.577  67.175  1.00  0.00    -0.321 C  
HETATM    5  C   UNL     1     -10.880  12.934  66.087  1.00  0.00    -0.300 C  
HETATM    6  C   UNL     1     -10.695  13.676  64.824  1.00  0.00    -0.410 C  
HETATM    7  C   UNL     1     -10.609  11.490  66.241  1.00  0.00    -0.263 C  
HETATM    8  C   UNL     1     -10.839  10.864  67.559  1.00  0.00    -0.324 A  
HETATM    9  O   UNL     1     -10.201  10.836  65.282  1.00  0.00    -0.271 OA 
HETATM   10  O   UNL     1     -10.929  14.870  64.708  1.00  0.00    -0.390 OA 
HETATM   11  O   UNL     1     -10.244  12.929  63.793  1.00  0.00    -0.378 OA 
HETATM   12  C   UNL     1     -10.608   9.504  67.726  1.00  0.00    -0.318 A  
HETATM   13  C   UNL     1     -10.847   8.951  68.971  1.00  0.00    -0.046 A  
HETATM   14  F   UNL     1     -10.606   7.640  69.139  1.00  0.00    -0.210 F  
HETATM   15  C   UNL     1     -11.284   9.749  70.040  1.00  0.00    -0.251 A  
HETATM   16  C   UNL     1     -11.292  11.636  68.636  1.00  0.00    -0.267 A  
HETATM   17  N   UNL     1     -11.488  11.081  69.863  1.00  0.00    -0.298 NA 
BRANCH  15  18
HETATM   18  N   UNL     1     -11.477   9.197  71.295  1.00  0.00    -0.306 NA 
HETATM   19  C   UNL     1     -12.764   8.589  71.646  1.00  0.00    -0.332 C  
HETATM   20  C   UNL     1     -12.670   7.056  71.792  1.00  0.00    -0.340 C  
HETATM   21  N   UNL     1     -11.572   6.621  72.678  1.00  0.00    -0.456 NA 
HETATM   22  H   UNL     1     -11.537   5.607  72.787  1.00  0.00     0.000 HD 
HETATM   23  C   UNL     1     -10.306   7.177  72.170  1.00  0.00    -0.195 C  
HETATM   24  C   UNL     1     -10.311   8.720  72.053  1.00  0.00    -0.340 C  
ENDBRANCH  15  18
ENDBRANCH   2   3
TORSDOF 2
ENDMDL
MODEL       31
REMARK 921   NORMALIZED FREE ENERGY PREDICTED BY IDOCK:   -6.20 KCAL/MOL
REMARK 922        TOTAL FREE ENERGY PREDICTED BY IDOCK:   -7.39 KCAL/MOL
REMARK 923 INTER-LIGAND FREE ENERGY PREDICTED BY IDOCK:   -6.96 KCAL/MOL
REMARK 924 INTRA-LIGAND FREE ENERGY PREDICTED BY IDOCK:   -0.42 KCAL/MOL
REMARK 927      BINDING AFFINITY PREDICTED BY RF-SCORE:    0.00 PKD
ROOT
HETATM    1  C   UNL     1     -13.341  10.017  71.824  1.00  0.00    -0.492 C  
HETATM    2  C   UNL     1     -12.429  10.786  70.879  1.00  0.00    -0.402 C  
ENDROOT
BRANCH   2   3
HETATM    3  N   UNL     1     -11.601   9.870  70.086  1.00  0.00    -0.243 NA 
HETATM    4  C   UNL     1     -11.190   8.633  70.555  1.00  0.00    -0.241 C  
HETATM    5  C   UNL     1     -10.440   7.747  69.884  1.00  0.00    -0.232 C  
HETATM    6  C   UNL     1     -10.071   6.468  70.524  1.00  0.00    -0.185 C  
HETATM    7  C   UNL     1     -10.022   8.136  68.521  1.00  0.00    -0.190 C  
HETATM    8  C   UNL     1     -10.455   9.447  67.997  1.00  0.00    -0.278 A  
HETATM    9  O   UNL     1      -9.328   7.374  67.850  1.00  0.00    -0.134 OA 
HETATM   10  O   UNL     1     -10.418   6.161  71.655  1.00  0.00    -0.211 OA 
HETATM   11  O   UNL     1      -9.312   5.655  69.759  1.00  0.00    -0.137 OA 
HETATM   12  C   UNL     1     -10.062   9.845  66.725  1.00  0.00    -0.292 A  
HETATM   13  C   UNL     1     -10.476  11.085  66.272  1.00  0.00    -0.254 A  
HETATM   14  F   UNL     1     -10.113  11.462  65.035  1.00  0.00    -0.254 F  
HETATM   15  C   UNL     1     -11.292  11.904  67.068  1.00  0.00    -0.329 A  
HETATM   16  C   UNL     1     -11.255  10.290  68.779  1.00  0.00    -0.206 A  
HETATM   17  N   UNL     1     -11.682  11.491  68.304  1.00  0.00    -0.474 NA 
BRANCH  15  18
HETATM   18  N   UNL     1     -11.741  13.124  66.591  1.00  0.00    -0.356 NA 
HETATM   19  C   UNL     1     -10.887  14.313  66.682  1.00  0.00    -0.301 C  
HETATM   20  C   UNL     1     -10.388  14.785  65.301  1.00  0.00    -0.398 C  
HETATM   21  N   UNL     1     -11.471  14.934  64.309  1.00  0.00    -0.649 NA 
HETATM   22  H   UNL     1     -11.131  15.272  63.408  1.00  0.00     0.000 HD 
HETATM   23  C   UNL     1     -12.187  13.652  64.195  1.00  0.00    -0.399 C  
HETATM   24  C   UNL     1     -12.766  13.146  65.538  1.00  0.00    -0.304 C  
ENDBRANCH  15  18
ENDBRANCH   2   3
TORSDOF 2
ENDMDL
MODEL       32
REMARK 921   NORMALIZED FREE ENERGY PREDICTED BY IDOCK:   -6.19 KCAL/MOL
REMARK 922        TOTAL FREE ENERGY PREDICTED BY IDOCK:   -7.38 KCAL/MOL
REMARK 923 INTER-LIGAND FREE ENERGY PREDICTED BY IDOCK:   -6.95 KCAL/MOL
REMARK 924 INTRA-LIGAND FREE ENERGY PREDICTED BY IDOCK:   -0.43 KCAL/MOL
REMARK 927      BINDING AFFINITY PREDICTED BY RF-SCORE:    0.00 PKD
ROOT
HETATM    1  C   UNL     1     -12.028  15.802  72.406  1.00  0.00    -0.600 C  
HETATM    2  C   UNL     1     -12.342  14.523  71.645  1.00  0.00    -0.350 C  
ENDROOT
BRANCH   2   3
HETATM    3  N   UNL     1     -11.824  14.587  70.274  1.00  0.00    -0.291 NA 
HETATM    4  C   UNL     1     -11.441  15.773  69.670  1.00  0.00    -0.346 C  
HETATM    5  C   UNL     1     -10.956  15.902  68.427  1.00  0.00    -0.331 C  
HETATM    6  C   UNL     1     -10.600  17.242  67.917  1.00  0.00    -0.384 C  
HETATM    7  C   UNL     1     -10.822  14.660  67.640  1.00  0.00    -0.284 C  
HETATM    8  C   UNL     1     -11.217  13.381  68.265  1.00  0.00    -0.310 A  
HETATM    9  O   UNL     1     -10.389  14.704  66.490  1.00  0.00    -0.272 OA 
HETATM   10  O   UNL     1     -10.722  18.264  68.576  1.00  0.00    -0.181 OA 
HETATM   11  O   UNL     1     -10.126  17.254  66.653  1.00  0.00    -0.280 OA 
HETATM   12  C   UNL     1     -11.117  12.199  67.542  1.00  0.00    -0.328 A  
HETATM   13  C   UNL     1     -11.508  11.023  68.156  1.00  0.00    -0.302 A  
HETATM   14  F   UNL     1     -11.393   9.878  67.464  1.00  0.00    -0.335 F  
HETATM   15  C   UNL     1     -11.968  11.024  69.482  1.00  0.00    -0.342 A  
HETATM   16  C   UNL     1     -11.696  13.359  69.582  1.00  0.00    -0.310 A  
HETATM   17  N   UNL     1     -12.043  12.188  70.181  1.00  0.00    -0.319 NA 
BRANCH  15  18
HETATM   18  N   UNL     1     -12.315   9.838  70.105  1.00  0.00     0.067 NA 
HETATM   19  C   UNL     1     -11.276   8.894  70.530  1.00  0.00    -0.252 C  
HETATM   20  C   UNL     1     -11.150   8.811  72.065  1.00  0.00    -0.371 C  
HETATM   21  N   UNL     1     -12.440   8.585  72.746  1.00  0.00    -0.563 NA 
HETATM   22  H   UNL     1     -12.339   8.505  73.758  1.00  0.00     0.000 HD 
HETATM   23  C   UNL     1     -13.375   9.654  72.356  1.00  0.00    -0.338 C  
HETATM   24  C   UNL     1     -13.594   9.757  70.827  1.00  0.00     0.069 C  
ENDBRANCH  15  18
ENDBRANCH   2   3
TORSDOF 2
ENDMDL
MODEL       33
REMARK 921   NORMALIZED FREE ENERGY PREDICTED BY IDOCK:   -6.19 KCAL/MOL
REMARK 922        TOTAL FREE ENERGY PREDICTED BY IDOCK:   -7.38 KCAL/MOL
REMARK 923 INTER-LIGAND FREE ENERGY PREDICTED BY IDOCK:   -7.07 KCAL/MOL
REMARK 924 INTRA-LIGAND FREE ENERGY PREDICTED BY IDOCK:   -0.31 KCAL/MOL
REMARK 927      BINDING AFFINITY PREDICTED BY RF-SCORE:    0.00 PKD
ROOT
HETATM    1  C   UNL     1     -10.769  19.599  67.262  1.00  0.00    -0.583 C  
HETATM    2  C   UNL     1     -10.097  19.144  65.975  1.00  0.00    -0.373 C  
ENDROOT
BRANCH   2   3
HETATM    3  N   UNL     1      -9.940  17.686  65.952  1.00  0.00    -0.553 NA 
HETATM    4  C   UNL     1     -10.843  16.842  65.327  1.00  0.00    -0.138 C  
HETATM    5  C   UNL     1     -10.757  15.505  65.264  1.00  0.00    -0.440 C  
HETATM    6  C   UNL     1     -11.809  14.737  64.567  1.00  0.00    -0.419 C  
HETATM    7  C   UNL     1      -9.588  14.888  65.923  1.00  0.00    -0.308 C  
HETATM    8  C   UNL     1      -8.607  15.768  66.589  1.00  0.00    -0.322 A  
HETATM    9  O   UNL     1      -9.448  13.666  65.909  1.00  0.00    -0.172 OA 
HETATM   10  O   UNL     1     -12.776  15.259  64.032  1.00  0.00    -0.710 OA 
HETATM   11  O   UNL     1     -11.624  13.400  64.569  1.00  0.00    -0.342 OA 
HETATM   12  C   UNL     1      -7.507  15.213  67.231  1.00  0.00    -0.228 A  
HETATM   13  C   UNL     1      -6.616  16.068  67.856  1.00  0.00    -0.144 A  
HETATM   14  F   UNL     1      -5.542  15.534  68.460  1.00  0.00    -0.089 F  
HETATM   15  C   UNL     1      -6.808  17.458  67.817  1.00  0.00    -0.166 A  
HETATM   16  C   UNL     1      -8.785  17.158  66.579  1.00  0.00    -0.261 A  
HETATM   17  N   UNL     1      -7.880  17.985  67.169  1.00  0.00    -0.213 NA 
BRANCH  15  18
HETATM   18  N   UNL     1      -5.888  18.310  68.405  1.00  0.00    -0.181 NA 
HETATM   19  C   UNL     1      -5.331  19.434  67.646  1.00  0.00    -0.171 C  
HETATM   20  C   UNL     1      -5.827  20.798  68.168  1.00  0.00    -0.317 C  
HETATM   21  N   UNL     1      -5.668  20.959  69.626  1.00  0.00    -0.412 NA 
HETATM   22  H   UNL     1      -5.976  21.875  69.954  1.00  0.00     0.000 HD 
HETATM   23  C   UNL     1      -6.370  19.854  70.303  1.00  0.00    -0.293 C  
HETATM   24  C   UNL     1      -5.879  18.452  69.868  1.00  0.00    -0.234 C  
ENDBRANCH  15  18
ENDBRANCH   2   3
TORSDOF 2
ENDMDL
MODEL       34
REMARK 921   NORMALIZED FREE ENERGY PREDICTED BY IDOCK:   -6.18 KCAL/MOL
REMARK 922        TOTAL FREE ENERGY PREDICTED BY IDOCK:   -7.37 KCAL/MOL
REMARK 923 INTER-LIGAND FREE ENERGY PREDICTED BY IDOCK:   -7.30 KCAL/MOL
REMARK 924 INTRA-LIGAND FREE ENERGY PREDICTED BY IDOCK:   -0.06 KCAL/MOL
REMARK 927      BINDING AFFINITY PREDICTED BY RF-SCORE:    0.00 PKD
ROOT
HETATM    1  C   UNL     1     -11.005  12.434  64.881  1.00  0.00    -0.341 C  
HETATM    2  C   UNL     1     -10.859  11.982  66.327  1.00  0.00    -0.279 C  
ENDROOT
BRANCH   2   3
HETATM    3  N   UNL     1     -11.061  13.103  67.251  1.00  0.00    -0.271 NA 
HETATM    4  C   UNL     1     -10.818  14.420  66.899  1.00  0.00    -0.301 C  
HETATM    5  C   UNL     1     -10.986  15.490  67.689  1.00  0.00    -0.315 C  
HETATM    6  C   UNL     1     -10.672  16.837  67.172  1.00  0.00    -0.189 C  
HETATM    7  C   UNL     1     -11.479  15.228  69.056  1.00  0.00    -0.324 C  
HETATM    8  C   UNL     1     -11.753  13.832  69.453  1.00  0.00    -0.379 A  
HETATM    9  O   UNL     1     -11.652  16.162  69.837  1.00  0.00    -0.316 OA 
HETATM   10  O   UNL     1     -10.258  17.041  66.040  1.00  0.00    -0.346 OA 
HETATM   11  O   UNL     1     -10.875  17.840  68.054  1.00  0.00    -0.354 OA 
HETATM   12  C   UNL     1     -12.201  13.555  70.739  1.00  0.00    -0.417 A  
HETATM   13  C   UNL     1     -12.435  12.235  71.078  1.00  0.00    -0.263 A  
HETATM   14  F   UNL     1     -12.887  11.968  72.314  1.00  0.00    -0.414 F  
HETATM   15  C   UNL     1     -12.250  11.208  70.138  1.00  0.00    -0.337 A  
HETATM   16  C   UNL     1     -11.559  12.788  68.538  1.00  0.00    -0.321 A  
HETATM   17  N   UNL     1     -11.828  11.499  68.879  1.00  0.00    -0.334 NA 
BRANCH  15  18
HETATM   18  N   UNL     1     -12.530   9.894  70.471  1.00  0.00    -0.175 NA 
HETATM   19  C   UNL     1     -11.442   8.964  70.791  1.00  0.00    -0.275 C  
HETATM   20  C   UNL     1     -11.427   8.568  72.282  1.00  0.00    -0.375 C  
HETATM   21  N   UNL     1     -12.739   8.105  72.776  1.00  0.00    -0.591 NA 
HETATM   22  H   UNL     1     -12.709   7.822  73.755  1.00  0.00     0.000 HD 
HETATM   23  C   UNL     1     -13.738   9.158  72.525  1.00  0.00    -0.435 C  
HETATM   24  C   UNL     1     -13.847   9.565  71.035  1.00  0.00     0.050 C  
ENDBRANCH  15  18
ENDBRANCH   2   3
TORSDOF 2
ENDMDL
MODEL       35
REMARK 921   NORMALIZED FREE ENERGY PREDICTED BY IDOCK:   -6.17 KCAL/MOL
REMARK 922        TOTAL FREE ENERGY PREDICTED BY IDOCK:   -7.36 KCAL/MOL
REMARK 923 INTER-LIGAND FREE ENERGY PREDICTED BY IDOCK:   -6.88 KCAL/MOL
REMARK 924 INTRA-LIGAND FREE ENERGY PREDICTED BY IDOCK:   -0.48 KCAL/MOL
REMARK 927      BINDING AFFINITY PREDICTED BY RF-SCORE:    0.00 PKD
ROOT
HETATM    1  C   UNL     1     -12.722  12.035  63.308  1.00  0.00    -0.437 C  
HETATM    2  C   UNL     1     -11.410  11.610  63.952  1.00  0.00    -0.371 C  
ENDROOT
BRANCH   2   3
HETATM    3  N   UNL     1     -10.876  12.676  64.808  1.00  0.00    -0.289 NA 
HETATM    4  C   UNL     1     -11.087  14.021  64.554  1.00  0.00    -0.351 C  
HETATM    5  C   UNL     1     -10.634  15.042  65.294  1.00  0.00    -0.418 C  
HETATM    6  C   UNL     1     -10.933  16.430  64.887  1.00  0.00    -0.263 C  
HETATM    7  C   UNL     1      -9.842  14.688  66.490  1.00  0.00    -0.275 C  
HETATM    8  C   UNL     1      -9.610  13.260  66.787  1.00  0.00    -0.258 A  
HETATM    9  O   UNL     1      -9.391  15.575  67.213  1.00  0.00    -0.207 OA 
HETATM   10  O   UNL     1     -11.584  16.710  63.891  1.00  0.00    -1.204 OA 
HETATM   11  O   UNL     1     -10.425  17.378  65.703  1.00  0.00    -0.577 OA 
HETATM   12  C   UNL     1      -8.854  12.899  67.895  1.00  0.00    -0.190 A  
HETATM   13  C   UNL     1      -8.648  11.553  68.134  1.00  0.00    -0.156 A  
HETATM   14  F   UNL     1      -7.934  11.203  69.217  1.00  0.00    -0.139 F  
HETATM   15  C   UNL     1      -9.211  10.580  67.293  1.00  0.00    -0.143 A  
HETATM   16  C   UNL     1     -10.147  12.271  65.952  1.00  0.00    -0.251 A  
HETATM   17  N   UNL     1      -9.963  10.950  66.223  1.00  0.00    -0.219 NA 
BRANCH  15  18
HETATM   18  N   UNL     1      -9.039   9.233  67.564  1.00  0.00    -0.121 NA 
HETATM   19  C   UNL     1     -10.184   8.404  67.951  1.00  0.00    -0.217 C  
HETATM   20  C   UNL     1     -10.566   7.384  66.858  1.00  0.00    -0.305 C  
HETATM   21  N   UNL     1      -9.420   6.587  66.378  1.00  0.00    -0.254 NA 
HETATM   22  H   UNL     1      -9.691   5.898  65.675  1.00  0.00     0.000 HD 
HETATM   23  C   UNL     1      -8.376   7.505  65.892  1.00  0.00    -0.139 C  
HETATM   24  C   UNL     1      -7.903   8.522  66.959  1.00  0.00    -0.096 C  
ENDBRANCH  15  18
ENDBRANCH   2   3
TORSDOF 2
ENDMDL
MODEL       36
REMARK 921   NORMALIZED FREE ENERGY PREDICTED BY IDOCK:   -6.17 KCAL/MOL
REMARK 922        TOTAL FREE ENERGY PREDICTED BY IDOCK:   -7.36 KCAL/MOL
REMARK 923 INTER-LIGAND FREE ENERGY PREDICTED BY IDOCK:   -6.88 KCAL/MOL
REMARK 924 INTRA-LIGAND FREE ENERGY PREDICTED BY IDOCK:   -0.47 KCAL/MOL
REMARK 927      BINDING AFFINITY PREDICTED BY RF-SCORE:    0.00 PKD
ROOT
HETATM    1  C   UNL     1     -12.238  13.741  70.181  1.00  0.00    -0.425 C  
HETATM    2  C   UNL     1     -12.152  12.237  69.963  1.00  0.00    -0.273 C  
ENDROOT
BRANCH   2   3
HETATM    3  N   UNL     1     -11.660  11.930  68.615  1.00  0.00    -0.285 NA 
HETATM    4  C   UNL     1     -11.692  12.844  67.576  1.00  0.00    -0.367 C  
HETATM    5  C   UNL     1     -11.255  12.632  66.327  1.00  0.00    -0.354 C  
HETATM    6  C   UNL     1     -11.366  13.707  65.321  1.00  0.00    -0.296 C  
HETATM    7  C   UNL     1     -10.689  11.297  66.045  1.00  0.00    -0.242 C  
HETATM    8  C   UNL     1     -10.638  10.306  67.139  1.00  0.00    -0.320 A  
HETATM    9  O   UNL     1     -10.274  11.030  64.918  1.00  0.00    -0.271 OA 
HETATM   10  O   UNL     1     -11.842  14.806  65.564  1.00  0.00    -0.324 OA 
HETATM   11  O   UNL     1     -10.899  13.382  64.096  1.00  0.00    -0.390 OA 
HETATM   12  C   UNL     1     -10.126   9.037  66.898  1.00  0.00    -0.338 A  
HETATM   13  C   UNL     1     -10.106   8.132  67.943  1.00  0.00    -0.196 A  
HETATM   14  F   UNL     1      -9.594   6.911  67.715  1.00  0.00    -0.124 F  
HETATM   15  C   UNL     1     -10.566   8.497  69.219  1.00  0.00    -0.181 A  
HETATM   16  C   UNL     1     -11.107  10.641  68.416  1.00  0.00    -0.272 A  
HETATM   17  N   UNL     1     -11.047   9.749  69.442  1.00  0.00    -0.207 NA 
BRANCH  15  18
HETATM   18  N   UNL     1     -10.500   7.601  70.272  1.00  0.00    -0.219 NA 
HETATM   19  C   UNL     1      -9.669   7.895  71.443  1.00  0.00    -0.164 C  
HETATM   20  C   UNL     1     -10.510   8.185  72.703  1.00  0.00    -0.330 C  
HETATM   21  N   UNL     1     -11.532   7.155  72.972  1.00  0.00    -0.559 NA 
HETATM   22  H   UNL     1     -12.063   7.345  73.822  1.00  0.00     0.000 HD 
HETATM   23  C   UNL     1     -12.396   7.024  71.786  1.00  0.00    -0.354 C  
HETATM   24  C   UNL     1     -11.620   6.675  70.493  1.00  0.00    -0.390 C  
ENDBRANCH  15  18
ENDBRANCH   2   3
TORSDOF 2
ENDMDL
MODEL       37
REMARK 921   NORMALIZED FREE ENERGY PREDICTED BY IDOCK:   -6.17 KCAL/MOL
REMARK 922        TOTAL FREE ENERGY PREDICTED BY IDOCK:   -7.35 KCAL/MOL
REMARK 923 INTER-LIGAND FREE ENERGY PREDICTED BY IDOCK:   -6.94 KCAL/MOL
REMARK 924 INTRA-LIGAND FREE ENERGY PREDICTED BY IDOCK:   -0.42 KCAL/MOL
REMARK 927      BINDING AFFINITY PREDICTED BY RF-SCORE:    0.00 PKD
ROOT
HETATM    1  C   UNL     1     -10.358   9.370  66.815  1.00  0.00    -0.303 C  
HETATM    2  C   UNL     1      -9.849  10.033  68.087  1.00  0.00    -0.142 C  
ENDROOT
BRANCH   2   3
HETATM    3  N   UNL     1     -10.636   9.611  69.250  1.00  0.00    -0.213 NA 
HETATM    4  C   UNL     1     -10.648   8.307  69.717  1.00  0.00    -0.228 C  
HETATM    5  C   UNL     1     -11.338   7.855  70.774  1.00  0.00    -0.283 C  
HETATM    6  C   UNL     1     -11.257   6.427  71.144  1.00  0.00    -0.302 C  
HETATM    7  C   UNL     1     -12.155   8.848  71.500  1.00  0.00    -0.330 C  
HETATM    8  C   UNL     1     -12.153  10.247  71.026  1.00  0.00    -0.487 A  
HETATM    9  O   UNL     1     -12.818   8.503  72.477  1.00  0.00    -0.345 OA 
HETATM   10  O   UNL     1     -10.582   5.614  70.530  1.00  0.00    -0.259 OA 
HETATM   11  O   UNL     1     -11.995   6.083  72.221  1.00  0.00    -0.318 OA 
HETATM   12  C   UNL     1     -12.926  11.198  71.680  1.00  0.00    -0.548 A  
HETATM   13  C   UNL     1     -12.909  12.495  71.200  1.00  0.00    -0.211 A  
HETATM   14  F   UNL     1     -13.641  13.419  71.844  1.00  0.00    -0.436 F  
HETATM   15  C   UNL     1     -12.111  12.843  70.098  1.00  0.00    -0.302 A  
HETATM   16  C   UNL     1     -11.378  10.615  69.918  1.00  0.00    -0.313 A  
HETATM   17  N   UNL     1     -11.347  11.903  69.481  1.00  0.00    -0.257 NA 
BRANCH  15  18
HETATM   18  N   UNL     1     -12.064  14.152  69.652  1.00  0.00    -0.334 NA 
HETATM   19  C   UNL     1     -11.401  15.184  70.455  1.00  0.00    -0.298 C  
HETATM   20  C   UNL     1     -10.096  15.688  69.805  1.00  0.00    -0.287 C  
HETATM   21  N   UNL     1     -10.262  16.083  68.393  1.00  0.00    -0.230 NA 
HETATM   22  H   UNL     1      -9.398  16.438  67.983  1.00  0.00     0.000 HD 
HETATM   23  C   UNL     1     -10.811  14.940  67.643  1.00  0.00    -0.286 C  
HETATM   24  C   UNL     1     -12.155  14.419  68.209  1.00  0.00    -0.225 C  
ENDBRANCH  15  18
ENDBRANCH   2   3
TORSDOF 2
ENDMDL
MODEL       38
REMARK 921   NORMALIZED FREE ENERGY PREDICTED BY IDOCK:   -6.16 KCAL/MOL
REMARK 922        TOTAL FREE ENERGY PREDICTED BY IDOCK:   -7.35 KCAL/MOL
REMARK 923 INTER-LIGAND FREE ENERGY PREDICTED BY IDOCK:   -6.88 KCAL/MOL
REMARK 924 INTRA-LIGAND FREE ENERGY PREDICTED BY IDOCK:   -0.46 KCAL/MOL
REMARK 927      BINDING AFFINITY PREDICTED BY RF-SCORE:    0.00 PKD
ROOT
HETATM    1  C   UNL     1      -8.520  16.623  68.710  1.00  0.00    -0.255 C  
HETATM    2  C   UNL     1      -9.240  15.310  68.979  1.00  0.00    -0.223 C  
ENDROOT
BRANCH   2   3
HETATM    3  N   UNL     1      -9.980  14.865  67.793  1.00  0.00    -0.221 NA 
HETATM    4  C   UNL     1     -10.356  15.725  66.775  1.00  0.00    -0.293 C  
HETATM    5  C   UNL     1     -11.026  15.385  65.665  1.00  0.00    -0.330 C  
HETATM    6  C   UNL     1     -11.366  16.422  64.669  1.00  0.00    -0.161 C  
HETATM    7  C   UNL     1     -11.390  13.960  65.525  1.00  0.00    -0.308 C  
HETATM    8  C   UNL     1     -10.994  13.022  66.595  1.00  0.00    -0.301 A  
HETATM    9  O   UNL     1     -12.010  13.578  64.534  1.00  0.00    -0.376 OA 
HETATM   10  O   UNL     1     -11.065  17.599  64.799  1.00  0.00    -0.915 OA 
HETATM   11  O   UNL     1     -12.044  15.968  63.594  1.00  0.00    -0.768 OA 
HETATM   12  C   UNL     1     -11.338  11.679  66.498  1.00  0.00    -0.331 A  
HETATM   13  C   UNL     1     -10.961  10.833  67.525  1.00  0.00    -0.312 A  
HETATM   14  F   UNL     1     -11.276   9.531  67.422  1.00  0.00    -0.301 F  
HETATM   15  C   UNL     1     -10.228  11.315  68.621  1.00  0.00    -0.203 A  
HETATM   16  C   UNL     1     -10.277  13.483  67.707  1.00  0.00    -0.242 A  
HETATM   17  N   UNL     1      -9.884  12.629  68.691  1.00  0.00    -0.131 NA 
BRANCH  15  18
HETATM   18  N   UNL     1      -9.814  10.454  69.622  1.00  0.00    -0.188 NA 
HETATM   19  C   UNL     1     -10.774   9.956  70.612  1.00  0.00    -0.303 C  
HETATM   20  C   UNL     1     -11.062   8.450  70.446  1.00  0.00    -0.231 C  
HETATM   21  N   UNL     1      -9.838   7.626  70.371  1.00  0.00    -0.183 NA 
HETATM   22  H   UNL     1     -10.043   6.630  70.288  1.00  0.00     0.000 HD 
HETATM   23  C   UNL     1      -9.000   8.124  69.266  1.00  0.00    -0.148 C  
HETATM   24  C   UNL     1      -8.624   9.619  69.401  1.00  0.00    -0.158 C  
ENDBRANCH  15  18
ENDBRANCH   2   3
TORSDOF 2
ENDMDL
MODEL       39
REMARK 921   NORMALIZED FREE ENERGY PREDICTED BY IDOCK:   -6.11 KCAL/MOL
REMARK 922        TOTAL FREE ENERGY PREDICTED BY IDOCK:   -7.29 KCAL/MOL
REMARK 923 INTER-LIGAND FREE ENERGY PREDICTED BY IDOCK:   -6.82 KCAL/MOL
REMARK 924 INTRA-LIGAND FREE ENERGY PREDICTED BY IDOCK:   -0.47 KCAL/MOL
REMARK 927      BINDING AFFINITY PREDICTED BY RF-SCORE:    0.00 PKD
ROOT
HETATM    1  C   UNL     1     -10.338  16.057  66.110  1.00  0.00    -0.340 C  
HETATM    2  C   UNL     1     -11.166  15.401  67.206  1.00  0.00    -0.270 C  
ENDROOT
BRANCH   2   3
HETATM    3  N   UNL     1     -11.118  13.939  67.096  1.00  0.00    -0.294 NA 
HETATM    4  C   UNL     1     -10.736  13.285  65.937  1.00  0.00    -0.275 C  
HETATM    5  C   UNL     1     -10.665  11.957  65.770  1.00  0.00    -0.327 C  
HETATM    6  C   UNL     1     -10.249  11.405  64.464  1.00  0.00    -0.299 C  
HETATM    7  C   UNL     1     -11.027  11.126  66.936  1.00  0.00    -0.273 C  
HETATM    8  C   UNL     1     -11.430  11.801  68.187  1.00  0.00    -0.382 A  
HETATM    9  O   UNL     1     -10.989   9.899  66.853  1.00  0.00    -0.134 OA 
HETATM   10  O   UNL     1      -9.959  12.103  63.504  1.00  0.00    -0.405 OA 
HETATM   11  O   UNL     1     -10.217  10.056  64.408  1.00  0.00    -0.108 OA 
HETATM   12  C   UNL     1     -11.792  11.044  69.294  1.00  0.00    -0.411 A  
HETATM   13  C   UNL     1     -12.176  11.711  70.443  1.00  0.00    -0.347 A  
HETATM   14  F   UNL     1     -12.507  10.980  71.520  1.00  0.00    -0.438 F  
HETATM   15  C   UNL     1     -12.173  13.114  70.494  1.00  0.00    -0.328 A  
HETATM   16  C   UNL     1     -11.452  13.200  68.257  1.00  0.00    -0.314 A  
HETATM   17  N   UNL     1     -11.799  13.839  69.407  1.00  0.00    -0.320 NA 
BRANCH  15  18
HETATM   18  N   UNL     1     -12.514  13.774  71.662  1.00  0.00    -0.271 NA 
HETATM   19  C   UNL     1     -11.563  14.691  72.298  1.00  0.00     0.174 C  
HETATM   20  C   UNL     1     -12.012  16.164  72.200  1.00  0.00    -0.537 C  
HETATM   21  N   UNL     1     -13.402  16.382  72.647  1.00  0.00     0.055 NA 
HETATM   22  H   UNL     1     -13.677  17.363  72.603  1.00  0.00     0.000 HD 
HETATM   23  C   UNL     1     -14.293  15.511  71.862  1.00  0.00    -0.472 C  
HETATM   24  C   UNL     1     -13.934  14.009  71.961  1.00  0.00    -0.506 C  
ENDBRANCH  15  18
ENDBRANCH   2   3
TORSDOF 2
ENDMDL
MODEL       40
REMARK 921   NORMALIZED FREE ENERGY PREDICTED BY IDOCK:   -6.10 KCAL/MOL
REMARK 922        TOTAL FREE ENERGY PREDICTED BY IDOCK:   -7.28 KCAL/MOL
REMARK 923 INTER-LIGAND FREE ENERGY PREDICTED BY IDOCK:   -6.87 KCAL/MOL
REMARK 924 INTRA-LIGAND FREE ENERGY PREDICTED BY IDOCK:   -0.40 KCAL/MOL
REMARK 927      BINDING AFFINITY PREDICTED BY RF-SCORE:    0.00 PKD
ROOT
HETATM    1  C   UNL     1      -9.586   9.356  67.441  1.00  0.00    -0.184 C  
HETATM    2  C   UNL     1      -9.947  10.814  67.681  1.00  0.00    -0.173 C  
ENDROOT
BRANCH   2   3
HETATM    3  N   UNL     1     -10.829  10.952  68.845  1.00  0.00    -0.203 NA 
HETATM    4  C   UNL     1     -11.228   9.874  69.618  1.00  0.00    -0.208 C  
HETATM    5  C   UNL     1     -12.025   9.929  70.694  1.00  0.00    -0.361 C  
HETATM    6  C   UNL     1     -12.371   8.686  71.412  1.00  0.00    -0.304 C  
HETATM    7  C   UNL     1     -12.516  11.267  71.082  1.00  0.00    -0.373 C  
HETATM    8  C   UNL     1     -12.098  12.434  70.278  1.00  0.00    -0.377 A  
HETATM    9  O   UNL     1     -13.256  11.392  72.057  1.00  0.00    -0.503 OA 
HETATM   10  O   UNL     1     -11.964   7.583  71.077  1.00  0.00    -0.302 OA 
HETATM   11  O   UNL     1     -13.183   8.859  72.477  1.00  0.00    -0.426 OA 
HETATM   12  C   UNL     1     -12.559  13.702  70.611  1.00  0.00    -0.366 A  
HETATM   13  C   UNL     1     -12.157  14.768  69.827  1.00  0.00    -0.319 A  
HETATM   14  F   UNL     1     -12.586  15.996  70.160  1.00  0.00    -0.351 F  
HETATM   15  C   UNL     1     -11.287  14.574  68.742  1.00  0.00    -0.274 A  
HETATM   16  C   UNL     1     -11.245  12.263  69.180  1.00  0.00    -0.242 A  
HETATM   17  N   UNL     1     -10.832  13.329  68.442  1.00  0.00    -0.250 NA 
BRANCH  15  18
HETATM   18  N   UNL     1     -10.853  15.652  67.990  1.00  0.00    -0.297 NA 
HETATM   19  C   UNL     1      -9.919  16.626  68.564  1.00  0.00    -0.261 C  
HETATM   20  C   UNL     1      -8.520  16.550  67.918  1.00  0.00    -0.181 C  
HETATM   21  N   UNL     1      -8.555  16.593  66.443  1.00  0.00    -0.283 NA 
HETATM   22  H   UNL     1      -7.623  16.569  66.029  1.00  0.00     0.000 HD 
HETATM   23  C   UNL     1      -9.414  15.499  65.958  1.00  0.00    -0.352 C  
HETATM   24  C   UNL     1     -10.854  15.547  66.523  1.00  0.00    -0.284 C  
ENDBRANCH  15  18
ENDBRANCH   2   3
TORSDOF 2
ENDMDL
MODEL       41
REMARK 921   NORMALIZED FREE ENERGY PREDICTED BY IDOCK:   -6.09 KCAL/MOL
REMARK 922        TOTAL FREE ENERGY PREDICTED BY IDOCK:   -7.27 KCAL/MOL
REMARK 923 INTER-LIGAND FREE ENERGY PREDICTED BY IDOCK:   -6.80 KCAL/MOL
REMARK 924 INTRA-LIGAND FREE ENERGY PREDICTED BY IDOCK:   -0.47 KCAL/MOL
REMARK 927      BINDING AFFINITY PREDICTED BY RF-SCORE:    0.00 PKD
ROOT
HETATM    1  C   UNL     1     -10.524  19.786  66.500  1.00  0.00    -0.615 C  
HETATM    2  C   UNL     1     -10.070  18.358  66.233  1.00  0.00    -0.392 C  
ENDROOT
BRANCH   2   3
HETATM    3  N   UNL     1      -9.030  17.952  67.184  1.00  0.00    -0.246 NA 
HETATM    4  C   UNL     1      -8.175  18.854  67.794  1.00  0.00    -0.270 C  
HETATM    5  C   UNL     1      -7.209  18.553  68.673  1.00  0.00    -0.306 C  
HETATM    6  C   UNL     1      -6.366  19.629  69.232  1.00  0.00    -0.313 C  
HETATM    7  C   UNL     1      -7.054  17.124  69.017  1.00  0.00    -0.232 C  
HETATM    8  C   UNL     1      -7.959  16.143  68.385  1.00  0.00    -0.162 A  
HETATM    9  O   UNL     1      -6.184  16.774  69.813  1.00  0.00    -0.223 OA 
HETATM   10  O   UNL     1      -6.501  20.807  68.935  1.00  0.00    -0.228 OA 
HETATM   11  O   UNL     1      -5.424  19.211  70.104  1.00  0.00    -0.211 OA 
HETATM   12  C   UNL     1      -7.824  14.792  68.678  1.00  0.00    -0.140 A  
HETATM   13  C   UNL     1      -8.682  13.901  68.057  1.00  0.00    -0.183 A  
HETATM   14  F   UNL     1      -8.564  12.597  68.354  1.00  0.00    -0.168 F  
HETATM   15  C   UNL     1      -9.677  14.357  67.178  1.00  0.00    -0.248 A  
HETATM   16  C   UNL     1      -8.949  16.572  67.491  1.00  0.00    -0.196 A  
HETATM   17  N   UNL     1      -9.806  15.685  66.917  1.00  0.00    -0.233 NA 
BRANCH  15  18
HETATM   18  N   UNL     1     -10.561  13.464  66.596  1.00  0.00    -0.280 NA 
HETATM   19  C   UNL     1     -12.004  13.602  66.818  1.00  0.00    -0.414 C  
HETATM   20  C   UNL     1     -12.755  14.043  65.545  1.00  0.00    -0.486 C  
HETATM   21  N   UNL     1     -12.435  13.218  64.363  1.00  0.00    -0.611 NA 
HETATM   22  H   UNL     1     -12.958  13.503  63.535  1.00  0.00     0.000 HD 
HETATM   23  C   UNL     1     -10.978  13.247  64.146  1.00  0.00    -0.354 C  
HETATM   24  C   UNL     1     -10.162  12.761  65.368  1.00  0.00    -0.283 C  
ENDBRANCH  15  18
ENDBRANCH   2   3
TORSDOF 2
ENDMDL
MODEL       42
REMARK 921   NORMALIZED FREE ENERGY PREDICTED BY IDOCK:   -6.06 KCAL/MOL
REMARK 922        TOTAL FREE ENERGY PREDICTED BY IDOCK:   -7.23 KCAL/MOL
REMARK 923 INTER-LIGAND FREE ENERGY PREDICTED BY IDOCK:   -6.77 KCAL/MOL
REMARK 924 INTRA-LIGAND FREE ENERGY PREDICTED BY IDOCK:   -0.46 KCAL/MOL
REMARK 927      BINDING AFFINITY PREDICTED BY RF-SCORE:    0.00 PKD
ROOT
HETATM    1  C   UNL     1     -14.403   8.555  72.074  1.00  0.00    -0.537 C  
HETATM    2  C   UNL     1     -13.033   9.112  72.435  1.00  0.00    -0.398 C  
ENDROOT
BRANCH   2   3
HETATM    3  N   UNL     1     -12.721  10.299  71.630  1.00  0.00    -0.426 NA 
HETATM    4  C   UNL     1     -13.237  11.553  71.909  1.00  0.00    -0.374 C  
HETATM    5  C   UNL     1     -12.990  12.676  71.220  1.00  0.00    -0.306 C  
HETATM    6  C   UNL     1     -13.626  13.943  71.635  1.00  0.00    -0.336 C  
HETATM    7  C   UNL     1     -12.081  12.553  70.063  1.00  0.00    -0.266 C  
HETATM    8  C   UNL     1     -11.511  11.226  69.750  1.00  0.00    -0.386 A  
HETATM    9  O   UNL     1     -11.813  13.542  69.382  1.00  0.00    -0.296 OA 
HETATM   10  O   UNL     1     -14.382  14.031  72.591  1.00  0.00    -0.596 OA 
HETATM   11  O   UNL     1     -13.309  15.009  70.868  1.00  0.00    -0.401 OA 
HETATM   12  C   UNL     1     -10.667  11.078  68.657  1.00  0.00    -0.234 A  
HETATM   13  C   UNL     1     -10.163   9.818  68.388  1.00  0.00    -0.185 A  
HETATM   14  F   UNL     1      -9.331   9.678  67.343  1.00  0.00    -0.139 F  
HETATM   15  C   UNL     1     -10.477   8.728  69.214  1.00  0.00    -0.219 A  
HETATM   16  C   UNL     1     -11.824  10.119  70.550  1.00  0.00    -0.321 A  
HETATM   17  N   UNL     1     -11.291   8.894  70.290  1.00  0.00    -0.210 NA 
BRANCH  15  18
HETATM   18  N   UNL     1      -9.933   7.479  68.965  1.00  0.00    -0.171 NA 
HETATM   19  C   UNL     1      -8.558   7.177  69.375  1.00  0.00    -0.134 C  
HETATM   20  C   UNL     1      -8.501   6.161  70.535  1.00  0.00    -0.137 C  
HETATM   21  N   UNL     1      -9.303   4.947  70.287  1.00  0.00    -0.143 NA 
HETATM   22  H   UNL     1      -9.235   4.272  71.049  1.00  0.00     0.000 HD 
HETATM   23  C   UNL     1     -10.694   5.347  70.011  1.00  0.00    -0.226 C  
HETATM   24  C   UNL     1     -10.831   6.324  68.819  1.00  0.00    -0.333 C  
ENDBRANCH  15  18
ENDBRANCH   2   3
TORSDOF 2
ENDMDL
MODEL       43
REMARK 921   NORMALIZED FREE ENERGY PREDICTED BY IDOCK:   -6.05 KCAL/MOL
REMARK 922        TOTAL FREE ENERGY PREDICTED BY IDOCK:   -7.22 KCAL/MOL
REMARK 923 INTER-LIGAND FREE ENERGY PREDICTED BY IDOCK:   -6.74 KCAL/MOL
REMARK 924 INTRA-LIGAND FREE ENERGY PREDICTED BY IDOCK:   -0.48 KCAL/MOL
REMARK 927      BINDING AFFINITY PREDICTED BY RF-SCORE:    0.00 PKD
ROOT
HETATM    1  C   UNL     1     -10.491  16.116  68.483  1.00  0.00    -0.269 C  
HETATM    2  C   UNL     1     -10.591  14.650  68.086  1.00  0.00    -0.237 C  
ENDROOT
BRANCH   2   3
HETATM    3  N   UNL     1     -11.299  13.876  69.111  1.00  0.00    -0.272 NA 
HETATM    4  C   UNL     1     -12.089  14.464  70.085  1.00  0.00    -0.335 C  
HETATM    5  C   UNL     1     -12.767  13.818  71.045  1.00  0.00    -0.416 C  
HETATM    6  C   UNL     1     -13.561  14.587  72.023  1.00  0.00    -0.416 C  
HETATM    7  C   UNL     1     -12.654  12.345  71.053  1.00  0.00    -0.254 C  
HETATM    8  C   UNL     1     -11.823  11.694  70.019  1.00  0.00    -0.435 A  
HETATM    9  O   UNL     1     -13.244  11.688  71.908  1.00  0.00    -0.485 OA 
HETATM   10  O   UNL     1     -13.641  15.807  72.010  1.00  0.00    -0.460 OA 
HETATM   11  O   UNL     1     -14.198  13.835  72.946  1.00  0.00    -0.514 OA 
HETATM   12  C   UNL     1     -11.686  10.311  70.014  1.00  0.00    -0.330 A  
HETATM   13  C   UNL     1     -10.889   9.739  69.039  1.00  0.00    -0.199 A  
HETATM   14  F   UNL     1     -10.772   8.401  69.021  1.00  0.00    -0.226 F  
HETATM   15  C   UNL     1     -10.260  10.533  68.067  1.00  0.00    -0.166 A  
HETATM   16  C   UNL     1     -11.171  12.467  69.049  1.00  0.00    -0.268 A  
HETATM   17  N   UNL     1     -10.420  11.883  68.077  1.00  0.00    -0.202 NA 
BRANCH  15  18
HETATM   18  N   UNL     1      -9.502   9.950  67.067  1.00  0.00    -0.156 NA 
HETATM   19  C   UNL     1     -10.010   9.890  65.693  1.00  0.00    -0.283 C  
HETATM   20  C   UNL     1      -9.228  10.813  64.736  1.00  0.00    -0.214 C  
HETATM   21  N   UNL     1      -7.765  10.628  64.813  1.00  0.00    -0.349 NA 
HETATM   22  H   UNL     1      -7.262  11.225  64.157  1.00  0.00     0.000 HD 
HETATM   23  C   UNL     1      -7.335  10.834  66.206  1.00  0.00    -0.138 C  
HETATM   24  C   UNL     1      -8.040   9.897  67.217  1.00  0.00    -0.113 C  
ENDBRANCH  15  18
ENDBRANCH   2   3
TORSDOF 2
ENDMDL
MODEL       44
REMARK 921   NORMALIZED FREE ENERGY PREDICTED BY IDOCK:   -5.87 KCAL/MOL
REMARK 922        TOTAL FREE ENERGY PREDICTED BY IDOCK:   -7.02 KCAL/MOL
REMARK 923 INTER-LIGAND FREE ENERGY PREDICTED BY IDOCK:   -6.54 KCAL/MOL
REMARK 924 INTRA-LIGAND FREE ENERGY PREDICTED BY IDOCK:   -0.48 KCAL/MOL
REMARK 927      BINDING AFFINITY PREDICTED BY RF-SCORE:    0.00 PKD
ROOT
HETATM    1  C   UNL     1      -8.926   7.745  66.870  1.00  0.00    -0.153 C  
HETATM    2  C   UNL     1      -9.416   9.123  67.290  1.00  0.00    -0.148 C  
ENDROOT
BRANCH   2   3
HETATM    3  N   UNL     1     -10.221   9.043  68.514  1.00  0.00    -0.195 NA 
HETATM    4  C   UNL     1     -10.418   7.861  69.209  1.00  0.00    -0.216 C  
HETATM    5  C   UNL     1     -11.135   7.719  70.333  1.00  0.00    -0.259 C  
HETATM    6  C   UNL     1     -11.263   6.385  70.954  1.00  0.00    -0.326 C  
HETATM    7  C   UNL     1     -11.766   8.941  70.871  1.00  0.00    -0.267 C  
HETATM    8  C   UNL     1     -11.564  10.215  70.152  1.00  0.00    -0.350 A  
HETATM    9  O   UNL     1     -12.443   8.884  71.896  1.00  0.00    -0.328 OA 
HETATM   10  O   UNL     1     -10.741   5.379  70.496  1.00  0.00    -0.263 OA 
HETATM   11  O   UNL     1     -12.010   6.358  72.079  1.00  0.00    -0.329 OA 
HETATM   12  C   UNL     1     -12.160  11.377  70.626  1.00  0.00    -0.469 A  
HETATM   13  C   UNL     1     -11.959  12.549  69.919  1.00  0.00    -0.301 A  
HETATM   14  F   UNL     1     -12.519  13.676  70.388  1.00  0.00    -0.364 F  
HETATM   15  C   UNL     1     -11.153  12.565  68.770  1.00  0.00    -0.270 A  
HETATM   16  C   UNL     1     -10.778  10.254  68.992  1.00  0.00    -0.227 A  
HETATM   17  N   UNL     1     -10.563  11.422  68.330  1.00  0.00    -0.185 NA 
BRANCH  15  18
HETATM   18  N   UNL     1     -10.920  13.750  68.094  1.00  0.00    -0.239 NA 
HETATM   19  C   UNL     1      -9.614  14.410  68.187  1.00  0.00    -0.218 C  
HETATM   20  C   UNL     1      -8.829  14.352  66.860  1.00  0.00    -0.223 C  
HETATM   21  N   UNL     1      -9.616  14.805  65.696  1.00  0.00    -0.501 NA 
HETATM   22  H   UNL     1      -9.077  14.786  64.830  1.00  0.00     0.000 HD 
HETATM   23  C   UNL     1     -10.845  13.997  65.613  1.00  0.00    -0.295 C  
HETATM   24  C   UNL     1     -11.712  14.057  66.894  1.00  0.00    -0.410 C  
ENDBRANCH  15  18
ENDBRANCH   2   3
TORSDOF 2
ENDMDL
MODEL       45
REMARK 921   NORMALIZED FREE ENERGY PREDICTED BY IDOCK:   -5.86 KCAL/MOL
REMARK 922        TOTAL FREE ENERGY PREDICTED BY IDOCK:   -7.01 KCAL/MOL
REMARK 923 INTER-LIGAND FREE ENERGY PREDICTED BY IDOCK:   -6.60 KCAL/MOL
REMARK 924 INTRA-LIGAND FREE ENERGY PREDICTED BY IDOCK:   -0.42 KCAL/MOL
REMARK 927      BINDING AFFINITY PREDICTED BY RF-SCORE:    0.00 PKD
ROOT
HETATM    1  C   UNL     1      -6.946  15.364  67.489  1.00  0.00    -0.223 C  
HETATM    2  C   UNL     1      -8.205  14.787  68.121  1.00  0.00    -0.142 C  
ENDROOT
BRANCH   2   3
HETATM    3  N   UNL     1      -9.215  14.487  67.100  1.00  0.00    -0.213 NA 
HETATM    4  C   UNL     1      -9.815  15.466  66.326  1.00  0.00    -0.297 C  
HETATM    5  C   UNL     1     -10.738  15.262  65.376  1.00  0.00    -0.407 C  
HETATM    6  C   UNL     1     -11.295  16.414  64.638  1.00  0.00    -0.161 C  
HETATM    7  C   UNL     1     -11.142  13.861  65.140  1.00  0.00    -0.334 C  
HETATM    8  C   UNL     1     -10.511  12.798  65.949  1.00  0.00    -0.295 A  
HETATM    9  O   UNL     1     -11.988  13.600  64.287  1.00  0.00    -0.410 OA 
HETATM   10  O   UNL     1     -10.957  17.570  64.846  1.00  0.00    -0.887 OA 
HETATM   11  O   UNL     1     -12.219  16.092  63.707  1.00  0.00    -0.895 OA 
HETATM   12  C   UNL     1     -10.885  11.473  65.760  1.00  0.00    -0.319 A  
HETATM   13  C   UNL     1     -10.281  10.507  66.544  1.00  0.00    -0.231 A  
HETATM   14  F   UNL     1     -10.629   9.224  66.349  1.00  0.00    -0.294 F  
HETATM   15  C   UNL     1      -9.299  10.856  67.485  1.00  0.00    -0.154 A  
HETATM   16  C   UNL     1      -9.541  13.123  66.906  1.00  0.00    -0.248 A  
HETATM   17  N   UNL     1      -8.932  12.155  67.644  1.00  0.00    -0.171 NA 
BRANCH  15  18
HETATM   18  N   UNL     1      -8.667   9.878  68.234  1.00  0.00    -0.118 NA 
HETATM   19  C   UNL     1      -7.211   9.908  68.411  1.00  0.00    -0.073 C  
HETATM   20  C   UNL     1      -6.802  10.248  69.858  1.00  0.00    -0.134 C  
HETATM   21  N   UNL     1      -7.483   9.414  70.869  1.00  0.00    -0.267 NA 
HETATM   22  H   UNL     1      -7.184   9.631  71.820  1.00  0.00     0.000 HD 
HETATM   23  C   UNL     1      -8.939   9.552  70.692  1.00  0.00    -0.166 C  
HETATM   24  C   UNL     1      -9.428   9.170  69.274  1.00  0.00    -0.158 C  
ENDBRANCH  15  18
ENDBRANCH   2   3
TORSDOF 2
ENDMDL
MODEL       46
REMARK 921   NORMALIZED FREE ENERGY PREDICTED BY IDOCK:   -5.85 KCAL/MOL
REMARK 922        TOTAL FREE ENERGY PREDICTED BY IDOCK:   -7.00 KCAL/MOL
REMARK 923 INTER-LIGAND FREE ENERGY PREDICTED BY IDOCK:   -6.54 KCAL/MOL
REMARK 924 INTRA-LIGAND FREE ENERGY PREDICTED BY IDOCK:   -0.46 KCAL/MOL
REMARK 927      BINDING AFFINITY PREDICTED BY RF-SCORE:    0.00 PKD
ROOT
HETATM    1  C   UNL     1      -9.354   9.743  64.686  1.00  0.00    -0.318 C  
HETATM    2  C   UNL     1      -9.866   9.276  66.041  1.00  0.00    -0.293 C  
ENDROOT
BRANCH   2   3
HETATM    3  N   UNL     1     -10.449  10.392  66.794  1.00  0.00    -0.237 NA 
HETATM    4  C   UNL     1     -10.663  11.643  66.240  1.00  0.00    -0.272 C  
HETATM    5  C   UNL     1     -11.194  12.701  66.868  1.00  0.00    -0.348 C  
HETATM    6  C   UNL     1     -11.350  13.979  66.143  1.00  0.00    -0.321 C  
HETATM    7  C   UNL     1     -11.585  12.503  68.279  1.00  0.00    -0.328 C  
HETATM    8  C   UNL     1     -11.373  11.175  68.890  1.00  0.00    -0.344 A  
HETATM    9  O   UNL     1     -12.074  13.433  68.918  1.00  0.00    -0.331 OA 
HETATM   10  O   UNL     1     -11.017  14.133  64.978  1.00  0.00    -0.342 OA 
HETATM   11  O   UNL     1     -11.892  14.977  66.874  1.00  0.00    -0.259 OA 
HETATM   12  C   UNL     1     -11.715  10.965  70.220  1.00  0.00    -0.437 A  
HETATM   13  C   UNL     1     -11.491   9.712  70.762  1.00  0.00    -0.328 A  
HETATM   14  F   UNL     1     -11.840   9.504  72.042  1.00  0.00    -0.430 F  
HETATM   15  C   UNL     1     -10.956   8.677  69.979  1.00  0.00    -0.203 A  
HETATM   16  C   UNL     1     -10.825  10.130  68.134  1.00  0.00    -0.262 A  
HETATM   17  N   UNL     1     -10.644   8.895  68.674  1.00  0.00    -0.186 NA 
BRANCH  15  18
HETATM   18  N   UNL     1     -10.777   7.413  70.515  1.00  0.00    -0.229 NA 
HETATM   19  C   UNL     1     -11.368   6.241  69.860  1.00  0.00    -0.434 C  
HETATM   20  C   UNL     1     -10.302   5.323  69.226  1.00  0.00    -0.215 C  
HETATM   21  N   UNL     1      -9.210   4.969  70.154  1.00  0.00    -0.129 NA 
HETATM   22  H   UNL     1      -8.527   4.341  69.731  1.00  0.00     0.000 HD 
HETATM   23  C   UNL     1      -8.597   6.210  70.658  1.00  0.00    -0.135 C  
HETATM   24  C   UNL     1      -9.602   7.156  71.360  1.00  0.00    -0.161 C  
ENDBRANCH  15  18
ENDBRANCH   2   3
TORSDOF 2
ENDMDL
MODEL       47
REMARK 921   NORMALIZED FREE ENERGY PREDICTED BY IDOCK:   -5.75 KCAL/MOL
REMARK 922        TOTAL FREE ENERGY PREDICTED BY IDOCK:   -6.88 KCAL/MOL
REMARK 923 INTER-LIGAND FREE ENERGY PREDICTED BY IDOCK:   -6.50 KCAL/MOL
REMARK 924 INTRA-LIGAND FREE ENERGY PREDICTED BY IDOCK:   -0.38 KCAL/MOL
REMARK 927      BINDING AFFINITY PREDICTED BY RF-SCORE:    0.00 PKD
ROOT
HETATM    1  C   UNL     1     -12.186  14.162  64.083  1.00  0.00    -0.423 C  
HETATM    2  C   UNL     1     -11.256  15.010  64.939  1.00  0.00    -0.416 C  
ENDROOT
BRANCH   2   3
HETATM    3  N   UNL     1     -10.357  14.164  65.732  1.00  0.00    -0.312 NA 
HETATM    4  C   UNL     1     -10.227  12.801  65.523  1.00  0.00    -0.279 C  
HETATM    5  C   UNL     1      -9.423  11.973  66.204  1.00  0.00    -0.241 C  
HETATM    6  C   UNL     1      -9.402  10.535  65.870  1.00  0.00    -0.181 C  
HETATM    7  C   UNL     1      -8.603  12.582  67.272  1.00  0.00    -0.191 C  
HETATM    8  C   UNL     1      -8.718  14.035  67.509  1.00  0.00    -0.201 A  
HETATM    9  O   UNL     1      -7.846  11.881  67.941  1.00  0.00    -0.121 OA 
HETATM   10  O   UNL     1     -10.091  10.042  64.989  1.00  0.00    -0.323 OA 
HETATM   11  O   UNL     1      -8.559   9.795  66.623  1.00  0.00    -0.126 OA 
HETATM   12  C   UNL     1      -7.971  14.631  68.518  1.00  0.00    -0.136 A  
HETATM   13  C   UNL     1      -8.115  15.992  68.719  1.00  0.00    -0.212 A  
HETATM   14  F   UNL     1      -7.379  16.572  69.681  1.00  0.00    -0.231 F  
HETATM   15  C   UNL     1      -8.972  16.752  67.906  1.00  0.00    -0.219 A  
HETATM   16  C   UNL     1      -9.580  14.812  66.723  1.00  0.00    -0.254 A  
HETATM   17  N   UNL     1      -9.681  16.155  66.912  1.00  0.00    -0.230 NA 
BRANCH  15  18
HETATM   18  N   UNL     1      -9.076  18.121  68.084  1.00  0.00    -0.283 NA 
HETATM   19  C   UNL     1      -7.940  18.995  67.775  1.00  0.00    -0.263 C  
HETATM   20  C   UNL     1      -8.195  19.875  66.534  1.00  0.00    -0.331 C  
HETATM   21  N   UNL     1      -9.478  20.603  66.589  1.00  0.00    -0.657 NA 
HETATM   22  H   UNL     1      -9.622  21.201  65.775  1.00  0.00     0.000 HD 
HETATM   23  C   UNL     1     -10.567  19.629  66.772  1.00  0.00    -0.486 C  
HETATM   24  C   UNL     1     -10.404  18.749  68.035  1.00  0.00    -0.387 C  
ENDBRANCH  15  18
ENDBRANCH   2   3
TORSDOF 2
ENDMDL
MODEL       48
REMARK 921   NORMALIZED FREE ENERGY PREDICTED BY IDOCK:   -5.74 KCAL/MOL
REMARK 922        TOTAL FREE ENERGY PREDICTED BY IDOCK:   -6.88 KCAL/MOL
REMARK 923 INTER-LIGAND FREE ENERGY PREDICTED BY IDOCK:   -6.39 KCAL/MOL
REMARK 924 INTRA-LIGAND FREE ENERGY PREDICTED BY IDOCK:   -0.49 KCAL/MOL
REMARK 927      BINDING AFFINITY PREDICTED BY RF-SCORE:    0.00 PKD
ROOT
HETATM    1  C   UNL     1      -9.602  10.125  62.861  1.00  0.00    -0.216 C  
HETATM    2  C   UNL     1      -8.837  10.580  64.095  1.00  0.00    -0.194 C  
ENDROOT
BRANCH   2   3
HETATM    3  N   UNL     1      -9.293   9.861  65.290  1.00  0.00    -0.230 NA 
HETATM    4  C   UNL     1      -8.943   8.548  65.556  1.00  0.00    -0.132 C  
HETATM    5  C   UNL     1      -9.319   7.835  66.628  1.00  0.00    -0.238 C  
HETATM    6  C   UNL     1      -8.872   6.434  66.767  1.00  0.00    -0.124 C  
HETATM    7  C   UNL     1     -10.183   8.524  67.607  1.00  0.00    -0.236 C  
HETATM    8  C   UNL     1     -10.563   9.928  67.349  1.00  0.00    -0.338 A  
HETATM    9  O   UNL     1     -10.570   7.930  68.612  1.00  0.00    -0.190 OA 
HETATM   10  O   UNL     1      -8.162   5.873  65.946  1.00  0.00    -0.115 OA 
HETATM   11  O   UNL     1      -9.313   5.812  67.882  1.00  0.00    -0.106 OA 
HETATM   12  C   UNL     1     -11.389  10.595  68.246  1.00  0.00    -0.357 A  
HETATM   13  C   UNL     1     -11.734  11.905  67.964  1.00  0.00    -0.312 A  
HETATM   14  F   UNL     1     -12.517  12.556  68.840  1.00  0.00    -0.168 F  
HETATM   15  C   UNL     1     -11.241  12.547  66.817  1.00  0.00    -0.296 A  
HETATM   16  C   UNL     1     -10.098  10.585  66.202  1.00  0.00    -0.246 A  
HETATM   17  N   UNL     1     -10.420  11.885  65.960  1.00  0.00    -0.237 NA 
BRANCH  15  18
HETATM   18  N   UNL     1     -11.554  13.872  66.566  1.00  0.00    -0.352 NA 
HETATM   19  C   UNL     1     -10.556  14.923  66.789  1.00  0.00    -0.305 C  
HETATM   20  C   UNL     1     -10.061  15.553  65.470  1.00  0.00    -0.373 C  
HETATM   21  N   UNL     1     -11.158  15.986  64.583  1.00  0.00    -0.788 NA 
HETATM   22  H   UNL     1     -10.817  16.424  63.727  1.00  0.00     0.000 HD 
HETATM   23  C   UNL     1     -12.033  14.832  64.314  1.00  0.00    -0.368 C  
HETATM   24  C   UNL     1     -12.613  14.184  65.595  1.00  0.00    -0.470 C  
ENDBRANCH  15  18
ENDBRANCH   2   3
TORSDOF 2
ENDMDL
MODEL       49
REMARK 921   NORMALIZED FREE ENERGY PREDICTED BY IDOCK:   -5.74 KCAL/MOL
REMARK 922        TOTAL FREE ENERGY PREDICTED BY IDOCK:   -6.88 KCAL/MOL
REMARK 923 INTER-LIGAND FREE ENERGY PREDICTED BY IDOCK:   -6.43 KCAL/MOL
REMARK 924 INTRA-LIGAND FREE ENERGY PREDICTED BY IDOCK:   -0.45 KCAL/MOL
REMARK 927      BINDING AFFINITY PREDICTED BY RF-SCORE:    0.00 PKD
ROOT
HETATM    1  C   UNL     1     -10.020   6.871  66.507  1.00  0.00    -0.150 C  
HETATM    2  C   UNL     1      -9.195   7.981  67.142  1.00  0.00    -0.142 C  
ENDROOT
BRANCH   2   3
HETATM    3  N   UNL     1      -9.941   9.245  67.160  1.00  0.00    -0.200 NA 
HETATM    4  C   UNL     1     -10.017  10.088  66.065  1.00  0.00    -0.267 C  
HETATM    5  C   UNL     1     -10.683  11.250  66.011  1.00  0.00    -0.301 C  
HETATM    6  C   UNL     1     -10.662  12.048  64.768  1.00  0.00    -0.306 C  
HETATM    7  C   UNL     1     -11.399  11.657  67.237  1.00  0.00    -0.305 C  
HETATM    8  C   UNL     1     -11.339  10.770  68.417  1.00  0.00    -0.367 A  
HETATM    9  O   UNL     1     -12.027  12.714  67.261  1.00  0.00    -0.424 OA 
HETATM   10  O   UNL     1     -10.060  11.704  63.761  1.00  0.00    -0.311 OA 
HETATM   11  O   UNL     1     -11.362  13.201  64.828  1.00  0.00    -0.306 OA 
HETATM   12  C   UNL     1     -11.989  11.136  69.589  1.00  0.00    -0.429 A  
HETATM   13  C   UNL     1     -11.900  10.286  70.677  1.00  0.00    -0.347 A  
HETATM   14  F   UNL     1     -12.544  10.630  71.804  1.00  0.00    -0.457 F  
HETATM   15  C   UNL     1     -11.194   9.076  70.587  1.00  0.00    -0.270 A  
HETATM   16  C   UNL     1     -10.626   9.565  68.357  1.00  0.00    -0.219 A  
HETATM   17  N   UNL     1     -10.579   8.725  69.426  1.00  0.00    -0.225 NA 
BRANCH  15  18
HETATM   18  N   UNL     1     -11.148   8.209  71.665  1.00  0.00    -0.245 NA 
HETATM   19  C   UNL     1     -11.819   6.907  71.598  1.00  0.00    -0.324 C  
HETATM   20  C   UNL     1     -10.821   5.733  71.548  1.00  0.00    -0.253 C  
HETATM   21  N   UNL     1      -9.796   5.793  72.610  1.00  0.00    -0.164 NA 
HETATM   22  H   UNL     1      -9.159   4.997  72.582  1.00  0.00     0.000 HD 
HETATM   23  C   UNL     1      -9.091   7.082  72.514  1.00  0.00    -0.128 C  
HETATM   24  C   UNL     1     -10.030   8.309  72.615  1.00  0.00    -0.287 C  
ENDBRANCH  15  18
ENDBRANCH   2   3
TORSDOF 2
ENDMDL
MODEL       50
REMARK 921   NORMALIZED FREE ENERGY PREDICTED BY IDOCK:   -5.74 KCAL/MOL
REMARK 922        TOTAL FREE ENERGY PREDICTED BY IDOCK:   -6.87 KCAL/MOL
REMARK 923 INTER-LIGAND FREE ENERGY PREDICTED BY IDOCK:   -6.49 KCAL/MOL
REMARK 924 INTRA-LIGAND FREE ENERGY PREDICTED BY IDOCK:   -0.38 KCAL/MOL
REMARK 927      BINDING AFFINITY PREDICTED BY RF-SCORE:    0.00 PKD
ROOT
HETATM    1  C   UNL     1     -10.690   9.700  71.039  1.00  0.00    -0.393 C  
HETATM    2  C   UNL     1     -11.860  10.116  70.159  1.00  0.00    -0.222 C  
ENDROOT
BRANCH   2   3
HETATM    3  N   UNL     1     -11.920  11.575  70.020  1.00  0.00    -0.339 NA 
HETATM    4  C   UNL     1     -12.615  12.387  70.902  1.00  0.00    -0.246 C  
HETATM    5  C   UNL     1     -12.706  13.723  70.837  1.00  0.00    -0.394 C  
HETATM    6  C   UNL     1     -13.496  14.452  71.849  1.00  0.00    -0.393 C  
HETATM    7  C   UNL     1     -11.994  14.378  69.720  1.00  0.00    -0.332 C  
HETATM    8  C   UNL     1     -11.240  13.534  68.771  1.00  0.00    -0.311 A  
HETATM    9  O   UNL     1     -12.038  15.601  69.596  1.00  0.00    -0.364 OA 
HETATM   10  O   UNL     1     -14.086  13.897  72.765  1.00  0.00    -0.668 OA 
HETATM   11  O   UNL     1     -13.522  15.792  71.685  1.00  0.00    -0.478 OA 
HETATM   12  C   UNL     1     -10.576  14.123  67.702  1.00  0.00    -0.253 A  
HETATM   13  C   UNL     1      -9.890  13.300  66.827  1.00  0.00    -0.264 A  
HETATM   14  F   UNL     1      -9.232  13.870  65.804  1.00  0.00    -0.144 F  
HETATM   15  C   UNL     1      -9.847  11.911  67.031  1.00  0.00    -0.192 A  
HETATM   16  C   UNL     1     -11.197  12.144  68.944  1.00  0.00    -0.269 A  
HETATM   17  N   UNL     1     -10.488  11.354  68.093  1.00  0.00    -0.181 NA 
BRANCH  15  18
HETATM   18  N   UNL     1      -9.122  11.098  66.177  1.00  0.00    -0.195 NA 
HETATM   19  C   UNL     1      -7.673  10.952  66.349  1.00  0.00    -0.154 C  
HETATM   20  C   UNL     1      -7.278   9.544  66.840  1.00  0.00    -0.087 C  
HETATM   21  N   UNL     1      -7.871   8.458  66.035  1.00  0.00    -0.095 NA 
HETATM   22  H   UNL     1      -7.581   7.533  66.353  1.00  0.00     0.000 HD 
HETATM   23  C   UNL     1      -9.335   8.618  66.029  1.00  0.00    -0.218 C  
HETATM   24  C   UNL     1      -9.805   9.992  65.492  1.00  0.00    -0.303 C  
ENDBRANCH  15  18
ENDBRANCH   2   3
TORSDOF 2
ENDMDL
MODEL       51
REMARK 921   NORMALIZED FREE ENERGY PREDICTED BY IDOCK:   -5.73 KCAL/MOL
REMARK 922        TOTAL FREE ENERGY PREDICTED BY IDOCK:   -6.86 KCAL/MOL
REMARK 923 INTER-LIGAND FREE ENERGY PREDICTED BY IDOCK:   -6.55 KCAL/MOL
REMARK 924 INTRA-LIGAND FREE ENERGY PREDICTED BY IDOCK:   -0.32 KCAL/MOL
REMARK 927      BINDING AFFINITY PREDICTED BY RF-SCORE:    0.00 PKD
ROOT
HETATM    1  C   UNL     1     -12.391  15.840  71.005  1.00  0.00    -0.465 C  
HETATM    2  C   UNL     1     -10.980  15.436  70.605  1.00  0.00    -0.319 C  
ENDROOT
BRANCH   2   3
HETATM    3  N   UNL     1     -10.711  15.787  69.206  1.00  0.00    -0.227 NA 
HETATM    4  C   UNL     1     -10.686  17.094  68.751  1.00  0.00    -0.289 C  
HETATM    5  C   UNL     1     -10.441  17.484  67.492  1.00  0.00    -0.355 C  
HETATM    6  C   UNL     1     -10.459  18.923  67.155  1.00  0.00    -0.438 C  
HETATM    7  C   UNL     1     -10.175  16.413  66.510  1.00  0.00    -0.304 C  
HETATM    8  C   UNL     1     -10.189  15.011  66.973  1.00  0.00    -0.257 A  
HETATM    9  O   UNL     1      -9.948  16.698  65.335  1.00  0.00    -0.565 OA 
HETATM   10  O   UNL     1     -10.688  19.799  67.976  1.00  0.00    -0.368 OA 
HETATM   11  O   UNL     1     -10.204  19.200  65.859  1.00  0.00    -0.462 OA 
HETATM   12  C   UNL     1      -9.958  13.983  66.068  1.00  0.00    -0.331 A  
HETATM   13  C   UNL     1      -9.991  12.682  66.536  1.00  0.00    -0.251 A  
HETATM   14  F   UNL     1      -9.749  11.688  65.665  1.00  0.00    -0.226 F  
HETATM   15  C   UNL     1     -10.226  12.412  67.893  1.00  0.00    -0.213 A  
HETATM   16  C   UNL     1     -10.438  14.716  68.320  1.00  0.00    -0.236 A  
HETATM   17  N   UNL     1     -10.433  13.432  68.769  1.00  0.00    -0.223 NA 
BRANCH  15  18
HETATM   18  N   UNL     1     -10.213  11.110  68.363  1.00  0.00    -0.181 NA 
HETATM   19  C   UNL     1     -11.184  10.133  67.862  1.00  0.00    -0.163 C  
HETATM   20  C   UNL     1     -10.526   9.047  66.986  1.00  0.00    -0.246 C  
HETATM   21  N   UNL     1      -9.355   8.413  67.623  1.00  0.00    -0.136 NA 
HETATM   22  H   UNL     1      -8.946   7.679  67.045  1.00  0.00     0.000 HD 
HETATM   23  C   UNL     1      -8.382   9.462  67.974  1.00  0.00    -0.119 C  
HETATM   24  C   UNL     1      -8.962  10.558  68.901  1.00  0.00    -0.172 C  
ENDBRANCH  15  18
ENDBRANCH   2   3
TORSDOF 2
ENDMDL
MODEL       52
REMARK 921   NORMALIZED FREE ENERGY PREDICTED BY IDOCK:   -5.69 KCAL/MOL
REMARK 922        TOTAL FREE ENERGY PREDICTED BY IDOCK:   -6.82 KCAL/MOL
REMARK 923 INTER-LIGAND FREE ENERGY PREDICTED BY IDOCK:   -6.38 KCAL/MOL
REMARK 924 INTRA-LIGAND FREE ENERGY PREDICTED BY IDOCK:   -0.44 KCAL/MOL
REMARK 927      BINDING AFFINITY PREDICTED BY RF-SCORE:    0.00 PKD
ROOT
HETATM    1  C   UNL     1      -7.746  15.904  68.651  1.00  0.00    -0.161 C  
HETATM    2  C   UNL     1      -8.592  14.640  68.701  1.00  0.00    -0.172 C  
ENDROOT
BRANCH   2   3
HETATM    3  N   UNL     1      -9.351  14.466  67.458  1.00  0.00    -0.193 NA 
HETATM    4  C   UNL     1      -9.816  15.532  66.706  1.00  0.00    -0.241 C  
HETATM    5  C   UNL     1     -10.508  15.445  65.561  1.00  0.00    -0.402 C  
HETATM    6  C   UNL     1     -10.947  16.678  64.877  1.00  0.00    -0.150 C  
HETATM    7  C   UNL     1     -10.794  14.083  65.066  1.00  0.00    -0.392 C  
HETATM    8  C   UNL     1     -10.302  12.930  65.847  1.00  0.00    -0.297 A  
HETATM    9  O   UNL     1     -11.430  13.928  64.025  1.00  0.00    -0.304 OA 
HETATM   10  O   UNL     1     -10.709  17.800  65.300  1.00  0.00    -0.649 OA 
HETATM   11  O   UNL     1     -11.640  16.472  63.736  1.00  0.00    -1.109 OA 
HETATM   12  C   UNL     1     -10.571  11.638  65.413  1.00  0.00    -0.331 A  
HETATM   13  C   UNL     1     -10.105  10.583  66.177  1.00  0.00    -0.246 A  
HETATM   14  F   UNL     1     -10.349   9.334  65.748  1.00  0.00    -0.348 F  
HETATM   15  C   UNL     1      -9.359  10.815  67.344  1.00  0.00    -0.150 A  
HETATM   16  C   UNL     1      -9.570  13.136  67.024  1.00  0.00    -0.241 A  
HETATM   17  N   UNL     1      -9.090  12.086  67.744  1.00  0.00    -0.179 NA 
BRANCH  15  18
HETATM   18  N   UNL     1      -8.857   9.755  68.078  1.00  0.00    -0.119 NA 
HETATM   19  C   UNL     1      -9.714   9.046  69.034  1.00  0.00    -0.167 C  
HETATM   20  C   UNL     1     -10.050   7.613  68.572  1.00  0.00    -0.190 C  
HETATM   21  N   UNL     1      -8.860   6.831  68.183  1.00  0.00    -0.121 NA 
HETATM   22  H   UNL     1      -9.093   5.878  67.905  1.00  0.00     0.000 HD 
HETATM   23  C   UNL     1      -8.137   7.564  67.129  1.00  0.00    -0.118 C  
HETATM   24  C   UNL     1      -7.717   8.994  67.547  1.00  0.00    -0.096 C  
ENDBRANCH  15  18
ENDBRANCH   2   3
TORSDOF 2
ENDMDL
MODEL       53
REMARK 921   NORMALIZED FREE ENERGY PREDICTED BY IDOCK:   -5.63 KCAL/MOL
REMARK 922        TOTAL FREE ENERGY PREDICTED BY IDOCK:   -6.75 KCAL/MOL
REMARK 923 INTER-LIGAND FREE ENERGY PREDICTED BY IDOCK:   -6.27 KCAL/MOL
REMARK 924 INTRA-LIGAND FREE ENERGY PREDICTED BY IDOCK:   -0.48 KCAL/MOL
REMARK 927      BINDING AFFINITY PREDICTED BY RF-SCORE:    0.00 PKD
ROOT
HETATM    1  C   UNL     1     -13.483   9.425  71.339  1.00  0.00    -0.403 C  
HETATM    2  C   UNL     1     -12.010   9.770  71.170  1.00  0.00    -0.376 C  
ENDROOT
BRANCH   2   3
HETATM    3  N   UNL     1     -11.843  10.946  70.309  1.00  0.00    -0.331 NA 
HETATM    4  C   UNL     1     -12.199  12.224  70.705  1.00  0.00    -0.287 C  
HETATM    5  C   UNL     1     -12.068  13.340  69.973  1.00  0.00    -0.385 C  
HETATM    6  C   UNL     1     -12.506  14.636  70.531  1.00  0.00    -0.347 C  
HETATM    7  C   UNL     1     -11.489  13.179  68.624  1.00  0.00    -0.305 C  
HETATM    8  C   UNL     1     -11.094  11.826  68.182  1.00  0.00    -0.297 A  
HETATM    9  O   UNL     1     -11.344  14.159  67.895  1.00  0.00    -0.267 OA 
HETATM   10  O   UNL     1     -12.990  14.755  71.647  1.00  0.00    -0.302 OA 
HETATM   11  O   UNL     1     -12.331  15.691  69.706  1.00  0.00    -0.333 OA 
HETATM   12  C   UNL     1     -10.562  11.643  66.911  1.00  0.00    -0.276 A  
HETATM   13  C   UNL     1     -10.215  10.360  66.528  1.00  0.00    -0.229 A  
HETATM   14  F   UNL     1      -9.683  10.185  65.307  1.00  0.00    -0.265 F  
HETATM   15  C   UNL     1     -10.374   9.279  67.410  1.00  0.00    -0.263 A  
HETATM   16  C   UNL     1     -11.258  10.728  69.038  1.00  0.00    -0.262 A  
HETATM   17  N   UNL     1     -10.879   9.479  68.656  1.00  0.00    -0.181 NA 
BRANCH  15  18
HETATM   18  N   UNL     1      -9.982   8.005  67.036  1.00  0.00    -0.227 NA 
HETATM   19  C   UNL     1      -8.593   7.574  67.219  1.00  0.00    -0.118 C  
HETATM   20  C   UNL     1      -8.451   6.501  68.318  1.00  0.00    -0.116 C  
HETATM   21  N   UNL     1      -9.383   5.368  68.153  1.00  0.00    -0.111 NA 
HETATM   22  H   UNL     1      -9.260   4.654  68.870  1.00  0.00     0.000 HD 
HETATM   23  C   UNL     1     -10.759   5.891  68.108  1.00  0.00    -0.251 C  
HETATM   24  C   UNL     1     -10.988   6.934  66.987  1.00  0.00    -0.334 C  
ENDBRANCH  15  18
ENDBRANCH   2   3
TORSDOF 2
ENDMDL
MODEL       54
REMARK 921   NORMALIZED FREE ENERGY PREDICTED BY IDOCK:   -5.54 KCAL/MOL
REMARK 922        TOTAL FREE ENERGY PREDICTED BY IDOCK:   -6.65 KCAL/MOL
REMARK 923 INTER-LIGAND FREE ENERGY PREDICTED BY IDOCK:   -6.19 KCAL/MOL
REMARK 924 INTRA-LIGAND FREE ENERGY PREDICTED BY IDOCK:   -0.46 KCAL/MOL
REMARK 927      BINDING AFFINITY PREDICTED BY RF-SCORE:    0.00 PKD
ROOT
HETATM    1  C   UNL     1      -8.590  10.695  62.585  1.00  0.00    -0.252 C  
HETATM    2  C   UNL     1      -9.144   9.783  63.670  1.00  0.00    -0.232 C  
ENDROOT
BRANCH   2   3
HETATM    3  N   UNL     1      -9.960  10.540  64.626  1.00  0.00    -0.331 NA 
HETATM    4  C   UNL     1     -10.797  11.575  64.245  1.00  0.00    -0.359 C  
HETATM    5  C   UNL     1     -11.572  12.302  65.063  1.00  0.00    -0.394 C  
HETATM    6  C   UNL     1     -12.408  13.386  64.506  1.00  0.00    -0.360 C  
HETATM    7  C   UNL     1     -11.520  11.958  66.498  1.00  0.00    -0.314 C  
HETATM    8  C   UNL     1     -10.639  10.853  66.928  1.00  0.00    -0.312 A  
HETATM    9  O   UNL     1     -12.200  12.587  67.307  1.00  0.00    -0.454 OA 
HETATM   10  O   UNL     1     -12.437  13.665  63.317  1.00  0.00    -0.801 OA 
HETATM   11  O   UNL     1     -13.143  14.054  65.421  1.00  0.00    -0.763 OA 
HETATM   12  C   UNL     1     -10.557  10.519  68.275  1.00  0.00    -0.240 A  
HETATM   13  C   UNL     1      -9.713   9.487  68.641  1.00  0.00    -0.155 A  
HETATM   14  F   UNL     1      -9.648   9.152  69.940  1.00  0.00    -0.161 F  
HETATM   15  C   UNL     1      -8.979   8.782  67.674  1.00  0.00    -0.135 A  
HETATM   16  C   UNL     1      -9.884  10.145  65.983  1.00  0.00    -0.246 A  
HETATM   17  N   UNL     1      -9.085   9.110  66.358  1.00  0.00    -0.159 NA 
BRANCH  15  18
HETATM   18  N   UNL     1      -8.171   7.720  68.042  1.00  0.00    -0.122 NA 
HETATM   19  C   UNL     1      -8.753   6.397  68.286  1.00  0.00    -0.116 C  
HETATM   20  C   UNL     1      -8.354   5.372  67.205  1.00  0.00    -0.107 C  
HETATM   21  N   UNL     1      -6.900   5.319  66.957  1.00  0.00    -0.062 NA 
HETATM   22  H   UNL     1      -6.648   4.619  66.260  1.00  0.00     0.000 HD 
HETATM   23  C   UNL     1      -6.433   6.669  66.595  1.00  0.00    -0.043 C  
HETATM   24  C   UNL     1      -6.750   7.740  67.666  1.00  0.00    -0.068 C  
ENDBRANCH  15  18
ENDBRANCH   2   3
TORSDOF 2
ENDMDL
MODEL       55
REMARK 921   NORMALIZED FREE ENERGY PREDICTED BY IDOCK:   -5.50 KCAL/MOL
REMARK 922        TOTAL FREE ENERGY PREDICTED BY IDOCK:   -6.61 KCAL/MOL
REMARK 923 INTER-LIGAND FREE ENERGY PREDICTED BY IDOCK:   -6.13 KCAL/MOL
REMARK 924 INTRA-LIGAND FREE ENERGY PREDICTED BY IDOCK:   -0.48 KCAL/MOL
REMARK 927      BINDING AFFINITY PREDICTED BY RF-SCORE:    0.00 PKD
ROOT
HETATM    1  C   UNL     1     -12.460   9.729  71.484  1.00  0.00    -0.495 C  
HETATM    2  C   UNL     1     -11.310  10.120  70.567  1.00  0.00    -0.338 C  
ENDROOT
BRANCH   2   3
HETATM    3  N   UNL     1     -10.896   8.986  69.733  1.00  0.00    -0.227 NA 
HETATM    4  C   UNL     1     -10.799   7.692  70.218  1.00  0.00    -0.246 C  
HETATM    5  C   UNL     1     -10.433   6.613  69.512  1.00  0.00    -0.253 C  
HETATM    6  C   UNL     1     -10.366   5.294  70.175  1.00  0.00    -0.284 C  
HETATM    7  C   UNL     1     -10.109   6.836  68.088  1.00  0.00    -0.164 C  
HETATM    8  C   UNL     1     -10.213   8.206  67.546  1.00  0.00    -0.309 A  
HETATM    9  O   UNL     1      -9.761   5.891  67.382  1.00  0.00    -0.110 OA 
HETATM   10  O   UNL     1     -10.631   5.124  71.356  1.00  0.00    -0.208 OA 
HETATM   11  O   UNL     1      -9.983   4.280  69.370  1.00  0.00    -0.183 OA 
HETATM   12  C   UNL     1      -9.897   8.447  66.215  1.00  0.00    -0.257 A  
HETATM   13  C   UNL     1      -9.993   9.745  65.746  1.00  0.00    -0.279 A  
HETATM   14  F   UNL     1      -9.707   9.975  64.454  1.00  0.00    -0.334 F  
HETATM   15  C   UNL     1     -10.424  10.782  66.588  1.00  0.00    -0.246 A  
HETATM   16  C   UNL     1     -10.623   9.261  68.372  1.00  0.00    -0.190 A  
HETATM   17  N   UNL     1     -10.746  10.525  67.884  1.00  0.00    -0.238 NA 
BRANCH  15  18
HETATM   18  N   UNL     1     -10.562  12.070  66.100  1.00  0.00    -0.254 NA 
HETATM   19  C   UNL     1     -11.821  12.496  65.481  1.00  0.00    -0.439 C  
HETATM   20  C   UNL     1     -12.581  13.526  66.342  1.00  0.00    -0.186 C  
HETATM   21  N   UNL     1     -11.741  14.663  66.769  1.00  0.00    -0.367 NA 
HETATM   22  H   UNL     1     -12.262  15.349  67.315  1.00  0.00     0.000 HD 
HETATM   23  C   UNL     1     -10.570  14.140  67.492  1.00  0.00    -0.257 C  
HETATM   24  C   UNL     1      -9.726  13.141  66.663  1.00  0.00    -0.261 C  
ENDBRANCH  15  18
ENDBRANCH   2   3
TORSDOF 2
ENDMDL
MODEL       56
REMARK 921   NORMALIZED FREE ENERGY PREDICTED BY IDOCK:   -5.47 KCAL/MOL
REMARK 922        TOTAL FREE ENERGY PREDICTED BY IDOCK:   -6.58 KCAL/MOL
REMARK 923 INTER-LIGAND FREE ENERGY PREDICTED BY IDOCK:   -6.88 KCAL/MOL
REMARK 924 INTRA-LIGAND FREE ENERGY PREDICTED BY IDOCK:    0.30 KCAL/MOL
REMARK 927      BINDING AFFINITY PREDICTED BY RF-SCORE:    0.00 PKD
ROOT
HETATM    1  C   UNL     1     -13.496   9.605  72.000  1.00  0.00    -0.514 C  
HETATM    2  C   UNL     1     -12.202   9.882  71.249  1.00  0.00    -0.387 C  
ENDROOT
BRANCH   2   3
HETATM    3  N   UNL     1     -12.190  11.247  70.711  1.00  0.00    -0.377 NA 
HETATM    4  C   UNL     1     -12.698  12.333  71.403  1.00  0.00    -0.248 C  
HETATM    5  C   UNL     1     -12.714  13.603  70.974  1.00  0.00    -0.408 C  
HETATM    6  C   UNL     1     -13.303  14.655  71.826  1.00  0.00    -0.360 C  
HETATM    7  C   UNL     1     -12.132  13.854  69.640  1.00  0.00    -0.349 C  
HETATM    8  C   UNL     1     -11.576  12.713  68.885  1.00  0.00    -0.363 A  
HETATM    9  O   UNL     1     -12.117  14.995  69.180  1.00  0.00    -0.288 OA 
HETATM   10  O   UNL     1     -13.788  14.434  72.926  1.00  0.00    -0.589 OA 
HETATM   11  O   UNL     1     -13.269  15.896  71.292  1.00  0.00    -0.503 OA 
HETATM   12  C   UNL     1     -11.038  12.918  67.620  1.00  0.00    -0.297 A  
HETATM   13  C   UNL     1     -10.539  11.823  66.938  1.00  0.00    -0.235 A  
HETATM   14  F   UNL     1     -10.001  12.024  65.724  1.00  0.00    -0.231 F  
HETATM   15  C   UNL     1     -10.553  10.546  67.521  1.00  0.00    -0.259 A  
HETATM   16  C   UNL     1     -11.595  11.426  69.438  1.00  0.00    -0.323 A  
HETATM   17  N   UNL     1     -11.068  10.366  68.767  1.00  0.00    -0.244 NA 
BRANCH  15  18
HETATM   18  N   UNL     1     -10.010   9.463  66.851  1.00  0.00    -0.211 NA 
HETATM   19  C   UNL     1      -9.761   9.535  65.408  1.00  0.00    -0.244 C  
HETATM   20  C   UNL     1      -8.256   9.563  65.073  1.00  0.00    -0.136 C  
HETATM   21  N   UNL     1      -7.491   8.486  65.732  1.00  0.00    -0.080 NA 
HETATM   22  H   UNL     1      -6.502   8.500  65.480  1.00  0.00     0.000 HD 
HETATM   23  C   UNL     1      -7.703   8.577  67.186  1.00  0.00    -0.097 C  
HETATM   24  C   UNL     1      -9.193   8.497  67.600  1.00  0.00    -0.134 C  
ENDBRANCH  15  18
ENDBRANCH   2   3
TORSDOF 2
ENDMDL
MODEL       57
REMARK 921   NORMALIZED FREE ENERGY PREDICTED BY IDOCK:   -5.45 KCAL/MOL
REMARK 922        TOTAL FREE ENERGY PREDICTED BY IDOCK:   -6.55 KCAL/MOL
REMARK 923 INTER-LIGAND FREE ENERGY PREDICTED BY IDOCK:   -6.15 KCAL/MOL
REMARK 924 INTRA-LIGAND FREE ENERGY PREDICTED BY IDOCK:   -0.40 KCAL/MOL
REMARK 927      BINDING AFFINITY PREDICTED BY RF-SCORE:    0.00 PKD
ROOT
HETATM    1  C   UNL     1     -13.058  10.969  71.545  1.00  0.00    -0.500 C  
HETATM    2  C   UNL     1     -12.262  11.382  70.315  1.00  0.00    -0.349 C  
ENDROOT
BRANCH   2   3
HETATM    3  N   UNL     1     -11.065  10.548  70.161  1.00  0.00    -0.300 NA 
HETATM    4  C   UNL     1     -10.667   9.621  71.109  1.00  0.00    -0.294 C  
HETATM    5  C   UNL     1      -9.591   8.825  71.030  1.00  0.00    -0.290 C  
HETATM    6  C   UNL     1      -9.290   7.890  72.132  1.00  0.00    -0.169 C  
HETATM    7  C   UNL     1      -8.763   8.957  69.814  1.00  0.00    -0.139 C  
HETATM    8  C   UNL     1      -9.171   9.934  68.784  1.00  0.00    -0.147 A  
HETATM    9  O   UNL     1      -7.758   8.262  69.675  1.00  0.00    -0.095 OA 
HETATM   10  O   UNL     1      -9.980   7.794  73.137  1.00  0.00    -0.267 OA 
HETATM   11  O   UNL     1      -8.181   7.141  71.948  1.00  0.00    -0.104 OA 
HETATM   12  C   UNL     1      -8.401  10.091  67.638  1.00  0.00    -0.114 A  
HETATM   13  C   UNL     1      -8.808  11.025  66.702  1.00  0.00    -0.164 A  
HETATM   14  F   UNL     1      -8.075  11.163  65.585  1.00  0.00    -0.146 F  
HETATM   15  C   UNL     1      -9.981  11.772  66.895  1.00  0.00    -0.199 A  
HETATM   16  C   UNL     1     -10.328  10.704  68.962  1.00  0.00    -0.218 A  
HETATM   17  N   UNL     1     -10.732  11.593  68.014  1.00  0.00    -0.199 NA 
BRANCH  15  18
HETATM   18  N   UNL     1     -10.406  12.672  65.932  1.00  0.00    -0.271 NA 
HETATM   19  C   UNL     1     -10.928  12.191  64.650  1.00  0.00    -0.312 C  
HETATM   20  C   UNL     1     -12.444  12.440  64.502  1.00  0.00    -0.435 C  
HETATM   21  N   UNL     1     -12.837  13.833  64.793  1.00  0.00    -0.704 NA 
HETATM   22  H   UNL     1     -13.837  13.991  64.665  1.00  0.00     0.000 HD 
HETATM   23  C   UNL     1     -12.380  14.180  66.150  1.00  0.00    -0.436 C  
HETATM   24  C   UNL     1     -10.855  14.007  66.352  1.00  0.00    -0.299 C  
ENDBRANCH  15  18
ENDBRANCH   2   3
TORSDOF 2
ENDMDL
MODEL       58
REMARK 921   NORMALIZED FREE ENERGY PREDICTED BY IDOCK:   -5.35 KCAL/MOL
REMARK 922        TOTAL FREE ENERGY PREDICTED BY IDOCK:   -6.44 KCAL/MOL
REMARK 923 INTER-LIGAND FREE ENERGY PREDICTED BY IDOCK:   -5.99 KCAL/MOL
REMARK 924 INTRA-LIGAND FREE ENERGY PREDICTED BY IDOCK:   -0.45 KCAL/MOL
REMARK 927      BINDING AFFINITY PREDICTED BY RF-SCORE:    0.00 PKD
ROOT
HETATM    1  C   UNL     1      -5.847  16.904  68.591  1.00  0.00    -0.140 C  
HETATM    2  C   UNL     1      -6.950  15.873  68.405  1.00  0.00    -0.116 C  
ENDROOT
BRANCH   2   3
HETATM    3  N   UNL     1      -8.006  16.386  67.525  1.00  0.00    -0.148 NA 
HETATM    4  C   UNL     1      -8.237  17.739  67.339  1.00  0.00    -0.214 C  
HETATM    5  C   UNL     1      -9.177  18.276  66.548  1.00  0.00    -0.298 C  
HETATM    6  C   UNL     1      -9.309  19.744  66.462  1.00  0.00    -0.394 C  
HETATM    7  C   UNL     1     -10.037  17.327  65.811  1.00  0.00    -0.141 C  
HETATM    8  C   UNL     1      -9.805  15.879  65.987  1.00  0.00    -0.366 A  
HETATM    9  O   UNL     1     -10.924  17.749  65.071  1.00  0.00    -0.784 OA 
HETATM   10  O   UNL     1      -8.595  20.518  67.082  1.00  0.00    -0.335 OA 
HETATM   11  O   UNL     1     -10.291  20.173  65.639  1.00  0.00    -0.421 OA 
HETATM   12  C   UNL     1     -10.610  14.965  65.319  1.00  0.00    -0.421 A  
HETATM   13  C   UNL     1     -10.371  13.618  65.518  1.00  0.00    -0.309 A  
HETATM   14  F   UNL     1     -11.137  12.734  64.858  1.00  0.00    -0.295 F  
HETATM   15  C   UNL     1      -9.326  13.189  66.352  1.00  0.00    -0.179 A  
HETATM   16  C   UNL     1      -8.779  15.427  66.827  1.00  0.00    -0.269 A  
HETATM   17  N   UNL     1      -8.536  14.098  66.984  1.00  0.00    -0.209 NA 
BRANCH  15  18
HETATM   18  N   UNL     1      -9.063  11.839  66.510  1.00  0.00    -0.200 NA 
HETATM   19  C   UNL     1      -9.970  10.996  67.295  1.00  0.00    -0.181 C  
HETATM   20  C   UNL     1     -10.747   9.993  66.418  1.00  0.00     0.007 C  
HETATM   21  N   UNL     1      -9.878   9.211  65.516  1.00  0.00    -0.452 NA 
HETATM   22  H   UNL     1     -10.401   8.534  64.961  1.00  0.00     0.000 HD 
HETATM   23  C   UNL     1      -9.103  10.144  64.681  1.00  0.00    -0.227 C  
HETATM   24  C   UNL     1      -8.252  11.146  65.499  1.00  0.00     0.102 C  
ENDBRANCH  15  18
ENDBRANCH   2   3
TORSDOF 2
ENDMDL
MODEL       59
REMARK 921   NORMALIZED FREE ENERGY PREDICTED BY IDOCK:   -5.35 KCAL/MOL
REMARK 922        TOTAL FREE ENERGY PREDICTED BY IDOCK:   -6.44 KCAL/MOL
REMARK 923 INTER-LIGAND FREE ENERGY PREDICTED BY IDOCK:   -5.99 KCAL/MOL
REMARK 924 INTRA-LIGAND FREE ENERGY PREDICTED BY IDOCK:   -0.45 KCAL/MOL
REMARK 927      BINDING AFFINITY PREDICTED BY RF-SCORE:    0.00 PKD
ROOT
HETATM    1  C   UNL     1     -12.187  11.047  69.749  1.00  0.00    -0.388 C  
HETATM    2  C   UNL     1     -10.992  11.774  69.150  1.00  0.00    -0.209 C  
ENDROOT
BRANCH   2   3
HETATM    3  N   UNL     1     -10.958  11.615  67.692  1.00  0.00    -0.224 NA 
HETATM    4  C   UNL     1     -11.674  12.428  66.830  1.00  0.00    -0.362 C  
HETATM    5  C   UNL     1     -11.684  12.342  65.492  1.00  0.00    -0.433 C  
HETATM    6  C   UNL     1     -12.511  13.279  64.705  1.00  0.00    -0.383 C  
HETATM    7  C   UNL     1     -10.850  11.279  64.895  1.00  0.00    -0.229 C  
HETATM    8  C   UNL     1     -10.071  10.403  65.794  1.00  0.00    -0.329 A  
HETATM    9  O   UNL     1     -10.816  11.138  63.674  1.00  0.00    -0.367 OA 
HETATM   10  O   UNL     1     -13.202  14.150  65.212  1.00  0.00    -0.760 OA 
HETATM   11  O   UNL     1     -12.448  13.098  63.368  1.00  0.00    -0.730 OA 
HETATM   12  C   UNL     1      -9.292   9.385  65.259  1.00  0.00    -0.303 A  
HETATM   13  C   UNL     1      -8.586   8.577  66.133  1.00  0.00    -0.138 A  
HETATM   14  F   UNL     1      -7.817   7.605  65.616  1.00  0.00    -0.087 F  
HETATM   15  C   UNL     1      -8.638   8.799  67.518  1.00  0.00    -0.127 A  
HETATM   16  C   UNL     1     -10.120  10.594  67.181  1.00  0.00    -0.207 A  
HETATM   17  N   UNL     1      -9.392   9.812  68.022  1.00  0.00    -0.128 NA 
BRANCH  15  18
HETATM   18  N   UNL     1      -7.893   8.016  68.383  1.00  0.00    -0.120 NA 
HETATM   19  C   UNL     1      -6.781   8.600  69.139  1.00  0.00    -0.047 C  
HETATM   20  C   UNL     1      -7.082   8.691  70.649  1.00  0.00    -0.056 C  
HETATM   21  N   UNL     1      -7.559   7.419  71.227  1.00  0.00    -0.081 NA 
HETATM   22  H   UNL     1      -7.729   7.486  72.231  1.00  0.00     0.000 HD 
HETATM   23  C   UNL     1      -8.752   6.980  70.483  1.00  0.00    -0.153 C  
HETATM   24  C   UNL     1      -8.506   6.812  68.964  1.00  0.00    -0.128 C  
ENDBRANCH  15  18
ENDBRANCH   2   3
TORSDOF 2
ENDMDL
MODEL       60
REMARK 921   NORMALIZED FREE ENERGY PREDICTED BY IDOCK:   -5.35 KCAL/MOL
REMARK 922        TOTAL FREE ENERGY PREDICTED BY IDOCK:   -6.44 KCAL/MOL
REMARK 923 INTER-LIGAND FREE ENERGY PREDICTED BY IDOCK:   -5.97 KCAL/MOL
REMARK 924 INTRA-LIGAND FREE ENERGY PREDICTED BY IDOCK:   -0.47 KCAL/MOL
REMARK 927      BINDING AFFINITY PREDICTED BY RF-SCORE:    0.00 PKD
ROOT
HETATM    1  C   UNL     1      -8.799  11.518  68.099  1.00  0.00    -0.165 C  
HETATM    2  C   UNL     1     -10.181  10.957  67.799  1.00  0.00    -0.180 C  
ENDROOT
BRANCH   2   3
HETATM    3  N   UNL     1     -11.017  10.948  69.005  1.00  0.00    -0.217 NA 
HETATM    4  C   UNL     1     -11.573  12.096  69.543  1.00  0.00    -0.315 C  
HETATM    5  C   UNL     1     -12.348  12.158  70.635  1.00  0.00    -0.385 C  
HETATM    6  C   UNL     1     -12.861  13.464  71.095  1.00  0.00    -0.291 C  
HETATM    7  C   UNL     1     -12.628  10.878  71.318  1.00  0.00    -0.421 C  
HETATM    8  C   UNL     1     -12.052   9.638  70.758  1.00  0.00    -0.328 A  
HETATM    9  O   UNL     1     -13.327  10.860  72.329  1.00  0.00    -0.380 OA 
HETATM   10  O   UNL     1     -12.617  14.518  70.525  1.00  0.00    -0.327 OA 
HETATM   11  O   UNL     1     -13.626  13.409  72.206  1.00  0.00    -0.518 OA 
HETATM   12  C   UNL     1     -12.285   8.423  71.390  1.00  0.00    -0.335 A  
HETATM   13  C   UNL     1     -11.718   7.285  70.844  1.00  0.00    -0.315 A  
HETATM   14  F   UNL     1     -11.959   6.107  71.443  1.00  0.00    -0.358 F  
HETATM   15  C   UNL     1     -10.951   7.357  69.670  1.00  0.00    -0.172 A  
HETATM   16  C   UNL     1     -11.268   9.686  69.598  1.00  0.00    -0.141 A  
HETATM   17  N   UNL     1     -10.748   8.552  69.056  1.00  0.00    -0.151 NA 
BRANCH  15  18
HETATM   18  N   UNL     1     -10.425   6.208  69.105  1.00  0.00    -0.222 NA 
HETATM   19  C   UNL     1     -10.679   5.895  67.695  1.00  0.00    -0.270 C  
HETATM   20  C   UNL     1      -9.410   6.022  66.827  1.00  0.00    -0.138 C  
HETATM   21  N   UNL     1      -8.251   5.290  67.376  1.00  0.00    -0.104 NA 
HETATM   22  H   UNL     1      -7.427   5.361  66.780  1.00  0.00     0.000 HD 
HETATM   23  C   UNL     1      -7.997   5.766  68.747  1.00  0.00    -0.101 C  
HETATM   24  C   UNL     1      -9.215   5.613  69.690  1.00  0.00    -0.137 C  
ENDBRANCH  15  18
ENDBRANCH   2   3
TORSDOF 2
ENDMDL
MODEL       61
REMARK 921   NORMALIZED FREE ENERGY PREDICTED BY IDOCK:   -5.33 KCAL/MOL
REMARK 922        TOTAL FREE ENERGY PREDICTED BY IDOCK:   -6.42 KCAL/MOL
REMARK 923 INTER-LIGAND FREE ENERGY PREDICTED BY IDOCK:   -5.97 KCAL/MOL
REMARK 924 INTRA-LIGAND FREE ENERGY PREDICTED BY IDOCK:   -0.46 KCAL/MOL
REMARK 927      BINDING AFFINITY PREDICTED BY RF-SCORE:    0.00 PKD
ROOT
HETATM    1  C   UNL     1     -10.448  11.603  63.104  1.00  0.00    -0.368 C  
HETATM    2  C   UNL     1     -10.821  11.591  64.579  1.00  0.00    -0.327 C  
ENDROOT
BRANCH   2   3
HETATM    3  N   UNL     1     -10.375  12.821  65.243  1.00  0.00    -0.292 NA 
HETATM    4  C   UNL     1     -10.802  14.080  64.857  1.00  0.00    -0.410 C  
HETATM    5  C   UNL     1     -10.440  15.241  65.422  1.00  0.00    -0.422 C  
HETATM    6  C   UNL     1     -10.974  16.511  64.889  1.00  0.00    -0.209 C  
HETATM    7  C   UNL     1      -9.501  15.156  66.559  1.00  0.00    -0.283 C  
HETATM    8  C   UNL     1      -9.036  13.823  66.993  1.00  0.00    -0.253 A  
HETATM    9  O   UNL     1      -9.121  16.182  67.121  1.00  0.00    -0.196 OA 
HETATM   10  O   UNL     1     -11.746  16.569  63.943  1.00  0.00    -1.148 OA 
HETATM   11  O   UNL     1     -10.540  17.617  65.531  1.00  0.00    -0.622 OA 
HETATM   12  C   UNL     1      -8.139  13.715  68.049  1.00  0.00    -0.161 A  
HETATM   13  C   UNL     1      -7.717  12.451  68.420  1.00  0.00    -0.144 A  
HETATM   14  F   UNL     1      -6.866  12.345  69.452  1.00  0.00    -0.104 F  
HETATM   15  C   UNL     1      -8.204  11.310  67.762  1.00  0.00    -0.120 A  
HETATM   16  C   UNL     1      -9.494  12.670  66.342  1.00  0.00    -0.231 A  
HETATM   17  N   UNL     1      -9.095  11.433  66.743  1.00  0.00    -0.171 NA 
BRANCH  15  18
HETATM   18  N   UNL     1      -7.812  10.046  68.169  1.00  0.00    -0.089 NA 
HETATM   19  C   UNL     1      -6.449   9.575  67.909  1.00  0.00    -0.062 C  
HETATM   20  C   UNL     1      -5.614   9.448  69.200  1.00  0.00    -0.036 C  
HETATM   21  N   UNL     1      -6.293   8.676  70.260  1.00  0.00    -0.037 NA 
HETATM   22  H   UNL     1      -5.720   8.578  71.098  1.00  0.00     0.000 HD 
HETATM   23  C   UNL     1      -7.597   9.302  70.539  1.00  0.00    -0.139 C  
HETATM   24  C   UNL     1      -8.511   9.409  69.295  1.00  0.00    -0.141 C  
ENDBRANCH  15  18
ENDBRANCH   2   3
TORSDOF 2
ENDMDL
MODEL       62
REMARK 921   NORMALIZED FREE ENERGY PREDICTED BY IDOCK:   -5.29 KCAL/MOL
REMARK 922        TOTAL FREE ENERGY PREDICTED BY IDOCK:   -6.37 KCAL/MOL
REMARK 923 INTER-LIGAND FREE ENERGY PREDICTED BY IDOCK:   -6.50 KCAL/MOL
REMARK 924 INTRA-LIGAND FREE ENERGY PREDICTED BY IDOCK:    0.13 KCAL/MOL
REMARK 927      BINDING AFFINITY PREDICTED BY RF-SCORE:    0.00 PKD
ROOT
HETATM    1  C   UNL     1     -11.625  14.247  64.208  1.00  0.00    -0.299 C  
HETATM    2  C   UNL     1     -10.302  14.019  64.924  1.00  0.00    -0.409 C  
ENDROOT
BRANCH   2   3
HETATM    3  N   UNL     1     -10.517  13.418  66.245  1.00  0.00    -0.284 NA 
HETATM    4  C   UNL     1     -10.575  12.049  66.447  1.00  0.00    -0.243 C  
HETATM    5  C   UNL     1     -10.762  11.435  67.624  1.00  0.00    -0.261 C  
HETATM    6  C   UNL     1     -10.811   9.960  67.679  1.00  0.00    -0.257 C  
HETATM    7  C   UNL     1     -10.918  12.308  68.805  1.00  0.00    -0.236 C  
HETATM    8  C   UNL     1     -10.852  13.772  68.616  1.00  0.00    -0.280 A  
HETATM    9  O   UNL     1     -11.098  11.813  69.917  1.00  0.00    -0.096 OA 
HETATM   10  O   UNL     1     -10.688   9.248  66.693  1.00  0.00    -0.145 OA 
HETATM   11  O   UNL     1     -11.009   9.450  68.914  1.00  0.00    -0.165 OA 
HETATM   12  C   UNL     1     -11.012  14.617  69.707  1.00  0.00    -0.232 A  
HETATM   13  C   UNL     1     -10.957  15.981  69.489  1.00  0.00    -0.326 A  
HETATM   14  F   UNL     1     -11.093  16.798  70.546  1.00  0.00    -0.351 F  
HETATM   15  C   UNL     1     -10.720  16.494  68.204  1.00  0.00    -0.343 A  
HETATM   16  C   UNL     1     -10.633  14.308  67.340  1.00  0.00    -0.276 A  
HETATM   17  N   UNL     1     -10.547  15.652  67.150  1.00  0.00    -0.305 NA 
BRANCH  15  18
HETATM   18  N   UNL     1     -10.620  17.860  68.001  1.00  0.00    -0.381 NA 
HETATM   19  C   UNL     1     -10.142  18.735  69.076  1.00  0.00    -0.242 C  
HETATM   20  C   UNL     1      -8.751  19.329  68.774  1.00  0.00    -0.346 C  
HETATM   21  N   UNL     1      -8.661  19.960  67.443  1.00  0.00    -0.325 NA 
HETATM   22  H   UNL     1      -7.745  20.372  67.267  1.00  0.00     0.000 HD 
HETATM   23  C   UNL     1      -9.037  18.966  66.423  1.00  0.00    -0.311 C  
HETATM   24  C   UNL     1     -10.450  18.368  66.632  1.00  0.00    -0.385 C  
ENDBRANCH  15  18
ENDBRANCH   2   3
TORSDOF 2
ENDMDL
MODEL       63
REMARK 921   NORMALIZED FREE ENERGY PREDICTED BY IDOCK:   -5.26 KCAL/MOL
REMARK 922        TOTAL FREE ENERGY PREDICTED BY IDOCK:   -6.34 KCAL/MOL
REMARK 923 INTER-LIGAND FREE ENERGY PREDICTED BY IDOCK:   -6.34 KCAL/MOL
REMARK 924 INTRA-LIGAND FREE ENERGY PREDICTED BY IDOCK:    0.00 KCAL/MOL
REMARK 927      BINDING AFFINITY PREDICTED BY RF-SCORE:    0.00 PKD
ROOT
HETATM    1  C   UNL     1      -7.376  14.837  69.697  1.00  0.00    -0.114 C  
HETATM    2  C   UNL     1      -6.941  14.343  68.325  1.00  0.00    -0.113 C  
ENDROOT
BRANCH   2   3
HETATM    3  N   UNL     1      -8.038  13.642  67.648  1.00  0.00    -0.163 NA 
HETATM    4  C   UNL     1      -8.247  12.278  67.768  1.00  0.00    -0.161 C  
HETATM    5  C   UNL     1      -9.229  11.578  67.183  1.00  0.00    -0.171 C  
HETATM    6  C   UNL     1      -9.315  10.119  67.400  1.00  0.00    -0.148 C  
HETATM    7  C   UNL     1     -10.168  12.341  66.337  1.00  0.00    -0.225 C  
HETATM    8  C   UNL     1      -9.970  13.798  66.199  1.00  0.00    -0.318 A  
HETATM    9  O   UNL     1     -11.090  11.762  65.765  1.00  0.00    -0.311 OA 
HETATM   10  O   UNL     1      -8.528   9.498  68.098  1.00  0.00    -0.118 OA 
HETATM   11  O   UNL     1     -10.340   9.516  66.760  1.00  0.00    -0.246 OA 
HETATM   12  C   UNL     1     -10.829  14.538  65.395  1.00  0.00    -0.362 A  
HETATM   13  C   UNL     1     -10.605  15.898  65.279  1.00  0.00    -0.419 A  
HETATM   14  F   UNL     1     -11.446  16.616  64.518  1.00  0.00    -0.450 F  
HETATM   15  C   UNL     1      -9.554  16.515  65.977  1.00  0.00    -0.290 A  
HETATM   16  C   UNL     1      -8.918  14.434  66.871  1.00  0.00    -0.243 A  
HETATM   17  N   UNL     1      -8.734  15.778  66.773  1.00  0.00    -0.244 NA 
BRANCH  15  18
HETATM   18  N   UNL     1      -9.364  17.883  65.893  1.00  0.00    -0.514 NA 
HETATM   19  C   UNL     1     -10.511  18.794  65.951  1.00  0.00    -0.376 C  
HETATM   20  C   UNL     1     -10.541  19.618  67.255  1.00  0.00    -0.472 C  
HETATM   21  N   UNL     1      -9.261  20.291  67.551  1.00  0.00    -0.370 NA 
HETATM   22  H   UNL     1      -9.303  20.853  68.401  1.00  0.00     0.000 HD 
HETATM   23  C   UNL     1      -8.193  19.278  67.598  1.00  0.00    -0.292 C  
HETATM   24  C   UNL     1      -8.069  18.450  66.295  1.00  0.00    -0.221 C  
ENDBRANCH  15  18
ENDBRANCH   2   3
TORSDOF 2
ENDMDL
MODEL       64
REMARK 921   NORMALIZED FREE ENERGY PREDICTED BY IDOCK:   -5.22 KCAL/MOL
REMARK 922        TOTAL FREE ENERGY PREDICTED BY IDOCK:   -6.30 KCAL/MOL
REMARK 923 INTER-LIGAND FREE ENERGY PREDICTED BY IDOCK:   -5.94 KCAL/MOL
REMARK 924 INTRA-LIGAND FREE ENERGY PREDICTED BY IDOCK:   -0.36 KCAL/MOL
REMARK 927      BINDING AFFINITY PREDICTED BY RF-SCORE:    0.00 PKD
ROOT
HETATM    1  C   UNL     1     -13.161  10.242  70.766  1.00  0.00    -0.360 C  
HETATM    2  C   UNL     1     -11.750  10.809  70.699  1.00  0.00    -0.342 C  
ENDROOT
BRANCH   2   3
HETATM    3  N   UNL     1     -11.452  11.317  69.356  1.00  0.00    -0.272 NA 
HETATM    4  C   UNL     1     -11.640  12.640  68.994  1.00  0.00    -0.317 C  
HETATM    5  C   UNL     1     -11.383  13.171  67.790  1.00  0.00    -0.326 C  
HETATM    6  C   UNL     1     -11.646  14.605  67.552  1.00  0.00    -0.375 C  
HETATM    7  C   UNL     1     -10.851  12.251  66.764  1.00  0.00    -0.253 C  
HETATM    8  C   UNL     1     -10.635  10.836  67.129  1.00  0.00    -0.306 A  
HETATM    9  O   UNL     1     -10.598  12.668  65.635  1.00  0.00    -0.264 OA 
HETATM   10  O   UNL     1     -12.094  15.355  68.407  1.00  0.00    -0.223 OA 
HETATM   11  O   UNL     1     -11.356  15.030  66.303  1.00  0.00    -0.341 OA 
HETATM   12  C   UNL     1     -10.151   9.945  66.178  1.00  0.00    -0.315 A  
HETATM   13  C   UNL     1      -9.974   8.625  66.553  1.00  0.00    -0.282 A  
HETATM   14  F   UNL     1      -9.488   7.768  65.640  1.00  0.00    -0.103 F  
HETATM   15  C   UNL     1     -10.251   8.207  67.864  1.00  0.00    -0.218 A  
HETATM   16  C   UNL     1     -10.921  10.390  68.426  1.00  0.00    -0.264 A  
HETATM   17  N   UNL     1     -10.707   9.096  68.786  1.00  0.00    -0.177 NA 
BRANCH  15  18
HETATM   18  N   UNL     1     -10.028   6.894  68.244  1.00  0.00    -0.148 NA 
HETATM   19  C   UNL     1      -8.675   6.443  68.585  1.00  0.00    -0.122 C  
HETATM   20  C   UNL     1      -8.520   6.133  70.088  1.00  0.00    -0.133 C  
HETATM   21  N   UNL     1      -9.571   5.237  70.610  1.00  0.00    -0.166 NA 
HETATM   22  H   UNL     1      -9.442   5.019  71.599  1.00  0.00     0.000 HD 
HETATM   23  C   UNL     1     -10.887   5.838  70.334  1.00  0.00    -0.290 C  
HETATM   24  C   UNL     1     -11.132   6.123  68.832  1.00  0.00    -0.345 C  
ENDBRANCH  15  18
ENDBRANCH   2   3
TORSDOF 2
ENDMDL
MODEL       65
REMARK 921   NORMALIZED FREE ENERGY PREDICTED BY IDOCK:   -5.22 KCAL/MOL
REMARK 922        TOTAL FREE ENERGY PREDICTED BY IDOCK:   -6.29 KCAL/MOL
REMARK 923 INTER-LIGAND FREE ENERGY PREDICTED BY IDOCK:   -5.86 KCAL/MOL
REMARK 924 INTRA-LIGAND FREE ENERGY PREDICTED BY IDOCK:   -0.43 KCAL/MOL
REMARK 927      BINDING AFFINITY PREDICTED BY RF-SCORE:    0.00 PKD
ROOT
HETATM    1  C   UNL     1     -13.864   9.182  72.336  1.00  0.00    -0.524 C  
HETATM    2  C   UNL     1     -13.280  10.038  71.222  1.00  0.00    -0.383 C  
ENDROOT
BRANCH   2   3
HETATM    3  N   UNL     1     -11.898   9.643  70.926  1.00  0.00    -0.304 NA 
HETATM    4  C   UNL     1     -11.321   8.491  71.434  1.00  0.00    -0.271 C  
HETATM    5  C   UNL     1     -10.070   8.070  71.200  1.00  0.00    -0.221 C  
HETATM    6  C   UNL     1      -9.591   6.819  71.825  1.00  0.00    -0.157 C  
HETATM    7  C   UNL     1      -9.242   8.918  70.319  1.00  0.00    -0.185 C  
HETATM    8  C   UNL     1      -9.839  10.148  69.759  1.00  0.00    -0.245 A  
HETATM    9  O   UNL     1      -8.083   8.595  70.066  1.00  0.00    -0.103 OA 
HETATM   10  O   UNL     1     -10.284   6.129  72.558  1.00  0.00    -0.181 OA 
HETATM   11  O   UNL     1      -8.316   6.493  71.524  1.00  0.00    -0.119 OA 
HETATM   12  C   UNL     1      -9.077  10.974  68.941  1.00  0.00    -0.132 A  
HETATM   13  C   UNL     1      -9.666  12.123  68.446  1.00  0.00    -0.193 A  
HETATM   14  F   UNL     1      -8.936  12.911  67.639  1.00  0.00    -0.160 F  
HETATM   15  C   UNL     1     -11.003  12.431  68.742  1.00  0.00    -0.246 A  
HETATM   16  C   UNL     1     -11.166  10.485  70.055  1.00  0.00    -0.315 A  
HETATM   17  N   UNL     1     -11.739  11.602  69.530  1.00  0.00    -0.316 NA 
BRANCH  15  18
HETATM   18  N   UNL     1     -11.599  13.559  68.206  1.00  0.00    -0.323 NA 
HETATM   19  C   UNL     1     -11.397  14.870  68.831  1.00  0.00    -0.283 C  
HETATM   20  C   UNL     1     -10.535  15.809  67.962  1.00  0.00    -0.270 C  
HETATM   21  N   UNL     1     -11.005  15.908  66.566  1.00  0.00    -0.195 NA 
HETATM   22  H   UNL     1     -10.442  16.551  66.010  1.00  0.00     0.000 HD 
HETATM   23  C   UNL     1     -11.051  14.554  65.986  1.00  0.00    -0.329 C  
HETATM   24  C   UNL     1     -11.948  13.573  66.778  1.00  0.00    -0.404 C  
ENDBRANCH  15  18
ENDBRANCH   2   3
TORSDOF 2
ENDMDL
MODEL       66
REMARK 921   NORMALIZED FREE ENERGY PREDICTED BY IDOCK:   -5.18 KCAL/MOL
REMARK 922        TOTAL FREE ENERGY PREDICTED BY IDOCK:   -6.25 KCAL/MOL
REMARK 923 INTER-LIGAND FREE ENERGY PREDICTED BY IDOCK:   -5.78 KCAL/MOL
REMARK 924 INTRA-LIGAND FREE ENERGY PREDICTED BY IDOCK:   -0.47 KCAL/MOL
REMARK 927      BINDING AFFINITY PREDICTED BY RF-SCORE:    0.00 PKD
ROOT
HETATM    1  C   UNL     1     -12.943   9.844  71.575  1.00  0.00    -0.523 C  
HETATM    2  C   UNL     1     -11.487  10.153  71.257  1.00  0.00    -0.249 C  
ENDROOT
BRANCH   2   3
HETATM    3  N   UNL     1     -11.065   9.479  70.024  1.00  0.00    -0.241 NA 
HETATM    4  C   UNL     1     -10.935   8.104  69.925  1.00  0.00    -0.168 C  
HETATM    5  C   UNL     1     -10.560   7.426  68.832  1.00  0.00    -0.191 C  
HETATM    6  C   UNL     1     -10.457   5.953  68.884  1.00  0.00    -0.259 C  
HETATM    7  C   UNL     1     -10.263   8.229  67.628  1.00  0.00    -0.231 C  
HETATM    8  C   UNL     1     -10.402   9.697  67.706  1.00  0.00    -0.286 A  
HETATM    9  O   UNL     1      -9.908   7.673  66.590  1.00  0.00    -0.216 OA 
HETATM   10  O   UNL     1     -10.699   5.300  69.889  1.00  0.00    -0.291 OA 
HETATM   11  O   UNL     1     -10.067   5.375  67.728  1.00  0.00    -0.155 OA 
HETATM   12  C   UNL     1     -10.112  10.478  66.594  1.00  0.00    -0.275 A  
HETATM   13  C   UNL     1     -10.241  11.850  66.709  1.00  0.00    -0.206 A  
HETATM   14  F   UNL     1      -9.980  12.604  65.629  1.00  0.00    -0.255 F  
HETATM   15  C   UNL     1     -10.678  12.433  67.910  1.00  0.00    -0.220 A  
HETATM   16  C   UNL     1     -10.819  10.303  68.899  1.00  0.00    -0.228 A  
HETATM   17  N   UNL     1     -10.974  11.652  68.983  1.00  0.00    -0.228 NA 
BRANCH  15  18
HETATM   18  N   UNL     1     -10.849  13.803  68.003  1.00  0.00    -0.245 NA 
HETATM   19  C   UNL     1     -12.123  14.360  68.468  1.00  0.00    -0.243 C  
HETATM   20  C   UNL     1     -12.006  15.018  69.858  1.00  0.00    -0.334 C  
HETATM   21  N   UNL     1     -10.892  15.981  69.956  1.00  0.00    -0.335 NA 
HETATM   22  H   UNL     1     -10.842  16.428  70.871  1.00  0.00     0.000 HD 
HETATM   23  C   UNL     1      -9.639  15.295  69.595  1.00  0.00    -0.180 C  
HETATM   24  C   UNL     1      -9.668  14.660  68.183  1.00  0.00    -0.220 C  
ENDBRANCH  15  18
ENDBRANCH   2   3
TORSDOF 2
ENDMDL
MODEL       67
REMARK 921   NORMALIZED FREE ENERGY PREDICTED BY IDOCK:   -5.16 KCAL/MOL
REMARK 922        TOTAL FREE ENERGY PREDICTED BY IDOCK:   -6.23 KCAL/MOL
REMARK 923 INTER-LIGAND FREE ENERGY PREDICTED BY IDOCK:   -5.78 KCAL/MOL
REMARK 924 INTRA-LIGAND FREE ENERGY PREDICTED BY IDOCK:   -0.44 KCAL/MOL
REMARK 927      BINDING AFFINITY PREDICTED BY RF-SCORE:    0.00 PKD
ROOT
HETATM    1  C   UNL     1      -6.523  18.059  68.982  1.00  0.00    -0.240 C  
HETATM    2  C   UNL     1      -7.447  16.853  68.890  1.00  0.00    -0.238 C  
ENDROOT
BRANCH   2   3
HETATM    3  N   UNL     1      -8.426  17.022  67.811  1.00  0.00    -0.196 NA 
HETATM    4  C   UNL     1      -8.924  18.259  67.436  1.00  0.00    -0.257 C  
HETATM    5  C   UNL     1      -9.814  18.486  66.459  1.00  0.00    -0.380 C  
HETATM    6  C   UNL     1     -10.260  19.866  66.182  1.00  0.00    -0.503 C  
HETATM    7  C   UNL     1     -10.298  17.301  65.722  1.00  0.00    -0.234 C  
HETATM    8  C   UNL     1      -9.776  15.972  66.099  1.00  0.00    -0.353 A  
HETATM    9  O   UNL     1     -11.120  17.434  64.816  1.00  0.00    -0.973 OA 
HETATM   10  O   UNL     1      -9.856  20.838  66.804  1.00  0.00    -0.324 OA 
HETATM   11  O   UNL     1     -11.159  19.976  65.181  1.00  0.00    -0.289 OA 
HETATM   12  C   UNL     1     -10.227  14.839  65.433  1.00  0.00    -0.415 A  
HETATM   13  C   UNL     1      -9.725  13.610  65.822  1.00  0.00    -0.140 A  
HETATM   14  F   UNL     1     -10.147  12.517  65.166  1.00  0.00    -0.274 F  
HETATM   15  C   UNL     1      -8.767  13.517  66.843  1.00  0.00    -0.145 A  
HETATM   16  C   UNL     1      -8.832  15.851  67.127  1.00  0.00    -0.207 A  
HETATM   17  N   UNL     1      -8.323  14.638  67.472  1.00  0.00    -0.176 NA 
BRANCH  15  18
HETATM   18  N   UNL     1      -8.235  12.288  67.196  1.00  0.00    -0.180 NA 
HETATM   19  C   UNL     1      -6.782  12.111  67.290  1.00  0.00    -0.144 C  
HETATM   20  C   UNL     1      -6.308  11.911  68.744  1.00  0.00    -0.063 C  
HETATM   21  N   UNL     1      -7.059  10.864  69.465  1.00  0.00    -0.151 NA 
HETATM   22  H   UNL     1      -6.718  10.724  70.416  1.00  0.00     0.000 HD 
HETATM   23  C   UNL     1      -8.493  11.199  69.425  1.00  0.00     0.268 C  
HETATM   24  C   UNL     1      -9.051  11.358  67.990  1.00  0.00    -0.171 C  
ENDBRANCH  15  18
ENDBRANCH   2   3
TORSDOF 2
ENDMDL
MODEL       68
REMARK 921   NORMALIZED FREE ENERGY PREDICTED BY IDOCK:   -5.15 KCAL/MOL
REMARK 922        TOTAL FREE ENERGY PREDICTED BY IDOCK:   -6.21 KCAL/MOL
REMARK 923 INTER-LIGAND FREE ENERGY PREDICTED BY IDOCK:   -5.76 KCAL/MOL
REMARK 924 INTRA-LIGAND FREE ENERGY PREDICTED BY IDOCK:   -0.46 KCAL/MOL
REMARK 927      BINDING AFFINITY PREDICTED BY RF-SCORE:    0.00 PKD
ROOT
HETATM    1  C   UNL     1     -13.246  11.231  71.875  1.00  0.00    -0.491 C  
HETATM    2  C   UNL     1     -12.283  11.578  70.749  1.00  0.00    -0.363 C  
ENDROOT
BRANCH   2   3
HETATM    3  N   UNL     1     -11.590  10.380  70.264  1.00  0.00    -0.303 NA 
HETATM    4  C   UNL     1     -11.782   9.125  70.816  1.00  0.00    -0.256 C  
HETATM    5  C   UNL     1     -11.187   7.991  70.419  1.00  0.00    -0.230 C  
HETATM    6  C   UNL     1     -11.489   6.724  71.117  1.00  0.00    -0.314 C  
HETATM    7  C   UNL     1     -10.244   8.103  69.288  1.00  0.00    -0.214 C  
HETATM    8  C   UNL     1     -10.027   9.430  68.677  1.00  0.00    -0.187 A  
HETATM    9  O   UNL     1      -9.658   7.103  68.874  1.00  0.00    -0.142 OA 
HETATM   10  O   UNL     1     -12.267   6.646  72.056  1.00  0.00    -0.329 OA 
HETATM   11  O   UNL     1     -10.830   5.647  70.636  1.00  0.00    -0.273 OA 
HETATM   12  C   UNL     1      -9.132   9.567  67.623  1.00  0.00    -0.131 A  
HETATM   13  C   UNL     1      -8.946  10.828  67.086  1.00  0.00    -0.141 A  
HETATM   14  F   UNL     1      -8.096  10.958  66.054  1.00  0.00    -0.149 F  
HETATM   15  C   UNL     1      -9.662  11.931  67.576  1.00  0.00    -0.181 A  
HETATM   16  C   UNL     1     -10.717  10.550  69.161  1.00  0.00    -0.231 A  
HETATM   17  N   UNL     1     -10.547  11.776  68.597  1.00  0.00    -0.218 NA 
BRANCH  15  18
HETATM   18  N   UNL     1      -9.505  13.181  67.003  1.00  0.00    -0.234 NA 
HETATM   19  C   UNL     1     -10.204  13.519  65.760  1.00  0.00    -0.297 C  
HETATM   20  C   UNL     1     -11.315  14.567  65.976  1.00  0.00    -0.341 C  
HETATM   21  N   UNL     1     -10.856  15.760  66.715  1.00  0.00    -0.295 NA 
HETATM   22  H   UNL     1     -11.593  16.456  66.828  1.00  0.00     0.000 HD 
HETATM   23  C   UNL     1     -10.287  15.328  68.003  1.00  0.00    -0.244 C  
HETATM   24  C   UNL     1      -9.124  14.316  67.857  1.00  0.00    -0.190 C  
ENDBRANCH  15  18
ENDBRANCH   2   3
TORSDOF 2
ENDMDL
MODEL       69
REMARK 921   NORMALIZED FREE ENERGY PREDICTED BY IDOCK:   -5.14 KCAL/MOL
REMARK 922        TOTAL FREE ENERGY PREDICTED BY IDOCK:   -6.21 KCAL/MOL
REMARK 923 INTER-LIGAND FREE ENERGY PREDICTED BY IDOCK:   -5.76 KCAL/MOL
REMARK 924 INTRA-LIGAND FREE ENERGY PREDICTED BY IDOCK:   -0.45 KCAL/MOL
REMARK 927      BINDING AFFINITY PREDICTED BY RF-SCORE:    0.00 PKD
ROOT
HETATM    1  C   UNL     1     -11.911  14.035  69.725  1.00  0.00    -0.385 C  
HETATM    2  C   UNL     1     -11.881  12.536  69.460  1.00  0.00    -0.310 C  
ENDROOT
BRANCH   2   3
HETATM    3  N   UNL     1     -11.652  12.259  68.038  1.00  0.00    -0.329 NA 
HETATM    4  C   UNL     1     -12.131  13.075  67.027  1.00  0.00    -0.267 C  
HETATM    5  C   UNL     1     -11.955  12.884  65.711  1.00  0.00    -0.496 C  
HETATM    6  C   UNL     1     -12.539  13.840  64.749  1.00  0.00    -0.290 C  
HETATM    7  C   UNL     1     -11.175  11.693  65.317  1.00  0.00    -0.199 C  
HETATM    8  C   UNL     1     -10.647  10.812  66.378  1.00  0.00    -0.266 A  
HETATM    9  O   UNL     1     -10.978  11.453  64.127  1.00  0.00    -0.357 OA 
HETATM   10  O   UNL     1     -13.189  14.819  65.088  1.00  0.00    -0.236 OA 
HETATM   11  O   UNL     1     -12.303  13.548  63.452  1.00  0.00    -0.715 OA 
HETATM   12  C   UNL     1      -9.924   9.676  66.035  1.00  0.00    -0.344 A  
HETATM   13  C   UNL     1      -9.456   8.868  67.056  1.00  0.00    -0.166 A  
HETATM   14  F   UNL     1      -8.741   7.780  66.725  1.00  0.00    -0.120 F  
HETATM   15  C   UNL     1      -9.684   9.204  68.400  1.00  0.00    -0.152 A  
HETATM   16  C   UNL     1     -10.876  11.117  67.727  1.00  0.00    -0.239 A  
HETATM   17  N   UNL     1     -10.378  10.329  68.717  1.00  0.00    -0.184 NA 
BRANCH  15  18
HETATM   18  N   UNL     1      -9.173   8.415  69.416  1.00  0.00    -0.154 NA 
HETATM   19  C   UNL     1      -9.869   7.190  69.823  1.00  0.00    -0.173 C  
HETATM   20  C   UNL     1      -9.090   5.916  69.437  1.00  0.00    -0.127 C  
HETATM   21  N   UNL     1      -7.679   5.941  69.870  1.00  0.00    -0.086 NA 
HETATM   22  H   UNL     1      -7.182   5.082  69.632  1.00  0.00     0.000 HD 
HETATM   23  C   UNL     1      -7.033   7.139  69.306  1.00  0.00    -0.070 C  
HETATM   24  C   UNL     1      -7.732   8.462  69.702  1.00  0.00    -0.095 C  
ENDBRANCH  15  18
ENDBRANCH   2   3
TORSDOF 2
ENDMDL
MODEL       70
REMARK 921   NORMALIZED FREE ENERGY PREDICTED BY IDOCK:   -5.14 KCAL/MOL
REMARK 922        TOTAL FREE ENERGY PREDICTED BY IDOCK:   -6.20 KCAL/MOL
REMARK 923 INTER-LIGAND FREE ENERGY PREDICTED BY IDOCK:   -5.82 KCAL/MOL
REMARK 924 INTRA-LIGAND FREE ENERGY PREDICTED BY IDOCK:   -0.39 KCAL/MOL
REMARK 927      BINDING AFFINITY PREDICTED BY RF-SCORE:    0.00 PKD
ROOT
HETATM    1  C   UNL     1      -8.445   7.341  66.467  1.00  0.00    -0.125 C  
HETATM    2  C   UNL     1      -8.117   8.334  67.572  1.00  0.00    -0.122 C  
ENDROOT
BRANCH   2   3
HETATM    3  N   UNL     1      -9.265   9.202  67.856  1.00  0.00    -0.134 NA 
HETATM    4  C   UNL     1      -9.703  10.179  66.978  1.00  0.00    -0.180 C  
HETATM    5  C   UNL     1     -10.745  11.000  67.172  1.00  0.00    -0.313 C  
HETATM    6  C   UNL     1     -11.086  12.004  66.143  1.00  0.00    -0.322 C  
HETATM    7  C   UNL     1     -11.485  10.838  68.439  1.00  0.00    -0.288 C  
HETATM    8  C   UNL     1     -11.041   9.797  69.389  1.00  0.00    -0.205 A  
HETATM    9  O   UNL     1     -12.449  11.561  68.686  1.00  0.00    -0.335 OA 
HETATM   10  O   UNL     1     -10.461  12.133  65.100  1.00  0.00    -0.263 OA 
HETATM   11  O   UNL     1     -12.150  12.779  66.444  1.00  0.00    -0.470 OA 
HETATM   12  C   UNL     1     -11.709   9.634  70.596  1.00  0.00    -0.353 A  
HETATM   13  C   UNL     1     -11.256   8.658  71.465  1.00  0.00    -0.290 A  
HETATM   14  F   UNL     1     -11.913   8.487  72.624  1.00  0.00    -0.439 F  
HETATM   15  C   UNL     1     -10.168   7.839  71.122  1.00  0.00    -0.195 A  
HETATM   16  C   UNL     1      -9.947   8.979  69.077  1.00  0.00    -0.185 A  
HETATM   17  N   UNL     1      -9.538   8.001  69.929  1.00  0.00    -0.171 NA 
BRANCH  15  18
HETATM   18  N   UNL     1      -9.749   6.834  71.977  1.00  0.00    -0.154 NA 
HETATM   19  C   UNL     1      -9.182   7.167  73.288  1.00  0.00    -0.157 C  
HETATM   20  C   UNL     1     -10.111   6.762  74.450  1.00  0.00    -0.250 C  
HETATM   21  N   UNL     1     -10.575   5.363  74.367  1.00  0.00    -0.329 NA 
HETATM   22  H   UNL     1     -11.167   5.101  75.155  1.00  0.00     0.000 HD 
HETATM   23  C   UNL     1     -11.244   5.163  73.070  1.00  0.00    -0.322 C  
HETATM   24  C   UNL     1     -10.346   5.496  71.854  1.00  0.00    -0.216 C  
ENDBRANCH  15  18
ENDBRANCH   2   3
TORSDOF 2
ENDMDL
MODEL       71
REMARK 921   NORMALIZED FREE ENERGY PREDICTED BY IDOCK:   -5.13 KCAL/MOL
REMARK 922        TOTAL FREE ENERGY PREDICTED BY IDOCK:   -6.19 KCAL/MOL
REMARK 923 INTER-LIGAND FREE ENERGY PREDICTED BY IDOCK:   -5.73 KCAL/MOL
REMARK 924 INTRA-LIGAND FREE ENERGY PREDICTED BY IDOCK:   -0.46 KCAL/MOL
REMARK 927      BINDING AFFINITY PREDICTED BY RF-SCORE:    0.00 PKD
ROOT
HETATM    1  C   UNL     1      -5.794  14.553  68.159  1.00  0.00    -0.135 C  
HETATM    2  C   UNL     1      -7.023  14.466  69.053  1.00  0.00    -0.114 C  
ENDROOT
BRANCH   2   3
HETATM    3  N   UNL     1      -8.038  15.444  68.647  1.00  0.00    -0.146 NA 
HETATM    4  C   UNL     1      -7.867  16.810  68.796  1.00  0.00    -0.243 C  
HETATM    5  C   UNL     1      -8.748  17.757  68.443  1.00  0.00    -0.292 C  
HETATM    6  C   UNL     1      -8.426  19.179  68.675  1.00  0.00    -0.362 C  
HETATM    7  C   UNL     1     -10.013  17.287  67.840  1.00  0.00    -0.297 C  
HETATM    8  C   UNL     1     -10.215  15.835  67.664  1.00  0.00    -0.266 A  
HETATM    9  O   UNL     1     -10.869  18.100  67.497  1.00  0.00    -0.389 OA 
HETATM   10  O   UNL     1      -7.379  19.555  69.181  1.00  0.00    -0.361 OA 
HETATM   11  O   UNL     1      -9.387  20.044  68.285  1.00  0.00    -0.302 OA 
HETATM   12  C   UNL     1     -11.402  15.365  67.115  1.00  0.00    -0.203 A  
HETATM   13  C   UNL     1     -11.560  13.998  66.978  1.00  0.00    -0.371 A  
HETATM   14  F   UNL     1     -12.699  13.544  66.429  1.00  0.00    -0.392 F  
HETATM   15  C   UNL     1     -10.538  13.114  67.359  1.00  0.00    -0.242 A  
HETATM   16  C   UNL     1      -9.216  14.932  68.053  1.00  0.00    -0.185 A  
HETATM   17  N   UNL     1      -9.376  13.592  67.878  1.00  0.00    -0.199 NA 
BRANCH  15  18
HETATM   18  N   UNL     1     -10.686  11.750  67.176  1.00  0.00    -0.230 NA 
HETATM   19  C   UNL     1      -9.656  10.982  66.469  1.00  0.00    -0.195 C  
HETATM   20  C   UNL     1      -8.884  10.032  67.407  1.00  0.00    -0.128 C  
HETATM   21  N   UNL     1      -9.765   9.181  68.230  1.00  0.00    -0.151 NA 
HETATM   22  H   UNL     1      -9.242   8.539  68.826  1.00  0.00     0.000 HD 
HETATM   23  C   UNL     1     -10.676  10.048  68.999  1.00  0.00    -0.220 C  
HETATM   24  C   UNL     1     -11.526  10.990  68.113  1.00  0.00    -0.302 C  
ENDBRANCH  15  18
ENDBRANCH   2   3
TORSDOF 2
ENDMDL
MODEL       72
REMARK 921   NORMALIZED FREE ENERGY PREDICTED BY IDOCK:   -5.11 KCAL/MOL
REMARK 922        TOTAL FREE ENERGY PREDICTED BY IDOCK:   -6.18 KCAL/MOL
REMARK 923 INTER-LIGAND FREE ENERGY PREDICTED BY IDOCK:   -6.53 KCAL/MOL
REMARK 924 INTRA-LIGAND FREE ENERGY PREDICTED BY IDOCK:    0.36 KCAL/MOL
REMARK 927      BINDING AFFINITY PREDICTED BY RF-SCORE:    0.00 PKD
ROOT
HETATM    1  C   UNL     1      -7.495   8.467  66.142  1.00  0.00    -0.088 C  
HETATM    2  C   UNL     1      -9.017   8.443  66.139  1.00  0.00    -0.177 C  
ENDROOT
BRANCH   2   3
HETATM    3  N   UNL     1      -9.551   8.914  67.422  1.00  0.00    -0.151 NA 
HETATM    4  C   UNL     1      -9.504   8.156  68.580  1.00  0.00    -0.143 C  
HETATM    5  C   UNL     1      -9.967   8.526  69.782  1.00  0.00    -0.191 C  
HETATM    6  C   UNL     1      -9.854   7.599  70.926  1.00  0.00    -0.176 C  
HETATM    7  C   UNL     1     -10.579   9.868  69.868  1.00  0.00    -0.273 C  
HETATM    8  C   UNL     1     -10.634  10.698  68.648  1.00  0.00    -0.229 A  
HETATM    9  O   UNL     1     -11.030  10.271  70.939  1.00  0.00    -0.281 OA 
HETATM   10  O   UNL     1      -9.351   6.488  70.841  1.00  0.00    -0.160 OA 
HETATM   11  O   UNL     1     -10.356   8.073  72.087  1.00  0.00    -0.217 OA 
HETATM   12  C   UNL     1     -11.220  11.957  68.696  1.00  0.00    -0.311 A  
HETATM   13  C   UNL     1     -11.264  12.701  67.531  1.00  0.00    -0.288 A  
HETATM   14  F   UNL     1     -11.813  13.926  67.581  1.00  0.00    -0.334 F  
HETATM   15  C   UNL     1     -10.709  12.205  66.341  1.00  0.00    -0.257 A  
HETATM   16  C   UNL     1     -10.102  10.218  67.444  1.00  0.00    -0.202 A  
HETATM   17  N   UNL     1     -10.124  10.978  66.316  1.00  0.00    -0.227 NA 
BRANCH  15  18
HETATM   18  N   UNL     1     -10.716  12.974  65.189  1.00  0.00    -0.296 NA 
HETATM   19  C   UNL     1     -10.843  12.336  63.875  1.00  0.00    -0.412 C  
HETATM   20  C   UNL     1     -12.200  12.635  63.205  1.00  0.00    -0.417 C  
HETATM   21  N   UNL     1     -12.533  14.073  63.177  1.00  0.00    -1.070 NA 
HETATM   22  H   UNL     1     -13.419  14.260  62.708  1.00  0.00     0.000 HD 
HETATM   23  C   UNL     1     -12.505  14.592  64.555  1.00  0.00    -0.292 C  
HETATM   24  C   UNL     1     -11.149  14.377  65.269  1.00  0.00    -0.342 C  
ENDBRANCH  15  18
ENDBRANCH   2   3
TORSDOF 2
ENDMDL
MODEL       73
REMARK 921   NORMALIZED FREE ENERGY PREDICTED BY IDOCK:   -5.07 KCAL/MOL
REMARK 922        TOTAL FREE ENERGY PREDICTED BY IDOCK:   -6.13 KCAL/MOL
REMARK 923 INTER-LIGAND FREE ENERGY PREDICTED BY IDOCK:   -5.71 KCAL/MOL
REMARK 924 INTRA-LIGAND FREE ENERGY PREDICTED BY IDOCK:   -0.42 KCAL/MOL
REMARK 927      BINDING AFFINITY PREDICTED BY RF-SCORE:    0.00 PKD
ROOT
HETATM    1  C   UNL     1      -9.484   9.585  64.947  1.00  0.00    -0.230 C  
HETATM    2  C   UNL     1      -8.615   9.882  66.160  1.00  0.00    -0.128 C  
ENDROOT
BRANCH   2   3
HETATM    3  N   UNL     1      -9.439  10.133  67.347  1.00  0.00    -0.151 NA 
HETATM    4  C   UNL     1      -9.849   9.126  68.205  1.00  0.00    -0.164 C  
HETATM    5  C   UNL     1     -10.596   9.285  69.306  1.00  0.00    -0.234 C  
HETATM    6  C   UNL     1     -10.962   8.107  70.118  1.00  0.00    -0.223 C  
HETATM    7  C   UNL     1     -11.013  10.666  69.625  1.00  0.00    -0.278 C  
HETATM    8  C   UNL     1     -10.582  11.759  68.730  1.00  0.00    -0.234 A  
HETATM    9  O   UNL     1     -11.704  10.886  70.619  1.00  0.00    -0.331 OA 
HETATM   10  O   UNL     1     -10.616   6.968  69.840  1.00  0.00    -0.214 OA 
HETATM   11  O   UNL     1     -11.719   8.384  71.202  1.00  0.00    -0.276 OA 
HETATM   12  C   UNL     1     -10.975  13.065  68.997  1.00  0.00    -0.242 A  
HETATM   13  C   UNL     1     -10.563  14.060  68.128  1.00  0.00    -0.248 A  
HETATM   14  F   UNL     1     -10.926  15.325  68.397  1.00  0.00    -0.237 F  
HETATM   15  C   UNL     1      -9.750  13.759  67.024  1.00  0.00    -0.251 A  
HETATM   16  C   UNL     1      -9.785  11.481  67.611  1.00  0.00    -0.174 A  
HETATM   17  N   UNL     1      -9.361  12.477  66.788  1.00  0.00    -0.225 NA 
BRANCH  15  18
HETATM   18  N   UNL     1      -9.304  14.766  66.186  1.00  0.00    -0.286 NA 
HETATM   19  C   UNL     1     -10.215  15.374  65.211  1.00  0.00    -0.357 C  
HETATM   20  C   UNL     1     -10.569  16.832  65.568  1.00  0.00    -0.230 C  
HETATM   21  N   UNL     1      -9.385  17.670  65.843  1.00  0.00    -0.524 NA 
HETATM   22  H   UNL     1      -9.632  18.637  66.052  1.00  0.00     0.000 HD 
HETATM   23  C   UNL     1      -8.603  17.043  66.923  1.00  0.00    -0.225 C  
HETATM   24  C   UNL     1      -8.164  15.593  66.606  1.00  0.00    -0.249 C  
ENDBRANCH  15  18
ENDBRANCH   2   3
TORSDOF 2
ENDMDL
MODEL       74
REMARK 921   NORMALIZED FREE ENERGY PREDICTED BY IDOCK:   -5.06 KCAL/MOL
REMARK 922        TOTAL FREE ENERGY PREDICTED BY IDOCK:   -6.12 KCAL/MOL
REMARK 923 INTER-LIGAND FREE ENERGY PREDICTED BY IDOCK:   -5.77 KCAL/MOL
REMARK 924 INTRA-LIGAND FREE ENERGY PREDICTED BY IDOCK:   -0.35 KCAL/MOL
REMARK 927      BINDING AFFINITY PREDICTED BY RF-SCORE:    0.00 PKD
ROOT
HETATM    1  C   UNL     1     -12.235  13.422  65.202  1.00  0.00    -0.473 C  
HETATM    2  C   UNL     1     -12.085  14.050  66.580  1.00  0.00    -0.456 C  
ENDROOT
BRANCH   2   3
HETATM    3  N   UNL     1     -10.814  14.774  66.691  1.00  0.00    -0.313 NA 
HETATM    4  C   UNL     1     -10.702  16.136  66.465  1.00  0.00    -0.220 C  
HETATM    5  C   UNL     1      -9.576  16.859  66.554  1.00  0.00    -0.295 C  
HETATM    6  C   UNL     1      -9.614  18.308  66.272  1.00  0.00    -0.251 C  
HETATM    7  C   UNL     1      -8.350  16.125  66.930  1.00  0.00    -0.236 C  
HETATM    8  C   UNL     1      -8.446  14.673  67.183  1.00  0.00    -0.244 A  
HETATM    9  O   UNL     1      -7.280  16.724  67.025  1.00  0.00    -0.160 OA 
HETATM   10  O   UNL     1     -10.634  18.903  65.956  1.00  0.00    -0.457 OA 
HETATM   11  O   UNL     1      -8.423  18.934  66.388  1.00  0.00    -0.294 OA 
HETATM   12  C   UNL     1      -7.305  13.955  67.521  1.00  0.00    -0.181 A  
HETATM   13  C   UNL     1      -7.431  12.595  67.738  1.00  0.00    -0.131 A  
HETATM   14  F   UNL     1      -6.332  11.904  68.084  1.00  0.00    -0.049 F  
HETATM   15  C   UNL     1      -8.682  11.965  67.644  1.00  0.00    -0.162 A  
HETATM   16  C   UNL     1      -9.680  14.019  67.079  1.00  0.00    -0.256 A  
HETATM   17  N   UNL     1      -9.791  12.686  67.330  1.00  0.00    -0.203 NA 
BRANCH  15  18
HETATM   18  N   UNL     1      -8.808  10.612  67.908  1.00  0.00    -0.130 NA 
HETATM   19  C   UNL     1      -9.249  10.153  69.229  1.00  0.00    -0.208 C  
HETATM   20  C   UNL     1     -10.660   9.531  69.194  1.00  0.00    -0.222 C  
HETATM   21  N   UNL     1     -10.817   8.499  68.149  1.00  0.00    -0.456 NA 
HETATM   22  H   UNL     1     -11.745   8.077  68.154  1.00  0.00     0.000 HD 
HETATM   23  C   UNL     1     -10.475   9.092  66.845  1.00  0.00    -0.223 C  
HETATM   24  C   UNL     1      -9.047   9.686  66.791  1.00  0.00    -0.146 C  
ENDBRANCH  15  18
ENDBRANCH   2   3
TORSDOF 2
ENDMDL
MODEL       75
REMARK 921   NORMALIZED FREE ENERGY PREDICTED BY IDOCK:   -5.00 KCAL/MOL
REMARK 922        TOTAL FREE ENERGY PREDICTED BY IDOCK:   -6.05 KCAL/MOL
REMARK 923 INTER-LIGAND FREE ENERGY PREDICTED BY IDOCK:   -5.57 KCAL/MOL
REMARK 924 INTRA-LIGAND FREE ENERGY PREDICTED BY IDOCK:   -0.47 KCAL/MOL
REMARK 927      BINDING AFFINITY PREDICTED BY RF-SCORE:    0.00 PKD
ROOT
HETATM    1  C   UNL     1      -6.967   7.254  68.734  1.00  0.00    -0.079 C  
HETATM    2  C   UNL     1      -7.294   8.711  69.028  1.00  0.00    -0.077 C  
ENDROOT
BRANCH   2   3
HETATM    3  N   UNL     1      -8.461   8.819  69.910  1.00  0.00    -0.125 NA 
HETATM    4  C   UNL     1      -8.583   8.101  71.088  1.00  0.00    -0.133 C  
HETATM    5  C   UNL     1      -9.616   8.156  71.941  1.00  0.00    -0.264 C  
HETATM    6  C   UNL     1      -9.605   7.318  73.157  1.00  0.00    -0.193 C  
HETATM    7  C   UNL     1     -10.718   9.071  71.582  1.00  0.00    -0.371 C  
HETATM    8  C   UNL     1     -10.609   9.853  70.333  1.00  0.00    -0.364 A  
HETATM    9  O   UNL     1     -11.701   9.168  72.315  1.00  0.00    -0.304 OA 
HETATM   10  O   UNL     1      -8.689   6.560  73.440  1.00  0.00    -0.123 OA 
HETATM   11  O   UNL     1     -10.697   7.451  73.941  1.00  0.00    -0.319 OA 
HETATM   12  C   UNL     1     -11.639  10.708  69.962  1.00  0.00    -0.406 A  
HETATM   13  C   UNL     1     -11.507  11.415  68.781  1.00  0.00    -0.290 A  
HETATM   14  F   UNL     1     -12.494  12.256  68.431  1.00  0.00    -0.167 F  
HETATM   15  C   UNL     1     -10.351  11.289  67.994  1.00  0.00    -0.183 A  
HETATM   16  C   UNL     1      -9.473   9.731  69.523  1.00  0.00    -0.212 A  
HETATM   17  N   UNL     1      -9.345  10.461  68.382  1.00  0.00    -0.145 NA 
BRANCH  15  18
HETATM   18  N   UNL     1     -10.206  12.034  66.836  1.00  0.00    -0.207 NA 
HETATM   19  C   UNL     1     -10.910  11.642  65.611  1.00  0.00    -0.276 C  
HETATM   20  C   UNL     1     -12.030  12.633  65.235  1.00  0.00    -0.439 C  
HETATM   21  N   UNL     1     -11.582  14.039  65.211  1.00  0.00    -0.326 NA 
HETATM   22  H   UNL     1     -12.325  14.681  64.935  1.00  0.00     0.000 HD 
HETATM   23  C   UNL     1     -11.007  14.375  66.525  1.00  0.00    -0.316 C  
HETATM   24  C   UNL     1      -9.835  13.452  66.941  1.00  0.00    -0.256 C  
ENDBRANCH  15  18
ENDBRANCH   2   3
TORSDOF 2
ENDMDL
MODEL       76
REMARK 921   NORMALIZED FREE ENERGY PREDICTED BY IDOCK:   -4.98 KCAL/MOL
REMARK 922        TOTAL FREE ENERGY PREDICTED BY IDOCK:   -6.03 KCAL/MOL
REMARK 923 INTER-LIGAND FREE ENERGY PREDICTED BY IDOCK:   -6.34 KCAL/MOL
REMARK 924 INTRA-LIGAND FREE ENERGY PREDICTED BY IDOCK:    0.32 KCAL/MOL
REMARK 927      BINDING AFFINITY PREDICTED BY RF-SCORE:    0.00 PKD
ROOT
HETATM    1  C   UNL     1     -10.771  18.634  65.901  1.00  0.00    -0.274 C  
HETATM    2  C   UNL     1     -10.938  17.529  64.869  1.00  0.00     0.674 C  
ENDROOT
BRANCH   2   3
HETATM    3  N   UNL     1     -10.534  16.231  65.420  1.00  0.00    -0.551 NA 
HETATM    4  C   UNL     1     -11.339  15.106  65.361  1.00  0.00    -0.298 C  
HETATM    5  C   UNL     1     -11.031  13.891  65.838  1.00  0.00    -0.284 C  
HETATM    6  C   UNL     1     -12.003  12.787  65.708  1.00  0.00    -0.449 C  
HETATM    7  C   UNL     1      -9.709  13.753  66.481  1.00  0.00    -0.293 C  
HETATM    8  C   UNL     1      -8.829  14.937  66.550  1.00  0.00    -0.256 A  
HETATM    9  O   UNL     1      -9.362  12.668  66.946  1.00  0.00    -0.215 OA 
HETATM   10  O   UNL     1     -13.097  12.916  65.179  1.00  0.00    -0.753 OA 
HETATM   11  O   UNL     1     -11.590  11.610  66.227  1.00  0.00    -0.420 OA 
HETATM   12  C   UNL     1      -7.587  14.839  67.165  1.00  0.00    -0.114 A  
HETATM   13  C   UNL     1      -6.796  15.972  67.222  1.00  0.00    -0.201 A  
HETATM   14  F   UNL     1      -5.587  15.873  67.799  1.00  0.00    -0.112 F  
HETATM   15  C   UNL     1      -7.228  17.179  66.649  1.00  0.00    -0.247 A  
HETATM   16  C   UNL     1      -9.245  16.157  66.001  1.00  0.00    -0.328 A  
HETATM   17  N   UNL     1      -8.439  17.252  66.036  1.00  0.00    -0.529 NA 
BRANCH  15  18
HETATM   18  N   UNL     1      -6.412  18.297  66.669  1.00  0.00    -0.179 NA 
HETATM   19  C   UNL     1      -5.877  18.845  65.419  1.00  0.00    -0.216 C  
HETATM   20  C   UNL     1      -6.499  20.211  65.063  1.00  0.00    -0.289 C  
HETATM   21  N   UNL     1      -6.457  21.180  66.175  1.00  0.00    -0.464 NA 
HETATM   22  H   UNL     1      -6.848  22.086  65.918  1.00  0.00     0.000 HD 
HETATM   23  C   UNL     1      -7.131  20.588  67.344  1.00  0.00    -0.323 C  
HETATM   24  C   UNL     1      -6.518  19.239  67.793  1.00  0.00    -0.220 C  
ENDBRANCH  15  18
ENDBRANCH   2   3
TORSDOF 2
ENDMDL
MODEL       77
REMARK 921   NORMALIZED FREE ENERGY PREDICTED BY IDOCK:   -4.94 KCAL/MOL
REMARK 922        TOTAL FREE ENERGY PREDICTED BY IDOCK:   -5.98 KCAL/MOL
REMARK 923 INTER-LIGAND FREE ENERGY PREDICTED BY IDOCK:   -5.52 KCAL/MOL
REMARK 924 INTRA-LIGAND FREE ENERGY PREDICTED BY IDOCK:   -0.46 KCAL/MOL
REMARK 927      BINDING AFFINITY PREDICTED BY RF-SCORE:    0.00 PKD
ROOT
HETATM    1  C   UNL     1     -12.022  14.638  64.425  1.00  0.00    -0.454 C  
HETATM    2  C   UNL     1     -11.931  14.309  65.908  1.00  0.00    -0.391 C  
ENDROOT
BRANCH   2   3
HETATM    3  N   UNL     1     -10.550  14.426  66.388  1.00  0.00    -0.292 NA 
HETATM    4  C   UNL     1      -9.769  15.547  66.164  1.00  0.00    -0.319 C  
HETATM    5  C   UNL     1      -8.505  15.722  66.577  1.00  0.00    -0.335 C  
HETATM    6  C   UNL     1      -7.795  16.975  66.249  1.00  0.00    -0.311 C  
HETATM    7  C   UNL     1      -7.903  14.611  67.342  1.00  0.00    -0.202 C  
HETATM    8  C   UNL     1      -8.720  13.407  67.601  1.00  0.00    -0.198 A  
HETATM    9  O   UNL     1      -6.746  14.700  67.748  1.00  0.00    -0.150 OA 
HETATM   10  O   UNL     1      -8.302  17.885  65.610  1.00  0.00    -0.434 OA 
HETATM   11  O   UNL     1      -6.528  17.041  66.712  1.00  0.00    -0.187 OA 
HETATM   12  C   UNL     1      -8.173  12.341  68.303  1.00  0.00    -0.167 A  
HETATM   13  C   UNL     1      -8.963  11.225  68.515  1.00  0.00    -0.166 A  
HETATM   14  F   UNL     1      -8.441  10.202  69.211  1.00  0.00    -0.116 F  
HETATM   15  C   UNL     1     -10.289  11.187  68.055  1.00  0.00    -0.185 A  
HETATM   16  C   UNL     1     -10.040  13.338  67.136  1.00  0.00    -0.239 A  
HETATM   17  N   UNL     1     -10.813  12.247  67.385  1.00  0.00    -0.232 NA 
BRANCH  15  18
HETATM   18  N   UNL     1     -11.088  10.086  68.310  1.00  0.00    -0.228 NA 
HETATM   19  C   UNL     1     -10.856   8.823  67.603  1.00  0.00    -0.022 C  
HETATM   20  C   UNL     1     -10.307   7.721  68.533  1.00  0.00    -0.197 C  
HETATM   21  N   UNL     1     -11.101   7.548  69.765  1.00  0.00    -0.416 NA 
HETATM   22  H   UNL     1     -10.743   6.799  70.359  1.00  0.00     0.000 HD 
HETATM   23  C   UNL     1     -11.169   8.840  70.470  1.00  0.00    -0.247 C  
HETATM   24  C   UNL     1     -11.766   9.981  69.610  1.00  0.00    -0.034 C  
ENDBRANCH  15  18
ENDBRANCH   2   3
TORSDOF 2
ENDMDL
MODEL       78
REMARK 921   NORMALIZED FREE ENERGY PREDICTED BY IDOCK:   -4.93 KCAL/MOL
REMARK 922        TOTAL FREE ENERGY PREDICTED BY IDOCK:   -5.97 KCAL/MOL
REMARK 923 INTER-LIGAND FREE ENERGY PREDICTED BY IDOCK:   -5.49 KCAL/MOL
REMARK 924 INTRA-LIGAND FREE ENERGY PREDICTED BY IDOCK:   -0.48 KCAL/MOL
REMARK 927      BINDING AFFINITY PREDICTED BY RF-SCORE:    0.00 PKD
ROOT
HETATM    1  C   UNL     1      -6.656  11.392  66.814  1.00  0.00    -0.136 C  
HETATM    2  C   UNL     1      -7.150  11.958  68.137  1.00  0.00    -0.081 C  
ENDROOT
BRANCH   2   3
HETATM    3  N   UNL     1      -8.402  12.701  67.955  1.00  0.00    -0.166 NA 
HETATM    4  C   UNL     1      -8.464  13.924  67.309  1.00  0.00    -0.200 C  
HETATM    5  C   UNL     1      -9.571  14.651  67.104  1.00  0.00    -0.236 C  
HETATM    6  C   UNL     1      -9.475  15.948  66.404  1.00  0.00    -0.295 C  
HETATM    7  C   UNL     1     -10.835  14.085  67.618  1.00  0.00    -0.262 C  
HETATM    8  C   UNL     1     -10.797  12.778  68.304  1.00  0.00    -0.270 A  
HETATM    9  O   UNL     1     -11.890  14.701  67.470  1.00  0.00    -0.380 OA 
HETATM   10  O   UNL     1      -8.422  16.409  65.990  1.00  0.00    -0.347 OA 
HETATM   11  O   UNL     1     -10.651  16.596  66.257  1.00  0.00    -0.286 OA 
HETATM   12  C   UNL     1     -11.968  12.230  68.812  1.00  0.00    -0.281 A  
HETATM   13  C   UNL     1     -11.891  11.011  69.460  1.00  0.00    -0.333 A  
HETATM   14  F   UNL     1     -13.026  10.472  69.934  1.00  0.00    -0.315 F  
HETATM   15  C   UNL     1     -10.665  10.336  69.576  1.00  0.00    -0.249 A  
HETATM   16  C   UNL     1      -9.583  12.093  68.448  1.00  0.00    -0.186 A  
HETATM   17  N   UNL     1      -9.532  10.878  69.057  1.00  0.00    -0.181 NA 
BRANCH  15  18
HETATM   18  N   UNL     1     -10.603   9.094  70.185  1.00  0.00    -0.217 NA 
HETATM   19  C   UNL     1     -10.091   7.934  69.450  1.00  0.00    -0.196 C  
HETATM   20  C   UNL     1      -8.728   7.451  69.988  1.00  0.00    -0.140 C  
HETATM   21  N   UNL     1      -8.716   7.252  71.451  1.00  0.00    -0.126 NA 
HETATM   22  H   UNL     1      -7.817   6.907  71.790  1.00  0.00     0.000 HD 
HETATM   23  C   UNL     1      -9.120   8.509  72.103  1.00  0.00    -0.249 C  
HETATM   24  C   UNL     1     -10.509   9.021  71.651  1.00  0.00    -0.355 C  
ENDBRANCH  15  18
ENDBRANCH   2   3
TORSDOF 2
ENDMDL
MODEL       79
REMARK 921   NORMALIZED FREE ENERGY PREDICTED BY IDOCK:   -4.92 KCAL/MOL
REMARK 922        TOTAL FREE ENERGY PREDICTED BY IDOCK:   -5.96 KCAL/MOL
REMARK 923 INTER-LIGAND FREE ENERGY PREDICTED BY IDOCK:   -5.54 KCAL/MOL
REMARK 924 INTRA-LIGAND FREE ENERGY PREDICTED BY IDOCK:   -0.42 KCAL/MOL
REMARK 927      BINDING AFFINITY PREDICTED BY RF-SCORE:    0.00 PKD
ROOT
HETATM    1  C   UNL     1     -10.857   6.525  66.920  1.00  0.00    -0.427 C  
HETATM    2  C   UNL     1      -9.767   7.278  67.668  1.00  0.00    -0.142 C  
ENDROOT
BRANCH   2   3
HETATM    3  N   UNL     1     -10.341   8.341  68.501  1.00  0.00    -0.208 NA 
HETATM    4  C   UNL     1     -10.763   9.555  67.986  1.00  0.00    -0.212 C  
HETATM    5  C   UNL     1     -11.299  10.564  68.687  1.00  0.00    -0.315 C  
HETATM    6  C   UNL     1     -11.692  11.808  67.994  1.00  0.00    -0.293 C  
HETATM    7  C   UNL     1     -11.450  10.349  70.141  1.00  0.00    -0.319 C  
HETATM    8  C   UNL     1     -11.014   9.059  70.713  1.00  0.00    -0.315 A  
HETATM    9  O   UNL     1     -11.930  11.234  70.847  1.00  0.00    -0.326 OA 
HETATM   10  O   UNL     1     -11.556  11.976  66.791  1.00  0.00    -0.438 OA 
HETATM   11  O   UNL     1     -12.217  12.757  68.798  1.00  0.00    -0.188 OA 
HETATM   12  C   UNL     1     -11.129   8.836  72.080  1.00  0.00    -0.441 A  
HETATM   13  C   UNL     1     -10.699   7.621  72.581  1.00  0.00    -0.321 A  
HETATM   14  F   UNL     1     -10.828   7.398  73.899  1.00  0.00    -0.396 F  
HETATM   15  C   UNL     1     -10.185   6.633  71.726  1.00  0.00    -0.187 A  
HETATM   16  C   UNL     1     -10.482   8.063  69.883  1.00  0.00    -0.233 A  
HETATM   17  N   UNL     1     -10.096   6.861  70.389  1.00  0.00    -0.187 NA 
BRANCH  15  18
HETATM   18  N   UNL     1      -9.799   5.402  72.229  1.00  0.00    -0.160 NA 
HETATM   19  C   UNL     1     -10.249   4.165  71.584  1.00  0.00    -0.063 C  
HETATM   20  C   UNL     1      -9.098   3.417  70.880  1.00  0.00    -0.114 C  
HETATM   21  N   UNL     1      -7.919   3.214  71.744  1.00  0.00    -0.057 NA 
HETATM   22  H   UNL     1      -7.176   2.695  71.275  1.00  0.00     0.000 HD 
HETATM   23  C   UNL     1      -7.464   4.524  72.239  1.00  0.00    -0.081 C  
HETATM   24  C   UNL     1      -8.556   5.307  73.009  1.00  0.00    -0.118 C  
ENDBRANCH  15  18
ENDBRANCH   2   3
TORSDOF 2
ENDMDL
MODEL       80
REMARK 921   NORMALIZED FREE ENERGY PREDICTED BY IDOCK:   -4.91 KCAL/MOL
REMARK 922        TOTAL FREE ENERGY PREDICTED BY IDOCK:   -5.95 KCAL/MOL
REMARK 923 INTER-LIGAND FREE ENERGY PREDICTED BY IDOCK:   -5.48 KCAL/MOL
REMARK 924 INTRA-LIGAND FREE ENERGY PREDICTED BY IDOCK:   -0.48 KCAL/MOL
REMARK 927      BINDING AFFINITY PREDICTED BY RF-SCORE:    0.00 PKD
ROOT
HETATM    1  C   UNL     1     -10.419  10.878  67.387  1.00  0.00    -0.263 C  
HETATM    2  C   UNL     1      -9.592  10.265  68.508  1.00  0.00    -0.161 C  
ENDROOT
BRANCH   2   3
HETATM    3  N   UNL     1     -10.429   9.439  69.385  1.00  0.00    -0.213 NA 
HETATM    4  C   UNL     1     -11.337   9.976  70.282  1.00  0.00    -0.308 C  
HETATM    5  C   UNL     1     -12.134   9.281  71.106  1.00  0.00    -0.389 C  
HETATM    6  C   UNL     1     -13.048  10.000  72.017  1.00  0.00    -0.441 C  
HETATM    7  C   UNL     1     -12.025   7.810  71.043  1.00  0.00    -0.262 C  
HETATM    8  C   UNL     1     -11.068   7.213  70.089  1.00  0.00    -0.301 A  
HETATM    9  O   UNL     1     -12.722   7.109  71.775  1.00  0.00    -0.340 OA 
HETATM   10  O   UNL     1     -13.125  11.219  72.065  1.00  0.00    -0.495 OA 
HETATM   11  O   UNL     1     -13.800   9.201  72.805  1.00  0.00    -0.430 OA 
HETATM   12  C   UNL     1     -10.932   5.831  70.021  1.00  0.00    -0.382 A  
HETATM   13  C   UNL     1     -10.017   5.309  69.125  1.00  0.00    -0.205 A  
HETATM   14  F   UNL     1      -9.900   3.974  69.045  1.00  0.00    -0.245 F  
HETATM   15  C   UNL     1      -9.266   6.153  68.291  1.00  0.00    -0.114 A  
HETATM   16  C   UNL     1     -10.295   8.035  69.259  1.00  0.00    -0.220 A  
HETATM   17  N   UNL     1      -9.425   7.502  68.359  1.00  0.00    -0.148 NA 
BRANCH  15  18
HETATM   18  N   UNL     1      -8.386   5.622  67.365  1.00  0.00    -0.101 NA 
HETATM   19  C   UNL     1      -7.113   5.039  67.804  1.00  0.00    -0.066 C  
HETATM   20  C   UNL     1      -7.076   3.507  67.626  1.00  0.00    -0.055 C  
HETATM   21  N   UNL     1      -7.470   3.067  66.273  1.00  0.00    -0.075 NA 
HETATM   22  H   UNL     1      -7.416   2.054  66.161  1.00  0.00     0.000 HD 
HETATM   23  C   UNL     1      -8.813   3.595  65.976  1.00  0.00    -0.126 C  
HETATM   24  C   UNL     1      -8.907   5.136  66.079  1.00  0.00    -0.137 C  
ENDBRANCH  15  18
ENDBRANCH   2   3
TORSDOF 2
ENDMDL
MODEL       81
REMARK 921   NORMALIZED FREE ENERGY PREDICTED BY IDOCK:   -4.89 KCAL/MOL
REMARK 922        TOTAL FREE ENERGY PREDICTED BY IDOCK:   -5.92 KCAL/MOL
REMARK 923 INTER-LIGAND FREE ENERGY PREDICTED BY IDOCK:   -5.47 KCAL/MOL
REMARK 924 INTRA-LIGAND FREE ENERGY PREDICTED BY IDOCK:   -0.45 KCAL/MOL
REMARK 927      BINDING AFFINITY PREDICTED BY RF-SCORE:    0.00 PKD
ROOT
HETATM    1  C   UNL     1     -10.809  15.406  68.870  1.00  0.00    -0.251 C  
HETATM    2  C   UNL     1     -10.728  14.221  67.918  1.00  0.00    -0.240 C  
ENDROOT
BRANCH   2   3
HETATM    3  N   UNL     1     -11.057  12.969  68.609  1.00  0.00    -0.257 NA 
HETATM    4  C   UNL     1     -11.800  12.928  69.777  1.00  0.00    -0.310 C  
HETATM    5  C   UNL     1     -12.140  11.823  70.454  1.00  0.00    -0.440 C  
HETATM    6  C   UNL     1     -12.931  11.941  71.696  1.00  0.00    -0.342 C  
HETATM    7  C   UNL     1     -11.676  10.537  69.894  1.00  0.00    -0.294 C  
HETATM    8  C   UNL     1     -10.888  10.555  68.644  1.00  0.00    -0.276 A  
HETATM    9  O   UNL     1     -11.947   9.483  70.466  1.00  0.00    -0.234 OA 
HETATM   10  O   UNL     1     -13.304  13.011  72.154  1.00  0.00    -0.498 OA 
HETATM   11  O   UNL     1     -13.212  10.765  72.298  1.00  0.00    -0.402 OA 
HETATM   12  C   UNL     1     -10.424   9.362  68.104  1.00  0.00    -0.267 A  
HETATM   13  C   UNL     1      -9.679   9.419  66.940  1.00  0.00    -0.186 A  
HETATM   14  F   UNL     1      -9.247   8.264  66.407  1.00  0.00    -0.173 F  
HETATM   15  C   UNL     1      -9.423  10.647  66.311  1.00  0.00    -0.177 A  
HETATM   16  C   UNL     1     -10.604  11.770  68.007  1.00  0.00    -0.206 A  
HETATM   17  N   UNL     1      -9.899  11.804  66.844  1.00  0.00    -0.201 NA 
BRANCH  15  18
HETATM   18  N   UNL     1      -8.715  10.692  65.122  1.00  0.00    -0.190 NA 
HETATM   19  C   UNL     1      -7.271  10.440  65.111  1.00  0.00    -0.081 C  
HETATM   20  C   UNL     1      -6.913   9.106  64.423  1.00  0.00    -0.091 C  
HETATM   21  N   UNL     1      -7.530   8.953  63.090  1.00  0.00    -0.099 NA 
HETATM   22  H   UNL     1      -7.264   8.080  62.635  1.00  0.00     0.000 HD 
HETATM   23  C   UNL     1      -8.990   9.096  63.226  1.00  0.00     0.042 C  
HETATM   24  C   UNL     1      -9.424  10.440  63.859  1.00  0.00    -0.304 C  
ENDBRANCH  15  18
ENDBRANCH   2   3
TORSDOF 2
ENDMDL
MODEL       82
REMARK 921   NORMALIZED FREE ENERGY PREDICTED BY IDOCK:   -4.88 KCAL/MOL
REMARK 922        TOTAL FREE ENERGY PREDICTED BY IDOCK:   -5.91 KCAL/MOL
REMARK 923 INTER-LIGAND FREE ENERGY PREDICTED BY IDOCK:   -5.46 KCAL/MOL
REMARK 924 INTRA-LIGAND FREE ENERGY PREDICTED BY IDOCK:   -0.45 KCAL/MOL
REMARK 927      BINDING AFFINITY PREDICTED BY RF-SCORE:    0.00 PKD
ROOT
HETATM    1  C   UNL     1     -10.370  19.179  66.610  1.00  0.00    -0.515 C  
HETATM    2  C   UNL     1     -10.210  17.669  66.713  1.00  0.00    -0.335 C  
ENDROOT
BRANCH   2   3
HETATM    3  N   UNL     1      -9.094  17.319  67.598  1.00  0.00    -0.227 NA 
HETATM    4  C   UNL     1      -8.191  18.255  68.075  1.00  0.00    -0.264 C  
HETATM    5  C   UNL     1      -7.155  18.005  68.889  1.00  0.00    -0.268 C  
HETATM    6  C   UNL     1      -6.270  19.112  69.305  1.00  0.00    -0.275 C  
HETATM    7  C   UNL     1      -6.971  16.601  69.309  1.00  0.00    -0.225 C  
HETATM    8  C   UNL     1      -7.925  15.586  68.818  1.00  0.00    -0.163 A  
HETATM    9  O   UNL     1      -6.038  16.298  70.050  1.00  0.00    -0.198 OA 
HETATM   10  O   UNL     1      -6.429  20.269  68.946  1.00  0.00    -0.311 OA 
HETATM   11  O   UNL     1      -5.258  18.745  70.121  1.00  0.00    -0.191 OA 
HETATM   12  C   UNL     1      -7.765  14.255  69.184  1.00  0.00    -0.011 A  
HETATM   13  C   UNL     1      -8.671  13.331  68.695  1.00  0.00     0.032 A  
HETATM   14  F   UNL     1      -8.528  12.047  69.064  1.00  0.00    -0.044 F  
HETATM   15  C   UNL     1      -9.736  13.734  67.875  1.00  0.00    -0.229 A  
HETATM   16  C   UNL     1      -8.986  15.961  67.984  1.00  0.00    -0.182 A  
HETATM   17  N   UNL     1      -9.888  15.044  67.541  1.00  0.00    -0.217 NA 
BRANCH  15  18
HETATM   18  N   UNL     1     -10.665  12.811  67.426  1.00  0.00    -0.228 NA 
HETATM   19  C   UNL     1     -10.303  11.841  66.389  1.00  0.00    -0.222 C  
HETATM   20  C   UNL     1     -10.222  10.400  66.934  1.00  0.00    -0.227 C  
HETATM   21  N   UNL     1     -11.419   9.997  67.699  1.00  0.00    -0.507 NA 
HETATM   22  H   UNL     1     -11.364   9.034  68.031  1.00  0.00     0.000 HD 
HETATM   23  C   UNL     1     -11.625  10.960  68.795  1.00  0.00    -0.309 C  
HETATM   24  C   UNL     1     -11.772  12.423  68.313  1.00  0.00    -0.345 C  
ENDBRANCH  15  18
ENDBRANCH   2   3
TORSDOF 2
ENDMDL
MODEL       83
REMARK 921   NORMALIZED FREE ENERGY PREDICTED BY IDOCK:   -4.88 KCAL/MOL
REMARK 922        TOTAL FREE ENERGY PREDICTED BY IDOCK:   -5.91 KCAL/MOL
REMARK 923 INTER-LIGAND FREE ENERGY PREDICTED BY IDOCK:   -5.43 KCAL/MOL
REMARK 924 INTRA-LIGAND FREE ENERGY PREDICTED BY IDOCK:   -0.48 KCAL/MOL
REMARK 927      BINDING AFFINITY PREDICTED BY RF-SCORE:    0.00 PKD
ROOT
HETATM    1  C   UNL     1      -8.561  13.760  67.243  1.00  0.00    -0.221 C  
HETATM    2  C   UNL     1      -9.082  12.362  67.544  1.00  0.00    -0.185 C  
ENDROOT
BRANCH   2   3
HETATM    3  N   UNL     1     -10.138  12.403  68.562  1.00  0.00    -0.212 NA 
HETATM    4  C   UNL     1     -10.788  13.571  68.924  1.00  0.00    -0.224 C  
HETATM    5  C   UNL     1     -11.762  13.679  69.839  1.00  0.00    -0.346 C  
HETATM    6  C   UNL     1     -12.353  15.002  70.124  1.00  0.00    -0.333 C  
HETATM    7  C   UNL     1     -12.172  12.431  70.515  1.00  0.00    -0.295 C  
HETATM    8  C   UNL     1     -11.498  11.171  70.140  1.00  0.00    -0.361 A  
HETATM    9  O   UNL     1     -13.056  12.457  71.369  1.00  0.00    -0.334 OA 
HETATM   10  O   UNL     1     -12.001  16.029  69.563  1.00  0.00    -0.308 OA 
HETATM   11  O   UNL     1     -13.322  14.993  71.065  1.00  0.00    -0.403 OA 
HETATM   12  C   UNL     1     -11.852   9.986  70.773  1.00  0.00    -0.435 A  
HETATM   13  C   UNL     1     -11.190   8.828  70.405  1.00  0.00    -0.223 A  
HETATM   14  F   UNL     1     -11.546   7.678  71.002  1.00  0.00    -0.271 F  
HETATM   15  C   UNL     1     -10.208   8.849  69.402  1.00  0.00    -0.209 A  
HETATM   16  C   UNL     1     -10.502  11.170  69.155  1.00  0.00    -0.182 A  
HETATM   17  N   UNL     1      -9.887  10.016  68.782  1.00  0.00    -0.161 NA 
BRANCH  15  18
HETATM   18  N   UNL     1      -9.583   7.679  69.007  1.00  0.00    -0.150 NA 
HETATM   19  C   UNL     1      -9.852   7.106  67.685  1.00  0.00    -0.147 C  
HETATM   20  C   UNL     1      -8.636   7.210  66.741  1.00  0.00    -0.124 C  
HETATM   21  N   UNL     1      -7.387   6.701  67.340  1.00  0.00    -0.092 NA 
HETATM   22  H   UNL     1      -6.597   6.751  66.696  1.00  0.00     0.000 HD 
HETATM   23  C   UNL     1      -7.135   7.427  68.597  1.00  0.00    -0.084 C  
HETATM   24  C   UNL     1      -8.295   7.316  69.617  1.00  0.00    -0.132 C  
ENDBRANCH  15  18
ENDBRANCH   2   3
TORSDOF 2
ENDMDL
MODEL       84
REMARK 921   NORMALIZED FREE ENERGY PREDICTED BY IDOCK:   -4.87 KCAL/MOL
REMARK 922        TOTAL FREE ENERGY PREDICTED BY IDOCK:   -5.90 KCAL/MOL
REMARK 923 INTER-LIGAND FREE ENERGY PREDICTED BY IDOCK:   -5.43 KCAL/MOL
REMARK 924 INTRA-LIGAND FREE ENERGY PREDICTED BY IDOCK:   -0.47 KCAL/MOL
REMARK 927      BINDING AFFINITY PREDICTED BY RF-SCORE:    0.00 PKD
ROOT
HETATM    1  C   UNL     1      -7.046  11.005  66.511  1.00  0.00    -0.136 C  
HETATM    2  C   UNL     1      -7.304  12.206  67.410  1.00  0.00    -0.151 C  
ENDROOT
BRANCH   2   3
HETATM    3  N   UNL     1      -8.590  12.076  68.104  1.00  0.00    -0.167 NA 
HETATM    4  C   UNL     1      -9.046  10.876  68.624  1.00  0.00    -0.175 C  
HETATM    5  C   UNL     1     -10.204  10.689  69.271  1.00  0.00    -0.235 C  
HETATM    6  C   UNL     1     -10.559   9.341  69.761  1.00  0.00    -0.231 C  
HETATM    7  C   UNL     1     -11.063  11.878  69.442  1.00  0.00    -0.153 C  
HETATM    8  C   UNL     1     -10.595  13.171  68.903  1.00  0.00    -0.159 A  
HETATM    9  O   UNL     1     -12.143  11.779  70.022  1.00  0.00    -0.319 OA 
HETATM   10  O   UNL     1      -9.842   8.363  69.608  1.00  0.00    -0.179 OA 
HETATM   11  O   UNL     1     -11.749   9.268  70.395  1.00  0.00    -0.225 OA 
HETATM   12  C   UNL     1     -11.391  14.303  69.034  1.00  0.00    -0.303 A  
HETATM   13  C   UNL     1     -10.925  15.493  68.505  1.00  0.00    -0.288 A  
HETATM   14  F   UNL     1     -11.685  16.591  68.649  1.00  0.00    -0.320 F  
HETATM   15  C   UNL     1      -9.671  15.558  67.878  1.00  0.00    -0.211 A  
HETATM   16  C   UNL     1      -9.355  13.258  68.257  1.00  0.00    -0.205 A  
HETATM   17  N   UNL     1      -8.898  14.445  67.774  1.00  0.00    -0.178 NA 
BRANCH  15  18
HETATM   18  N   UNL     1      -9.191  16.762  67.391  1.00  0.00    -0.217 NA 
HETATM   19  C   UNL     1      -9.728  17.324  66.148  1.00  0.00    -0.224 C  
HETATM   20  C   UNL     1     -10.565  18.596  66.391  1.00  0.00    -0.349 C  
HETATM   21  N   UNL     1      -9.872  19.602  67.221  1.00  0.00    -0.348 NA 
HETATM   22  H   UNL     1     -10.426  20.448  67.352  1.00  0.00     0.000 HD 
HETATM   23  C   UNL     1      -9.487  18.977  68.498  1.00  0.00    -0.383 C  
HETATM   24  C   UNL     1      -8.594  17.724  68.329  1.00  0.00    -0.277 C  
ENDBRANCH  15  18
ENDBRANCH   2   3
TORSDOF 2
ENDMDL
MODEL       85
REMARK 921   NORMALIZED FREE ENERGY PREDICTED BY IDOCK:   -4.85 KCAL/MOL
REMARK 922        TOTAL FREE ENERGY PREDICTED BY IDOCK:   -5.88 KCAL/MOL
REMARK 923 INTER-LIGAND FREE ENERGY PREDICTED BY IDOCK:   -5.40 KCAL/MOL
REMARK 924 INTRA-LIGAND FREE ENERGY PREDICTED BY IDOCK:   -0.48 KCAL/MOL
REMARK 927      BINDING AFFINITY PREDICTED BY RF-SCORE:    0.00 PKD
ROOT
HETATM    1  C   UNL     1      -8.606   8.465  72.225  1.00  0.00    -0.263 C  
HETATM    2  C   UNL     1      -9.869   8.843  71.466  1.00  0.00    -0.314 C  
ENDROOT
BRANCH   2   3
HETATM    3  N   UNL     1      -9.908   8.190  70.153  1.00  0.00    -0.183 NA 
HETATM    4  C   UNL     1      -9.825   6.817  69.993  1.00  0.00    -0.169 C  
HETATM    5  C   UNL     1      -9.859   6.157  68.827  1.00  0.00    -0.160 C  
HETATM    6  C   UNL     1      -9.749   4.684  68.817  1.00  0.00    -0.160 C  
HETATM    7  C   UNL     1      -9.999   6.980  67.608  1.00  0.00    -0.154 C  
HETATM    8  C   UNL     1     -10.097   8.446  67.753  1.00  0.00    -0.263 A  
HETATM    9  O   UNL     1     -10.032   6.441  66.503  1.00  0.00    -0.164 OA 
HETATM   10  O   UNL     1      -9.626   4.015  69.832  1.00  0.00    -0.187 OA 
HETATM   11  O   UNL     1      -9.791   4.125  67.588  1.00  0.00    -0.154 OA 
HETATM   12  C   UNL     1     -10.212   9.246  66.622  1.00  0.00    -0.323 A  
HETATM   13  C   UNL     1     -10.288  10.616  66.797  1.00  0.00    -0.245 A  
HETATM   14  F   UNL     1     -10.419  11.387  65.706  1.00  0.00    -0.272 F  
HETATM   15  C   UNL     1     -10.275  11.178  68.084  1.00  0.00    -0.181 A  
HETATM   16  C   UNL     1     -10.069   9.032  69.026  1.00  0.00    -0.195 A  
HETATM   17  N   UNL     1     -10.180  10.379  69.180  1.00  0.00    -0.210 NA 
BRANCH  15  18
HETATM   18  N   UNL     1     -10.398  12.546  68.253  1.00  0.00    -0.231 NA 
HETATM   19  C   UNL     1      -9.260  13.430  67.982  1.00  0.00    -0.209 C  
HETATM   20  C   UNL     1      -9.479  14.304  66.730  1.00  0.00    -0.275 C  
HETATM   21  N   UNL     1     -10.770  15.021  66.737  1.00  0.00    -0.303 NA 
HETATM   22  H   UNL     1     -10.890  15.615  65.917  1.00  0.00     0.000 HD 
HETATM   23  C   UNL     1     -11.856  14.037  66.885  1.00  0.00    -0.430 C  
HETATM   24  C   UNL     1     -11.729  13.162  68.155  1.00  0.00    -0.355 C  
ENDBRANCH  15  18
ENDBRANCH   2   3
TORSDOF 2
ENDMDL
MODEL       86
REMARK 921   NORMALIZED FREE ENERGY PREDICTED BY IDOCK:   -4.82 KCAL/MOL
REMARK 922        TOTAL FREE ENERGY PREDICTED BY IDOCK:   -5.85 KCAL/MOL
REMARK 923 INTER-LIGAND FREE ENERGY PREDICTED BY IDOCK:   -5.46 KCAL/MOL
REMARK 924 INTRA-LIGAND FREE ENERGY PREDICTED BY IDOCK:   -0.39 KCAL/MOL
REMARK 927      BINDING AFFINITY PREDICTED BY RF-SCORE:    0.00 PKD
ROOT
HETATM    1  C   UNL     1      -6.024  13.288  69.304  1.00  0.00    -0.094 C  
HETATM    2  C   UNL     1      -6.705  13.166  67.949  1.00  0.00    -0.138 C  
ENDROOT
BRANCH   2   3
HETATM    3  N   UNL     1      -8.165  13.199  68.090  1.00  0.00    -0.153 NA 
HETATM    4  C   UNL     1      -8.926  12.061  68.299  1.00  0.00    -0.186 C  
HETATM    5  C   UNL     1     -10.258  12.020  68.442  1.00  0.00    -0.211 C  
HETATM    6  C   UNL     1     -10.932  10.722  68.649  1.00  0.00    -0.239 C  
HETATM    7  C   UNL     1     -10.968  13.314  68.370  1.00  0.00    -0.264 C  
HETATM    8  C   UNL     1     -10.177  14.543  68.155  1.00  0.00    -0.230 A  
HETATM    9  O   UNL     1     -12.192  13.351  68.487  1.00  0.00    -0.295 OA 
HETATM   10  O   UNL     1     -10.334   9.658  68.700  1.00  0.00    -0.189 OA 
HETATM   11  O   UNL     1     -12.274  10.799  68.776  1.00  0.00    -0.460 OA 
HETATM   12  C   UNL     1     -10.821  15.771  68.066  1.00  0.00    -0.309 A  
HETATM   13  C   UNL     1     -10.049  16.898  67.852  1.00  0.00    -0.288 A  
HETATM   14  F   UNL     1     -10.669  18.088  67.786  1.00  0.00    -0.384 F  
HETATM   15  C   UNL     1      -8.652  16.804  67.754  1.00  0.00    -0.198 A  
HETATM   16  C   UNL     1      -8.783  14.472  68.037  1.00  0.00    -0.167 A  
HETATM   17  N   UNL     1      -8.037  15.596  67.862  1.00  0.00    -0.138 NA 
BRANCH  15  18
HETATM   18  N   UNL     1      -7.882  17.942  67.586  1.00  0.00    -0.216 NA 
HETATM   19  C   UNL     1      -7.762  18.564  66.264  1.00  0.00    -0.254 C  
HETATM   20  C   UNL     1      -8.479  19.928  66.190  1.00  0.00    -0.319 C  
HETATM   21  N   UNL     1      -8.110  20.843  67.288  1.00  0.00    -0.500 NA 
HETATM   22  H   UNL     1      -8.571  21.749  67.212  1.00  0.00     0.000 HD 
HETATM   23  C   UNL     1      -8.387  20.176  68.572  1.00  0.00     0.083 C  
HETATM   24  C   UNL     1      -7.651  18.825  68.738  1.00  0.00    -0.311 C  
ENDBRANCH  15  18
ENDBRANCH   2   3
TORSDOF 2
ENDMDL
MODEL       87
REMARK 921   NORMALIZED FREE ENERGY PREDICTED BY IDOCK:   -4.81 KCAL/MOL
REMARK 922        TOTAL FREE ENERGY PREDICTED BY IDOCK:   -5.84 KCAL/MOL
REMARK 923 INTER-LIGAND FREE ENERGY PREDICTED BY IDOCK:   -5.64 KCAL/MOL
REMARK 924 INTRA-LIGAND FREE ENERGY PREDICTED BY IDOCK:   -0.21 KCAL/MOL
REMARK 927      BINDING AFFINITY PREDICTED BY RF-SCORE:    0.00 PKD
ROOT
HETATM    1  C   UNL     1      -9.625   8.410  70.224  1.00  0.00    -0.170 C  
HETATM    2  C   UNL     1     -10.276   9.012  68.987  1.00  0.00    -0.205 C  
ENDROOT
BRANCH   2   3
HETATM    3  N   UNL     1      -9.560   8.612  67.771  1.00  0.00    -0.145 NA 
HETATM    4  C   UNL     1      -8.783   7.469  67.698  1.00  0.00    -0.122 C  
HETATM    5  C   UNL     1      -8.109   7.042  66.620  1.00  0.00    -0.110 C  
HETATM    6  C   UNL     1      -7.310   5.803  66.700  1.00  0.00    -0.082 C  
HETATM    7  C   UNL     1      -8.215   7.875  65.405  1.00  0.00    -0.138 C  
HETATM    8  C   UNL     1      -9.045   9.096  65.456  1.00  0.00    -0.275 A  
HETATM    9  O   UNL     1      -7.619   7.547  64.380  1.00  0.00    -0.096 OA 
HETATM   10  O   UNL     1      -7.225   5.125  67.714  1.00  0.00    -0.065 OA 
HETATM   11  O   UNL     1      -6.671   5.471  65.558  1.00  0.00    -0.040 OA 
HETATM   12  C   UNL     1      -9.149   9.907  64.332  1.00  0.00    -0.299 A  
HETATM   13  C   UNL     1      -9.925  11.049  64.421  1.00  0.00    -0.312 A  
HETATM   14  F   UNL     1     -10.041  11.823  63.330  1.00  0.00    -0.345 F  
HETATM   15  C   UNL     1     -10.608  11.362  65.607  1.00  0.00    -0.258 A  
HETATM   16  C   UNL     1      -9.723   9.439  66.633  1.00  0.00    -0.219 A  
HETATM   17  N   UNL     1     -10.510  10.547  66.691  1.00  0.00    -0.242 NA 
BRANCH  15  18
HETATM   18  N   UNL     1     -11.419  12.482  65.674  1.00  0.00    -0.342 NA 
HETATM   19  C   UNL     1     -10.896  13.743  66.207  1.00  0.00    -0.283 C  
HETATM   20  C   UNL     1     -10.743  14.823  65.117  1.00  0.00    -0.415 C  
HETATM   21  N   UNL     1     -11.960  15.008  64.303  1.00  0.00    -0.723 NA 
HETATM   22  H   UNL     1     -11.854  15.743  63.603  1.00  0.00     0.000 HD 
HETATM   23  C   UNL     1     -12.332  13.714  63.707  1.00  0.00    -0.296 C  
HETATM   24  C   UNL     1     -12.559  12.595  64.752  1.00  0.00    -0.454 C  
ENDBRANCH  15  18
ENDBRANCH   2   3
TORSDOF 2
ENDMDL
MODEL       88
REMARK 921   NORMALIZED FREE ENERGY PREDICTED BY IDOCK:   -4.81 KCAL/MOL
REMARK 922        TOTAL FREE ENERGY PREDICTED BY IDOCK:   -5.84 KCAL/MOL
REMARK 923 INTER-LIGAND FREE ENERGY PREDICTED BY IDOCK:   -5.47 KCAL/MOL
REMARK 924 INTRA-LIGAND FREE ENERGY PREDICTED BY IDOCK:   -0.36 KCAL/MOL
REMARK 927      BINDING AFFINITY PREDICTED BY RF-SCORE:    0.00 PKD
ROOT
HETATM    1  C   UNL     1      -9.422   8.316  66.244  1.00  0.00    -0.271 C  
HETATM    2  C   UNL     1     -10.645   7.679  66.889  1.00  0.00    -0.289 C  
ENDROOT
BRANCH   2   3
HETATM    3  N   UNL     1     -10.307   6.387  67.494  1.00  0.00    -0.168 NA 
HETATM    4  C   UNL     1      -9.861   5.304  66.755  1.00  0.00    -0.176 C  
HETATM    5  C   UNL     1      -9.530   4.100  67.243  1.00  0.00    -0.220 C  
HETATM    6  C   UNL     1      -9.079   3.037  66.322  1.00  0.00    -0.143 C  
HETATM    7  C   UNL     1      -9.655   3.925  68.704  1.00  0.00    -0.111 C  
HETATM    8  C   UNL     1     -10.121   5.068  69.515  1.00  0.00    -0.301 A  
HETATM    9  O   UNL     1      -9.373   2.845  69.220  1.00  0.00    -0.143 OA 
HETATM   10  O   UNL     1      -8.986   3.192  65.113  1.00  0.00    -0.130 OA 
HETATM   11  O   UNL     1      -8.776   1.865  66.922  1.00  0.00    -0.104 OA 
HETATM   12  C   UNL     1     -10.264   4.925  70.890  1.00  0.00    -0.272 A  
HETATM   13  C   UNL     1     -10.715   6.013  71.615  1.00  0.00    -0.251 A  
HETATM   14  F   UNL     1     -10.835   5.882  72.946  1.00  0.00    -0.226 F  
HETATM   15  C   UNL     1     -10.995   7.234  70.980  1.00  0.00    -0.251 A  
HETATM   16  C   UNL     1     -10.424   6.291  68.902  1.00  0.00    -0.232 A  
HETATM   17  N   UNL     1     -10.833   7.360  69.636  1.00  0.00    -0.233 NA 
BRANCH  15  18
HETATM   18  N   UNL     1     -11.403   8.332  71.718  1.00  0.00    -0.270 NA 
HETATM   19  C   UNL     1     -10.916   9.673  71.379  1.00  0.00    -0.284 C  
HETATM   20  C   UNL     1     -12.027  10.572  70.799  1.00  0.00    -0.370 C  
HETATM   21  N   UNL     1     -13.248  10.600  71.628  1.00  0.00    -0.412 NA 
HETATM   22  H   UNL     1     -13.964  11.218  71.246  1.00  0.00     0.000 HD 
HETATM   23  C   UNL     1     -13.732   9.220  71.804  1.00  0.00    -0.377 C  
HETATM   24  C   UNL     1     -12.683   8.273  72.438  1.00  0.00    -0.242 C  
ENDBRANCH  15  18
ENDBRANCH   2   3
TORSDOF 2
ENDMDL
MODEL       89
REMARK 921   NORMALIZED FREE ENERGY PREDICTED BY IDOCK:   -4.80 KCAL/MOL
REMARK 922        TOTAL FREE ENERGY PREDICTED BY IDOCK:   -5.82 KCAL/MOL
REMARK 923 INTER-LIGAND FREE ENERGY PREDICTED BY IDOCK:   -5.35 KCAL/MOL
REMARK 924 INTRA-LIGAND FREE ENERGY PREDICTED BY IDOCK:   -0.47 KCAL/MOL
REMARK 927      BINDING AFFINITY PREDICTED BY RF-SCORE:    0.00 PKD
ROOT
HETATM    1  C   UNL     1      -6.139   9.274  68.621  1.00  0.00    -0.044 C  
HETATM    2  C   UNL     1      -6.757  10.231  69.630  1.00  0.00    -0.085 C  
ENDROOT
BRANCH   2   3
HETATM    3  N   UNL     1      -8.201  10.367  69.408  1.00  0.00    -0.163 NA 
HETATM    4  C   UNL     1      -8.735  11.045  68.326  1.00  0.00    -0.144 C  
HETATM    5  C   UNL     1     -10.039  11.202  68.061  1.00  0.00    -0.191 C  
HETATM    6  C   UNL     1     -10.457  11.965  66.867  1.00  0.00    -0.222 C  
HETATM    7  C   UNL     1     -10.984  10.589  69.017  1.00  0.00    -0.243 C  
HETATM    8  C   UNL     1     -10.438   9.853  70.176  1.00  0.00    -0.339 A  
HETATM    9  O   UNL     1     -12.196  10.698  68.840  1.00  0.00    -0.370 OA 
HETATM   10  O   UNL     1      -9.665  12.473  66.087  1.00  0.00    -0.254 OA 
HETATM   11  O   UNL     1     -11.793  12.063  66.701  1.00  0.00    -0.583 OA 
HETATM   12  C   UNL     1     -11.304   9.282  71.100  1.00  0.00    -0.412 A  
HETATM   13  C   UNL     1     -10.756   8.612  72.179  1.00  0.00    -0.347 A  
HETATM   14  F   UNL     1     -11.592   8.042  73.063  1.00  0.00    -0.451 F  
HETATM   15  C   UNL     1      -9.364   8.492  72.319  1.00  0.00    -0.293 A  
HETATM   16  C   UNL     1      -9.052   9.735  70.347  1.00  0.00    -0.097 A  
HETATM   17  N   UNL     1      -8.532   9.043  71.396  1.00  0.00    -0.322 NA 
BRANCH  15  18
HETATM   18  N   UNL     1      -8.824   7.781  73.377  1.00  0.00    -0.213 NA 
HETATM   19  C   UNL     1      -8.744   6.318  73.321  1.00  0.00    -0.125 C  
HETATM   20  C   UNL     1      -7.292   5.813  73.196  1.00  0.00    -0.095 C  
HETATM   21  N   UNL     1      -6.382   6.397  74.202  1.00  0.00    -0.069 NA 
HETATM   22  H   UNL     1      -5.432   6.035  74.125  1.00  0.00     0.000 HD 
HETATM   23  C   UNL     1      -6.436   7.865  74.093  1.00  0.00    -0.103 C  
HETATM   24  C   UNL     1      -7.861   8.445  74.267  1.00  0.00    -0.182 C  
ENDBRANCH  15  18
ENDBRANCH   2   3
TORSDOF 2
ENDMDL
MODEL       90
REMARK 921   NORMALIZED FREE ENERGY PREDICTED BY IDOCK:   -4.78 KCAL/MOL
REMARK 922        TOTAL FREE ENERGY PREDICTED BY IDOCK:   -5.81 KCAL/MOL
REMARK 923 INTER-LIGAND FREE ENERGY PREDICTED BY IDOCK:   -5.61 KCAL/MOL
REMARK 924 INTRA-LIGAND FREE ENERGY PREDICTED BY IDOCK:   -0.20 KCAL/MOL
REMARK 927      BINDING AFFINITY PREDICTED BY RF-SCORE:    0.00 PKD
ROOT
HETATM    1  C   UNL     1     -12.552  12.808  64.023  1.00  0.00    -0.379 C  
HETATM    2  C   UNL     1     -11.034  12.699  64.032  1.00  0.00    -0.406 C  
ENDROOT
BRANCH   2   3
HETATM    3  N   UNL     1     -10.548  12.260  65.345  1.00  0.00    -0.265 NA 
HETATM    4  C   UNL     1     -10.631  10.947  65.777  1.00  0.00    -0.163 C  
HETATM    5  C   UNL     1     -10.202  10.479  66.958  1.00  0.00    -0.275 C  
HETATM    6  C   UNL     1     -10.371   9.047  67.281  1.00  0.00    -0.273 C  
HETATM    7  C   UNL     1      -9.585  11.461  67.872  1.00  0.00    -0.177 C  
HETATM    8  C   UNL     1      -9.478  12.867  67.430  1.00  0.00    -0.198 A  
HETATM    9  O   UNL     1      -9.174  11.102  68.974  1.00  0.00    -0.140 OA 
HETATM   10  O   UNL     1     -10.889   8.245  66.518  1.00  0.00     0.056 OA 
HETATM   11  O   UNL     1      -9.907   8.687  68.497  1.00  0.00    -0.160 OA 
HETATM   12  C   UNL     1      -8.918  13.815  68.277  1.00  0.00    -0.186 A  
HETATM   13  C   UNL     1      -8.846  15.124  67.834  1.00  0.00    -0.166 A  
HETATM   14  F   UNL     1      -8.287  16.037  68.644  1.00  0.00    -0.163 F  
HETATM   15  C   UNL     1      -9.304  15.475  66.554  1.00  0.00    -0.283 A  
HETATM   16  C   UNL     1      -9.944  13.245  66.164  1.00  0.00    -0.293 A  
HETATM   17  N   UNL     1      -9.833  14.530  65.732  1.00  0.00    -0.324 NA 
BRANCH  15  18
HETATM   18  N   UNL     1      -9.187  16.777  66.100  1.00  0.00    -0.409 NA 
HETATM   19  C   UNL     1     -10.318  17.704  66.213  1.00  0.00    -0.342 C  
HETATM   20  C   UNL     1     -10.063  18.819  67.249  1.00  0.00    -0.357 C  
HETATM   21  N   UNL     1      -8.773  19.511  67.055  1.00  0.00    -0.294 NA 
HETATM   22  H   UNL     1      -8.629  20.263  67.730  1.00  0.00     0.000 HD 
HETATM   23  C   UNL     1      -7.691  18.513  67.085  1.00  0.00    -0.225 C  
HETATM   24  C   UNL     1      -7.854  17.393  66.029  1.00  0.00    -0.183 C  
ENDBRANCH  15  18
ENDBRANCH   2   3
TORSDOF 2
ENDMDL
MODEL       91
REMARK 921   NORMALIZED FREE ENERGY PREDICTED BY IDOCK:   -4.76 KCAL/MOL
REMARK 922        TOTAL FREE ENERGY PREDICTED BY IDOCK:   -5.79 KCAL/MOL
REMARK 923 INTER-LIGAND FREE ENERGY PREDICTED BY IDOCK:   -5.38 KCAL/MOL
REMARK 924 INTRA-LIGAND FREE ENERGY PREDICTED BY IDOCK:   -0.41 KCAL/MOL
REMARK 927      BINDING AFFINITY PREDICTED BY RF-SCORE:    0.00 PKD
ROOT
HETATM    1  C   UNL     1     -10.008  10.824  66.444  1.00  0.00    -0.264 C  
HETATM    2  C   UNL     1     -10.702   9.832  67.367  1.00  0.00    -0.249 C  
ENDROOT
BRANCH   2   3
HETATM    3  N   UNL     1     -10.131   8.489  67.217  1.00  0.00    -0.226 NA 
HETATM    4  C   UNL     1      -9.419   8.095  66.097  1.00  0.00    -0.147 C  
HETATM    5  C   UNL     1      -8.868   6.889  65.899  1.00  0.00    -0.125 C  
HETATM    6  C   UNL     1      -8.143   6.615  64.641  1.00  0.00    -0.088 C  
HETATM    7  C   UNL     1      -9.041   5.899  66.981  1.00  0.00    -0.116 C  
HETATM    8  C   UNL     1      -9.792   6.298  68.190  1.00  0.00    -0.133 A  
HETATM    9  O   UNL     1      -8.567   4.771  66.865  1.00  0.00    -0.106 OA 
HETATM   10  O   UNL     1      -8.011   7.440  63.750  1.00  0.00    -0.128 OA 
HETATM   11  O   UNL     1      -7.633   5.368  64.547  1.00  0.00    -0.070 OA 
HETATM   12  C   UNL     1      -9.985   5.382  69.216  1.00  0.00    -0.277 A  
HETATM   13  C   UNL     1     -10.703   5.787  70.326  1.00  0.00    -0.309 A  
HETATM   14  F   UNL     1     -10.874   4.908  71.327  1.00  0.00    -0.218 F  
HETATM   15  C   UNL     1     -11.199   7.097  70.421  1.00  0.00    -0.287 A  
HETATM   16  C   UNL     1     -10.311   7.595  68.301  1.00  0.00    -0.198 A  
HETATM   17  N   UNL     1     -10.985   7.987  69.415  1.00  0.00    -0.087 NA 
BRANCH  15  18
HETATM   18  N   UNL     1     -11.877   7.510  71.555  1.00  0.00    -0.283 NA 
HETATM   19  C   UNL     1     -11.558   8.797  72.181  1.00  0.00    -0.364 C  
HETATM   20  C   UNL     1     -12.695   9.827  72.018  1.00  0.00    -0.376 C  
HETATM   21  N   UNL     1     -14.016   9.307  72.422  1.00  0.00    -0.587 NA 
HETATM   22  H   UNL     1     -14.754  10.007  72.334  1.00  0.00     0.000 HD 
HETATM   23  C   UNL     1     -14.302   8.088  71.647  1.00  0.00    -0.473 C  
HETATM   24  C   UNL     1     -13.227   6.986  71.811  1.00  0.00    -0.267 C  
ENDBRANCH  15  18
ENDBRANCH   2   3
TORSDOF 2
ENDMDL
MODEL       92
REMARK 921   NORMALIZED FREE ENERGY PREDICTED BY IDOCK:   -4.76 KCAL/MOL
REMARK 922        TOTAL FREE ENERGY PREDICTED BY IDOCK:   -5.78 KCAL/MOL
REMARK 923 INTER-LIGAND FREE ENERGY PREDICTED BY IDOCK:   -5.29 KCAL/MOL
REMARK 924 INTRA-LIGAND FREE ENERGY PREDICTED BY IDOCK:   -0.49 KCAL/MOL
REMARK 927      BINDING AFFINITY PREDICTED BY RF-SCORE:    0.00 PKD
ROOT
HETATM    1  C   UNL     1     -10.430  10.861  63.939  1.00  0.00    -0.359 C  
HETATM    2  C   UNL     1      -9.688  10.272  65.130  1.00  0.00    -0.300 C  
ENDROOT
BRANCH   2   3
HETATM    3  N   UNL     1     -10.277  10.729  66.393  1.00  0.00    -0.233 NA 
HETATM    4  C   UNL     1     -10.677  12.037  66.606  1.00  0.00    -0.245 C  
HETATM    5  C   UNL     1     -11.225  12.519  67.731  1.00  0.00    -0.318 C  
HETATM    6  C   UNL     1     -11.591  13.948  67.811  1.00  0.00    -0.347 C  
HETATM    7  C   UNL     1     -11.416  11.557  68.835  1.00  0.00    -0.289 C  
HETATM    8  C   UNL     1     -11.004  10.154  68.629  1.00  0.00    -0.273 A  
HETATM    9  O   UNL     1     -11.909  11.932  69.898  1.00  0.00    -0.319 OA 
HETATM   10  O   UNL     1     -11.422  14.736  66.892  1.00  0.00    -0.352 OA 
HETATM   11  O   UNL     1     -12.131  14.324  68.990  1.00  0.00    -0.326 OA 
HETATM   12  C   UNL     1     -11.157   9.232  69.658  1.00  0.00    -0.134 A  
HETATM   13  C   UNL     1     -10.748   7.930  69.432  1.00  0.00    -0.168 A  
HETATM   14  F   UNL     1     -10.913   7.034  70.419  1.00  0.00    -0.246 F  
HETATM   15  C   UNL     1     -10.218   7.548  68.189  1.00  0.00    -0.189 A  
HETATM   16  C   UNL     1     -10.456   9.753  67.404  1.00  0.00    -0.259 A  
HETATM   17  N   UNL     1     -10.092   8.460  67.189  1.00  0.00    -0.237 NA 
BRANCH  15  18
HETATM   18  N   UNL     1      -9.853   6.234  67.956  1.00  0.00    -0.121 NA 
HETATM   19  C   UNL     1     -10.756   5.333  67.232  1.00  0.00    -0.027 C  
HETATM   20  C   UNL     1     -10.218   4.961  65.835  1.00  0.00    -0.223 C  
HETATM   21  N   UNL     1      -8.824   4.477  65.856  1.00  0.00    -0.119 NA 
HETATM   22  H   UNL     1      -8.490   4.209  64.930  1.00  0.00     0.000 HD 
HETATM   23  C   UNL     1      -7.976   5.504  66.485  1.00  0.00    -0.101 C  
HETATM   24  C   UNL     1      -8.426   5.884  67.917  1.00  0.00    -0.107 C  
ENDBRANCH  15  18
ENDBRANCH   2   3
TORSDOF 2
ENDMDL
MODEL       93
REMARK 921   NORMALIZED FREE ENERGY PREDICTED BY IDOCK:   -4.74 KCAL/MOL
REMARK 922        TOTAL FREE ENERGY PREDICTED BY IDOCK:   -5.76 KCAL/MOL
REMARK 923 INTER-LIGAND FREE ENERGY PREDICTED BY IDOCK:   -5.29 KCAL/MOL
REMARK 924 INTRA-LIGAND FREE ENERGY PREDICTED BY IDOCK:   -0.47 KCAL/MOL
REMARK 927      BINDING AFFINITY PREDICTED BY RF-SCORE:    0.00 PKD
ROOT
HETATM    1  C   UNL     1     -11.120   9.218  71.688  1.00  0.00    -0.438 C  
HETATM    2  C   UNL     1     -11.419  10.379  70.750  1.00  0.00    -0.332 C  
ENDROOT
BRANCH   2   3
HETATM    3  N   UNL     1     -10.902  10.112  69.403  1.00  0.00    -0.227 NA 
HETATM    4  C   UNL     1     -10.840   8.840  68.860  1.00  0.00    -0.008 C  
HETATM    5  C   UNL     1     -10.385   8.527  67.639  1.00  0.00    -0.317 C  
HETATM    6  C   UNL     1     -10.372   7.116  67.203  1.00  0.00    -0.289 C  
HETATM    7  C   UNL     1      -9.912   9.650  66.804  1.00  0.00    -0.227 C  
HETATM    8  C   UNL     1      -9.976  11.018  67.359  1.00  0.00    -0.209 A  
HETATM    9  O   UNL     1      -9.477   9.436  65.674  1.00  0.00    -0.231 OA 
HETATM   10  O   UNL     1     -10.760   6.194  67.905  1.00  0.00    -0.240 OA 
HETATM   11  O   UNL     1      -9.890   6.916  65.957  1.00  0.00     0.086 OA 
HETATM   12  C   UNL     1      -9.521  12.091  66.602  1.00  0.00    -0.222 A  
HETATM   13  C   UNL     1      -9.585  13.355  67.159  1.00  0.00    -0.241 A  
HETATM   14  F   UNL     1      -9.164  14.395  66.421  1.00  0.00    -0.268 F  
HETATM   15  C   UNL     1     -10.118  13.548  68.444  1.00  0.00    -0.240 A  
HETATM   16  C   UNL     1     -10.487  11.234  68.645  1.00  0.00    -0.203 A  
HETATM   17  N   UNL     1     -10.574  12.489  69.163  1.00  0.00    -0.042 NA 
BRANCH  15  18
HETATM   18  N   UNL     1     -10.220  14.821  68.977  1.00  0.00    -0.237 NA 
HETATM   19  C   UNL     1      -9.034  15.497  69.511  1.00  0.00    -0.244 C  
HETATM   20  C   UNL     1      -8.596  16.692  68.638  1.00  0.00    -0.253 C  
HETATM   21  N   UNL     1      -9.697  17.627  68.333  1.00  0.00    -0.305 NA 
HETATM   22  H   UNL     1      -9.389  18.425  67.779  1.00  0.00     0.000 HD 
HETATM   23  C   UNL     1     -10.787  16.878  67.684  1.00  0.00    -0.244 C  
HETATM   24  C   UNL     1     -11.315  15.696  68.533  1.00  0.00    -0.360 C  
ENDBRANCH  15  18
ENDBRANCH   2   3
TORSDOF 2
ENDMDL
MODEL       94
REMARK 921   NORMALIZED FREE ENERGY PREDICTED BY IDOCK:   -4.73 KCAL/MOL
REMARK 922        TOTAL FREE ENERGY PREDICTED BY IDOCK:   -5.74 KCAL/MOL
REMARK 923 INTER-LIGAND FREE ENERGY PREDICTED BY IDOCK:   -5.36 KCAL/MOL
REMARK 924 INTRA-LIGAND FREE ENERGY PREDICTED BY IDOCK:   -0.38 KCAL/MOL
REMARK 927      BINDING AFFINITY PREDICTED BY RF-SCORE:    0.00 PKD
ROOT
HETATM    1  C   UNL     1     -10.680   6.404  68.034  1.00  0.00    -0.362 C  
HETATM    2  C   UNL     1      -9.672   7.447  68.493  1.00  0.00    -0.151 C  
ENDROOT
BRANCH   2   3
HETATM    3  N   UNL     1     -10.348   8.661  68.963  1.00  0.00    -0.212 NA 
HETATM    4  C   UNL     1     -11.078   8.707  70.140  1.00  0.00    -0.192 C  
HETATM    5  C   UNL     1     -11.714   9.780  70.629  1.00  0.00    -0.377 C  
HETATM    6  C   UNL     1     -12.463   9.671  71.898  1.00  0.00    -0.377 C  
HETATM    7  C   UNL     1     -11.621  11.022  69.834  1.00  0.00    -0.337 C  
HETATM    8  C   UNL     1     -10.842  10.999  68.579  1.00  0.00    -0.254 A  
HETATM    9  O   UNL     1     -12.185  12.044  70.220  1.00  0.00    -0.312 OA 
HETATM   10  O   UNL     1     -12.538   8.636  72.544  1.00  0.00    -0.392 OA 
HETATM   11  O   UNL     1     -13.068  10.811  72.294  1.00  0.00    -0.383 OA 
HETATM   12  C   UNL     1     -10.752  12.148  67.802  1.00  0.00    -0.241 A  
HETATM   13  C   UNL     1     -10.025  12.086  66.627  1.00  0.00    -0.201 A  
HETATM   14  F   UNL     1      -9.922  13.201  65.886  1.00  0.00    -0.267 F  
HETATM   15  C   UNL     1      -9.376  10.901  66.247  1.00  0.00    -0.179 A  
HETATM   16  C   UNL     1     -10.200   9.824  68.169  1.00  0.00    -0.186 A  
HETATM   17  N   UNL     1      -9.460   9.791  67.027  1.00  0.00    -0.153 NA 
BRANCH  15  18
HETATM   18  N   UNL     1      -8.612  10.859  65.093  1.00  0.00    -0.130 NA 
HETATM   19  C   UNL     1      -7.326  10.155  65.082  1.00  0.00    -0.141 C  
HETATM   20  C   UNL     1      -7.366   8.872  64.226  1.00  0.00    -0.100 C  
HETATM   21  N   UNL     1      -7.909   9.091  62.870  1.00  0.00    -0.124 NA 
HETATM   22  H   UNL     1      -7.905   8.241  62.306  1.00  0.00     0.000 HD 
HETATM   23  C   UNL     1      -9.253   9.682  62.989  1.00  0.00    -0.113 C  
HETATM   24  C   UNL     1      -9.278  11.006  63.790  1.00  0.00    -0.177 C  
ENDBRANCH  15  18
ENDBRANCH   2   3
TORSDOF 2
ENDMDL
MODEL       95
REMARK 921   NORMALIZED FREE ENERGY PREDICTED BY IDOCK:   -4.71 KCAL/MOL
REMARK 922        TOTAL FREE ENERGY PREDICTED BY IDOCK:   -5.72 KCAL/MOL
REMARK 923 INTER-LIGAND FREE ENERGY PREDICTED BY IDOCK:   -5.28 KCAL/MOL
REMARK 924 INTRA-LIGAND FREE ENERGY PREDICTED BY IDOCK:   -0.44 KCAL/MOL
REMARK 927      BINDING AFFINITY PREDICTED BY RF-SCORE:    0.00 PKD
ROOT
HETATM    1  C   UNL     1     -12.373  11.007  69.854  1.00  0.00    -0.356 C  
HETATM    2  C   UNL     1     -10.882  11.164  69.594  1.00  0.00    -0.142 C  
ENDROOT
BRANCH   2   3
HETATM    3  N   UNL     1     -10.570  10.939  68.178  1.00  0.00    -0.185 NA 
HETATM    4  C   UNL     1     -10.639  11.941  67.224  1.00  0.00    -0.228 C  
HETATM    5  C   UNL     1     -10.363  11.806  65.920  1.00  0.00    -0.280 C  
HETATM    6  C   UNL     1     -10.493  12.970  65.020  1.00  0.00    -0.328 C  
HETATM    7  C   UNL     1      -9.947  10.462  65.470  1.00  0.00    -0.282 C  
HETATM    8  C   UNL     1      -9.859   9.378  66.470  1.00  0.00    -0.325 A  
HETATM    9  O   UNL     1      -9.684  10.264  64.285  1.00  0.00    -0.304 OA 
HETATM   10  O   UNL     1     -10.845  14.076  65.404  1.00  0.00    -0.302 OA 
HETATM   11  O   UNL     1     -10.195  12.719  63.728  1.00  0.00    -0.378 OA 
HETATM   12  C   UNL     1      -9.487   8.100  66.071  1.00  0.00    -0.158 A  
HETATM   13  C   UNL     1      -9.427   7.108  67.034  1.00  0.00    -0.155 A  
HETATM   14  F   UNL     1      -9.049   5.877  66.652  1.00  0.00    -0.122 F  
HETATM   15  C   UNL     1      -9.710   7.395  68.379  1.00  0.00    -0.153 A  
HETATM   16  C   UNL     1     -10.153   9.635  67.815  1.00  0.00    -0.187 A  
HETATM   17  N   UNL     1     -10.056   8.655  68.754  1.00  0.00    -0.191 NA 
BRANCH  15  18
HETATM   18  N   UNL     1      -9.604   6.408  69.343  1.00  0.00    -0.143 NA 
HETATM   19  C   UNL     1      -8.431   6.354  70.221  1.00  0.00    -0.135 C  
HETATM   20  C   UNL     1      -8.772   6.719  71.681  1.00  0.00    -0.126 C  
HETATM   21  N   UNL     1      -9.922   5.965  72.218  1.00  0.00    -0.168 NA 
HETATM   22  H   UNL     1     -10.120   6.197  73.191  1.00  0.00     0.000 HD 
HETATM   23  C   UNL     1     -11.084   6.186  71.339  1.00  0.00    -0.288 C  
HETATM   24  C   UNL     1     -10.829   5.785  69.866  1.00  0.00    -0.347 C  
ENDBRANCH  15  18
ENDBRANCH   2   3
TORSDOF 2
ENDMDL
MODEL       96
REMARK 921   NORMALIZED FREE ENERGY PREDICTED BY IDOCK:   -4.70 KCAL/MOL
REMARK 922        TOTAL FREE ENERGY PREDICTED BY IDOCK:   -5.71 KCAL/MOL
REMARK 923 INTER-LIGAND FREE ENERGY PREDICTED BY IDOCK:   -5.41 KCAL/MOL
REMARK 924 INTRA-LIGAND FREE ENERGY PREDICTED BY IDOCK:   -0.30 KCAL/MOL
REMARK 927      BINDING AFFINITY PREDICTED BY RF-SCORE:    0.00 PKD
ROOT
HETATM    1  C   UNL     1     -12.103  15.283  70.689  1.00  0.00    -0.399 C  
HETATM    2  C   UNL     1     -12.071  14.543  69.360  1.00  0.00    -0.290 C  
ENDROOT
BRANCH   2   3
HETATM    3  N   UNL     1     -10.995  15.051  68.502  1.00  0.00    -0.247 NA 
HETATM    4  C   UNL     1     -10.911  16.375  68.107  1.00  0.00    -0.346 C  
HETATM    5  C   UNL     1      -9.955  16.906  67.331  1.00  0.00    -0.269 C  
HETATM    6  C   UNL     1     -10.007  18.340  66.984  1.00  0.00    -0.342 C  
HETATM    7  C   UNL     1      -8.899  15.984  66.863  1.00  0.00    -0.231 C  
HETATM    8  C   UNL     1      -8.963  14.568  67.278  1.00  0.00    -0.220 A  
HETATM    9  O   UNL     1      -7.993  16.401  66.144  1.00  0.00    -0.293 OA 
HETATM   10  O   UNL     1     -10.890  19.092  67.372  1.00  0.00    -0.473 OA 
HETATM   11  O   UNL     1      -8.997  18.766  66.195  1.00  0.00    -0.449 OA 
HETATM   12  C   UNL     1      -7.992  13.676  66.839  1.00  0.00     0.197 A  
HETATM   13  C   UNL     1      -8.092  12.355  67.238  1.00  0.00    -0.182 A  
HETATM   14  F   UNL     1      -7.143  11.497  66.830  1.00  0.00    -0.125 F  
HETATM   15  C   UNL     1      -9.131  11.937  68.085  1.00  0.00    -0.190 A  
HETATM   16  C   UNL     1     -10.000  14.123  68.109  1.00  0.00    -0.232 A  
HETATM   17  N   UNL     1     -10.062  12.828  68.519  1.00  0.00    -0.216 NA 
BRANCH  15  18
HETATM   18  N   UNL     1      -9.198  10.624  68.517  1.00  0.00    -0.162 NA 
HETATM   19  C   UNL     1      -9.728  10.309  69.847  1.00  0.00    -0.072 C  
HETATM   20  C   UNL     1     -11.089   9.587  69.782  1.00  0.00    -0.191 C  
HETATM   21  N   UNL     1     -11.090   8.421  68.877  1.00  0.00    -0.405 NA 
HETATM   22  H   UNL     1     -11.988   7.938  68.863  1.00  0.00     0.000 HD 
HETATM   23  C   UNL     1     -10.668   8.863  67.536  1.00  0.00    -0.152 C  
HETATM   24  C   UNL     1      -9.279   9.547  67.519  1.00  0.00    -0.126 C  
ENDBRANCH  15  18
ENDBRANCH   2   3
TORSDOF 2
ENDMDL
MODEL       97
REMARK 921   NORMALIZED FREE ENERGY PREDICTED BY IDOCK:   -4.65 KCAL/MOL
REMARK 922        TOTAL FREE ENERGY PREDICTED BY IDOCK:   -5.66 KCAL/MOL
REMARK 923 INTER-LIGAND FREE ENERGY PREDICTED BY IDOCK:   -5.20 KCAL/MOL
REMARK 924 INTRA-LIGAND FREE ENERGY PREDICTED BY IDOCK:   -0.47 KCAL/MOL
REMARK 927      BINDING AFFINITY PREDICTED BY RF-SCORE:    0.00 PKD
ROOT
HETATM    1  C   UNL     1      -6.018  13.194  67.757  1.00  0.00    -0.148 C  
HETATM    2  C   UNL     1      -6.931  12.487  68.748  1.00  0.00    -0.094 C  
ENDROOT
BRANCH   2   3
HETATM    3  N   UNL     1      -8.303  12.409  68.234  1.00  0.00    -0.171 NA 
HETATM    4  C   UNL     1      -8.819  13.321  67.328  1.00  0.00    -0.216 C  
HETATM    5  C   UNL     1     -10.058  13.306  66.815  1.00  0.00    -0.258 C  
HETATM    6  C   UNL     1     -10.467  14.358  65.863  1.00  0.00    -0.308 C  
HETATM    7  C   UNL     1     -10.943  12.212  67.263  1.00  0.00    -0.260 C  
HETATM    8  C   UNL     1     -10.413  11.222  68.224  1.00  0.00    -0.220 A  
HETATM    9  O   UNL     1     -12.094  12.139  66.838  1.00  0.00    -0.600 OA 
HETATM   10  O   UNL     1      -9.727  15.262  65.505  1.00  0.00    -0.332 OA 
HETATM   11  O   UNL     1     -11.736  14.247  65.414  1.00  0.00    -0.335 OA 
HETATM   12  C   UNL     1     -11.229  10.193  68.675  1.00  0.00    -0.223 A  
HETATM   13  C   UNL     1     -10.702   9.293  69.583  1.00  0.00    -0.230 A  
HETATM   14  F   UNL     1     -11.485   8.286  70.005  1.00  0.00    -0.210 F  
HETATM   15  C   UNL     1      -9.371   9.404  70.015  1.00  0.00    -0.226 A  
HETATM   16  C   UNL     1      -9.093  11.323  68.683  1.00  0.00    -0.151 A  
HETATM   17  N   UNL     1      -8.581  10.408  69.550  1.00  0.00    -0.136 NA 
BRANCH  15  18
HETATM   18  N   UNL     1      -8.836   8.474  70.889  1.00  0.00    -0.156 NA 
HETATM   19  C   UNL     1      -9.189   8.507  72.312  1.00  0.00    -0.272 C  
HETATM   20  C   UNL     1     -10.066   7.309  72.729  1.00  0.00    -0.210 C  
HETATM   21  N   UNL     1      -9.512   6.006  72.308  1.00  0.00    -0.151 NA 
HETATM   22  H   UNL     1     -10.088   5.221  72.613  1.00  0.00     0.000 HD 
HETATM   23  C   UNL     1      -9.314   6.026  70.849  1.00  0.00    -0.161 C  
HETATM   24  C   UNL     1      -8.394   7.173  70.366  1.00  0.00    -0.128 C  
ENDBRANCH  15  18
ENDBRANCH   2   3
TORSDOF 2
ENDMDL
MODEL       98
REMARK 921   NORMALIZED FREE ENERGY PREDICTED BY IDOCK:   -4.59 KCAL/MOL
REMARK 922        TOTAL FREE ENERGY PREDICTED BY IDOCK:   -5.59 KCAL/MOL
REMARK 923 INTER-LIGAND FREE ENERGY PREDICTED BY IDOCK:   -5.12 KCAL/MOL
REMARK 924 INTRA-LIGAND FREE ENERGY PREDICTED BY IDOCK:   -0.47 KCAL/MOL
REMARK 927      BINDING AFFINITY PREDICTED BY RF-SCORE:    0.00 PKD
ROOT
HETATM    1  C   UNL     1      -7.694   9.826  68.845  1.00  0.00    -0.082 C  
HETATM    2  C   UNL     1      -8.842   8.872  68.549  1.00  0.00    -0.134 C  
ENDROOT
BRANCH   2   3
HETATM    3  N   UNL     1      -9.862   8.936  69.601  1.00  0.00    -0.176 NA 
HETATM    4  C   UNL     1     -10.650  10.054  69.816  1.00  0.00    -0.267 C  
HETATM    5  C   UNL     1     -11.601  10.178  70.753  1.00  0.00    -0.445 C  
HETATM    6  C   UNL     1     -12.355  11.443  70.867  1.00  0.00    -0.381 C  
HETATM    7  C   UNL     1     -11.820   9.008  71.628  1.00  0.00    -0.360 C  
HETATM    8  C   UNL     1     -10.997   7.801  71.413  1.00  0.00    -0.264 A  
HETATM    9  O   UNL     1     -12.674   9.052  72.513  1.00  0.00    -0.379 OA 
HETATM   10  O   UNL     1     -12.160  12.406  70.141  1.00  0.00    -0.335 OA 
HETATM   11  O   UNL     1     -13.285  11.457  71.847  1.00  0.00    -0.484 OA 
HETATM   12  C   UNL     1     -11.170   6.692  72.232  1.00  0.00    -0.303 A  
HETATM   13  C   UNL     1     -10.372   5.585  72.009  1.00  0.00    -0.213 A  
HETATM   14  F   UNL     1     -10.552   4.506  72.788  1.00  0.00    -0.224 F  
HETATM   15  C   UNL     1      -9.432   5.575  70.966  1.00  0.00    -0.163 A  
HETATM   16  C   UNL     1     -10.040   7.773  70.389  1.00  0.00    -0.194 A  
HETATM   17  N   UNL     1      -9.288   6.663  70.162  1.00  0.00    -0.158 NA 
BRANCH  15  18
HETATM   18  N   UNL     1      -8.669   4.447  70.719  1.00  0.00    -0.090 NA 
HETATM   19  C   UNL     1      -7.487   4.160  71.538  1.00  0.00    -0.059 C  
HETATM   20  C   UNL     1      -7.686   2.930  72.447  1.00  0.00    -0.054 C  
HETATM   21  N   UNL     1      -8.181   1.743  71.723  1.00  0.00    -0.044 NA 
HETATM   22  H   UNL     1      -8.283   0.930  72.330  1.00  0.00     0.000 HD 
HETATM   23  C   UNL     1      -9.437   2.096  71.038  1.00  0.00    -0.141 C  
HETATM   24  C   UNL     1      -9.295   3.290  70.064  1.00  0.00    -0.168 C  
ENDBRANCH  15  18
ENDBRANCH   2   3
TORSDOF 2
ENDMDL
MODEL       99
REMARK 921   NORMALIZED FREE ENERGY PREDICTED BY IDOCK:   -4.59 KCAL/MOL
REMARK 922        TOTAL FREE ENERGY PREDICTED BY IDOCK:   -5.59 KCAL/MOL
REMARK 923 INTER-LIGAND FREE ENERGY PREDICTED BY IDOCK:   -5.13 KCAL/MOL
REMARK 924 INTRA-LIGAND FREE ENERGY PREDICTED BY IDOCK:   -0.46 KCAL/MOL
REMARK 927      BINDING AFFINITY PREDICTED BY RF-SCORE:    0.00 PKD
ROOT
HETATM    1  C   UNL     1      -8.542   8.814  62.564  1.00  0.00    -0.171 C  
HETATM    2  C   UNL     1      -7.796   8.941  63.884  1.00  0.00    -0.137 C  
ENDROOT
BRANCH   2   3
HETATM    3  N   UNL     1      -8.526   8.271  64.966  1.00  0.00    -0.153 NA 
HETATM    4  C   UNL     1      -8.431   6.910  65.206  1.00  0.00    -0.055 C  
HETATM    5  C   UNL     1      -9.064   6.236  66.176  1.00  0.00    -0.153 C  
HETATM    6  C   UNL     1      -8.870   4.777  66.300  1.00  0.00    -0.114 C  
HETATM    7  C   UNL     1      -9.937   7.028  67.067  1.00  0.00    -0.210 C  
HETATM    8  C   UNL     1     -10.049   8.483  66.836  1.00  0.00    -0.364 A  
HETATM    9  O   UNL     1     -10.553   6.474  67.976  1.00  0.00    -0.196 OA 
HETATM   10  O   UNL     1      -8.149   4.132  65.552  1.00  0.00    -0.100 OA 
HETATM   11  O   UNL     1      -9.558   4.201  67.309  1.00  0.00    -0.180 OA 
HETATM   12  C   UNL     1     -10.877   9.249  67.647  1.00  0.00    -0.188 A  
HETATM   13  C   UNL     1     -10.965  10.605  67.393  1.00  0.00    -0.298 A  
HETATM   14  F   UNL     1     -11.750  11.349  68.189  1.00  0.00    -0.341 F  
HETATM   15  C   UNL     1     -10.218  11.193  66.359  1.00  0.00    -0.233 A  
HETATM   16  C   UNL     1      -9.327   9.089  65.799  1.00  0.00    -0.236 A  
HETATM   17  N   UNL     1      -9.400  10.431  65.586  1.00  0.00    -0.185 NA 
BRANCH  15  18
HETATM   18  N   UNL     1     -10.277  12.558  66.140  1.00  0.00    -0.247 NA 
HETATM   19  C   UNL     1     -11.441  13.151  65.475  1.00  0.00    -0.315 C  
HETATM   20  C   UNL     1     -12.292  14.009  66.433  1.00  0.00    -0.431 C  
HETATM   21  N   UNL     1     -11.500  15.000  67.189  1.00  0.00    -0.332 NA 
HETATM   22  H   UNL     1     -12.078  15.578  67.799  1.00  0.00     0.000 HD 
HETATM   23  C   UNL     1     -10.436  14.294  67.924  1.00  0.00    -0.240 C  
HETATM   24  C   UNL     1      -9.507  13.456  67.013  1.00  0.00    -0.247 C  
ENDBRANCH  15  18
ENDBRANCH   2   3
TORSDOF 2
ENDMDL
MODEL      100
REMARK 921   NORMALIZED FREE ENERGY PREDICTED BY IDOCK:   -4.56 KCAL/MOL
REMARK 922        TOTAL FREE ENERGY PREDICTED BY IDOCK:   -5.56 KCAL/MOL
REMARK 923 INTER-LIGAND FREE ENERGY PREDICTED BY IDOCK:   -5.17 KCAL/MOL
REMARK 924 INTRA-LIGAND FREE ENERGY PREDICTED BY IDOCK:   -0.39 KCAL/MOL
REMARK 927      BINDING AFFINITY PREDICTED BY RF-SCORE:    0.00 PKD
ROOT
HETATM    1  C   UNL     1     -10.791   8.122  69.613  1.00  0.00    -0.162 C  
HETATM    2  C   UNL     1     -10.529   9.003  68.400  1.00  0.00    -0.192 C  
ENDROOT
BRANCH   2   3
HETATM    3  N   UNL     1      -9.651   8.327  67.439  1.00  0.00    -0.153 NA 
HETATM    4  C   UNL     1      -9.054   7.104  67.698  1.00  0.00    -0.127 C  
HETATM    5  C   UNL     1      -8.248   6.430  66.866  1.00  0.00    -0.110 C  
HETATM    6  C   UNL     1      -7.676   5.136  67.290  1.00  0.00    -0.092 C  
HETATM    7  C   UNL     1      -7.981   7.058  65.556  1.00  0.00    -0.130 C  
HETATM    8  C   UNL     1      -8.613   8.358  65.253  1.00  0.00    -0.177 A  
HETATM    9  O   UNL     1      -7.246   6.498  64.744  1.00  0.00    -0.061 OA 
HETATM   10  O   UNL     1      -7.900   4.630  68.380  1.00  0.00    -0.079 OA 
HETATM   11  O   UNL     1      -6.876   4.548  66.375  1.00  0.00    -0.055 OA 
HETATM   12  C   UNL     1      -8.365   8.979  64.035  1.00  0.00    -0.180 A  
HETATM   13  C   UNL     1      -8.964  10.202  63.793  1.00  0.00    -0.246 A  
HETATM   14  F   UNL     1      -8.740  10.793  62.608  1.00  0.00    -0.179 F  
HETATM   15  C   UNL     1      -9.818  10.784  64.742  1.00  0.00    -0.300 A  
HETATM   16  C   UNL     1      -9.455   8.968  66.192  1.00  0.00    -0.253 A  
HETATM   17  N   UNL     1     -10.063  10.154  65.922  1.00  0.00    -0.265 NA 
BRANCH  15  18
HETATM   18  N   UNL     1     -10.450  11.987  64.474  1.00  0.00    -0.283 NA 
HETATM   19  C   UNL     1     -11.492  12.061  63.446  1.00  0.00    -0.400 C  
HETATM   20  C   UNL     1     -12.893  12.300  64.045  1.00  0.00    -0.279 C  
HETATM   21  N   UNL     1     -12.939  13.435  64.988  1.00  0.00    -0.731 NA 
HETATM   22  H   UNL     1     -13.876  13.599  65.357  1.00  0.00     0.000 HD 
HETATM   23  C   UNL     1     -11.947  13.205  66.053  1.00  0.00    -0.433 C  
HETATM   24  C   UNL     1     -10.505  13.014  65.524  1.00  0.00    -0.285 C  
ENDBRANCH  15  18
ENDBRANCH   2   3
TORSDOF 2
ENDMDL
MODEL      101
REMARK 921   NORMALIZED FREE ENERGY PREDICTED BY IDOCK:   -4.52 KCAL/MOL
REMARK 922        TOTAL FREE ENERGY PREDICTED BY IDOCK:   -5.51 KCAL/MOL
REMARK 923 INTER-LIGAND FREE ENERGY PREDICTED BY IDOCK:   -5.87 KCAL/MOL
REMARK 924 INTRA-LIGAND FREE ENERGY PREDICTED BY IDOCK:    0.36 KCAL/MOL
REMARK 927      BINDING AFFINITY PREDICTED BY RF-SCORE:    0.00 PKD
ROOT
HETATM    1  C   UNL     1     -12.976  12.801  72.022  1.00  0.00    -0.380 C  
HETATM    2  C   UNL     1     -12.549  13.515  70.748  1.00  0.00    -0.309 C  
ENDROOT
BRANCH   2   3
HETATM    3  N   UNL     1     -11.699  12.651  69.922  1.00  0.00    -0.285 NA 
HETATM    4  C   UNL     1     -11.595  11.285  70.122  1.00  0.00    -0.305 C  
HETATM    5  C   UNL     1     -10.844  10.439  69.403  1.00  0.00    -0.287 C  
HETATM    6  C   UNL     1     -10.829   9.002  69.747  1.00  0.00    -0.205 C  
HETATM    7  C   UNL     1     -10.061  11.028  68.298  1.00  0.00    -0.177 C  
HETATM    8  C   UNL     1     -10.161  12.483  68.060  1.00  0.00    -0.220 A  
HETATM    9  O   UNL     1      -9.346  10.312  67.600  1.00  0.00    -0.144 OA 
HETATM   10  O   UNL     1     -11.476   8.527  70.668  1.00  0.00    -0.272 OA 
HETATM   11  O   UNL     1     -10.035   8.244  68.960  1.00  0.00    -0.179 OA 
HETATM   12  C   UNL     1      -9.422  13.067  67.038  1.00  0.00    -0.237 A  
HETATM   13  C   UNL     1      -9.531  14.433  66.853  1.00  0.00    -0.258 A  
HETATM   14  F   UNL     1      -8.833  14.995  65.853  1.00  0.00    -0.268 F  
HETATM   15  C   UNL     1     -10.386  15.201  67.659  1.00  0.00    -0.248 A  
HETATM   16  C   UNL     1     -10.993  13.273  68.863  1.00  0.00    -0.240 A  
HETATM   17  N   UNL     1     -11.115  14.610  68.643  1.00  0.00    -0.251 NA 
BRANCH  15  18
HETATM   18  N   UNL     1     -10.525  16.561  67.439  1.00  0.00    -0.309 NA 
HETATM   19  C   UNL     1     -10.841  17.462  68.551  1.00  0.00    -0.190 C  
HETATM   20  C   UNL     1      -9.659  18.386  68.913  1.00  0.00    -0.259 C  
HETATM   21  N   UNL     1      -9.093  19.093  67.747  1.00  0.00    -0.293 NA 
HETATM   22  H   UNL     1      -8.330  19.720  68.004  1.00  0.00     0.000 HD 
HETATM   23  C   UNL     1      -8.688  18.097  66.740  1.00  0.00    -0.263 C  
HETATM   24  C   UNL     1      -9.843  17.171  66.288  1.00  0.00    -0.291 C  
ENDBRANCH  15  18
ENDBRANCH   2   3
TORSDOF 2
ENDMDL
MODEL      102
REMARK 921   NORMALIZED FREE ENERGY PREDICTED BY IDOCK:   -4.52 KCAL/MOL
REMARK 922        TOTAL FREE ENERGY PREDICTED BY IDOCK:   -5.51 KCAL/MOL
REMARK 923 INTER-LIGAND FREE ENERGY PREDICTED BY IDOCK:   -5.07 KCAL/MOL
REMARK 924 INTRA-LIGAND FREE ENERGY PREDICTED BY IDOCK:   -0.44 KCAL/MOL
REMARK 927      BINDING AFFINITY PREDICTED BY RF-SCORE:    0.00 PKD
ROOT
HETATM    1  C   UNL     1      -8.682   9.642  63.505  1.00  0.00    -0.236 C  
HETATM    2  C   UNL     1      -8.187  10.282  64.794  1.00  0.00    -0.163 C  
ENDROOT
BRANCH   2   3
HETATM    3  N   UNL     1      -9.301  10.859  65.555  1.00  0.00    -0.198 NA 
HETATM    4  C   UNL     1      -9.921  12.045  65.199  1.00  0.00    -0.239 C  
HETATM    5  C   UNL     1     -10.944  12.623  65.844  1.00  0.00    -0.310 C  
HETATM    6  C   UNL     1     -11.494  13.900  65.346  1.00  0.00    -0.312 C  
HETATM    7  C   UNL     1     -11.448  11.921  67.042  1.00  0.00    -0.316 C  
HETATM    8  C   UNL     1     -10.808  10.650  67.438  1.00  0.00    -0.353 A  
HETATM    9  O   UNL     1     -12.381  12.397  67.686  1.00  0.00    -0.305 OA 
HETATM   10  O   UNL     1     -11.064  14.474  64.357  1.00  0.00    -0.300 OA 
HETATM   11  O   UNL     1     -12.519  14.393  66.075  1.00  0.00    -0.391 OA 
HETATM   12  C   UNL     1     -11.251   9.977  68.570  1.00  0.00    -0.180 A  
HETATM   13  C   UNL     1     -10.619   8.797  68.917  1.00  0.00    -0.155 A  
HETATM   14  F   UNL     1     -11.060   8.137  70.000  1.00  0.00    -0.249 F  
HETATM   15  C   UNL     1      -9.577   8.282  68.130  1.00  0.00    -0.150 A  
HETATM   16  C   UNL     1      -9.754  10.125  66.678  1.00  0.00    -0.192 A  
HETATM   17  N   UNL     1      -9.168   8.945  67.015  1.00  0.00    -0.133 NA 
BRANCH  15  18
HETATM   18  N   UNL     1      -8.979   7.077  68.457  1.00  0.00    -0.124 NA 
HETATM   19  C   UNL     1      -7.913   7.029  69.463  1.00  0.00    -0.125 C  
HETATM   20  C   UNL     1      -8.359   6.321  70.759  1.00  0.00    -0.126 C  
HETATM   21  N   UNL     1      -8.979   5.003  70.520  1.00  0.00    -0.122 NA 
HETATM   22  H   UNL     1      -9.245   4.534  71.386  1.00  0.00     0.000 HD 
HETATM   23  C   UNL     1     -10.117   5.175  69.600  1.00  0.00    -0.261 C  
HETATM   24  C   UNL     1      -9.729   5.829  68.252  1.00  0.00    -0.129 C  
ENDBRANCH  15  18
ENDBRANCH   2   3
TORSDOF 2
ENDMDL
MODEL      103
REMARK 921   NORMALIZED FREE ENERGY PREDICTED BY IDOCK:   -4.44 KCAL/MOL
REMARK 922        TOTAL FREE ENERGY PREDICTED BY IDOCK:   -5.43 KCAL/MOL
REMARK 923 INTER-LIGAND FREE ENERGY PREDICTED BY IDOCK:   -4.96 KCAL/MOL
REMARK 924 INTRA-LIGAND FREE ENERGY PREDICTED BY IDOCK:   -0.47 KCAL/MOL
REMARK 927      BINDING AFFINITY PREDICTED BY RF-SCORE:    0.00 PKD
ROOT
HETATM    1  C   UNL     1     -10.847   5.765  71.001  1.00  0.00    -0.316 C  
HETATM    2  C   UNL     1     -10.216   6.595  69.893  1.00  0.00    -0.187 C  
ENDROOT
BRANCH   2   3
HETATM    3  N   UNL     1     -10.681   7.985  69.949  1.00  0.00    -0.247 NA 
HETATM    4  C   UNL     1     -11.580   8.440  70.899  1.00  0.00    -0.262 C  
HETATM    5  C   UNL     1     -12.041   9.694  71.010  1.00  0.00    -0.421 C  
HETATM    6  C   UNL     1     -13.010  10.025  72.074  1.00  0.00    -0.416 C  
HETATM    7  C   UNL     1     -11.534  10.672  70.026  1.00  0.00    -0.325 C  
HETATM    8  C   UNL     1     -10.568  10.212  69.007  1.00  0.00    -0.245 A  
HETATM    9  O   UNL     1     -11.918  11.839  70.065  1.00  0.00    -0.321 OA 
HETATM   10  O   UNL     1     -13.427   9.205  72.879  1.00  0.00    -0.335 OA 
HETATM   11  O   UNL     1     -13.409  11.315  72.090  1.00  0.00    -0.457 OA 
HETATM   12  C   UNL     1     -10.088  11.107  68.058  1.00  0.00    -0.191 A  
HETATM   13  C   UNL     1      -9.195  10.638  67.112  1.00  0.00    -0.147 A  
HETATM   14  F   UNL     1      -8.716  11.507  66.207  1.00  0.00    -0.176 F  
HETATM   15  C   UNL     1      -8.767   9.301  67.130  1.00  0.00    -0.127 A  
HETATM   16  C   UNL     1     -10.139   8.879  68.993  1.00  0.00    -0.197 A  
HETATM   17  N   UNL     1      -9.233   8.444  68.076  1.00  0.00    -0.137 NA 
BRANCH  15  18
HETATM   18  N   UNL     1      -7.837   8.850  66.208  1.00  0.00    -0.101 NA 
HETATM   19  C   UNL     1      -6.403   8.976  66.482  1.00  0.00    -0.066 C  
HETATM   20  C   UNL     1      -5.730   7.610  66.731  1.00  0.00    -0.028 C  
HETATM   21  N   UNL     1      -6.026   6.613  65.683  1.00  0.00    -0.033 NA 
HETATM   22  H   UNL     1      -5.554   5.724  65.846  1.00  0.00     0.000 HD 
HETATM   23  C   UNL     1      -7.487   6.463  65.573  1.00  0.00    -0.083 C  
HETATM   24  C   UNL     1      -8.223   7.790  65.265  1.00  0.00    -0.140 C  
ENDBRANCH  15  18
ENDBRANCH   2   3
TORSDOF 2
ENDMDL
MODEL      104
REMARK 921   NORMALIZED FREE ENERGY PREDICTED BY IDOCK:   -4.44 KCAL/MOL
REMARK 922        TOTAL FREE ENERGY PREDICTED BY IDOCK:   -5.42 KCAL/MOL
REMARK 923 INTER-LIGAND FREE ENERGY PREDICTED BY IDOCK:   -5.64 KCAL/MOL
REMARK 924 INTRA-LIGAND FREE ENERGY PREDICTED BY IDOCK:    0.21 KCAL/MOL
REMARK 927      BINDING AFFINITY PREDICTED BY RF-SCORE:    0.00 PKD
ROOT
HETATM    1  C   UNL     1     -10.725  18.539  67.430  1.00  0.00    -0.424 C  
HETATM    2  C   UNL     1     -10.150  17.348  66.678  1.00  0.00    -0.317 C  
ENDROOT
BRANCH   2   3
HETATM    3  N   UNL     1      -9.001  16.780  67.393  1.00  0.00    -0.203 NA 
HETATM    4  C   UNL     1      -8.153  17.543  68.178  1.00  0.00    -0.249 C  
HETATM    5  C   UNL     1      -7.092  17.090  68.860  1.00  0.00    -0.233 C  
HETATM    6  C   UNL     1      -6.272  18.033  69.648  1.00  0.00    -0.205 C  
HETATM    7  C   UNL     1      -6.813  15.643  68.760  1.00  0.00    -0.118 C  
HETATM    8  C   UNL     1      -7.709  14.807  67.935  1.00  0.00    -0.146 A  
HETATM    9  O   UNL     1      -5.853  15.159  69.356  1.00  0.00    -0.099 OA 
HETATM   10  O   UNL     1      -6.509  19.230  69.718  1.00  0.00    -0.278 OA 
HETATM   11  O   UNL     1      -5.227  17.468  70.291  1.00  0.00    -0.198 OA 
HETATM   12  C   UNL     1      -7.460  13.445  67.810  1.00  0.00    -0.160 A  
HETATM   13  C   UNL     1      -8.313  12.697  67.019  1.00  0.00    -0.130 A  
HETATM   14  F   UNL     1      -8.084  11.378  66.913  1.00  0.00    -0.132 F  
HETATM   15  C   UNL     1      -9.413  13.294  66.383  1.00  0.00    -0.217 A  
HETATM   16  C   UNL     1      -8.803  15.383  67.277  1.00  0.00    -0.195 A  
HETATM   17  N   UNL     1      -9.652  14.625  66.531  1.00  0.00    -0.275 NA 
BRANCH  15  18
HETATM   18  N   UNL     1     -10.288  12.531  65.630  1.00  0.00    -0.266 NA 
HETATM   19  C   UNL     1     -10.438  12.778  64.193  1.00  0.00    -0.413 C  
HETATM   20  C   UNL     1      -9.858  11.634  63.336  1.00  0.00    -0.404 C  
HETATM   21  N   UNL     1     -10.343  10.300  63.739  1.00  0.00    -0.417 NA 
HETATM   22  H   UNL     1      -9.972   9.555  63.148  1.00  0.00     0.000 HD 
HETATM   23  C   UNL     1     -10.032  10.094  65.164  1.00  0.00    -0.309 C  
HETATM   24  C   UNL     1     -10.634  11.178  66.090  1.00  0.00    -0.248 C  
ENDBRANCH  15  18
ENDBRANCH   2   3
TORSDOF 2
ENDMDL
MODEL      105
REMARK 921   NORMALIZED FREE ENERGY PREDICTED BY IDOCK:   -4.43 KCAL/MOL
REMARK 922        TOTAL FREE ENERGY PREDICTED BY IDOCK:   -5.41 KCAL/MOL
REMARK 923 INTER-LIGAND FREE ENERGY PREDICTED BY IDOCK:   -5.60 KCAL/MOL
REMARK 924 INTRA-LIGAND FREE ENERGY PREDICTED BY IDOCK:    0.19 KCAL/MOL
REMARK 927      BINDING AFFINITY PREDICTED BY RF-SCORE:    0.00 PKD
ROOT
HETATM    1  C   UNL     1     -12.672   9.627  71.879  1.00  0.00    -0.499 C  
HETATM    2  C   UNL     1     -11.173   9.372  71.817  1.00  0.00    -0.289 C  
ENDROOT
BRANCH   2   3
HETATM    3  N   UNL     1     -10.892   8.009  71.352  1.00  0.00    -0.227 NA 
HETATM    4  C   UNL     1     -10.886   6.913  72.198  1.00  0.00    -0.225 C  
HETATM    5  C   UNL     1     -10.643   5.644  71.839  1.00  0.00    -0.287 C  
HETATM    6  C   UNL     1     -10.663   4.579  72.863  1.00  0.00    -0.208 C  
HETATM    7  C   UNL     1     -10.359   5.406  70.410  1.00  0.00    -0.283 C  
HETATM    8  C   UNL     1     -10.367   6.559  69.486  1.00  0.00    -0.237 A  
HETATM    9  O   UNL     1     -10.122   4.267  70.011  1.00  0.00    -0.196 OA 
HETATM   10  O   UNL     1     -10.893   4.789  74.044  1.00  0.00    -0.290 OA 
HETATM   11  O   UNL     1     -10.401   3.341  72.391  1.00  0.00    -0.152 OA 
HETATM   12  C   UNL     1     -10.085   6.366  68.139  1.00  0.00    -0.167 A  
HETATM   13  C   UNL     1     -10.089   7.472  67.308  1.00  0.00    -0.231 A  
HETATM   14  F   UNL     1      -9.837   7.283  66.002  1.00  0.00    -0.139 F  
HETATM   15  C   UNL     1     -10.395   8.747  67.809  1.00  0.00    -0.237 A  
HETATM   16  C   UNL     1     -10.651   7.844  69.966  1.00  0.00    -0.242 A  
HETATM   17  N   UNL     1     -10.685   8.914  69.127  1.00  0.00    -0.189 NA 
BRANCH  15  18
HETATM   18  N   UNL     1     -10.442   9.841  66.963  1.00  0.00    -0.239 NA 
HETATM   19  C   UNL     1     -10.761  11.171  67.490  1.00  0.00    -0.236 C  
HETATM   20  C   UNL     1      -9.547  12.123  67.458  1.00  0.00    -0.179 C  
HETATM   21  N   UNL     1      -8.880  12.175  66.142  1.00  0.00    -0.402 NA 
HETATM   22  H   UNL     1      -8.096  12.827  66.127  1.00  0.00     0.000 HD 
HETATM   23  C   UNL     1      -8.484  10.809  65.758  1.00  0.00    -0.174 C  
HETATM   24  C   UNL     1      -9.667   9.812  65.714  1.00  0.00    -0.273 C  
ENDBRANCH  15  18
ENDBRANCH   2   3
TORSDOF 2
ENDMDL
MODEL      106
REMARK 921   NORMALIZED FREE ENERGY PREDICTED BY IDOCK:   -4.42 KCAL/MOL
REMARK 922        TOTAL FREE ENERGY PREDICTED BY IDOCK:   -5.40 KCAL/MOL
REMARK 923 INTER-LIGAND FREE ENERGY PREDICTED BY IDOCK:   -5.54 KCAL/MOL
REMARK 924 INTRA-LIGAND FREE ENERGY PREDICTED BY IDOCK:    0.14 KCAL/MOL
REMARK 927      BINDING AFFINITY PREDICTED BY RF-SCORE:    0.00 PKD
ROOT
HETATM    1  C   UNL     1     -10.718   8.244  69.832  1.00  0.00    -0.234 C  
HETATM    2  C   UNL     1     -10.766   9.565  69.077  1.00  0.00    -0.202 C  
ENDROOT
BRANCH   2   3
HETATM    3  N   UNL     1     -10.194   9.422  67.734  1.00  0.00    -0.208 NA 
HETATM    4  C   UNL     1      -9.658   8.234  67.267  1.00  0.00    -0.166 C  
HETATM    5  C   UNL     1      -9.126   8.033  66.053  1.00  0.00    -0.193 C  
HETATM    6  C   UNL     1      -8.581   6.706  65.704  1.00  0.00    -0.123 C  
HETATM    7  C   UNL     1      -9.120   9.192  65.137  1.00  0.00    -0.176 C  
HETATM    8  C   UNL     1      -9.694  10.469  65.609  1.00  0.00    -0.289 A  
HETATM    9  O   UNL     1      -8.643   9.082  64.009  1.00  0.00    -0.194 OA 
HETATM   10  O   UNL     1      -8.586   5.756  66.473  1.00  0.00    -0.117 OA 
HETATM   11  O   UNL     1      -8.068   6.619  64.457  1.00  0.00    -0.122 OA 
HETATM   12  C   UNL     1      -9.685  11.580  64.775  1.00  0.00    -0.250 A  
HETATM   13  C   UNL     1     -10.220  12.761  65.256  1.00  0.00    -0.279 A  
HETATM   14  F   UNL     1     -10.230  13.830  64.443  1.00  0.00    -0.447 F  
HETATM   15  C   UNL     1     -10.778  12.825  66.542  1.00  0.00    -0.258 A  
HETATM   16  C   UNL     1     -10.241  10.562  66.896  1.00  0.00    -0.229 A  
HETATM   17  N   UNL     1     -10.794  11.724  67.339  1.00  0.00    -0.238 NA 
BRANCH  15  18
HETATM   18  N   UNL     1     -11.353  13.999  67.000  1.00  0.00    -0.316 NA 
HETATM   19  C   UNL     1     -11.972  14.050  68.328  1.00  0.00    -0.349 C  
HETATM   20  C   UNL     1     -11.169  14.919  69.318  1.00  0.00    -0.284 C  
HETATM   21  N   UNL     1     -10.843  16.257  68.788  1.00  0.00    -0.297 NA 
HETATM   22  H   UNL     1     -10.335  16.831  69.462  1.00  0.00     0.000 HD 
HETATM   23  C   UNL     1     -10.110  16.098  67.520  1.00  0.00    -0.256 C  
HETATM   24  C   UNL     1     -10.886  15.282  66.457  1.00  0.00    -0.311 C  
ENDBRANCH  15  18
ENDBRANCH   2   3
TORSDOF 2
ENDMDL
MODEL      107
REMARK 921   NORMALIZED FREE ENERGY PREDICTED BY IDOCK:   -4.39 KCAL/MOL
REMARK 922        TOTAL FREE ENERGY PREDICTED BY IDOCK:   -5.37 KCAL/MOL
REMARK 923 INTER-LIGAND FREE ENERGY PREDICTED BY IDOCK:   -4.89 KCAL/MOL
REMARK 924 INTRA-LIGAND FREE ENERGY PREDICTED BY IDOCK:   -0.48 KCAL/MOL
REMARK 927      BINDING AFFINITY PREDICTED BY RF-SCORE:    0.00 PKD
ROOT
HETATM    1  C   UNL     1     -11.893  14.585  64.680  1.00  0.00    -0.462 C  
HETATM    2  C   UNL     1     -11.690  14.576  66.188  1.00  0.00    -0.350 C  
ENDROOT
BRANCH   2   3
HETATM    3  N   UNL     1     -10.559  15.428  66.570  1.00  0.00    -0.301 NA 
HETATM    4  C   UNL     1     -10.649  16.808  66.644  1.00  0.00    -0.198 C  
HETATM    5  C   UNL     1      -9.660  17.644  66.991  1.00  0.00    -0.276 C  
HETATM    6  C   UNL     1      -9.907  19.100  67.013  1.00  0.00    -0.336 C  
HETATM    7  C   UNL     1      -8.361  17.025  67.324  1.00  0.00    -0.186 C  
HETATM    8  C   UNL     1      -8.242  15.554  67.260  1.00  0.00    -0.224 A  
HETATM    9  O   UNL     1      -7.407  17.732  67.646  1.00  0.00    -0.194 OA 
HETATM   10  O   UNL     1     -10.985  19.601  66.729  1.00  0.00    -0.444 OA 
HETATM   11  O   UNL     1      -8.840  19.846  67.372  1.00  0.00    -0.313 OA 
HETATM   12  C   UNL     1      -7.027  14.946  67.551  1.00  0.00    -0.203 A  
HETATM   13  C   UNL     1      -6.950  13.568  67.468  1.00  0.00    -0.145 A  
HETATM   14  F   UNL     1      -5.781  12.979  67.769  1.00  0.00    -0.090 F  
HETATM   15  C   UNL     1      -8.078  12.805  67.125  1.00  0.00    -0.129 A  
HETATM   16  C   UNL     1      -9.348  14.773  66.902  1.00  0.00    -0.240 A  
HETATM   17  N   UNL     1      -9.264  13.415  66.860  1.00  0.00    -0.244 NA 
BRANCH  15  18
HETATM   18  N   UNL     1      -8.006  11.423  67.088  1.00  0.00    -0.148 NA 
HETATM   19  C   UNL     1      -7.347  10.746  65.967  1.00  0.00    -0.114 C  
HETATM   20  C   UNL     1      -6.023  10.073  66.383  1.00  0.00    -0.065 C  
HETATM   21  N   UNL     1      -6.157   9.209  67.573  1.00  0.00    -0.050 NA 
HETATM   22  H   UNL     1      -5.281   8.749  67.822  1.00  0.00     0.000 HD 
HETATM   23  C   UNL     1      -6.706  10.011  68.680  1.00  0.00    -0.053 C  
HETATM   24  C   UNL     1      -8.066  10.671  68.350  1.00  0.00    -0.123 C  
ENDBRANCH  15  18
ENDBRANCH   2   3
TORSDOF 2
ENDMDL
MODEL      108
REMARK 921   NORMALIZED FREE ENERGY PREDICTED BY IDOCK:   -4.18 KCAL/MOL
REMARK 922        TOTAL FREE ENERGY PREDICTED BY IDOCK:   -5.14 KCAL/MOL
REMARK 923 INTER-LIGAND FREE ENERGY PREDICTED BY IDOCK:   -5.43 KCAL/MOL
REMARK 924 INTRA-LIGAND FREE ENERGY PREDICTED BY IDOCK:    0.30 KCAL/MOL
REMARK 927      BINDING AFFINITY PREDICTED BY RF-SCORE:    0.00 PKD
ROOT
HETATM    1  C   UNL     1     -11.909   9.755  71.154  1.00  0.00    -0.466 C  
HETATM    2  C   UNL     1     -11.037   9.899  69.915  1.00  0.00    -0.275 C  
ENDROOT
BRANCH   2   3
HETATM    3  N   UNL     1     -10.557   8.590  69.457  1.00  0.00    -0.224 NA 
HETATM    4  C   UNL     1     -10.624   7.449  70.238  1.00  0.00    -0.231 C  
HETATM    5  C   UNL     1     -10.210   6.225  69.881  1.00  0.00    -0.232 C  
HETATM    6  C   UNL     1     -10.339   5.103  70.833  1.00  0.00    -0.212 C  
HETATM    7  C   UNL     1      -9.633   6.094  68.528  1.00  0.00    -0.119 C  
HETATM    8  C   UNL     1      -9.558   7.296  67.672  1.00  0.00    -0.160 A  
HETATM    9  O   UNL     1      -9.228   5.001  68.135  1.00  0.00    -0.112 OA 
HETATM   10  O   UNL     1     -10.812   5.226  71.953  1.00  0.00    -0.218 OA 
HETATM   11  O   UNL     1      -9.887   3.918  70.369  1.00  0.00    -0.196 OA 
HETATM   12  C   UNL     1      -9.004   7.204  66.401  1.00  0.00    -0.178 A  
HETATM   13  C   UNL     1      -8.939   8.353  65.634  1.00  0.00    -0.134 A  
HETATM   14  F   UNL     1      -8.422   8.262  64.398  1.00  0.00    -0.165 F  
HETATM   15  C   UNL     1      -9.443   9.571  66.119  1.00  0.00    -0.221 A  
HETATM   16  C   UNL     1     -10.038   8.526  68.141  1.00  0.00    -0.200 A  
HETATM   17  N   UNL     1      -9.997   9.638  67.359  1.00  0.00    -0.175 NA 
BRANCH  15  18
HETATM   18  N   UNL     1      -9.415  10.707  65.329  1.00  0.00    -0.204 NA 
HETATM   19  C   UNL     1      -8.734  10.688  64.031  1.00  0.00    -0.131 C  
HETATM   20  C   UNL     1      -9.720  10.779  62.848  1.00  0.00    -0.304 C  
HETATM   21  N   UNL     1     -10.680  11.893  62.973  1.00  0.00    -0.675 NA 
HETATM   22  H   UNL     1     -11.309  11.957  62.172  1.00  0.00     0.000 HD 
HETATM   23  C   UNL     1     -11.405  11.752  64.247  1.00  0.00    -0.325 C  
HETATM   24  C   UNL     1     -10.476  11.712  65.485  1.00  0.00    -0.273 C  
ENDBRANCH  15  18
ENDBRANCH   2   3
TORSDOF 2
ENDMDL
MODEL      109
REMARK 921   NORMALIZED FREE ENERGY PREDICTED BY IDOCK:   -4.16 KCAL/MOL
REMARK 922        TOTAL FREE ENERGY PREDICTED BY IDOCK:   -5.11 KCAL/MOL
REMARK 923 INTER-LIGAND FREE ENERGY PREDICTED BY IDOCK:   -4.67 KCAL/MOL
REMARK 924 INTRA-LIGAND FREE ENERGY PREDICTED BY IDOCK:   -0.44 KCAL/MOL
REMARK 927      BINDING AFFINITY PREDICTED BY RF-SCORE:    0.00 PKD
ROOT
HETATM    1  C   UNL     1     -10.305   5.552  66.517  1.00  0.00    -0.309 C  
HETATM    2  C   UNL     1      -9.099   6.429  66.823  1.00  0.00    -0.140 C  
ENDROOT
BRANCH   2   3
HETATM    3  N   UNL     1      -9.518   7.783  67.202  1.00  0.00    -0.147 NA 
HETATM    4  C   UNL     1      -9.829   8.762  66.273  1.00  0.00    -0.272 C  
HETATM    5  C   UNL     1     -10.222  10.013  66.550  1.00  0.00    -0.291 C  
HETATM    6  C   UNL     1     -10.509  10.951  65.445  1.00  0.00    -0.223 C  
HETATM    7  C   UNL     1     -10.332  10.368  67.979  1.00  0.00    -0.179 C  
HETATM    8  C   UNL     1     -10.013   9.339  68.989  1.00  0.00    -0.187 A  
HETATM    9  O   UNL     1     -10.683  11.501  68.307  1.00  0.00    -0.192 OA 
HETATM   10  O   UNL     1     -10.408  10.647  64.265  1.00  0.00    -0.360 OA 
HETATM   11  O   UNL     1     -10.893  12.184  65.839  1.00  0.00    -0.260 OA 
HETATM   12  C   UNL     1     -10.092   9.651  70.341  1.00  0.00    -0.336 A  
HETATM   13  C   UNL     1      -9.773   8.665  71.257  1.00  0.00    -0.237 A  
HETATM   14  F   UNL     1      -9.868   8.960  72.564  1.00  0.00    -0.347 F  
HETATM   15  C   UNL     1      -9.407   7.378  70.830  1.00  0.00    -0.155 A  
HETATM   16  C   UNL     1      -9.628   8.053  68.588  1.00  0.00    -0.148 A  
HETATM   17  N   UNL     1      -9.352   7.086  69.504  1.00  0.00    -0.148 NA 
BRANCH  15  18
HETATM   18  N   UNL     1      -9.134   6.384  71.754  1.00  0.00    -0.143 NA 
HETATM   19  C   UNL     1     -10.205   5.504  72.232  1.00  0.00    -0.199 C  
HETATM   20  C   UNL     1     -10.049   4.057  71.722  1.00  0.00    -0.129 C  
HETATM   21  N   UNL     1      -8.703   3.498  71.957  1.00  0.00    -0.089 NA 
HETATM   22  H   UNL     1      -8.621   2.532  71.639  1.00  0.00     0.000 HD 
HETATM   23  C   UNL     1      -7.707   4.383  71.329  1.00  0.00    -0.079 C  
HETATM   24  C   UNL     1      -7.769   5.843  71.839  1.00  0.00    -0.102 C  
ENDBRANCH  15  18
ENDBRANCH   2   3
TORSDOF 2
ENDMDL
MODEL      110
REMARK 921   NORMALIZED FREE ENERGY PREDICTED BY IDOCK:   -4.16 KCAL/MOL
REMARK 922        TOTAL FREE ENERGY PREDICTED BY IDOCK:   -5.11 KCAL/MOL
REMARK 923 INTER-LIGAND FREE ENERGY PREDICTED BY IDOCK:   -4.65 KCAL/MOL
REMARK 924 INTRA-LIGAND FREE ENERGY PREDICTED BY IDOCK:   -0.46 KCAL/MOL
REMARK 927      BINDING AFFINITY PREDICTED BY RF-SCORE:    0.00 PKD
ROOT
HETATM    1  C   UNL     1      -8.096   8.499  63.379  1.00  0.00    -0.160 C  
HETATM    2  C   UNL     1      -7.485   9.214  64.576  1.00  0.00    -0.101 C  
ENDROOT
BRANCH   2   3
HETATM    3  N   UNL     1      -7.877   8.565  65.832  1.00  0.00    -0.096 NA 
HETATM    4  C   UNL     1      -7.236   7.444  66.330  1.00  0.00    -0.079 C  
HETATM    5  C   UNL     1      -7.538   6.806  67.470  1.00  0.00    -0.106 C  
HETATM    6  C   UNL     1      -6.766   5.611  67.866  1.00  0.00    -0.055 C  
HETATM    7  C   UNL     1      -8.658   7.360  68.258  1.00  0.00    -0.124 C  
HETATM    8  C   UNL     1      -9.353   8.560  67.750  1.00  0.00    -0.153 A  
HETATM    9  O   UNL     1      -8.993   6.823  69.312  1.00  0.00    -0.137 OA 
HETATM   10  O   UNL     1      -5.845   5.158  67.202  1.00  0.00    -0.023 OA 
HETATM   11  O   UNL     1      -7.158   5.047  69.029  1.00  0.00    -0.051 OA 
HETATM   12  C   UNL     1     -10.421   9.092  68.463  1.00  0.00    -0.238 A  
HETATM   13  C   UNL     1     -11.055  10.209  67.950  1.00  0.00    -0.238 A  
HETATM   14  F   UNL     1     -12.075  10.736  68.648  1.00  0.00    -0.367 F  
HETATM   15  C   UNL     1     -10.613  10.802  66.756  1.00  0.00    -0.250 A  
HETATM   16  C   UNL     1      -8.942   9.159  66.552  1.00  0.00    -0.148 A  
HETATM   17  N   UNL     1      -9.555  10.278  66.081  1.00  0.00    -0.186 NA 
BRANCH  15  18
HETATM   18  N   UNL     1     -11.224  11.946  66.273  1.00  0.00    -0.330 NA 
HETATM   19  C   UNL     1     -10.817  13.266  66.765  1.00  0.00    -0.281 C  
HETATM   20  C   UNL     1     -10.078  14.091  65.691  1.00  0.00    -0.322 C  
HETATM   21  N   UNL     1     -10.801  14.158  64.406  1.00  0.00    -0.609 NA 
HETATM   22  H   UNL     1     -10.314  14.728  63.714  1.00  0.00     0.000 HD 
HETATM   23  C   UNL     1     -11.050  12.787  63.931  1.00  0.00    -0.431 C  
HETATM   24  C   UNL     1     -11.841  11.917  64.939  1.00  0.00    -0.167 C  
ENDBRANCH  15  18
ENDBRANCH   2   3
TORSDOF 2
ENDMDL
MODEL      111
REMARK 921   NORMALIZED FREE ENERGY PREDICTED BY IDOCK:   -4.14 KCAL/MOL
REMARK 922        TOTAL FREE ENERGY PREDICTED BY IDOCK:   -5.09 KCAL/MOL
REMARK 923 INTER-LIGAND FREE ENERGY PREDICTED BY IDOCK:   -4.61 KCAL/MOL
REMARK 924 INTRA-LIGAND FREE ENERGY PREDICTED BY IDOCK:   -0.49 KCAL/MOL
REMARK 927      BINDING AFFINITY PREDICTED BY RF-SCORE:    0.00 PKD
ROOT
HETATM    1  C   UNL     1     -12.166  10.833  71.379  1.00  0.00    -0.374 C  
HETATM    2  C   UNL     1     -12.129  10.857  69.858  1.00  0.00    -0.354 C  
ENDROOT
BRANCH   2   3
HETATM    3  N   UNL     1     -11.354  12.003  69.370  1.00  0.00    -0.264 NA 
HETATM    4  C   UNL     1     -11.719  13.316  69.613  1.00  0.00    -0.303 C  
HETATM    5  C   UNL     1     -11.056  14.407  69.203  1.00  0.00    -0.290 C  
HETATM    6  C   UNL     1     -11.579  15.748  69.534  1.00  0.00    -0.363 C  
HETATM    7  C   UNL     1      -9.824  14.174  68.423  1.00  0.00    -0.231 C  
HETATM    8  C   UNL     1      -9.409  12.781  68.157  1.00  0.00    -0.214 A  
HETATM    9  O   UNL     1      -9.168  15.129  68.010  1.00  0.00    -0.182 OA 
HETATM   10  O   UNL     1     -12.604  15.928  70.175  1.00  0.00    -0.297 OA 
HETATM   11  O   UNL     1     -10.834  16.773  69.067  1.00  0.00    -0.319 OA 
HETATM   12  C   UNL     1      -8.263  12.533  67.411  1.00  0.00    -0.183 A  
HETATM   13  C   UNL     1      -7.914  11.217  67.171  1.00  0.00    -0.151 A  
HETATM   14  F   UNL     1      -6.796  10.977  66.466  1.00  0.00    -0.105 F  
HETATM   15  C   UNL     1      -8.682  10.163  67.690  1.00  0.00    -0.121 A  
HETATM   16  C   UNL     1     -10.170  11.713  68.650  1.00  0.00    -0.206 A  
HETATM   17  N   UNL     1      -9.791  10.424  68.433  1.00  0.00    -0.157 NA 
BRANCH  15  18
HETATM   18  N   UNL     1      -8.301   8.849  67.485  1.00  0.00    -0.109 NA 
HETATM   19  C   UNL     1      -8.540   8.203  66.191  1.00  0.00    -0.139 C  
HETATM   20  C   UNL     1      -7.232   7.934  65.418  1.00  0.00    -0.064 C  
HETATM   21  N   UNL     1      -6.210   7.237  66.223  1.00  0.00    -0.040 NA 
HETATM   22  H   UNL     1      -5.361   7.042  65.693  1.00  0.00     0.000 HD 
HETATM   23  C   UNL     1      -5.946   8.028  67.438  1.00  0.00    -0.050 C  
HETATM   24  C   UNL     1      -7.209   8.287  68.294  1.00  0.00    -0.093 C  
ENDBRANCH  15  18
ENDBRANCH   2   3
TORSDOF 2
ENDMDL
MODEL      112
REMARK 921   NORMALIZED FREE ENERGY PREDICTED BY IDOCK:   -4.13 KCAL/MOL
REMARK 922        TOTAL FREE ENERGY PREDICTED BY IDOCK:   -5.08 KCAL/MOL
REMARK 923 INTER-LIGAND FREE ENERGY PREDICTED BY IDOCK:   -5.29 KCAL/MOL
REMARK 924 INTRA-LIGAND FREE ENERGY PREDICTED BY IDOCK:    0.21 KCAL/MOL
REMARK 927      BINDING AFFINITY PREDICTED BY RF-SCORE:    0.00 PKD
ROOT
HETATM    1  C   UNL     1     -10.657  10.517  64.568  1.00  0.00     0.001 C  
HETATM    2  C   UNL     1      -9.462  10.122  65.424  1.00  0.00    -0.239 C  
ENDROOT
BRANCH   2   3
HETATM    3  N   UNL     1      -9.898   9.499  66.678  1.00  0.00    -0.213 NA 
HETATM    4  C   UNL     1      -9.835   8.134  66.901  1.00  0.00    -0.247 C  
HETATM    5  C   UNL     1     -10.210   7.501  68.022  1.00  0.00    -0.239 C  
HETATM    6  C   UNL     1     -10.092   6.031  68.107  1.00  0.00    -0.160 C  
HETATM    7  C   UNL     1     -10.735   8.348  69.113  1.00  0.00    -0.106 C  
HETATM    8  C   UNL     1     -10.805   9.809  68.901  1.00  0.00    -0.220 A  
HETATM    9  O   UNL     1     -11.103   7.835  70.168  1.00  0.00    -0.257 OA 
HETATM   10  O   UNL     1      -9.662   5.340  67.195  1.00  0.00    -0.132 OA 
HETATM   11  O   UNL     1     -10.502   5.501  69.279  1.00  0.00    -0.249 OA 
HETATM   12  C   UNL     1     -11.310  10.628  69.904  1.00  0.00    -0.386 A  
HETATM   13  C   UNL     1     -11.372  11.988  69.665  1.00  0.00    -0.179 A  
HETATM   14  F   UNL     1     -11.843  12.782  70.641  1.00  0.00    -0.383 F  
HETATM   15  C   UNL     1     -10.912  12.527  68.453  1.00  0.00    -0.248 A  
HETATM   16  C   UNL     1     -10.368  10.368  67.693  1.00  0.00    -0.219 A  
HETATM   17  N   UNL     1     -10.404  11.712  67.490  1.00  0.00    -0.194 NA 
BRANCH  15  18
HETATM   18  N   UNL     1     -10.935  13.894  68.238  1.00  0.00    -0.247 NA 
HETATM   19  C   UNL     1     -12.138  14.672  68.549  1.00  0.00    -0.194 C  
HETATM   20  C   UNL     1     -11.939  15.604  69.761  1.00  0.00    -0.354 C  
HETATM   21  N   UNL     1     -10.728  16.443  69.660  1.00  0.00    -0.331 NA 
HETATM   22  H   UNL     1     -10.623  17.073  70.455  1.00  0.00     0.000 HD 
HETATM   23  C   UNL     1      -9.559  15.565  69.479  1.00  0.00    -0.278 C  
HETATM   24  C   UNL     1      -9.667  14.639  68.243  1.00  0.00    -0.215 C  
ENDBRANCH  15  18
ENDBRANCH   2   3
TORSDOF 2
ENDMDL
MODEL      113
REMARK 921   NORMALIZED FREE ENERGY PREDICTED BY IDOCK:   -4.13 KCAL/MOL
REMARK 922        TOTAL FREE ENERGY PREDICTED BY IDOCK:   -5.08 KCAL/MOL
REMARK 923 INTER-LIGAND FREE ENERGY PREDICTED BY IDOCK:   -4.76 KCAL/MOL
REMARK 924 INTRA-LIGAND FREE ENERGY PREDICTED BY IDOCK:   -0.32 KCAL/MOL
REMARK 927      BINDING AFFINITY PREDICTED BY RF-SCORE:    0.00 PKD
ROOT
HETATM    1  C   UNL     1     -11.442   7.142  70.641  1.00  0.00    -0.346 C  
HETATM    2  C   UNL     1     -11.030   8.182  69.609  1.00  0.00    -0.088 C  
ENDROOT
BRANCH   2   3
HETATM    3  N   UNL     1     -10.363   7.551  68.465  1.00  0.00    -0.197 NA 
HETATM    4  C   UNL     1     -10.128   6.189  68.390  1.00  0.00    -0.158 C  
HETATM    5  C   UNL     1      -9.531   5.548  67.375  1.00  0.00    -0.121 C  
HETATM    6  C   UNL     1      -9.341   4.085  67.444  1.00  0.00    -0.183 C  
HETATM    7  C   UNL     1      -9.089   6.382  66.238  1.00  0.00    -0.151 C  
HETATM    8  C   UNL     1      -9.335   7.837  66.292  1.00  0.00    -0.210 A  
HETATM    9  O   UNL     1      -8.529   5.861  65.275  1.00  0.00    -0.150 OA 
HETATM   10  O   UNL     1      -9.706   3.406  68.394  1.00  0.00    -0.125 OA 
HETATM   11  O   UNL     1      -8.725   3.546  66.370  1.00  0.00    -0.113 OA 
HETATM   12  C   UNL     1      -8.914   8.647  65.245  1.00  0.00    -0.150 A  
HETATM   13  C   UNL     1      -9.151  10.007  65.336  1.00  0.00    -0.193 A  
HETATM   14  F   UNL     1      -8.762  10.788  64.315  1.00  0.00    -0.178 F  
HETATM   15  C   UNL     1      -9.821  10.546  66.446  1.00  0.00    -0.210 A  
HETATM   16  C   UNL     1      -9.986   8.401  67.397  1.00  0.00    -0.212 A  
HETATM   17  N   UNL     1     -10.241   9.736  67.454  1.00  0.00    -0.215 NA 
BRANCH  15  18
HETATM   18  N   UNL     1     -10.095  11.902  66.509  1.00  0.00    -0.200 NA 
HETATM   19  C   UNL     1     -10.950  12.532  65.499  1.00  0.00    -0.287 C  
HETATM   20  C   UNL     1     -12.311  12.976  66.075  1.00  0.00    -0.319 C  
HETATM   21  N   UNL     1     -12.188  13.785  67.304  1.00  0.00    -0.428 NA 
HETATM   22  H   UNL     1     -13.093  14.094  67.659  1.00  0.00     0.000 HD 
HETATM   23  C   UNL     1     -11.425  13.016  68.302  1.00  0.00    -0.312 C  
HETATM   24  C   UNL     1     -10.022  12.585  67.809  1.00  0.00    -0.210 C  
ENDBRANCH  15  18
ENDBRANCH   2   3
TORSDOF 2
ENDMDL
MODEL      114
REMARK 921   NORMALIZED FREE ENERGY PREDICTED BY IDOCK:   -4.13 KCAL/MOL
REMARK 922        TOTAL FREE ENERGY PREDICTED BY IDOCK:   -5.07 KCAL/MOL
REMARK 923 INTER-LIGAND FREE ENERGY PREDICTED BY IDOCK:   -4.60 KCAL/MOL
REMARK 924 INTRA-LIGAND FREE ENERGY PREDICTED BY IDOCK:   -0.47 KCAL/MOL
REMARK 927      BINDING AFFINITY PREDICTED BY RF-SCORE:    0.00 PKD
ROOT
HETATM    1  C   UNL     1      -6.641  14.936  68.730  1.00  0.00    -0.087 C  
HETATM    2  C   UNL     1      -7.631  14.794  67.584  1.00  0.00    -0.174 C  
ENDROOT
BRANCH   2   3
HETATM    3  N   UNL     1      -8.899  14.226  68.053  1.00  0.00    -0.170 NA 
HETATM    4  C   UNL     1      -9.754  14.900  68.908  1.00  0.00    -0.223 C  
HETATM    5  C   UNL     1     -10.927  14.444  69.370  1.00  0.00    -0.261 C  
HETATM    6  C   UNL     1     -11.726  15.280  70.289  1.00  0.00    -0.308 C  
HETATM    7  C   UNL     1     -11.334  13.098  68.918  1.00  0.00    -0.289 C  
HETATM    8  C   UNL     1     -10.442  12.361  68.000  1.00  0.00    -0.227 A  
HETATM    9  O   UNL     1     -12.396  12.614  69.307  1.00  0.00    -0.102 OA 
HETATM   10  O   UNL     1     -11.375  16.390  70.661  1.00  0.00    -0.368 OA 
HETATM   11  O   UNL     1     -12.886  14.719  70.694  1.00  0.00    -0.344 OA 
HETATM   12  C   UNL     1     -10.793  11.087  67.572  1.00  0.00    -0.314 A  
HETATM   13  C   UNL     1      -9.926  10.423  66.723  1.00  0.00    -0.206 A  
HETATM   14  F   UNL     1     -10.274   9.198  66.294  1.00  0.00    -0.338 F  
HETATM   15  C   UNL     1      -8.740  11.033  66.286  1.00  0.00    -0.176 A  
HETATM   16  C   UNL     1      -9.244  12.943  67.564  1.00  0.00    -0.192 A  
HETATM   17  N   UNL     1      -8.421  12.288  66.700  1.00  0.00    -0.113 NA 
BRANCH  15  18
HETATM   18  N   UNL     1      -7.900  10.380  65.400  1.00  0.00    -0.149 NA 
HETATM   19  C   UNL     1      -7.094   9.240  65.847  1.00  0.00    -0.090 C  
HETATM   20  C   UNL     1      -7.571   7.907  65.236  1.00  0.00    -0.090 C  
HETATM   21  N   UNL     1      -7.722   7.959  63.768  1.00  0.00    -0.129 NA 
HETATM   22  H   UNL     1      -8.012   7.064  63.374  1.00  0.00     0.000 HD 
HETATM   23  C   UNL     1      -8.648   9.052  63.426  1.00  0.00    -0.135 C  
HETATM   24  C   UNL     1      -8.199  10.433  63.961  1.00  0.00    -0.117 C  
ENDBRANCH  15  18
ENDBRANCH   2   3
TORSDOF 2
ENDMDL
MODEL      115
REMARK 921   NORMALIZED FREE ENERGY PREDICTED BY IDOCK:   -4.12 KCAL/MOL
REMARK 922        TOTAL FREE ENERGY PREDICTED BY IDOCK:   -5.07 KCAL/MOL
REMARK 923 INTER-LIGAND FREE ENERGY PREDICTED BY IDOCK:   -4.61 KCAL/MOL
REMARK 924 INTRA-LIGAND FREE ENERGY PREDICTED BY IDOCK:   -0.46 KCAL/MOL
REMARK 927      BINDING AFFINITY PREDICTED BY RF-SCORE:    0.00 PKD
ROOT
HETATM    1  C   UNL     1      -7.899   9.451  66.864  1.00  0.00    -0.105 C  
HETATM    2  C   UNL     1      -9.327   8.939  66.747  1.00  0.00    -0.175 C  
ENDROOT
BRANCH   2   3
HETATM    3  N   UNL     1     -10.034   9.057  68.027  1.00  0.00    -0.168 NA 
HETATM    4  C   UNL     1     -10.586  10.246  68.474  1.00  0.00    -0.213 C  
HETATM    5  C   UNL     1     -11.248  10.422  69.626  1.00  0.00    -0.333 C  
HETATM    6  C   UNL     1     -11.772  11.759  69.971  1.00  0.00    -0.305 C  
HETATM    7  C   UNL     1     -11.397   9.232  70.489  1.00  0.00    -0.258 C  
HETATM    8  C   UNL     1     -10.823   7.951  70.030  1.00  0.00    -0.238 A  
HETATM    9  O   UNL     1     -11.988   9.322  71.563  1.00  0.00    -0.317 OA 
HETATM   10  O   UNL     1     -11.637  12.738  69.252  1.00  0.00    -0.282 OA 
HETATM   11  O   UNL     1     -12.417  11.822  71.156  1.00  0.00    -0.358 OA 
HETATM   12  C   UNL     1     -10.934   6.820  70.829  1.00  0.00    -0.306 A  
HETATM   13  C   UNL     1     -10.373   5.641  70.372  1.00  0.00    -0.260 A  
HETATM   14  F   UNL     1     -10.496   4.543  71.136  1.00  0.00    -0.242 F  
HETATM   15  C   UNL     1      -9.733   5.586  69.124  1.00  0.00    -0.155 A  
HETATM   16  C   UNL     1     -10.165   7.875  68.795  1.00  0.00    -0.205 A  
HETATM   17  N   UNL     1      -9.650   6.699  68.347  1.00  0.00    -0.124 NA 
BRANCH  15  18
HETATM   18  N   UNL     1      -9.215   4.392  68.653  1.00  0.00    -0.126 NA 
HETATM   19  C   UNL     1      -9.629   3.870  67.347  1.00  0.00    -0.172 C  
HETATM   20  C   UNL     1      -8.494   3.927  66.304  1.00  0.00    -0.109 C  
HETATM   21  N   UNL     1      -7.230   3.332  66.783  1.00  0.00    -0.062 NA 
HETATM   22  H   UNL     1      -6.496   3.353  66.074  1.00  0.00     0.000 HD 
HETATM   23  C   UNL     1      -6.830   4.010  68.028  1.00  0.00    -0.047 C  
HETATM   24  C   UNL     1      -7.904   3.941  69.141  1.00  0.00    -0.052 C  
ENDBRANCH  15  18
ENDBRANCH   2   3
TORSDOF 2
ENDMDL
MODEL      116
REMARK 921   NORMALIZED FREE ENERGY PREDICTED BY IDOCK:   -4.12 KCAL/MOL
REMARK 922        TOTAL FREE ENERGY PREDICTED BY IDOCK:   -5.07 KCAL/MOL
REMARK 923 INTER-LIGAND FREE ENERGY PREDICTED BY IDOCK:   -5.05 KCAL/MOL
REMARK 924 INTRA-LIGAND FREE ENERGY PREDICTED BY IDOCK:   -0.02 KCAL/MOL
REMARK 927      BINDING AFFINITY PREDICTED BY RF-SCORE:    0.00 PKD
ROOT
HETATM    1  C   UNL     1      -5.801  12.971  69.019  1.00  0.00    -0.079 C  
HETATM    2  C   UNL     1      -6.406  13.126  67.631  1.00  0.00    -0.160 C  
ENDROOT
BRANCH   2   3
HETATM    3  N   UNL     1      -7.729  13.755  67.703  1.00  0.00    -0.165 NA 
HETATM    4  C   UNL     1      -7.942  15.093  67.420  1.00  0.00    -0.190 C  
HETATM    5  C   UNL     1      -9.121  15.729  67.460  1.00  0.00    -0.201 C  
HETATM    6  C   UNL     1      -9.187  17.169  67.140  1.00  0.00    -0.236 C  
HETATM    7  C   UNL     1     -10.295  14.916  67.841  1.00  0.00    -0.237 C  
HETATM    8  C   UNL     1     -10.094  13.484  68.141  1.00  0.00    -0.250 A  
HETATM    9  O   UNL     1     -11.408  15.435  67.903  1.00  0.00    -0.327 OA 
HETATM   10  O   UNL     1      -8.208  17.833  66.832  1.00  0.00    -0.216 OA 
HETATM   11  O   UNL     1     -10.424  17.706  67.216  1.00  0.00    -0.346 OA 
HETATM   12  C   UNL     1     -11.178  12.700  68.518  1.00  0.00    -0.315 A  
HETATM   13  C   UNL     1     -10.950  11.366  68.803  1.00  0.00    -0.223 A  
HETATM   14  F   UNL     1     -12.000  10.603  69.149  1.00  0.00    -0.333 F  
HETATM   15  C   UNL     1      -9.663  10.816  68.688  1.00  0.00    -0.186 A  
HETATM   16  C   UNL     1      -8.816  12.916  68.050  1.00  0.00    -0.195 A  
HETATM   17  N   UNL     1      -8.617  11.594  68.300  1.00  0.00    -0.157 NA 
BRANCH  15  18
HETATM   18  N   UNL     1      -9.450   9.470  68.931  1.00  0.00    -0.152 NA 
HETATM   19  C   UNL     1      -9.829   8.882  70.219  1.00  0.00    -0.183 C  
HETATM   20  C   UNL     1     -11.028   7.919  70.096  1.00  0.00    -0.233 C  
HETATM   21  N   UNL     1     -10.857   6.908  69.035  1.00  0.00    -0.333 NA 
HETATM   22  H   UNL     1     -11.645   6.261  68.981  1.00  0.00     0.000 HD 
HETATM   23  C   UNL     1     -10.609   7.599  67.758  1.00  0.00    -0.196 C  
HETATM   24  C   UNL     1      -9.381   8.541  67.794  1.00  0.00    -0.137 C  
ENDBRANCH  15  18
ENDBRANCH   2   3
TORSDOF 2
ENDMDL
MODEL      117
REMARK 921   NORMALIZED FREE ENERGY PREDICTED BY IDOCK:   -4.10 KCAL/MOL
REMARK 922        TOTAL FREE ENERGY PREDICTED BY IDOCK:   -5.05 KCAL/MOL
REMARK 923 INTER-LIGAND FREE ENERGY PREDICTED BY IDOCK:   -4.95 KCAL/MOL
REMARK 924 INTRA-LIGAND FREE ENERGY PREDICTED BY IDOCK:   -0.10 KCAL/MOL
REMARK 927      BINDING AFFINITY PREDICTED BY RF-SCORE:    0.00 PKD
ROOT
HETATM    1  C   UNL     1     -10.772  17.425  67.836  1.00  0.00    -0.351 C  
HETATM    2  C   UNL     1     -10.198  16.980  66.498  1.00  0.00    -0.320 C  
ENDROOT
BRANCH   2   3
HETATM    3  N   UNL     1     -10.114  15.518  66.423  1.00  0.00    -0.273 NA 
HETATM    4  C   UNL     1     -11.119  14.734  65.880  1.00  0.00    -0.340 C  
HETATM    5  C   UNL     1     -11.105  13.398  65.776  1.00  0.00    -0.295 C  
HETATM    6  C   UNL     1     -12.262  12.699  65.179  1.00  0.00    -0.481 C  
HETATM    7  C   UNL     1      -9.903  12.709  66.288  1.00  0.00    -0.262 C  
HETATM    8  C   UNL     1      -8.815  13.524  66.866  1.00  0.00    -0.194 A  
HETATM    9  O   UNL     1      -9.824  11.483  66.229  1.00  0.00    -0.205 OA 
HETATM   10  O   UNL     1     -13.254  13.280  64.764  1.00  0.00    -0.629 OA 
HETATM   11  O   UNL     1     -12.141  11.355  65.128  1.00  0.00     0.110 OA 
HETATM   12  C   UNL     1      -7.680  12.901  67.371  1.00  0.00    -0.160 A  
HETATM   13  C   UNL     1      -6.687  13.696  67.915  1.00  0.00    -0.153 A  
HETATM   14  F   UNL     1      -5.582  13.096  68.386  1.00  0.00    -0.064 F  
HETATM   15  C   UNL     1      -6.815  15.094  67.931  1.00  0.00    -0.155 A  
HETATM   16  C   UNL     1      -8.926  14.920  66.909  1.00  0.00    -0.253 A  
HETATM   17  N   UNL     1      -7.924  15.688  67.416  1.00  0.00    -0.162 NA 
BRANCH  15  18
HETATM   18  N   UNL     1      -5.797  15.885  68.436  1.00  0.00    -0.102 NA 
HETATM   19  C   UNL     1      -5.633  17.266  67.970  1.00  0.00    -0.117 C  
HETATM   20  C   UNL     1      -5.984  18.300  69.060  1.00  0.00    -0.218 C  
HETATM   21  N   UNL     1      -5.304  18.046  70.346  1.00  0.00    -0.246 NA 
HETATM   22  H   UNL     1      -5.524  18.751  71.049  1.00  0.00     0.000 HD 
HETATM   23  C   UNL     1      -5.633  16.682  70.794  1.00  0.00     0.018 C  
HETATM   24  C   UNL     1      -5.254  15.586  69.769  1.00  0.00    -0.100 C  
ENDBRANCH  15  18
ENDBRANCH   2   3
TORSDOF 2
ENDMDL
MODEL      118
REMARK 921   NORMALIZED FREE ENERGY PREDICTED BY IDOCK:   -4.07 KCAL/MOL
REMARK 922        TOTAL FREE ENERGY PREDICTED BY IDOCK:   -5.01 KCAL/MOL
REMARK 923 INTER-LIGAND FREE ENERGY PREDICTED BY IDOCK:   -4.52 KCAL/MOL
REMARK 924 INTRA-LIGAND FREE ENERGY PREDICTED BY IDOCK:   -0.49 KCAL/MOL
REMARK 927      BINDING AFFINITY PREDICTED BY RF-SCORE:    0.00 PKD
ROOT
HETATM    1  C   UNL     1      -5.605  10.832  65.655  1.00  0.00    -0.135 C  
HETATM    2  C   UNL     1      -6.234  10.297  66.933  1.00  0.00    -0.068 C  
ENDROOT
BRANCH   2   3
HETATM    3  N   UNL     1      -7.663  10.621  66.990  1.00  0.00    -0.113 NA 
HETATM    4  C   UNL     1      -8.141  11.920  66.975  1.00  0.00    -0.167 C  
HETATM    5  C   UNL     1      -9.430  12.286  67.019  1.00  0.00    -0.204 C  
HETATM    6  C   UNL     1      -9.785  13.719  67.006  1.00  0.00    -0.251 C  
HETATM    7  C   UNL     1     -10.422  11.194  67.087  1.00  0.00    -0.231 C  
HETATM    8  C   UNL     1      -9.937   9.798  67.097  1.00  0.00    -0.252 A  
HETATM    9  O   UNL     1     -11.623  11.455  67.135  1.00  0.00    -0.519 OA 
HETATM   10  O   UNL     1      -8.954  14.615  66.955  1.00  0.00    -0.215 OA 
HETATM   11  O   UNL     1     -11.111  13.971  67.057  1.00  0.00    -0.293 OA 
HETATM   12  C   UNL     1     -10.848   8.752  67.178  1.00  0.00    -0.062 A  
HETATM   13  C   UNL     1     -10.356   7.459  67.198  1.00  0.00    -0.307 A  
HETATM   14  F   UNL     1     -11.237   6.447  67.257  1.00  0.00    -0.389 F  
HETATM   15  C   UNL     1      -8.976   7.214  67.111  1.00  0.00    -0.125 A  
HETATM   16  C   UNL     1      -8.564   9.529  67.029  1.00  0.00    -0.128 A  
HETATM   17  N   UNL     1      -8.101   8.250  67.014  1.00  0.00    -0.103 NA 
BRANCH  15  18
HETATM   18  N   UNL     1      -8.494   5.917  67.085  1.00  0.00    -0.108 NA 
HETATM   19  C   UNL     1      -8.438   5.124  68.317  1.00  0.00    -0.095 C  
HETATM   20  C   UNL     1      -9.457   3.966  68.318  1.00  0.00    -0.151 C  
HETATM   21  N   UNL     1      -9.396   3.134  67.100  1.00  0.00    -0.288 NA 
HETATM   22  H   UNL     1     -10.056   2.357  67.125  1.00  0.00     0.000 HD 
HETATM   23  C   UNL     1      -9.591   4.001  65.925  1.00  0.00    -0.193 C  
HETATM   24  C   UNL     1      -8.563   5.154  65.830  1.00  0.00    -0.128 C  
ENDBRANCH  15  18
ENDBRANCH   2   3
TORSDOF 2
ENDMDL
MODEL      119
REMARK 921   NORMALIZED FREE ENERGY PREDICTED BY IDOCK:   -4.07 KCAL/MOL
REMARK 922        TOTAL FREE ENERGY PREDICTED BY IDOCK:   -5.01 KCAL/MOL
REMARK 923 INTER-LIGAND FREE ENERGY PREDICTED BY IDOCK:   -5.08 KCAL/MOL
REMARK 924 INTRA-LIGAND FREE ENERGY PREDICTED BY IDOCK:    0.07 KCAL/MOL
REMARK 927      BINDING AFFINITY PREDICTED BY RF-SCORE:    0.00 PKD
ROOT
HETATM    1  C   UNL     1     -10.356   8.975  68.562  1.00  0.00    -0.233 C  
HETATM    2  C   UNL     1     -10.743  10.439  68.710  1.00  0.00    -0.225 C  
ENDROOT
BRANCH   2   3
HETATM    3  N   UNL     1      -9.642  11.317  68.298  1.00  0.00    -0.186 NA 
HETATM    4  C   UNL     1      -8.550  10.865  67.577  1.00  0.00    -0.127 C  
HETATM    5  C   UNL     1      -7.516  11.612  67.165  1.00  0.00    -0.146 C  
HETATM    6  C   UNL     1      -6.415  10.982  66.409  1.00  0.00    -0.127 C  
HETATM    7  C   UNL     1      -7.557  13.046  67.517  1.00  0.00    -0.165 C  
HETATM    8  C   UNL     1      -8.716  13.553  68.280  1.00  0.00    -0.172 A  
HETATM    9  O   UNL     1      -6.639  13.790  67.176  1.00  0.00    -0.180 OA 
HETATM   10  O   UNL     1      -6.389   9.792  66.129  1.00  0.00    -0.067 OA 
HETATM   11  O   UNL     1      -5.425  11.826  66.048  1.00  0.00    -0.219 OA 
HETATM   12  C   UNL     1      -8.771  14.894  68.640  1.00  0.00    -0.177 A  
HETATM   13  C   UNL     1      -9.865  15.330  69.365  1.00  0.00    -0.252 A  
HETATM   14  F   UNL     1      -9.929  16.630  69.696  1.00  0.00    -0.232 F  
HETATM   15  C   UNL     1     -10.901  14.445  69.704  1.00  0.00    -0.111 A  
HETATM   16  C   UNL     1      -9.753  12.685  68.645  1.00  0.00    -0.042 A  
HETATM   17  N   UNL     1     -10.838  13.139  69.329  1.00  0.00    -0.083 NA 
BRANCH  15  18
HETATM   18  N   UNL     1     -12.015  14.898  70.391  1.00  0.00    -0.292 NA 
HETATM   19  C   UNL     1     -13.159  14.009  70.612  1.00  0.00    -0.116 C  
HETATM   20  C   UNL     1     -13.316  13.611  72.094  1.00  0.00    -0.494 C  
HETATM   21  N   UNL     1     -13.303  14.766  73.014  1.00  0.00    -0.521 NA 
HETATM   22  H   UNL     1     -13.434  14.491  73.987  1.00  0.00     0.000 HD 
HETATM   23  C   UNL     1     -12.057  15.523  72.805  1.00  0.00    -0.444 C  
HETATM   24  C   UNL     1     -11.863  16.004  71.346  1.00  0.00    -0.470 C  
ENDBRANCH  15  18
ENDBRANCH   2   3
TORSDOF 2
ENDMDL
MODEL      120
REMARK 921   NORMALIZED FREE ENERGY PREDICTED BY IDOCK:   -4.05 KCAL/MOL
REMARK 922        TOTAL FREE ENERGY PREDICTED BY IDOCK:   -4.99 KCAL/MOL
REMARK 923 INTER-LIGAND FREE ENERGY PREDICTED BY IDOCK:   -4.52 KCAL/MOL
REMARK 924 INTRA-LIGAND FREE ENERGY PREDICTED BY IDOCK:   -0.47 KCAL/MOL
REMARK 927      BINDING AFFINITY PREDICTED BY RF-SCORE:    0.00 PKD
ROOT
HETATM    1  C   UNL     1      -5.533  10.838  67.617  1.00  0.00    -0.043 C  
HETATM    2  C   UNL     1      -6.549  11.908  67.988  1.00  0.00    -0.063 C  
ENDROOT
BRANCH   2   3
HETATM    3  N   UNL     1      -7.833  11.306  68.363  1.00  0.00    -0.128 NA 
HETATM    4  C   UNL     1      -7.964   9.972  68.711  1.00  0.00    -0.096 C  
HETATM    5  C   UNL     1      -9.102   9.360  69.068  1.00  0.00    -0.142 C  
HETATM    6  C   UNL     1      -9.084   7.921  69.403  1.00  0.00    -0.145 C  
HETATM    7  C   UNL     1     -10.320  10.195  69.090  1.00  0.00    -0.219 C  
HETATM    8  C   UNL     1     -10.204  11.623  68.730  1.00  0.00    -0.190 A  
HETATM    9  O   UNL     1     -11.401   9.698  69.404  1.00  0.00    -0.137 OA 
HETATM   10  O   UNL     1      -8.071   7.239  69.375  1.00  0.00    -0.125 OA 
HETATM   11  O   UNL     1     -10.286   7.409  69.744  1.00  0.00    -0.210 OA 
HETATM   12  C   UNL     1     -11.337  12.427  68.726  1.00  0.00    -0.339 A  
HETATM   13  C   UNL     1     -11.192  13.756  68.371  1.00  0.00    -0.272 A  
HETATM   14  F   UNL     1     -12.283  14.539  68.386  1.00  0.00    -0.344 F  
HETATM   15  C   UNL     1      -9.930  14.280  68.050  1.00  0.00    -0.220 A  
HETATM   16  C   UNL     1      -8.958  12.165  68.389  1.00  0.00    -0.146 A  
HETATM   17  N   UNL     1      -8.829  13.482  68.076  1.00  0.00    -0.174 NA 
BRANCH  15  18
HETATM   18  N   UNL     1      -9.785  15.622  67.740  1.00  0.00    -0.218 NA 
HETATM   19  C   UNL     1      -9.563  16.607  68.803  1.00  0.00    -0.254 C  
HETATM   20  C   UNL     1      -8.139  17.199  68.768  1.00  0.00    -0.252 C  
HETATM   21  N   UNL     1      -7.748  17.699  67.435  1.00  0.00    -0.197 NA 
HETATM   22  H   UNL     1      -6.815  18.111  67.432  1.00  0.00     0.000 HD 
HETATM   23  C   UNL     1      -7.882  16.602  66.461  1.00  0.00    -0.307 C  
HETATM   24  C   UNL     1      -9.306  15.998  66.402  1.00  0.00    -0.298 C  
ENDBRANCH  15  18
ENDBRANCH   2   3
TORSDOF 2
ENDMDL
MODEL      121
REMARK 921   NORMALIZED FREE ENERGY PREDICTED BY IDOCK:   -4.05 KCAL/MOL
REMARK 922        TOTAL FREE ENERGY PREDICTED BY IDOCK:   -4.99 KCAL/MOL
REMARK 923 INTER-LIGAND FREE ENERGY PREDICTED BY IDOCK:   -4.88 KCAL/MOL
REMARK 924 INTRA-LIGAND FREE ENERGY PREDICTED BY IDOCK:   -0.11 KCAL/MOL
REMARK 927      BINDING AFFINITY PREDICTED BY RF-SCORE:    0.00 PKD
ROOT
HETATM    1  C   UNL     1     -10.827   5.562  67.099  1.00  0.00    -0.166 C  
HETATM    2  C   UNL     1     -10.772   7.062  67.348  1.00  0.00    -0.313 C  
ENDROOT
BRANCH   2   3
HETATM    3  N   UNL     1      -9.593   7.657  66.710  1.00  0.00    -0.195 NA 
HETATM    4  C   UNL     1      -8.547   6.901  66.208  1.00  0.00    -0.136 C  
HETATM    5  C   UNL     1      -7.447   7.378  65.611  1.00  0.00    -0.084 C  
HETATM    6  C   UNL     1      -6.409   6.441  65.134  1.00  0.00    -0.034 C  
HETATM    7  C   UNL     1      -7.352   8.846  65.480  1.00  0.00    -0.085 C  
HETATM    8  C   UNL     1      -8.458   9.675  66.002  1.00  0.00    -0.131 A  
HETATM    9  O   UNL     1      -6.367   9.354  64.947  1.00  0.00    -0.072 OA 
HETATM   10  O   UNL     1      -6.496   5.228  65.254  1.00  0.00    -0.037 OA 
HETATM   11  O   UNL     1      -5.343   7.032  64.552  1.00  0.00    -0.027 OA 
HETATM   12  C   UNL     1      -8.387  11.059  65.907  1.00  0.00    -0.119 A  
HETATM   13  C   UNL     1      -9.436  11.802  66.418  1.00  0.00    -0.221 A  
HETATM   14  F   UNL     1      -9.377  13.140  66.310  1.00  0.00    -0.248 F  
HETATM   15  C   UNL     1     -10.552  11.171  66.991  1.00  0.00    -0.252 A  
HETATM   16  C   UNL     1      -9.574   9.068  66.594  1.00  0.00    -0.213 A  
HETATM   17  N   UNL     1     -10.612   9.814  67.059  1.00  0.00    -0.225 NA 
BRANCH  15  18
HETATM   18  N   UNL     1     -11.618  11.919  67.459  1.00  0.00    -0.474 NA 
HETATM   19  C   UNL     1     -11.753  12.199  68.892  1.00  0.00    -0.327 C  
HETATM   20  C   UNL     1     -11.512  13.686  69.225  1.00  0.00    -0.291 C  
HETATM   21  N   UNL     1     -12.302  14.608  68.386  1.00  0.00    -0.606 NA 
HETATM   22  H   UNL     1     -12.153  15.586  68.635  1.00  0.00     0.000 HD 
HETATM   23  C   UNL     1     -12.001  14.335  66.970  1.00  0.00    -0.433 C  
HETATM   24  C   UNL     1     -12.276  12.870  66.551  1.00  0.00    -0.188 C  
ENDBRANCH  15  18
ENDBRANCH   2   3
TORSDOF 2
ENDMDL
MODEL      122
REMARK 921   NORMALIZED FREE ENERGY PREDICTED BY IDOCK:   -4.05 KCAL/MOL
REMARK 922        TOTAL FREE ENERGY PREDICTED BY IDOCK:   -4.98 KCAL/MOL
REMARK 923 INTER-LIGAND FREE ENERGY PREDICTED BY IDOCK:   -4.52 KCAL/MOL
REMARK 924 INTRA-LIGAND FREE ENERGY PREDICTED BY IDOCK:   -0.47 KCAL/MOL
REMARK 927      BINDING AFFINITY PREDICTED BY RF-SCORE:    0.00 PKD
ROOT
HETATM    1  C   UNL     1      -6.284  13.683  69.725  1.00  0.00    -0.120 C  
HETATM    2  C   UNL     1      -6.190  13.650  68.207  1.00  0.00    -0.107 C  
ENDROOT
BRANCH   2   3
HETATM    3  N   UNL     1      -7.463  14.043  67.593  1.00  0.00    -0.161 NA 
HETATM    4  C   UNL     1      -7.907  15.354  67.556  1.00  0.00    -0.170 C  
HETATM    5  C   UNL     1      -9.054  15.781  67.008  1.00  0.00    -0.240 C  
HETATM    6  C   UNL     1      -9.396  17.217  67.056  1.00  0.00    -0.251 C  
HETATM    7  C   UNL     1      -9.913  14.751  66.391  1.00  0.00    -0.277 C  
HETATM    8  C   UNL     1      -9.458  13.346  66.412  1.00  0.00    -0.230 A  
HETATM    9  O   UNL     1     -10.983  15.070  65.874  1.00  0.00    -0.331 OA 
HETATM   10  O   UNL     1      -8.679  18.060  67.576  1.00  0.00    -0.244 OA 
HETATM   11  O   UNL     1     -10.575  17.534  66.478  1.00  0.00    -0.291 OA 
HETATM   12  C   UNL     1     -10.255  12.354  65.853  1.00  0.00    -0.273 A  
HETATM   13  C   UNL     1      -9.801  11.048  65.903  1.00  0.00    -0.232 A  
HETATM   14  F   UNL     1     -10.562  10.091  65.346  1.00  0.00    -0.293 F  
HETATM   15  C   UNL     1      -8.558  10.741  66.479  1.00  0.00    -0.150 A  
HETATM   16  C   UNL     1      -8.229  13.012  66.997  1.00  0.00    -0.062 A  
HETATM   17  N   UNL     1      -7.783  11.727  67.005  1.00  0.00    -0.161 NA 
BRANCH  15  18
HETATM   18  N   UNL     1      -8.090   9.438  66.485  1.00  0.00    -0.111 NA 
HETATM   19  C   UNL     1      -8.695   8.438  67.370  1.00  0.00    -0.135 C  
HETATM   20  C   UNL     1      -9.494   7.372  66.593  1.00  0.00    -0.187 C  
HETATM   21  N   UNL     1      -8.732   6.766  65.483  1.00  0.00    -0.323 NA 
HETATM   22  H   UNL     1      -9.263   6.044  64.995  1.00  0.00     0.000 HD 
HETATM   23  C   UNL     1      -8.277   7.837  64.581  1.00  0.00    -0.076 C  
HETATM   24  C   UNL     1      -7.418   8.915  65.286  1.00  0.00    -0.089 C  
ENDBRANCH  15  18
ENDBRANCH   2   3
TORSDOF 2
ENDMDL
MODEL      123
REMARK 921   NORMALIZED FREE ENERGY PREDICTED BY IDOCK:   -4.04 KCAL/MOL
REMARK 922        TOTAL FREE ENERGY PREDICTED BY IDOCK:   -4.97 KCAL/MOL
REMARK 923 INTER-LIGAND FREE ENERGY PREDICTED BY IDOCK:   -4.63 KCAL/MOL
REMARK 924 INTRA-LIGAND FREE ENERGY PREDICTED BY IDOCK:   -0.34 KCAL/MOL
REMARK 927      BINDING AFFINITY PREDICTED BY RF-SCORE:    0.00 PKD
ROOT
HETATM    1  C   UNL     1     -10.498   9.154  67.497  1.00  0.00    -0.335 C  
HETATM    2  C   UNL     1     -10.468   7.647  67.290  1.00  0.00    -0.326 C  
ENDROOT
BRANCH   2   3
HETATM    3  N   UNL     1     -10.447   6.941  68.575  1.00  0.00    -0.193 NA 
HETATM    4  C   UNL     1     -10.793   7.547  69.771  1.00  0.00    -0.225 C  
HETATM    5  C   UNL     1     -10.802   6.960  70.977  1.00  0.00    -0.272 C  
HETATM    6  C   UNL     1     -11.185   7.744  72.169  1.00  0.00    -0.297 C  
HETATM    7  C   UNL     1     -10.407   5.538  71.021  1.00  0.00    -0.239 C  
HETATM    8  C   UNL     1     -10.041   4.867  69.756  1.00  0.00    -0.319 A  
HETATM    9  O   UNL     1     -10.387   4.937  72.094  1.00  0.00    -0.194 OA 
HETATM   10  O   UNL     1     -11.504   8.923  72.120  1.00  0.00    -0.362 OA 
HETATM   11  O   UNL     1     -11.155   7.055  73.329  1.00  0.00    -0.276 OA 
HETATM   12  C   UNL     1      -9.649   3.534  69.771  1.00  0.00    -0.206 A  
HETATM   13  C   UNL     1      -9.302   2.944  68.569  1.00  0.00    -0.187 A  
HETATM   14  F   UNL     1      -8.942   1.650  68.579  1.00  0.00    -0.098 F  
HETATM   15  C   UNL     1      -9.370   3.666  67.367  1.00  0.00    -0.203 A  
HETATM   16  C   UNL     1     -10.084   5.572  68.546  1.00  0.00    -0.180 A  
HETATM   17  N   UNL     1      -9.772   4.965  67.370  1.00  0.00    -0.155 NA 
BRANCH  15  18
HETATM   18  N   UNL     1      -9.065   3.055  66.163  1.00  0.00    -0.149 NA 
HETATM   19  C   UNL     1      -9.840   3.367  64.958  1.00  0.00    -0.071 C  
HETATM   20  C   UNL     1      -9.021   4.164  63.922  1.00  0.00    -0.137 C  
HETATM   21  N   UNL     1      -7.712   3.552  63.617  1.00  0.00    -0.074 NA 
HETATM   22  H   UNL     1      -7.192   4.074  62.911  1.00  0.00     0.000 HD 
HETATM   23  C   UNL     1      -6.958   3.398  64.873  1.00  0.00    -0.056 C  
HETATM   24  C   UNL     1      -7.699   2.557  65.940  1.00  0.00    -0.080 C  
ENDBRANCH  15  18
ENDBRANCH   2   3
TORSDOF 2
ENDMDL
MODEL      124
REMARK 921   NORMALIZED FREE ENERGY PREDICTED BY IDOCK:   -4.02 KCAL/MOL
REMARK 922        TOTAL FREE ENERGY PREDICTED BY IDOCK:   -4.95 KCAL/MOL
REMARK 923 INTER-LIGAND FREE ENERGY PREDICTED BY IDOCK:   -4.49 KCAL/MOL
REMARK 924 INTRA-LIGAND FREE ENERGY PREDICTED BY IDOCK:   -0.46 KCAL/MOL
REMARK 927      BINDING AFFINITY PREDICTED BY RF-SCORE:    0.00 PKD
ROOT
HETATM    1  C   UNL     1     -11.723   8.297  72.341  1.00  0.00    -0.463 C  
HETATM    2  C   UNL     1     -11.282   9.178  71.181  1.00  0.00    -0.325 C  
ENDROOT
BRANCH   2   3
HETATM    3  N   UNL     1     -10.085   8.631  70.532  1.00  0.00    -0.190 NA 
HETATM    4  C   UNL     1      -9.451   7.481  70.971  1.00  0.00    -0.160 C  
HETATM    5  C   UNL     1      -8.361   6.926  70.424  1.00  0.00    -0.130 C  
HETATM    6  C   UNL     1      -7.791   5.698  71.015  1.00  0.00    -0.105 C  
HETATM    7  C   UNL     1      -7.794   7.611  69.244  1.00  0.00    -0.121 C  
HETATM    8  C   UNL     1      -8.457   8.835  68.752  1.00  0.00    -0.129 A  
HETATM    9  O   UNL     1      -6.791   7.160  68.694  1.00  0.00    -0.070 OA 
HETATM   10  O   UNL     1      -8.265   5.144  71.995  1.00  0.00    -0.113 OA 
HETATM   11  O   UNL     1      -6.692   5.228  70.385  1.00  0.00    -0.040 OA 
HETATM   12  C   UNL     1      -7.935   9.509  67.655  1.00  0.00    -0.106 A  
HETATM   13  C   UNL     1      -8.576  10.659  67.231  1.00  0.00    -0.126 A  
HETATM   14  F   UNL     1      -8.083  11.300  66.158  1.00  0.00    -0.164 F  
HETATM   15  C   UNL     1      -9.736  11.115  67.877  1.00  0.00    -0.174 A  
HETATM   16  C   UNL     1      -9.606   9.320  69.391  1.00  0.00    -0.168 A  
HETATM   17  N   UNL     1     -10.243  10.434  68.938  1.00  0.00    -0.193 NA 
BRANCH  15  18
HETATM   18  N   UNL     1     -10.398  12.242  67.419  1.00  0.00    -0.206 NA 
HETATM   19  C   UNL     1      -9.884  13.579  67.729  1.00  0.00    -0.233 C  
HETATM   20  C   UNL     1      -9.326  14.298  66.483  1.00  0.00    -0.271 C  
HETATM   21  N   UNL     1     -10.261  14.296  65.341  1.00  0.00    -0.356 NA 
HETATM   22  H   UNL     1      -9.891  14.797  64.533  1.00  0.00     0.000 HD 
HETATM   23  C   UNL     1     -10.618  12.902  65.024  1.00  0.00    -0.315 C  
HETATM   24  C   UNL     1     -11.239  12.137  66.217  1.00  0.00    -0.334 C  
ENDBRANCH  15  18
ENDBRANCH   2   3
TORSDOF 2
ENDMDL
MODEL      125
REMARK 921   NORMALIZED FREE ENERGY PREDICTED BY IDOCK:   -3.99 KCAL/MOL
REMARK 922        TOTAL FREE ENERGY PREDICTED BY IDOCK:   -4.92 KCAL/MOL
REMARK 923 INTER-LIGAND FREE ENERGY PREDICTED BY IDOCK:   -4.53 KCAL/MOL
REMARK 924 INTRA-LIGAND FREE ENERGY PREDICTED BY IDOCK:   -0.39 KCAL/MOL
REMARK 927      BINDING AFFINITY PREDICTED BY RF-SCORE:    0.00 PKD
ROOT
HETATM    1  C   UNL     1     -10.974   6.066  71.860  1.00  0.00    -0.316 C  
HETATM    2  C   UNL     1     -10.050   6.370  70.689  1.00  0.00    -0.187 C  
ENDROOT
BRANCH   2   3
HETATM    3  N   UNL     1     -10.440   7.617  70.023  1.00  0.00    -0.224 NA 
HETATM    4  C   UNL     1     -11.193   8.599  70.646  1.00  0.00    -0.252 C  
HETATM    5  C   UNL     1     -11.578   9.760  70.099  1.00  0.00    -0.239 C  
HETATM    6  C   UNL     1     -12.391  10.706  70.891  1.00  0.00    -0.401 C  
HETATM    7  C   UNL     1     -11.155  10.006  68.706  1.00  0.00    -0.173 C  
HETATM    8  C   UNL     1     -10.345   8.977  68.022  1.00  0.00    -0.275 A  
HETATM    9  O   UNL     1     -11.477  11.049  68.139  1.00  0.00    -0.310 OA 
HETATM   10  O   UNL     1     -12.741  10.489  72.041  1.00  0.00    -0.384 OA 
HETATM   11  O   UNL     1     -12.726  11.841  70.240  1.00  0.00    -0.083 OA 
HETATM   12  C   UNL     1      -9.947   9.174  66.706  1.00  0.00    -0.322 A  
HETATM   13  C   UNL     1      -9.201   8.183  66.094  1.00  0.00    -0.173 A  
HETATM   14  F   UNL     1      -8.800   8.381  64.828  1.00  0.00    -0.167 F  
HETATM   15  C   UNL     1      -8.835   7.023  66.796  1.00  0.00    -0.126 A  
HETATM   16  C   UNL     1      -9.982   7.803  68.696  1.00  0.00    -0.182 A  
HETATM   17  N   UNL     1      -9.218   6.855  68.090  1.00  0.00    -0.127 NA 
BRANCH  15  18
HETATM   18  N   UNL     1      -8.049   6.056  66.193  1.00  0.00    -0.107 NA 
HETATM   19  C   UNL     1      -6.937   5.443  66.926  1.00  0.00    -0.065 C  
HETATM   20  C   UNL     1      -7.206   3.963  67.270  1.00  0.00    -0.067 C  
HETATM   21  N   UNL     1      -7.635   3.162  66.107  1.00  0.00    -0.076 NA 
HETATM   22  H   UNL     1      -7.783   2.180  66.343  1.00  0.00     0.000 HD 
HETATM   23  C   UNL     1      -8.832   3.786  65.518  1.00  0.00    -0.122 C  
HETATM   24  C   UNL     1      -8.615   5.259  65.094  1.00  0.00    -0.151 C  
ENDBRANCH  15  18
ENDBRANCH   2   3
TORSDOF 2
ENDMDL
MODEL      126
REMARK 921   NORMALIZED FREE ENERGY PREDICTED BY IDOCK:   -3.96 KCAL/MOL
REMARK 922        TOTAL FREE ENERGY PREDICTED BY IDOCK:   -4.89 KCAL/MOL
REMARK 923 INTER-LIGAND FREE ENERGY PREDICTED BY IDOCK:   -5.03 KCAL/MOL
REMARK 924 INTRA-LIGAND FREE ENERGY PREDICTED BY IDOCK:    0.15 KCAL/MOL
REMARK 927      BINDING AFFINITY PREDICTED BY RF-SCORE:    0.00 PKD
ROOT
HETATM    1  C   UNL     1     -12.212  11.065  69.648  1.00  0.00    -0.370 C  
HETATM    2  C   UNL     1     -10.734  11.277  69.353  1.00  0.00    -0.141 C  
ENDROOT
BRANCH   2   3
HETATM    3  N   UNL     1     -10.539  11.785  67.991  1.00  0.00    -0.199 NA 
HETATM    4  C   UNL     1     -10.774  13.104  67.640  1.00  0.00    -0.238 C  
HETATM    5  C   UNL     1     -10.611  13.635  66.420  1.00  0.00    -0.284 C  
HETATM    6  C   UNL     1     -10.914  15.063  66.197  1.00  0.00    -0.334 C  
HETATM    7  C   UNL     1     -10.135  12.720  65.362  1.00  0.00    -0.259 C  
HETATM    8  C   UNL     1      -9.870  11.310  65.713  1.00  0.00    -0.273 A  
HETATM    9  O   UNL     1      -9.968  13.138  64.217  1.00  0.00    -0.256 OA 
HETATM   10  O   UNL     1     -11.314  15.809  67.080  1.00  0.00    -0.160 OA 
HETATM   11  O   UNL     1     -10.718  15.489  64.930  1.00  0.00    -0.428 OA 
HETATM   12  C   UNL     1      -9.439  10.424  64.734  1.00  0.00    -0.329 A  
HETATM   13  C   UNL     1      -9.213   9.109  65.098  1.00  0.00    -0.153 A  
HETATM   14  F   UNL     1      -8.777   8.257  64.156  1.00  0.00    -0.089 F  
HETATM   15  C   UNL     1      -9.391   8.691  66.426  1.00  0.00    -0.211 A  
HETATM   16  C   UNL     1     -10.058  10.865  67.029  1.00  0.00    -0.205 A  
HETATM   17  N   UNL     1      -9.797   9.575  67.375  1.00  0.00    -0.161 NA 
BRANCH  15  18
HETATM   18  N   UNL     1      -9.120   7.384  66.793  1.00  0.00    -0.145 NA 
HETATM   19  C   UNL     1     -10.203   6.497  67.229  1.00  0.00    -0.188 C  
HETATM   20  C   UNL     1     -10.493   5.377  66.209  1.00  0.00    -0.221 C  
HETATM   21  N   UNL     1      -9.284   4.640  65.792  1.00  0.00    -0.140 NA 
HETATM   22  H   UNL     1      -9.494   3.885  65.138  1.00  0.00     0.000 HD 
HETATM   23  C   UNL     1      -8.307   5.600  65.251  1.00  0.00    -0.146 C  
HETATM   24  C   UNL     1      -7.926   6.722  66.246  1.00  0.00    -0.108 C  
ENDBRANCH  15  18
ENDBRANCH   2   3
TORSDOF 2
ENDMDL
MODEL      127
REMARK 921   NORMALIZED FREE ENERGY PREDICTED BY IDOCK:   -3.89 KCAL/MOL
REMARK 922        TOTAL FREE ENERGY PREDICTED BY IDOCK:   -4.81 KCAL/MOL
REMARK 923 INTER-LIGAND FREE ENERGY PREDICTED BY IDOCK:   -5.14 KCAL/MOL
REMARK 924 INTRA-LIGAND FREE ENERGY PREDICTED BY IDOCK:    0.32 KCAL/MOL
REMARK 927      BINDING AFFINITY PREDICTED BY RF-SCORE:    0.00 PKD
ROOT
HETATM    1  C   UNL     1     -10.004   8.405  66.541  1.00  0.00    -0.335 C  
HETATM    2  C   UNL     1      -8.895   8.415  67.583  1.00  0.00    -0.136 C  
ENDROOT
BRANCH   2   3
HETATM    3  N   UNL     1      -9.373   7.878  68.862  1.00  0.00    -0.150 NA 
HETATM    4  C   UNL     1      -8.907   6.690  69.400  1.00  0.00    -0.134 C  
HETATM    5  C   UNL     1      -9.294   6.147  70.562  1.00  0.00    -0.173 C  
HETATM    6  C   UNL     1      -8.711   4.862  70.999  1.00  0.00    -0.125 C  
HETATM    7  C   UNL     1     -10.310   6.893  71.332  1.00  0.00    -0.201 C  
HETATM    8  C   UNL     1     -10.817   8.167  70.783  1.00  0.00    -0.247 A  
HETATM    9  O   UNL     1     -10.717   6.451  72.405  1.00  0.00    -0.211 OA 
HETATM   10  O   UNL     1      -7.876   4.250  70.350  1.00  0.00    -0.051 OA 
HETATM   11  O   UNL     1      -9.177   4.406  72.182  1.00  0.00    -0.122 OA 
HETATM   12  C   UNL     1     -11.786   8.881  71.478  1.00  0.00    -0.394 A  
HETATM   13  C   UNL     1     -12.246  10.064  70.926  1.00  0.00    -0.346 A  
HETATM   14  F   UNL     1     -13.168  10.764  71.607  1.00  0.00    -0.465 F  
HETATM   15  C   UNL     1     -11.727  10.539  69.711  1.00  0.00    -0.281 A  
HETATM   16  C   UNL     1     -10.328   8.653  69.563  1.00  0.00    -0.214 A  
HETATM   17  N   UNL     1     -10.767   9.836  69.053  1.00  0.00    -0.217 NA 
BRANCH  15  18
HETATM   18  N   UNL     1     -12.159  11.746  69.188  1.00  0.00    -0.274 NA 
HETATM   19  C   UNL     1     -12.358  12.903  70.065  1.00  0.00    -0.129 C  
HETATM   20  C   UNL     1     -11.312  14.011  69.823  1.00  0.00    -0.179 C  
HETATM   21  N   UNL     1     -11.179  14.387  68.402  1.00  0.00    -0.261 NA 
HETATM   22  H   UNL     1     -10.504  15.138  68.258  1.00  0.00     0.000 HD 
HETATM   23  C   UNL     1     -10.853  13.181  67.621  1.00  0.00    -0.254 C  
HETATM   24  C   UNL     1     -11.895  12.046  67.773  1.00  0.00    -0.238 C  
ENDBRANCH  15  18
ENDBRANCH   2   3
TORSDOF 2
ENDMDL
MODEL      128
REMARK 921   NORMALIZED FREE ENERGY PREDICTED BY IDOCK:   -3.89 KCAL/MOL
REMARK 922        TOTAL FREE ENERGY PREDICTED BY IDOCK:   -4.81 KCAL/MOL
REMARK 923 INTER-LIGAND FREE ENERGY PREDICTED BY IDOCK:   -5.15 KCAL/MOL
REMARK 924 INTRA-LIGAND FREE ENERGY PREDICTED BY IDOCK:    0.34 KCAL/MOL
REMARK 927      BINDING AFFINITY PREDICTED BY RF-SCORE:    0.00 PKD
ROOT
HETATM    1  C   UNL     1      -9.109  10.584  69.125  1.00  0.00    -0.177 C  
HETATM    2  C   UNL     1      -9.814  11.858  68.684  1.00  0.00    -0.131 C  
ENDROOT
BRANCH   2   3
HETATM    3  N   UNL     1      -9.839  11.965  67.221  1.00  0.00    -0.186 NA 
HETATM    4  C   UNL     1      -9.613  10.885  66.384  1.00  0.00    -0.197 C  
HETATM    5  C   UNL     1      -9.627  10.911  65.044  1.00  0.00    -0.299 C  
HETATM    6  C   UNL     1      -9.355   9.673  64.286  1.00  0.00    -0.114 C  
HETATM    7  C   UNL     1      -9.912  12.216  64.414  1.00  0.00    -0.214 C  
HETATM    8  C   UNL     1     -10.165  13.382  65.285  1.00  0.00    -0.312 A  
HETATM    9  O   UNL     1      -9.936  12.315  63.188  1.00  0.00    -0.389 OA 
HETATM   10  O   UNL     1      -9.113   8.601  64.819  1.00  0.00    -0.001 OA 
HETATM   11  O   UNL     1      -9.390   9.817  62.944  1.00  0.00    -0.273 OA 
HETATM   12  C   UNL     1     -10.419  14.625  64.719  1.00  0.00    -0.343 A  
HETATM   13  C   UNL     1     -10.638  15.696  65.567  1.00  0.00    -0.404 A  
HETATM   14  F   UNL     1     -10.903  16.893  65.020  1.00  0.00    -0.386 F  
HETATM   15  C   UNL     1     -10.629  15.522  66.960  1.00  0.00    -0.311 A  
HETATM   16  C   UNL     1     -10.143  13.238  66.679  1.00  0.00    -0.266 A  
HETATM   17  N   UNL     1     -10.396  14.295  67.497  1.00  0.00    -0.247 NA 
BRANCH  15  18
HETATM   18  N   UNL     1     -10.894  16.589  67.802  1.00  0.00    -0.332 NA 
HETATM   19  C   UNL     1     -10.404  16.580  69.184  1.00  0.00    -0.316 C  
HETATM   20  C   UNL     1      -9.289  17.620  69.419  1.00  0.00     0.320 C  
HETATM   21  N   UNL     1      -9.644  18.973  68.947  1.00  0.00    -0.379 NA 
HETATM   22  H   UNL     1      -8.909  19.656  69.132  1.00  0.00     0.000 HD 
HETATM   23  C   UNL     1      -9.997  18.899  67.519  1.00  0.00    -0.345 C  
HETATM   24  C   UNL     1     -11.152  17.913  67.217  1.00  0.00     0.157 C  
ENDBRANCH  15  18
ENDBRANCH   2   3
TORSDOF 2
ENDMDL
MODEL      129
REMARK 921   NORMALIZED FREE ENERGY PREDICTED BY IDOCK:   -3.81 KCAL/MOL
REMARK 922        TOTAL FREE ENERGY PREDICTED BY IDOCK:   -4.72 KCAL/MOL
REMARK 923 INTER-LIGAND FREE ENERGY PREDICTED BY IDOCK:   -4.71 KCAL/MOL
REMARK 924 INTRA-LIGAND FREE ENERGY PREDICTED BY IDOCK:   -0.01 KCAL/MOL
REMARK 927      BINDING AFFINITY PREDICTED BY RF-SCORE:    0.00 PKD
ROOT
HETATM    1  C   UNL     1      -9.799  10.470  64.380  1.00  0.00    -0.405 C  
HETATM    2  C   UNL     1      -9.405   9.531  65.510  1.00  0.00    -0.255 C  
ENDROOT
BRANCH   2   3
HETATM    3  N   UNL     1      -9.962   9.986  66.789  1.00  0.00    -0.200 NA 
HETATM    4  C   UNL     1     -10.507  11.246  66.965  1.00  0.00    -0.234 C  
HETATM    5  C   UNL     1     -11.037  11.723  68.101  1.00  0.00    -0.297 C  
HETATM    6  C   UNL     1     -11.572  13.099  68.137  1.00  0.00    -0.339 C  
HETATM    7  C   UNL     1     -11.035  10.810  69.262  1.00  0.00    -0.241 C  
HETATM    8  C   UNL     1     -10.465   9.457  69.097  1.00  0.00    -0.230 A  
HETATM    9  O   UNL     1     -11.500  11.183  70.338  1.00  0.00    -0.290 OA 
HETATM   10  O   UNL     1     -11.562  13.847  67.170  1.00  0.00    -0.325 OA 
HETATM   11  O   UNL     1     -12.077  13.475  69.332  1.00  0.00    -0.316 OA 
HETATM   12  C   UNL     1     -10.435   8.585  70.178  1.00  0.00    -0.226 A  
HETATM   13  C   UNL     1      -9.883   7.331  69.988  1.00  0.00    -0.175 A  
HETATM   14  F   UNL     1      -9.871   6.480  71.027  1.00  0.00    -0.179 F  
HETATM   15  C   UNL     1      -9.392   6.945  68.731  1.00  0.00    -0.129 A  
HETATM   16  C   UNL     1      -9.953   9.055  67.856  1.00  0.00    -0.178 A  
HETATM   17  N   UNL     1      -9.446   7.805  67.680  1.00  0.00    -0.142 NA 
BRANCH  15  18
HETATM   18  N   UNL     1      -8.882   5.672  68.537  1.00  0.00    -0.109 NA 
HETATM   19  C   UNL     1      -7.435   5.463  68.432  1.00  0.00    -0.073 C  
HETATM   20  C   UNL     1      -6.860   4.713  69.651  1.00  0.00    -0.048 C  
HETATM   21  N   UNL     1      -7.594   3.473  69.973  1.00  0.00    -0.044 NA 
HETATM   22  H   UNL     1      -7.188   2.974  70.764  1.00  0.00     0.000 HD 
HETATM   23  C   UNL     1      -9.013   3.807  70.187  1.00  0.00    -0.109 C  
HETATM   24  C   UNL     1      -9.671   4.512  68.976  1.00  0.00    -0.165 C  
ENDBRANCH  15  18
ENDBRANCH   2   3
TORSDOF 2
ENDMDL
MODEL      130
REMARK 921   NORMALIZED FREE ENERGY PREDICTED BY IDOCK:   -3.80 KCAL/MOL
REMARK 922        TOTAL FREE ENERGY PREDICTED BY IDOCK:   -4.71 KCAL/MOL
REMARK 923 INTER-LIGAND FREE ENERGY PREDICTED BY IDOCK:   -4.97 KCAL/MOL
REMARK 924 INTRA-LIGAND FREE ENERGY PREDICTED BY IDOCK:    0.27 KCAL/MOL
REMARK 927      BINDING AFFINITY PREDICTED BY RF-SCORE:    0.00 PKD
ROOT
HETATM    1  C   UNL     1      -9.793   4.242  71.877  1.00  0.00    -0.248 C  
HETATM    2  C   UNL     1      -8.839   5.111  71.070  1.00  0.00    -0.133 C  
ENDROOT
BRANCH   2   3
HETATM    3  N   UNL     1      -9.162   5.056  69.640  1.00  0.00    -0.112 NA 
HETATM    4  C   UNL     1      -9.050   3.899  68.887  1.00  0.00    -0.138 C  
HETATM    5  C   UNL     1      -9.333   3.779  67.582  1.00  0.00    -0.240 C  
HETATM    6  C   UNL     1      -9.152   2.475  66.913  1.00  0.00    -0.124 C  
HETATM    7  C   UNL     1      -9.809   4.997  66.896  1.00  0.00    -0.188 C  
HETATM    8  C   UNL     1      -9.944   6.242  67.679  1.00  0.00    -0.151 A  
HETATM    9  O   UNL     1     -10.082   4.961  65.697  1.00  0.00    -0.177 OA 
HETATM   10  O   UNL     1      -8.751   1.475  67.490  1.00  0.00    -0.088 OA 
HETATM   11  O   UNL     1      -9.463   2.469  65.599  1.00  0.00    -0.053 OA 
HETATM   12  C   UNL     1     -10.373   7.407  67.055  1.00  0.00    -0.384 A  
HETATM   13  C   UNL     1     -10.475   8.556  67.818  1.00  0.00    -0.223 A  
HETATM   14  F   UNL     1     -10.908   9.678  67.219  1.00  0.00    -0.322 F  
HETATM   15  C   UNL     1     -10.178   8.536  69.190  1.00  0.00    -0.211 A  
HETATM   16  C   UNL     1      -9.637   6.251  69.046  1.00  0.00    -0.127 A  
HETATM   17  N   UNL     1      -9.777   7.383  69.788  1.00  0.00    -0.170 NA 
BRANCH  15  18
HETATM   18  N   UNL     1     -10.327   9.679  69.957  1.00  0.00    -0.238 NA 
HETATM   19  C   UNL     1     -10.318  11.001  69.323  1.00  0.00    -0.154 C  
HETATM   20  C   UNL     1     -11.702  11.680  69.361  1.00  0.00    -0.340 C  
HETATM   21  N   UNL     1     -12.308  11.696  70.707  1.00  0.00    -0.385 NA 
HETATM   22  H   UNL     1     -13.210  12.172  70.724  1.00  0.00     0.000 HD 
HETATM   23  C   UNL     1     -12.391  10.312  71.205  1.00  0.00    -0.395 C  
HETATM   24  C   UNL     1     -11.024   9.588  71.248  1.00  0.00    -0.370 C  
ENDBRANCH  15  18
ENDBRANCH   2   3
TORSDOF 2
ENDMDL
MODEL      131
REMARK 921   NORMALIZED FREE ENERGY PREDICTED BY IDOCK:   -3.78 KCAL/MOL
REMARK 922        TOTAL FREE ENERGY PREDICTED BY IDOCK:   -4.69 KCAL/MOL
REMARK 923 INTER-LIGAND FREE ENERGY PREDICTED BY IDOCK:   -4.49 KCAL/MOL
REMARK 924 INTRA-LIGAND FREE ENERGY PREDICTED BY IDOCK:   -0.20 KCAL/MOL
REMARK 927      BINDING AFFINITY PREDICTED BY RF-SCORE:    0.00 PKD
ROOT
HETATM    1  C   UNL     1     -10.126   6.245  70.922  1.00  0.00    -0.227 C  
HETATM    2  C   UNL     1      -9.619   7.608  70.476  1.00  0.00    -0.167 C  
ENDROOT
BRANCH   2   3
HETATM    3  N   UNL     1      -9.219   7.584  69.065  1.00  0.00    -0.147 NA 
HETATM    4  C   UNL     1      -8.410   6.595  68.530  1.00  0.00    -0.122 C  
HETATM    5  C   UNL     1      -8.013   6.509  67.252  1.00  0.00    -0.113 C  
HETATM    6  C   UNL     1      -7.137   5.396  66.833  1.00  0.00    -0.066 C  
HETATM    7  C   UNL     1      -8.488   7.570  66.342  1.00  0.00    -0.131 C  
HETATM    8  C   UNL     1      -9.358   8.632  66.887  1.00  0.00    -0.216 A  
HETATM    9  O   UNL     1      -8.158   7.557  65.157  1.00  0.00    -0.122 OA 
HETATM   10  O   UNL     1      -6.745   4.527  67.598  1.00  0.00    -0.046 OA 
HETATM   11  O   UNL     1      -6.796   5.411  65.526  1.00  0.00    -0.057 OA 
HETATM   12  C   UNL     1      -9.806   9.652  66.056  1.00  0.00    -0.345 A  
HETATM   13  C   UNL     1     -10.608  10.635  66.606  1.00  0.00    -0.214 A  
HETATM   14  F   UNL     1     -11.057  11.611  65.799  1.00  0.00    -0.333 F  
HETATM   15  C   UNL     1     -10.980  10.587  67.959  1.00  0.00    -0.290 A  
HETATM   16  C   UNL     1      -9.728   8.615  68.238  1.00  0.00    -0.155 A  
HETATM   17  N   UNL     1     -10.547   9.572  68.753  1.00  0.00    -0.219 NA 
BRANCH  15  18
HETATM   18  N   UNL     1     -11.820  11.550  68.490  1.00  0.00    -0.473 NA 
HETATM   19  C   UNL     1     -12.649  11.243  69.661  1.00  0.00     0.022 C  
HETATM   20  C   UNL     1     -12.186  12.001  70.922  1.00  0.00    -0.225 C  
HETATM   21  N   UNL     1     -12.019  13.451  70.704  1.00  0.00    -0.526 NA 
HETATM   22  H   UNL     1     -11.739  13.944  71.553  1.00  0.00     0.000 HD 
HETATM   23  C   UNL     1     -11.072  13.657  69.595  1.00  0.00    -0.008 C  
HETATM   24  C   UNL     1     -11.505  12.970  68.277  1.00  0.00    -0.312 C  
ENDBRANCH  15  18
ENDBRANCH   2   3
TORSDOF 2
ENDMDL
MODEL      132
REMARK 921   NORMALIZED FREE ENERGY PREDICTED BY IDOCK:   -3.77 KCAL/MOL
REMARK 922        TOTAL FREE ENERGY PREDICTED BY IDOCK:   -4.68 KCAL/MOL
REMARK 923 INTER-LIGAND FREE ENERGY PREDICTED BY IDOCK:   -4.28 KCAL/MOL
REMARK 924 INTRA-LIGAND FREE ENERGY PREDICTED BY IDOCK:   -0.40 KCAL/MOL
REMARK 927      BINDING AFFINITY PREDICTED BY RF-SCORE:    0.00 PKD
ROOT
HETATM    1  C   UNL     1      -6.064  13.998  68.838  1.00  0.00    -0.086 C  
HETATM    2  C   UNL     1      -6.986  14.011  67.628  1.00  0.00    -0.183 C  
ENDROOT
BRANCH   2   3
HETATM    3  N   UNL     1      -8.391  13.911  68.038  1.00  0.00    -0.154 NA 
HETATM    4  C   UNL     1      -9.135  15.005  68.448  1.00  0.00    -0.184 C  
HETATM    5  C   UNL     1     -10.420  14.984  68.830  1.00  0.00    -0.238 C  
HETATM    6  C   UNL     1     -11.076  16.238  69.253  1.00  0.00    -0.325 C  
HETATM    7  C   UNL     1     -11.094  13.670  68.804  1.00  0.00    -0.270 C  
HETATM    8  C   UNL     1     -10.324  12.490  68.363  1.00  0.00    -0.237 A  
HETATM    9  O   UNL     1     -12.271  13.576  69.147  1.00  0.00    -0.307 OA 
HETATM   10  O   UNL     1     -10.506  17.319  69.275  1.00  0.00    -0.338 OA 
HETATM   11  O   UNL     1     -12.369  16.100  69.620  1.00  0.00    -0.108 OA 
HETATM   12  C   UNL     1     -10.928  11.239  68.346  1.00  0.00    -0.268 A  
HETATM   13  C   UNL     1     -10.172  10.154  67.939  1.00  0.00    -0.180 A  
HETATM   14  F   UNL     1     -10.761   8.948  67.904  1.00  0.00    -0.279 F  
HETATM   15  C   UNL     1      -8.839  10.321  67.531  1.00  0.00    -0.128 A  
HETATM   16  C   UNL     1      -8.987  12.628  67.968  1.00  0.00    -0.200 A  
HETATM   17  N   UNL     1      -8.269  11.555  67.537  1.00  0.00    -0.135 NA 
BRANCH  15  18
HETATM   18  N   UNL     1      -8.102   9.239  67.082  1.00  0.00    -0.109 NA 
HETATM   19  C   UNL     1      -7.408   8.369  68.036  1.00  0.00    -0.096 C  
HETATM   20  C   UNL     1      -8.044   6.966  68.122  1.00  0.00    -0.119 C  
HETATM   21  N   UNL     1      -8.235   6.330  66.804  1.00  0.00    -0.109 NA 
HETATM   22  H   UNL     1      -8.631   5.392  66.877  1.00  0.00     0.000 HD 
HETATM   23  C   UNL     1      -9.050   7.222  65.962  1.00  0.00    -0.075 C  
HETATM   24  C   UNL     1      -8.440   8.633  65.785  1.00  0.00    -0.151 C  
ENDBRANCH  15  18
ENDBRANCH   2   3
TORSDOF 2
ENDMDL
MODEL      133
REMARK 921   NORMALIZED FREE ENERGY PREDICTED BY IDOCK:   -3.77 KCAL/MOL
REMARK 922        TOTAL FREE ENERGY PREDICTED BY IDOCK:   -4.67 KCAL/MOL
REMARK 923 INTER-LIGAND FREE ENERGY PREDICTED BY IDOCK:   -4.29 KCAL/MOL
REMARK 924 INTRA-LIGAND FREE ENERGY PREDICTED BY IDOCK:   -0.38 KCAL/MOL
REMARK 927      BINDING AFFINITY PREDICTED BY RF-SCORE:    0.00 PKD
ROOT
HETATM    1  C   UNL     1     -10.767   5.262  66.195  1.00  0.00    -0.211 C  
HETATM    2  C   UNL     1     -10.932   6.369  67.226  1.00  0.00    -0.392 C  
ENDROOT
BRANCH   2   3
HETATM    3  N   UNL     1      -9.652   7.035  67.491  1.00  0.00    -0.128 NA 
HETATM    4  C   UNL     1      -8.662   7.168  66.532  1.00  0.00    -0.134 C  
HETATM    5  C   UNL     1      -7.476   7.768  66.704  1.00  0.00    -0.089 C  
HETATM    6  C   UNL     1      -6.515   7.822  65.584  1.00  0.00    -0.042 C  
HETATM    7  C   UNL     1      -7.212   8.335  68.042  1.00  0.00    -0.094 C  
HETATM    8  C   UNL     1      -8.256   8.212  69.080  1.00  0.00    -0.127 A  
HETATM    9  O   UNL     1      -6.142   8.895  68.273  1.00  0.00    -0.052 OA 
HETATM   10  O   UNL     1      -6.742   7.343  64.483  1.00  0.00    -0.043 OA 
HETATM   11  O   UNL     1      -5.351   8.446  65.871  1.00  0.00    -0.031 OA 
HETATM   12  C   UNL     1      -8.028   8.722  70.352  1.00  0.00    -0.113 A  
HETATM   13  C   UNL     1      -9.024   8.576  71.301  1.00  0.00    -0.192 A  
HETATM   14  F   UNL     1      -8.812   9.086  72.526  1.00  0.00    -0.208 F  
HETATM   15  C   UNL     1     -10.240   7.954  70.977  1.00  0.00    -0.197 A  
HETATM   16  C   UNL     1      -9.471   7.579  68.785  1.00  0.00    -0.148 A  
HETATM   17  N   UNL     1     -10.453   7.477  69.722  1.00  0.00    -0.225 NA 
BRANCH  15  18
HETATM   18  N   UNL     1     -11.249   7.852  71.919  1.00  0.00    -0.258 NA 
HETATM   19  C   UNL     1     -11.945   9.054  72.390  1.00  0.00    -0.185 C  
HETATM   20  C   UNL     1     -13.408   9.115  71.903  1.00  0.00    -0.427 C  
HETATM   21  N   UNL     1     -14.164   7.876  72.169  1.00  0.00    -0.588 NA 
HETATM   22  H   UNL     1     -15.136   7.939  71.867  1.00  0.00     0.000 HD 
HETATM   23  C   UNL     1     -13.453   6.745  71.548  1.00  0.00    -0.082 C  
HETATM   24  C   UNL     1     -11.993   6.589  72.036  1.00  0.00    -0.326 C  
ENDBRANCH  15  18
ENDBRANCH   2   3
TORSDOF 2
ENDMDL
MODEL      134
REMARK 921   NORMALIZED FREE ENERGY PREDICTED BY IDOCK:   -3.66 KCAL/MOL
REMARK 922        TOTAL FREE ENERGY PREDICTED BY IDOCK:   -4.55 KCAL/MOL
REMARK 923 INTER-LIGAND FREE ENERGY PREDICTED BY IDOCK:   -4.07 KCAL/MOL
REMARK 924 INTRA-LIGAND FREE ENERGY PREDICTED BY IDOCK:   -0.48 KCAL/MOL
REMARK 927      BINDING AFFINITY PREDICTED BY RF-SCORE:    0.00 PKD
ROOT
HETATM    1  C   UNL     1      -8.658   8.402  65.184  1.00  0.00    -0.159 C  
HETATM    2  C   UNL     1      -9.308   7.778  66.410  1.00  0.00    -0.181 C  
ENDROOT
BRANCH   2   3
HETATM    3  N   UNL     1      -9.111   6.324  66.426  1.00  0.00    -0.151 NA 
HETATM    4  C   UNL     1      -8.700   5.609  65.314  1.00  0.00    -0.118 C  
HETATM    5  C   UNL     1      -8.495   4.285  65.260  1.00  0.00    -0.115 C  
HETATM    6  C   UNL     1      -8.066   3.663  63.992  1.00  0.00    -0.089 C  
HETATM    7  C   UNL     1      -8.732   3.532  66.508  1.00  0.00    -0.124 C  
HETATM    8  C   UNL     1      -9.163   4.273  67.711  1.00  0.00    -0.178 A  
HETATM    9  O   UNL     1      -8.569   2.313  66.531  1.00  0.00    -0.099 OA 
HETATM   10  O   UNL     1      -7.880   4.297  62.963  1.00  0.00    -0.064 OA 
HETATM   11  O   UNL     1      -7.894   2.324  64.052  1.00  0.00    -0.070 OA 
HETATM   12  C   UNL     1      -9.409   3.587  68.893  1.00  0.00    -0.236 A  
HETATM   13  C   UNL     1      -9.824   4.313  69.995  1.00  0.00    -0.205 A  
HETATM   14  F   UNL     1     -10.043   3.653  71.144  1.00  0.00    -0.249 F  
HETATM   15  C   UNL     1      -9.966   5.708  69.923  1.00  0.00    -0.204 A  
HETATM   16  C   UNL     1      -9.329   5.664  67.659  1.00  0.00    -0.110 A  
HETATM   17  N   UNL     1      -9.704   6.365  68.763  1.00  0.00    -0.128 NA 
BRANCH  15  18
HETATM   18  N   UNL     1     -10.338   6.434  71.042  1.00  0.00    -0.202 NA 
HETATM   19  C   UNL     1      -9.349   7.244  71.760  1.00  0.00    -0.149 C  
HETATM   20  C   UNL     1      -9.602   8.758  71.599  1.00  0.00    -0.293 C  
HETATM   21  N   UNL     1     -10.992   9.153  71.900  1.00  0.00    -0.359 NA 
HETATM   22  H   UNL     1     -11.138  10.159  71.815  1.00  0.00     0.000 HD 
HETATM   23  C   UNL     1     -11.901   8.377  71.039  1.00  0.00    -0.252 C  
HETATM   24  C   UNL     1     -11.741   6.845  71.193  1.00  0.00    -0.336 C  
ENDBRANCH  15  18
ENDBRANCH   2   3
TORSDOF 2
ENDMDL
MODEL      135
REMARK 921   NORMALIZED FREE ENERGY PREDICTED BY IDOCK:   -3.56 KCAL/MOL
REMARK 922        TOTAL FREE ENERGY PREDICTED BY IDOCK:   -4.45 KCAL/MOL
REMARK 923 INTER-LIGAND FREE ENERGY PREDICTED BY IDOCK:   -3.99 KCAL/MOL
REMARK 924 INTRA-LIGAND FREE ENERGY PREDICTED BY IDOCK:   -0.46 KCAL/MOL
REMARK 927      BINDING AFFINITY PREDICTED BY RF-SCORE:    0.00 PKD
ROOT
HETATM    1  C   UNL     1      -6.439  10.462  70.272  1.00  0.00    -0.141 C  
HETATM    2  C   UNL     1      -6.586  10.654  68.770  1.00  0.00    -0.053 C  
ENDROOT
BRANCH   2   3
HETATM    3  N   UNL     1      -7.991  10.857  68.402  1.00  0.00    -0.120 NA 
HETATM    4  C   UNL     1      -8.616  12.090  68.475  1.00  0.00    -0.093 C  
HETATM    5  C   UNL     1      -9.891  12.347  68.150  1.00  0.00    -0.213 C  
HETATM    6  C   UNL     1     -10.420  13.718  68.292  1.00  0.00    -0.248 C  
HETATM    7  C   UNL     1     -10.692  11.202  67.670  1.00  0.00    -0.230 C  
HETATM    8  C   UNL     1     -10.045   9.877  67.576  1.00  0.00    -0.244 A  
HETATM    9  O   UNL     1     -11.871  11.363  67.359  1.00  0.00    -0.609 OA 
HETATM   10  O   UNL     1      -9.750  14.657  68.697  1.00  0.00    -0.211 OA 
HETATM   11  O   UNL     1     -11.717  13.861  67.941  1.00  0.00    -0.321 OA 
HETATM   12  C   UNL     1     -10.779   8.780  67.144  1.00  0.00    -0.204 A  
HETATM   13  C   UNL     1     -10.143   7.553  67.081  1.00  0.00    -0.247 A  
HETATM   14  F   UNL     1     -10.847   6.496  66.645  1.00  0.00    -0.345 F  
HETATM   15  C   UNL     1      -8.786   7.430  67.420  1.00  0.00    -0.123 A  
HETATM   16  C   UNL     1      -8.696   9.725  67.925  1.00  0.00    -0.125 A  
HETATM   17  N   UNL     1      -8.078   8.518  67.824  1.00  0.00    -0.114 NA 
BRANCH  15  18
HETATM   18  N   UNL     1      -8.144   6.208  67.311  1.00  0.00    -0.106 NA 
HETATM   19  C   UNL     1      -7.110   6.004  66.291  1.00  0.00    -0.068 C  
HETATM   20  C   UNL     1      -5.701   5.862  66.904  1.00  0.00    -0.017 C  
HETATM   21  N   UNL     1      -5.636   4.866  67.991  1.00  0.00    -0.015 NA 
HETATM   22  H   UNL     1      -4.694   4.763  68.369  1.00  0.00     0.000 HD 
HETATM   23  C   UNL     1      -6.620   5.229  69.025  1.00  0.00    -0.051 C  
HETATM   24  C   UNL     1      -8.069   5.333  68.490  1.00  0.00    -0.087 C  
ENDBRANCH  15  18
ENDBRANCH   2   3
TORSDOF 2
ENDMDL
MODEL      136
REMARK 921   NORMALIZED FREE ENERGY PREDICTED BY IDOCK:   -3.56 KCAL/MOL
REMARK 922        TOTAL FREE ENERGY PREDICTED BY IDOCK:   -4.44 KCAL/MOL
REMARK 923 INTER-LIGAND FREE ENERGY PREDICTED BY IDOCK:   -4.19 KCAL/MOL
REMARK 924 INTRA-LIGAND FREE ENERGY PREDICTED BY IDOCK:   -0.25 KCAL/MOL
REMARK 927      BINDING AFFINITY PREDICTED BY RF-SCORE:    0.00 PKD
ROOT
HETATM    1  C   UNL     1      -8.625  10.253  65.022  1.00  0.00    -0.190 C  
HETATM    2  C   UNL     1      -9.479   9.449  65.991  1.00  0.00    -0.241 C  
ENDROOT
BRANCH   2   3
HETATM    3  N   UNL     1      -8.979   8.075  66.116  1.00  0.00    -0.171 NA 
HETATM    4  C   UNL     1      -8.189   7.472  65.151  1.00  0.00    -0.120 C  
HETATM    5  C   UNL     1      -7.696   6.227  65.204  1.00  0.00    -0.099 C  
HETATM    6  C   UNL     1      -6.874   5.718  64.087  1.00  0.00    -0.049 C  
HETATM    7  C   UNL     1      -8.030   5.436  66.406  1.00  0.00    -0.104 C  
HETATM    8  C   UNL     1      -8.866   6.060  67.452  1.00  0.00    -0.106 A  
HETATM    9  O   UNL     1      -7.616   4.283  66.519  1.00  0.00    -0.087 OA 
HETATM   10  O   UNL     1      -6.609   6.381  63.095  1.00  0.00    -0.032 OA 
HETATM   11  O   UNL     1      -6.433   4.451  64.244  1.00  0.00    -0.036 OA 
HETATM   12  C   UNL     1      -9.210   5.333  68.585  1.00  0.00    -0.143 A  
HETATM   13  C   UNL     1     -10.004   5.946  69.537  1.00  0.00    -0.185 A  
HETATM   14  F   UNL     1     -10.321   5.250  70.642  1.00  0.00    -0.274 F  
HETATM   15  C   UNL     1     -10.426   7.275  69.373  1.00  0.00    -0.216 A  
HETATM   16  C   UNL     1      -9.314   7.379  67.302  1.00  0.00    -0.133 A  
HETATM   17  N   UNL     1     -10.065   7.977  68.266  1.00  0.00    -0.190 NA 
BRANCH  15  18
HETATM   18  N   UNL     1     -11.182   7.897  70.351  1.00  0.00    -0.261 NA 
HETATM   19  C   UNL     1     -12.478   7.339  70.751  1.00  0.00    -0.148 C  
HETATM   20  C   UNL     1     -12.452   6.753  72.177  1.00  0.00    -0.159 C  
HETATM   21  N   UNL     1     -11.896   7.684  73.180  1.00  0.00    -0.610 NA 
HETATM   22  H   UNL     1     -11.909   7.294  74.123  1.00  0.00     0.000 HD 
HETATM   23  C   UNL     1     -10.545   8.086  72.755  1.00  0.00    -0.351 C  
HETATM   24  C   UNL     1     -10.506   8.736  71.351  1.00  0.00    -0.284 C  
ENDBRANCH  15  18
ENDBRANCH   2   3
TORSDOF 2
ENDMDL
MODEL      137
REMARK 921   NORMALIZED FREE ENERGY PREDICTED BY IDOCK:   -3.50 KCAL/MOL
REMARK 922        TOTAL FREE ENERGY PREDICTED BY IDOCK:   -4.38 KCAL/MOL
REMARK 923 INTER-LIGAND FREE ENERGY PREDICTED BY IDOCK:   -3.95 KCAL/MOL
REMARK 924 INTRA-LIGAND FREE ENERGY PREDICTED BY IDOCK:   -0.43 KCAL/MOL
REMARK 927      BINDING AFFINITY PREDICTED BY RF-SCORE:    0.00 PKD
ROOT
HETATM    1  C   UNL     1      -6.386   6.646  69.014  1.00  0.00    -0.035 C  
HETATM    2  C   UNL     1      -6.585   7.551  70.222  1.00  0.00    -0.039 C  
ENDROOT
BRANCH   2   3
HETATM    3  N   UNL     1      -7.990   7.561  70.644  1.00  0.00    -0.099 NA 
HETATM    4  C   UNL     1      -8.517   6.632  71.525  1.00  0.00    -0.120 C  
HETATM    5  C   UNL     1      -9.785   6.586  71.956  1.00  0.00    -0.156 C  
HETATM    6  C   UNL     1     -10.202   5.523  72.893  1.00  0.00    -0.186 C  
HETATM    7  C   UNL     1     -10.695   7.629  71.438  1.00  0.00    -0.222 C  
HETATM    8  C   UNL     1     -10.155   8.636  70.502  1.00  0.00    -0.228 A  
HETATM    9  O   UNL     1     -11.874   7.645  71.787  1.00  0.00    -0.271 OA 
HETATM   10  O   UNL     1      -9.441   4.662  73.310  1.00  0.00    -0.122 OA 
HETATM   11  O   UNL     1     -11.501   5.571  73.257  1.00  0.00    -0.230 OA 
HETATM   12  C   UNL     1     -10.992   9.617  69.986  1.00  0.00    -0.297 A  
HETATM   13  C   UNL     1     -10.454  10.535  69.102  1.00  0.00    -0.228 A  
HETATM   14  F   UNL     1     -11.258  11.495  68.618  1.00  0.00    -0.209 F  
HETATM   15  C   UNL     1      -9.093  10.489  68.760  1.00  0.00    -0.166 A  
HETATM   16  C   UNL     1      -8.804   8.600  70.131  1.00  0.00    -0.141 A  
HETATM   17  N   UNL     1      -8.284   9.533  69.288  1.00  0.00    -0.105 NA 
BRANCH  15  18
HETATM   18  N   UNL     1      -8.551  11.439  67.910  1.00  0.00    -0.135 NA 
HETATM   19  C   UNL     1      -8.097  12.730  68.438  1.00  0.00    -0.129 C  
HETATM   20  C   UNL     1      -6.562  12.876  68.390  1.00  0.00    -0.085 C  
HETATM   21  N   UNL     1      -5.986  12.565  67.067  1.00  0.00    -0.460 NA 
HETATM   22  H   UNL     1      -4.974  12.692  67.042  1.00  0.00     0.000 HD 
HETATM   23  C   UNL     1      -6.393  11.203  66.683  1.00  0.00    -0.134 C  
HETATM   24  C   UNL     1      -7.927  11.001  66.653  1.00  0.00    -0.156 C  
ENDBRANCH  15  18
ENDBRANCH   2   3
TORSDOF 2
ENDMDL
MODEL      138
REMARK 921   NORMALIZED FREE ENERGY PREDICTED BY IDOCK:   -3.42 KCAL/MOL
REMARK 922        TOTAL FREE ENERGY PREDICTED BY IDOCK:   -4.28 KCAL/MOL
REMARK 923 INTER-LIGAND FREE ENERGY PREDICTED BY IDOCK:   -3.79 KCAL/MOL
REMARK 924 INTRA-LIGAND FREE ENERGY PREDICTED BY IDOCK:   -0.49 KCAL/MOL
REMARK 927      BINDING AFFINITY PREDICTED BY RF-SCORE:    0.00 PKD
ROOT
HETATM    1  C   UNL     1      -6.131   8.842  67.372  1.00  0.00    -0.051 C  
HETATM    2  C   UNL     1      -7.371   8.039  67.008  1.00  0.00    -0.091 C  
ENDROOT
BRANCH   2   3
HETATM    3  N   UNL     1      -8.592   8.761  67.382  1.00  0.00    -0.125 NA 
HETATM    4  C   UNL     1      -8.959   9.966  66.808  1.00  0.00    -0.138 C  
HETATM    5  C   UNL     1     -10.060  10.673  67.099  1.00  0.00    -0.248 C  
HETATM    6  C   UNL     1     -10.311  11.953  66.406  1.00  0.00    -0.219 C  
HETATM    7  C   UNL     1     -10.957  10.104  68.125  1.00  0.00    -0.259 C  
HETATM    8  C   UNL     1     -10.591   8.815  68.747  1.00  0.00    -0.174 A  
HETATM    9  O   UNL     1     -11.983  10.702  68.445  1.00  0.00    -0.448 OA 
HETATM   10  O   UNL     1      -9.558  12.417  65.562  1.00  0.00    -0.184 OA 
HETATM   11  O   UNL     1     -11.446  12.582  66.779  1.00  0.00    -0.319 OA 
HETATM   12  C   UNL     1     -11.408   8.266  69.727  1.00  0.00     0.134 A  
HETATM   13  C   UNL     1     -11.026   7.064  70.296  1.00  0.00    -0.271 A  
HETATM   14  F   UNL     1     -11.825   6.522  71.230  1.00  0.00    -0.339 F  
HETATM   15  C   UNL     1      -9.859   6.408  69.873  1.00  0.00    -0.167 A  
HETATM   16  C   UNL     1      -9.422   8.150  68.354  1.00  0.00    -0.142 A  
HETATM   17  N   UNL     1      -9.081   6.952  68.900  1.00  0.00    -0.134 NA 
BRANCH  15  18
HETATM   18  N   UNL     1      -9.507   5.183  70.414  1.00  0.00    -0.159 NA 
HETATM   19  C   UNL     1      -9.428   3.993  69.561  1.00  0.00    -0.187 C  
HETATM   20  C   UNL     1      -7.979   3.500  69.373  1.00  0.00    -0.050 C  
HETATM   21  N   UNL     1      -7.246   3.341  70.645  1.00  0.00    -0.033 NA 
HETATM   22  H   UNL     1      -6.298   2.990  70.508  1.00  0.00     0.000 HD 
HETATM   23  C   UNL     1      -7.272   4.624  71.369  1.00  0.00    -0.056 C  
HETATM   24  C   UNL     1      -8.702   5.150  71.643  1.00  0.00    -0.133 C  
ENDBRANCH  15  18
ENDBRANCH   2   3
TORSDOF 2
ENDMDL
MODEL      139
REMARK 921   NORMALIZED FREE ENERGY PREDICTED BY IDOCK:   -3.37 KCAL/MOL
REMARK 922        TOTAL FREE ENERGY PREDICTED BY IDOCK:   -4.23 KCAL/MOL
REMARK 923 INTER-LIGAND FREE ENERGY PREDICTED BY IDOCK:   -3.84 KCAL/MOL
REMARK 924 INTRA-LIGAND FREE ENERGY PREDICTED BY IDOCK:   -0.39 KCAL/MOL
REMARK 927      BINDING AFFINITY PREDICTED BY RF-SCORE:    0.00 PKD
ROOT
HETATM    1  C   UNL     1     -10.440   9.204  66.460  1.00  0.00    -0.197 C  
HETATM    2  C   UNL     1     -10.811  10.168  67.577  1.00  0.00    -0.290 C  
ENDROOT
BRANCH   2   3
HETATM    3  N   UNL     1     -10.231  11.495  67.339  1.00  0.00    -0.200 NA 
HETATM    4  C   UNL     1     -10.904  12.499  66.663  1.00  0.00    -0.246 C  
HETATM    5  C   UNL     1     -10.438  13.731  66.416  1.00  0.00    -0.284 C  
HETATM    6  C   UNL     1     -11.273  14.693  65.669  1.00  0.00    -0.342 C  
HETATM    7  C   UNL     1      -9.082  14.034  66.916  1.00  0.00    -0.248 C  
HETATM    8  C   UNL     1      -8.346  12.982  67.647  1.00  0.00    -0.181 A  
HETATM    9  O   UNL     1      -8.588  15.144  66.721  1.00  0.00    -0.243 OA 
HETATM   10  O   UNL     1     -12.392  14.428  65.254  1.00  0.00    -0.404 OA 
HETATM   11  O   UNL     1     -10.702  15.901  65.474  1.00  0.00    -0.361 OA 
HETATM   12  C   UNL     1      -7.063  13.235  68.114  1.00  0.00    -0.111 A  
HETATM   13  C   UNL     1      -6.400  12.221  68.783  1.00  0.00    -0.077 A  
HETATM   14  F   UNL     1      -5.167  12.471  69.252  1.00  0.00    -0.066 F  
HETATM   15  C   UNL     1      -7.021  10.981  69.004  1.00  0.00    -0.097 A  
HETATM   16  C   UNL     1      -8.938  11.731  67.865  1.00  0.00    -0.180 A  
HETATM   17  N   UNL     1      -8.285  10.757  68.556  1.00  0.00    -0.128 NA 
BRANCH  15  18
HETATM   18  N   UNL     1      -6.370   9.987  69.714  1.00  0.00    -0.051 NA 
HETATM   19  C   UNL     1      -6.534   9.888  71.168  1.00  0.00     0.095 C  
HETATM   20  C   UNL     1      -7.340   8.640  71.584  1.00  0.00    -0.093 C  
HETATM   21  N   UNL     1      -6.836   7.391  70.979  1.00  0.00    -0.053 NA 
HETATM   22  H   UNL     1      -7.360   6.571  71.283  1.00  0.00     0.000 HD 
HETATM   23  C   UNL     1      -6.830   7.544  69.514  1.00  0.00    -0.044 C  
HETATM   24  C   UNL     1      -5.990   8.747  69.022  1.00  0.00    -0.043 C  
ENDBRANCH  15  18
ENDBRANCH   2   3
TORSDOF 2
ENDMDL
MODEL      140
REMARK 921   NORMALIZED FREE ENERGY PREDICTED BY IDOCK:   -3.37 KCAL/MOL
REMARK 922        TOTAL FREE ENERGY PREDICTED BY IDOCK:   -4.23 KCAL/MOL
REMARK 923 INTER-LIGAND FREE ENERGY PREDICTED BY IDOCK:   -3.75 KCAL/MOL
REMARK 924 INTRA-LIGAND FREE ENERGY PREDICTED BY IDOCK:   -0.48 KCAL/MOL
REMARK 927      BINDING AFFINITY PREDICTED BY RF-SCORE:    0.00 PKD
ROOT
HETATM    1  C   UNL     1      -7.750   8.723  69.690  1.00  0.00    -0.088 C  
HETATM    2  C   UNL     1      -9.005   8.066  69.135  1.00  0.00    -0.145 C  
ENDROOT
BRANCH   2   3
HETATM    3  N   UNL     1      -9.340   6.854  69.890  1.00  0.00    -0.151 NA 
HETATM    4  C   UNL     1      -9.714   6.878  71.224  1.00  0.00    -0.172 C  
HETATM    5  C   UNL     1     -10.037   5.812  71.970  1.00  0.00    -0.225 C  
HETATM    6  C   UNL     1     -10.406   5.997  73.388  1.00  0.00    -0.235 C  
HETATM    7  C   UNL     1      -9.989   4.498  71.297  1.00  0.00    -0.188 C  
HETATM    8  C   UNL     1      -9.601   4.447  69.873  1.00  0.00    -0.275 A  
HETATM    9  O   UNL     1     -10.268   3.476  71.922  1.00  0.00    -0.141 OA 
HETATM   10  O   UNL     1     -10.436   7.089  73.935  1.00  0.00    -0.375 OA 
HETATM   11  O   UNL     1     -10.709   4.856  74.044  1.00  0.00    -0.279 OA 
HETATM   12  C   UNL     1      -9.531   3.223  69.220  1.00  0.00    -0.199 A  
HETATM   13  C   UNL     1      -9.151   3.214  67.890  1.00  0.00    -0.177 A  
HETATM   14  F   UNL     1      -9.102   2.032  67.253  1.00  0.00    -0.135 F  
HETATM   15  C   UNL     1      -8.871   4.412  67.214  1.00  0.00    -0.108 A  
HETATM   16  C   UNL     1      -9.299   5.628  69.182  1.00  0.00    -0.124 A  
HETATM   17  N   UNL     1      -8.962   5.603  67.864  1.00  0.00    -0.109 NA 
BRANCH  15  18
HETATM   18  N   UNL     1      -8.536   4.399  65.871  1.00  0.00    -0.113 NA 
HETATM   19  C   UNL     1      -7.187   4.009  65.449  1.00  0.00    -0.068 C  
HETATM   20  C   UNL     1      -7.171   2.653  64.713  1.00  0.00    -0.058 C  
HETATM   21  N   UNL     1      -8.159   2.571  63.619  1.00  0.00    -0.080 NA 
HETATM   22  H   UNL     1      -8.119   1.680  63.124  1.00  0.00     0.000 HD 
HETATM   23  C   UNL     1      -9.497   2.851  64.167  1.00  0.00    -0.133 C  
HETATM   24  C   UNL     1      -9.600   4.226  64.871  1.00  0.00    -0.173 C  
ENDBRANCH  15  18
ENDBRANCH   2   3
TORSDOF 2
ENDMDL
MODEL      141
REMARK 921   NORMALIZED FREE ENERGY PREDICTED BY IDOCK:   -3.28 KCAL/MOL
REMARK 922        TOTAL FREE ENERGY PREDICTED BY IDOCK:   -4.13 KCAL/MOL
REMARK 923 INTER-LIGAND FREE ENERGY PREDICTED BY IDOCK:   -4.49 KCAL/MOL
REMARK 924 INTRA-LIGAND FREE ENERGY PREDICTED BY IDOCK:    0.36 KCAL/MOL
REMARK 927      BINDING AFFINITY PREDICTED BY RF-SCORE:    0.00 PKD
ROOT
HETATM    1  C   UNL     1      -6.653   6.720  69.059  1.00  0.00    -0.041 C  
HETATM    2  C   UNL     1      -6.891   7.613  70.268  1.00  0.00    -0.047 C  
ENDROOT
BRANCH   2   3
HETATM    3  N   UNL     1      -8.179   7.307  70.901  1.00  0.00    -0.114 NA 
HETATM    4  C   UNL     1      -8.370   6.209  71.723  1.00  0.00    -0.125 C  
HETATM    5  C   UNL     1      -9.514   5.874  72.336  1.00  0.00    -0.155 C  
HETATM    6  C   UNL     1      -9.565   4.661  73.177  1.00  0.00    -0.130 C  
HETATM    7  C   UNL     1     -10.669   6.767  72.107  1.00  0.00    -0.220 C  
HETATM    8  C   UNL     1     -10.488   7.949  71.240  1.00  0.00    -0.233 A  
HETATM    9  O   UNL     1     -11.752   6.518  72.634  1.00  0.00    -0.207 OA 
HETATM   10  O   UNL     1      -8.604   3.927  73.353  1.00  0.00    -0.087 OA 
HETATM   11  O   UNL     1     -10.768   4.419  73.741  1.00  0.00    -0.215 OA 
HETATM   12  C   UNL     1     -11.562   8.795  70.995  1.00  0.00    -0.337 A  
HETATM   13  C   UNL     1     -11.358   9.885  70.168  1.00  0.00    -0.275 A  
HETATM   14  F   UNL     1     -12.390  10.714  69.946  1.00  0.00    -0.342 F  
HETATM   15  C   UNL     1     -10.093  10.140  69.615  1.00  0.00    -0.234 A  
HETATM   16  C   UNL     1      -9.239   8.215  70.663  1.00  0.00    -0.154 A  
HETATM   17  N   UNL     1      -9.048   9.311  69.880  1.00  0.00    -0.175 NA 
BRANCH  15  18
HETATM   18  N   UNL     1      -9.884  11.258  68.825  1.00  0.00    -0.204 NA 
HETATM   19  C   UNL     1      -9.103  11.154  67.588  1.00  0.00    -0.147 C  
HETATM   20  C   UNL     1      -9.974  11.330  66.327  1.00  0.00    -0.221 C  
HETATM   21  N   UNL     1     -10.823  12.537  66.368  1.00  0.00    -0.255 NA 
HETATM   22  H   UNL     1     -11.374  12.655  65.517  1.00  0.00     0.000 HD 
HETATM   23  C   UNL     1     -11.661  12.485  67.578  1.00  0.00    -0.374 C  
HETATM   24  C   UNL     1     -10.847  12.367  68.889  1.00  0.00    -0.197 C  
ENDBRANCH  15  18
ENDBRANCH   2   3
TORSDOF 2
ENDMDL
MODEL      142
REMARK 921   NORMALIZED FREE ENERGY PREDICTED BY IDOCK:   -3.27 KCAL/MOL
REMARK 922        TOTAL FREE ENERGY PREDICTED BY IDOCK:   -4.12 KCAL/MOL
REMARK 923 INTER-LIGAND FREE ENERGY PREDICTED BY IDOCK:   -4.04 KCAL/MOL
REMARK 924 INTRA-LIGAND FREE ENERGY PREDICTED BY IDOCK:   -0.08 KCAL/MOL
REMARK 927      BINDING AFFINITY PREDICTED BY RF-SCORE:    0.00 PKD
ROOT
HETATM    1  C   UNL     1     -12.639   9.789  71.283  1.00  0.00    -0.460 C  
HETATM    2  C   UNL     1     -11.122   9.912  71.318  1.00  0.00    -0.232 C  
ENDROOT
BRANCH   2   3
HETATM    3  N   UNL     1     -10.542   9.624  70.002  1.00  0.00    -0.240 NA 
HETATM    4  C   UNL     1     -10.551  10.537  68.960  1.00  0.00    -0.222 C  
HETATM    5  C   UNL     1     -10.035  10.341  67.738  1.00  0.00    -0.203 C  
HETATM    6  C   UNL     1     -10.133  11.411  66.725  1.00  0.00    -0.216 C  
HETATM    7  C   UNL     1      -9.400   9.031  67.493  1.00  0.00    -0.135 C  
HETATM    8  C   UNL     1      -9.371   8.043  68.591  1.00  0.00    -0.146 A  
HETATM    9  O   UNL     1      -8.911   8.781  66.393  1.00  0.00    -0.133 OA 
HETATM   10  O   UNL     1     -10.667  12.490  66.938  1.00  0.00    -0.237 OA 
HETATM   11  O   UNL     1      -9.584  11.105  65.529  1.00  0.00    -0.209 OA 
HETATM   12  C   UNL     1      -8.795   6.796  68.382  1.00  0.00    -0.122 A  
HETATM   13  C   UNL     1      -8.798   5.893  69.430  1.00  0.00    -0.122 A  
HETATM   14  F   UNL     1      -8.224   4.694  69.235  1.00  0.00    -0.074 F  
HETATM   15  C   UNL     1      -9.344   6.240  70.676  1.00  0.00    -0.162 A  
HETATM   16  C   UNL     1      -9.926   8.360  69.839  1.00  0.00    -0.190 A  
HETATM   17  N   UNL     1      -9.888   7.471  70.868  1.00  0.00    -0.177 NA 
BRANCH  15  18
HETATM   18  N   UNL     1      -9.302   5.347  71.734  1.00  0.00    -0.145 NA 
HETATM   19  C   UNL     1      -8.103   4.538  71.972  1.00  0.00    -0.100 C  
HETATM   20  C   UNL     1      -7.355   4.959  73.254  1.00  0.00    -0.087 C  
HETATM   21  N   UNL     1      -8.231   5.045  74.439  1.00  0.00    -0.102 NA 
HETATM   22  H   UNL     1      -7.720   5.298  75.285  1.00  0.00     0.000 HD 
HETATM   23  C   UNL     1      -9.333   5.978  74.146  1.00  0.00    -0.140 C  
HETATM   24  C   UNL     1     -10.164   5.582  72.901  1.00  0.00    -0.186 C  
ENDBRANCH  15  18
ENDBRANCH   2   3
TORSDOF 2
ENDMDL
MODEL      143
REMARK 921   NORMALIZED FREE ENERGY PREDICTED BY IDOCK:   -3.23 KCAL/MOL
REMARK 922        TOTAL FREE ENERGY PREDICTED BY IDOCK:   -4.07 KCAL/MOL
REMARK 923 INTER-LIGAND FREE ENERGY PREDICTED BY IDOCK:   -4.32 KCAL/MOL
REMARK 924 INTRA-LIGAND FREE ENERGY PREDICTED BY IDOCK:    0.25 KCAL/MOL
REMARK 927      BINDING AFFINITY PREDICTED BY RF-SCORE:    0.00 PKD
ROOT
HETATM    1  C   UNL     1     -12.926  10.151  70.378  1.00  0.00    -0.116 C  
HETATM    2  C   UNL     1     -11.847  11.223  70.434  1.00  0.00    -0.350 C  
ENDROOT
BRANCH   2   3
HETATM    3  N   UNL     1     -10.613  10.760  69.790  1.00  0.00    -0.193 NA 
HETATM    4  C   UNL     1      -9.980  11.467  68.783  1.00  0.00    -0.157 C  
HETATM    5  C   UNL     1      -8.851  11.106  68.157  1.00  0.00    -0.148 C  
HETATM    6  C   UNL     1      -8.299  11.964  67.089  1.00  0.00    -0.174 C  
HETATM    7  C   UNL     1      -8.235   9.835  68.591  1.00  0.00    -0.106 C  
HETATM    8  C   UNL     1      -8.888   9.066  69.670  1.00  0.00    -0.145 A  
HETATM    9  O   UNL     1      -7.200   9.439  68.057  1.00  0.00    -0.077 OA 
HETATM   10  O   UNL     1      -8.821  13.011  66.734  1.00  0.00    -0.207 OA 
HETATM   11  O   UNL     1      -7.162  11.501  66.526  1.00  0.00    -0.106 OA 
HETATM   12  C   UNL     1      -8.340   7.859  70.086  1.00  0.00    -0.127 A  
HETATM   13  C   UNL     1      -8.987   7.160  71.089  1.00  0.00    -0.145 A  
HETATM   14  F   UNL     1      -8.447   6.003  71.506  1.00  0.00    -0.122 F  
HETATM   15  C   UNL     1     -10.150   7.672  71.686  1.00  0.00    -0.180 A  
HETATM   16  C   UNL     1     -10.060   9.547  70.269  1.00  0.00    -0.262 A  
HETATM   17  N   UNL     1     -10.663   8.863  71.278  1.00  0.00    -0.260 NA 
BRANCH  15  18
HETATM   18  N   UNL     1     -10.767   6.990  72.721  1.00  0.00    -0.253 NA 
HETATM   19  C   UNL     1     -11.596   5.814  72.441  1.00  0.00    -0.264 C  
HETATM   20  C   UNL     1     -10.950   4.506  72.941  1.00  0.00    -0.180 C  
HETATM   21  N   UNL     1     -10.510   4.572  74.348  1.00  0.00    -0.263 NA 
HETATM   22  H   UNL     1     -10.109   3.693  74.674  1.00  0.00     0.000 HD 
HETATM   23  C   UNL     1      -9.581   5.706  74.501  1.00  0.00    -0.177 C  
HETATM   24  C   UNL     1     -10.187   7.064  74.070  1.00  0.00    -0.308 C  
ENDBRANCH  15  18
ENDBRANCH   2   3
TORSDOF 2
ENDMDL
MODEL      144
REMARK 921   NORMALIZED FREE ENERGY PREDICTED BY IDOCK:   -3.21 KCAL/MOL
REMARK 922        TOTAL FREE ENERGY PREDICTED BY IDOCK:   -4.05 KCAL/MOL
REMARK 923 INTER-LIGAND FREE ENERGY PREDICTED BY IDOCK:   -3.81 KCAL/MOL
REMARK 924 INTRA-LIGAND FREE ENERGY PREDICTED BY IDOCK:   -0.24 KCAL/MOL
REMARK 927      BINDING AFFINITY PREDICTED BY RF-SCORE:    0.00 PKD
ROOT
HETATM    1  C   UNL     1     -12.175  12.605  63.721  1.00  0.00    -0.600 C  
HETATM    2  C   UNL     1     -11.736  12.897  65.149  1.00  0.00    -0.349 C  
ENDROOT
BRANCH   2   3
HETATM    3  N   UNL     1     -11.001  11.761  65.715  1.00  0.00    -0.303 NA 
HETATM    4  C   UNL     1     -10.278  10.871  64.939  1.00  0.00    -0.316 C  
HETATM    5  C   UNL     1      -9.582   9.818  65.390  1.00  0.00    -0.359 C  
HETATM    6  C   UNL     1      -8.867   8.950  64.433  1.00  0.00    -0.005 C  
HETATM    7  C   UNL     1      -9.592   9.599  66.851  1.00  0.00    -0.167 C  
HETATM    8  C   UNL     1     -10.349  10.539  67.701  1.00  0.00    -0.257 A  
HETATM    9  O   UNL     1      -8.978   8.649  67.334  1.00  0.00    -0.132 OA 
HETATM   10  O   UNL     1      -8.872   9.138  63.225  1.00  0.00    -0.192 OA 
HETATM   11  O   UNL     1      -8.202   7.918  64.997  1.00  0.00    -0.140 OA 
HETATM   12  C   UNL     1     -10.390  10.347  69.076  1.00  0.00    -0.232 A  
HETATM   13  C   UNL     1     -11.120  11.241  69.839  1.00  0.00    -0.109 A  
HETATM   14  F   UNL     1     -11.144  11.066  71.170  1.00  0.00     0.119 F  
HETATM   15  C   UNL     1     -11.779  12.326  69.239  1.00  0.00    -0.330 A  
HETATM   16  C   UNL     1     -11.030  11.620  67.124  1.00  0.00    -0.280 A  
HETATM   17  N   UNL     1     -11.714  12.509  67.894  1.00  0.00    -0.352 NA 
BRANCH  15  18
HETATM   18  N   UNL     1     -12.470  13.242  70.014  1.00  0.00    -0.168 NA 
HETATM   19  C   UNL     1     -13.567  12.800  70.879  1.00  0.00     0.957 C  
HETATM   20  C   UNL     1     -13.213  12.905  72.377  1.00  0.00    -0.342 C  
HETATM   21  N   UNL     1     -12.681  14.228  72.760  1.00  0.00    -0.344 NA 
HETATM   22  H   UNL     1     -12.476  14.292  73.757  1.00  0.00     0.000 HD 
HETATM   23  C   UNL     1     -11.505  14.525  71.923  1.00  0.00     0.403 C  
HETATM   24  C   UNL     1     -11.804  14.493  70.404  1.00  0.00    -0.311 C  
ENDBRANCH  15  18
ENDBRANCH   2   3
TORSDOF 2
ENDMDL
MODEL      145
REMARK 921   NORMALIZED FREE ENERGY PREDICTED BY IDOCK:   -3.16 KCAL/MOL
REMARK 922        TOTAL FREE ENERGY PREDICTED BY IDOCK:   -3.99 KCAL/MOL
REMARK 923 INTER-LIGAND FREE ENERGY PREDICTED BY IDOCK:   -3.53 KCAL/MOL
REMARK 924 INTRA-LIGAND FREE ENERGY PREDICTED BY IDOCK:   -0.47 KCAL/MOL
REMARK 927      BINDING AFFINITY PREDICTED BY RF-SCORE:    0.00 PKD
ROOT
HETATM    1  C   UNL     1     -10.899   6.287  67.641  1.00  0.00    -0.433 C  
HETATM    2  C   UNL     1      -9.521   6.018  68.227  1.00  0.00    -0.115 C  
ENDROOT
BRANCH   2   3
HETATM    3  N   UNL     1      -8.920   7.252  68.745  1.00  0.00    -0.130 NA 
HETATM    4  C   UNL     1      -8.588   8.325  67.934  1.00  0.00    -0.132 C  
HETATM    5  C   UNL     1      -8.044   9.480  68.341  1.00  0.00    -0.101 C  
HETATM    6  C   UNL     1      -7.735  10.531  67.351  1.00  0.00    -0.102 C  
HETATM    7  C   UNL     1      -7.781   9.611  69.789  1.00  0.00    -0.133 C  
HETATM    8  C   UNL     1      -8.134   8.483  70.675  1.00  0.00    -0.119 A  
HETATM    9  O   UNL     1      -7.278  10.642  70.232  1.00  0.00    -0.208 OA 
HETATM   10  O   UNL     1      -7.951  10.409  66.154  1.00  0.00    -0.126 OA 
HETATM   11  O   UNL     1      -7.186  11.650  67.871  1.00  0.00    -0.075 OA 
HETATM   12  C   UNL     1      -7.881   8.572  72.039  1.00  0.00    -0.150 A  
HETATM   13  C   UNL     1      -8.213   7.492  72.836  1.00  0.00    -0.118 A  
HETATM   14  F   UNL     1      -7.988   7.585  74.156  1.00  0.00    -0.139 F  
HETATM   15  C   UNL     1      -8.813   6.349  72.283  1.00  0.00    -0.135 A  
HETATM   16  C   UNL     1      -8.717   7.325  70.145  1.00  0.00    -0.140 A  
HETATM   17  N   UNL     1      -9.069   6.286  70.949  1.00  0.00    -0.150 NA 
BRANCH  15  18
HETATM   18  N   UNL     1      -9.184   5.290  73.093  1.00  0.00    -0.133 NA 
HETATM   19  C   UNL     1     -10.416   5.361  73.885  1.00  0.00    -0.280 C  
HETATM   20  C   UNL     1     -11.502   4.393  73.371  1.00  0.00    -0.203 C  
HETATM   21  N   UNL     1     -11.016   3.011  73.194  1.00  0.00    -0.142 NA 
HETATM   22  H   UNL     1     -11.750   2.376  72.879  1.00  0.00     0.000 HD 
HETATM   23  C   UNL     1      -9.859   3.030  72.283  1.00  0.00    -0.164 C  
HETATM   24  C   UNL     1      -8.704   3.939  72.768  1.00  0.00    -0.099 C  
ENDBRANCH  15  18
ENDBRANCH   2   3
TORSDOF 2
ENDMDL
MODEL      146
REMARK 921   NORMALIZED FREE ENERGY PREDICTED BY IDOCK:   -3.13 KCAL/MOL
REMARK 922        TOTAL FREE ENERGY PREDICTED BY IDOCK:   -3.96 KCAL/MOL
REMARK 923 INTER-LIGAND FREE ENERGY PREDICTED BY IDOCK:   -3.50 KCAL/MOL
REMARK 924 INTRA-LIGAND FREE ENERGY PREDICTED BY IDOCK:   -0.46 KCAL/MOL
REMARK 927      BINDING AFFINITY PREDICTED BY RF-SCORE:    0.00 PKD
ROOT
HETATM    1  C   UNL     1      -6.307   8.747  67.742  1.00  0.00    -0.057 C  
HETATM    2  C   UNL     1      -6.524   7.354  68.315  1.00  0.00    -0.045 C  
ENDROOT
BRANCH   2   3
HETATM    3  N   UNL     1      -7.932   7.145  68.669  1.00  0.00    -0.122 NA 
HETATM    4  C   UNL     1      -8.488   7.615  69.847  1.00  0.00    -0.137 C  
HETATM    5  C   UNL     1      -9.764   7.465  70.230  1.00  0.00    -0.172 C  
HETATM    6  C   UNL     1     -10.209   8.016  71.526  1.00  0.00    -0.194 C  
HETATM    7  C   UNL     1     -10.648   6.731  69.301  1.00  0.00    -0.231 C  
HETATM    8  C   UNL     1     -10.080   6.226  68.035  1.00  0.00    -0.174 A  
HETATM    9  O   UNL     1     -11.830   6.551  69.590  1.00  0.00    -0.310 OA 
HETATM   10  O   UNL     1      -9.466   8.616  72.289  1.00  0.00    -0.283 OA 
HETATM   11  O   UNL     1     -11.512   7.803  71.811  1.00  0.00    -0.251 OA 
HETATM   12  C   UNL     1     -10.884   5.517  67.151  1.00  0.00    -0.166 A  
HETATM   13  C   UNL     1     -10.314   5.050  65.981  1.00  0.00    -0.237 A  
HETATM   14  F   UNL     1     -11.096   4.381  65.118  1.00  0.00    -0.354 F  
HETATM   15  C   UNL     1      -8.966   5.308  65.686  1.00  0.00    -0.158 A  
HETATM   16  C   UNL     1      -8.732   6.456  67.726  1.00  0.00    -0.114 A  
HETATM   17  N   UNL     1      -8.197   6.018  66.554  1.00  0.00    -0.106 NA 
BRANCH  15  18
HETATM   18  N   UNL     1      -8.413   4.876  64.493  1.00  0.00    -0.139 NA 
HETATM   19  C   UNL     1      -8.091   5.839  63.435  1.00  0.00    -0.104 C  
HETATM   20  C   UNL     1      -6.570   6.002  63.232  1.00  0.00    -0.032 C  
HETATM   21  N   UNL     1      -5.862   4.717  63.070  1.00  0.00    -0.017 NA 
HETATM   22  H   UNL     1      -4.862   4.840  62.910  1.00  0.00     0.000 HD 
HETATM   23  C   UNL     1      -6.145   3.869  64.241  1.00  0.00    -0.018 C  
HETATM   24  C   UNL     1      -7.655   3.616  64.471  1.00  0.00    -0.076 C  
ENDBRANCH  15  18
ENDBRANCH   2   3
TORSDOF 2
ENDMDL
MODEL      147
REMARK 921   NORMALIZED FREE ENERGY PREDICTED BY IDOCK:   -3.05 KCAL/MOL
REMARK 922        TOTAL FREE ENERGY PREDICTED BY IDOCK:   -3.87 KCAL/MOL
REMARK 923 INTER-LIGAND FREE ENERGY PREDICTED BY IDOCK:   -3.47 KCAL/MOL
REMARK 924 INTRA-LIGAND FREE ENERGY PREDICTED BY IDOCK:   -0.40 KCAL/MOL
REMARK 927      BINDING AFFINITY PREDICTED BY RF-SCORE:    0.00 PKD
ROOT
HETATM    1  C   UNL     1     -10.877   5.856  67.021  1.00  0.00    -0.379 C  
HETATM    2  C   UNL     1      -9.369   5.782  67.213  1.00  0.00    -0.113 C  
ENDROOT
BRANCH   2   3
HETATM    3  N   UNL     1      -8.700   6.905  66.548  1.00  0.00    -0.128 NA 
HETATM    4  C   UNL     1      -8.301   6.864  65.223  1.00  0.00    -0.098 C  
HETATM    5  C   UNL     1      -7.691   7.853  64.553  1.00  0.00    -0.125 C  
HETATM    6  C   UNL     1      -7.315   7.655  63.139  1.00  0.00    -0.097 C  
HETATM    7  C   UNL     1      -7.428   9.095  65.308  1.00  0.00    -0.097 C  
HETATM    8  C   UNL     1      -7.851   9.166  66.722  1.00  0.00    -0.101 A  
HETATM    9  O   UNL     1      -6.867  10.042  64.759  1.00  0.00    -0.123 OA 
HETATM   10  O   UNL     1      -7.533   6.619  62.526  1.00  0.00    -0.061 OA 
HETATM   11  O   UNL     1      -6.704   8.714  62.565  1.00  0.00    -0.095 OA 
HETATM   12  C   UNL     1      -7.600  10.316  67.460  1.00  0.00    -0.094 A  
HETATM   13  C   UNL     1      -7.999  10.340  68.784  1.00  0.00    -0.113 A  
HETATM   14  F   UNL     1      -7.774  11.459  69.493  1.00  0.00    -0.064 F  
HETATM   15  C   UNL     1      -8.662   9.242  69.355  1.00  0.00    -0.148 A  
HETATM   16  C   UNL     1      -8.499   8.076  67.319  1.00  0.00    -0.125 A  
HETATM   17  N   UNL     1      -8.915   8.132  68.613  1.00  0.00    -0.137 NA 
BRANCH  15  18
HETATM   18  N   UNL     1      -9.099   9.292  70.668  1.00  0.00    -0.245 NA 
HETATM   19  C   UNL     1     -10.508   9.567  70.968  1.00  0.00    -0.306 C  
HETATM   20  C   UNL     1     -11.238   8.335  71.542  1.00  0.00    -0.262 C  
HETATM   21  N   UNL     1     -10.524   7.708  72.672  1.00  0.00    -0.259 NA 
HETATM   22  H   UNL     1     -11.030   6.911  73.059  1.00  0.00     0.000 HD 
HETATM   23  C   UNL     1      -9.164   7.352  72.233  1.00  0.00    -0.132 C  
HETATM   24  C   UNL     1      -8.352   8.556  71.698  1.00  0.00    -0.165 C  
ENDBRANCH  15  18
ENDBRANCH   2   3
TORSDOF 2
ENDMDL
MODEL      148
REMARK 921   NORMALIZED FREE ENERGY PREDICTED BY IDOCK:   -3.05 KCAL/MOL
REMARK 922        TOTAL FREE ENERGY PREDICTED BY IDOCK:   -3.87 KCAL/MOL
REMARK 923 INTER-LIGAND FREE ENERGY PREDICTED BY IDOCK:   -4.20 KCAL/MOL
REMARK 924 INTRA-LIGAND FREE ENERGY PREDICTED BY IDOCK:    0.33 KCAL/MOL
REMARK 927      BINDING AFFINITY PREDICTED BY RF-SCORE:    0.00 PKD
ROOT
HETATM    1  C   UNL     1     -10.426   4.975  66.154  1.00  0.00    -0.334 C  
HETATM    2  C   UNL     1     -11.036   6.213  66.796  1.00  0.00    -0.152 C  
ENDROOT
BRANCH   2   3
HETATM    3  N   UNL     1     -10.061   7.307  66.859  1.00  0.00    -0.234 NA 
HETATM    4  C   UNL     1      -9.393   7.782  65.743  1.00  0.00     0.136 C  
HETATM    5  C   UNL     1      -8.496   8.779  65.728  1.00  0.00    -0.161 C  
HETATM    6  C   UNL     1      -7.857   9.168  64.455  1.00  0.00    -0.125 C  
HETATM    7  C   UNL     1      -8.204   9.422  67.025  1.00  0.00    -0.116 C  
HETATM    8  C   UNL     1      -8.910   8.936  68.229  1.00  0.00    -0.134 A  
HETATM    9  O   UNL     1      -7.388  10.340  67.087  1.00  0.00    -0.089 OA 
HETATM   10  O   UNL     1      -8.102   8.624  63.388  1.00  0.00    -0.157 OA 
HETATM   11  O   UNL     1      -6.968  10.180  64.558  1.00  0.00    -0.135 OA 
HETATM   12  C   UNL     1      -8.641   9.511  69.465  1.00  0.00    -0.171 A  
HETATM   13  C   UNL     1      -9.312   9.022  70.571  1.00  0.00    -0.219 A  
HETATM   14  F   UNL     1      -9.068   9.591  71.763  1.00  0.00    -0.061 F  
HETATM   15  C   UNL     1     -10.257   7.992  70.441  1.00  0.00    -0.201 A  
HETATM   16  C   UNL     1      -9.844   7.897  68.127  1.00  0.00    -0.169 A  
HETATM   17  N   UNL     1     -10.520   7.453  69.221  1.00  0.00    -0.217 NA 
BRANCH  15  18
HETATM   18  N   UNL     1     -10.957   7.538  71.546  1.00  0.00    -0.228 NA 
HETATM   19  C   UNL     1     -11.465   6.163  71.586  1.00  0.00    -0.272 C  
HETATM   20  C   UNL     1     -10.719   5.292  72.618  1.00  0.00    -0.239 C  
HETATM   21  N   UNL     1     -10.638   5.911  73.956  1.00  0.00    -0.353 NA 
HETATM   22  H   UNL     1     -10.166   5.314  74.634  1.00  0.00     0.000 HD 
HETATM   23  C   UNL     1      -9.999   7.232  73.828  1.00  0.00    -0.322 C  
HETATM   24  C   UNL     1     -10.731   8.181  72.848  1.00  0.00    -0.247 C  
ENDBRANCH  15  18
ENDBRANCH   2   3
TORSDOF 2
ENDMDL
MODEL      149
REMARK 921   NORMALIZED FREE ENERGY PREDICTED BY IDOCK:   -3.03 KCAL/MOL
REMARK 922        TOTAL FREE ENERGY PREDICTED BY IDOCK:   -3.85 KCAL/MOL
REMARK 923 INTER-LIGAND FREE ENERGY PREDICTED BY IDOCK:   -3.66 KCAL/MOL
REMARK 924 INTRA-LIGAND FREE ENERGY PREDICTED BY IDOCK:   -0.18 KCAL/MOL
REMARK 927      BINDING AFFINITY PREDICTED BY RF-SCORE:    0.00 PKD
ROOT
HETATM    1  C   UNL     1     -10.072   8.728  72.427  1.00  0.00    -0.222 C  
HETATM    2  C   UNL     1      -9.113   8.607  71.251  1.00  0.00    -0.212 C  
ENDROOT
BRANCH   2   3
HETATM    3  N   UNL     1      -9.165   7.261  70.669  1.00  0.00    -0.157 NA 
HETATM    4  C   UNL     1      -9.503   6.137  71.403  1.00  0.00    -0.156 C  
HETATM    5  C   UNL     1      -9.574   4.883  70.935  1.00  0.00    -0.241 C  
HETATM    6  C   UNL     1      -9.940   3.781  71.848  1.00  0.00    -0.160 C  
HETATM    7  C   UNL     1      -9.263   4.696  69.503  1.00  0.00    -0.122 C  
HETATM    8  C   UNL     1      -8.907   5.881  68.697  1.00  0.00    -0.111 A  
HETATM    9  O   UNL     1      -9.303   3.571  69.007  1.00  0.00    -0.151 OA 
HETATM   10  O   UNL     1     -10.189   3.948  73.033  1.00  0.00    -0.146 OA 
HETATM   11  O   UNL     1      -9.977   2.561  71.270  1.00  0.00    -0.122 OA 
HETATM   12  C   UNL     1      -8.593   5.732  67.352  1.00  0.00    -0.105 A  
HETATM   13  C   UNL     1      -8.252   6.863  66.632  1.00  0.00    -0.115 A  
HETATM   14  F   UNL     1      -7.967   6.722  65.327  1.00  0.00    -0.098 F  
HETATM   15  C   UNL     1      -8.250   8.128  67.241  1.00  0.00    -0.121 A  
HETATM   16  C   UNL     1      -8.880   7.152  69.286  1.00  0.00    -0.136 A  
HETATM   17  N   UNL     1      -8.576   8.258  68.554  1.00  0.00    -0.133 NA 
BRANCH  15  18
HETATM   18  N   UNL     1      -7.952   9.261  66.503  1.00  0.00    -0.103 NA 
HETATM   19  C   UNL     1      -8.619   9.505  65.221  1.00  0.00    -0.157 C  
HETATM   20  C   UNL     1      -9.597  10.697  65.285  1.00  0.00    -0.241 C  
HETATM   21  N   UNL     1      -8.993  11.917  65.857  1.00  0.00    -0.398 NA 
HETATM   22  H   UNL     1      -9.642  12.704  65.869  1.00  0.00     0.000 HD 
HETATM   23  C   UNL     1      -8.466  11.601  67.196  1.00  0.00    -0.162 C  
HETATM   24  C   UNL     1      -7.432  10.449  67.197  1.00  0.00    -0.092 C  
ENDBRANCH  15  18
ENDBRANCH   2   3
TORSDOF 2
ENDMDL
MODEL      150
REMARK 921   NORMALIZED FREE ENERGY PREDICTED BY IDOCK:   -3.01 KCAL/MOL
REMARK 922        TOTAL FREE ENERGY PREDICTED BY IDOCK:   -3.82 KCAL/MOL
REMARK 923 INTER-LIGAND FREE ENERGY PREDICTED BY IDOCK:   -4.03 KCAL/MOL
REMARK 924 INTRA-LIGAND FREE ENERGY PREDICTED BY IDOCK:    0.21 KCAL/MOL
REMARK 927      BINDING AFFINITY PREDICTED BY RF-SCORE:    0.00 PKD
ROOT
HETATM    1  C   UNL     1     -11.826   9.124  71.045  1.00  0.00    -0.354 C  
HETATM    2  C   UNL     1     -11.292  10.538  70.871  1.00  0.00    -0.115 C  
ENDROOT
BRANCH   2   3
HETATM    3  N   UNL     1     -10.848  10.765  69.491  1.00  0.00    -0.238 NA 
HETATM    4  C   UNL     1     -11.327  11.803  68.708  1.00  0.00    -0.267 C  
HETATM    5  C   UNL     1     -10.961  12.070  67.447  1.00  0.00    -0.311 C  
HETATM    6  C   UNL     1     -11.571  13.212  66.735  1.00  0.00    -0.366 C  
HETATM    7  C   UNL     1      -9.955  11.170  66.847  1.00  0.00    -0.198 C  
HETATM    8  C   UNL     1      -9.424  10.060  67.665  1.00  0.00    -0.163 A  
HETATM    9  O   UNL     1      -9.577  11.352  65.691  1.00  0.00    -0.219 OA 
HETATM   10  O   UNL     1     -12.408  13.946  67.240  1.00  0.00    -0.347 OA 
HETATM   11  O   UNL     1     -11.132  13.385  65.470  1.00  0.00    -0.282 OA 
HETATM   12  C   UNL     1      -8.490   9.188  67.120  1.00  0.00    -0.120 A  
HETATM   13  C   UNL     1      -8.025   8.153  67.912  1.00  0.00    -0.127 A  
HETATM   14  F   UNL     1      -7.107   7.321  67.393  1.00  0.00    -0.075 F  
HETATM   15  C   UNL     1      -8.468   8.006  69.236  1.00  0.00    -0.136 A  
HETATM   16  C   UNL     1      -9.864   9.883  68.983  1.00  0.00    -0.190 A  
HETATM   17  N   UNL     1      -9.369   8.880  69.758  1.00  0.00    -0.161 NA 
BRANCH  15  18
HETATM   18  N   UNL     1      -7.964   6.996  70.037  1.00  0.00    -0.113 NA 
HETATM   19  C   UNL     1      -8.399   5.609  69.840  1.00  0.00    -0.117 C  
HETATM   20  C   UNL     1      -7.278   4.716  69.270  1.00  0.00    -0.052 C  
HETATM   21  N   UNL     1      -6.013   4.816  70.024  1.00  0.00    -0.020 NA 
HETATM   22  H   UNL     1      -5.288   4.201  69.653  1.00  0.00     0.000 HD 
HETATM   23  C   UNL     1      -5.591   6.227  70.056  1.00  0.00    -0.014 C  
HETATM   24  C   UNL     1      -6.650   7.174  70.671  1.00  0.00    -0.048 C  
ENDBRANCH  15  18
ENDBRANCH   2   3
TORSDOF 2
ENDMDL
MODEL      151
REMARK 921   NORMALIZED FREE ENERGY PREDICTED BY IDOCK:   -2.95 KCAL/MOL
REMARK 922        TOTAL FREE ENERGY PREDICTED BY IDOCK:   -3.76 KCAL/MOL
REMARK 923 INTER-LIGAND FREE ENERGY PREDICTED BY IDOCK:   -3.30 KCAL/MOL
REMARK 924 INTRA-LIGAND FREE ENERGY PREDICTED BY IDOCK:   -0.46 KCAL/MOL
REMARK 927      BINDING AFFINITY PREDICTED BY RF-SCORE:    0.00 PKD
ROOT
HETATM    1  C   UNL     1     -12.100   8.675  71.861  1.00  0.00    -0.422 C  
HETATM    2  C   UNL     1     -10.665   8.727  71.356  1.00  0.00    -0.286 C  
ENDROOT
BRANCH   2   3
HETATM    3  N   UNL     1     -10.129   7.376  71.157  1.00  0.00    -0.186 NA 
HETATM    4  C   UNL     1     -10.538   6.287  71.909  1.00  0.00    -0.219 C  
HETATM    5  C   UNL     1     -10.095   5.029  71.776  1.00  0.00    -0.262 C  
HETATM    6  C   UNL     1     -10.621   3.972  72.664  1.00  0.00    -0.108 C  
HETATM    7  C   UNL     1      -9.081   4.794  70.729  1.00  0.00    -0.130 C  
HETATM    8  C   UNL     1      -8.634   5.939  69.909  1.00  0.00    -0.129 A  
HETATM    9  O   UNL     1      -8.626   3.665  70.555  1.00  0.00    -0.066 OA 
HETATM   10  O   UNL     1     -11.456   4.180  73.532  1.00  0.00    -0.256 OA 
HETATM   11  O   UNL     1     -10.102   2.744  72.445  1.00  0.00    -0.156 OA 
HETATM   12  C   UNL     1      -7.668   5.750  68.928  1.00  0.00    -0.090 A  
HETATM   13  C   UNL     1      -7.266   6.847  68.189  1.00  0.00    -0.091 A  
HETATM   14  F   UNL     1      -6.346   6.662  67.227  1.00  0.00    -0.031 F  
HETATM   15  C   UNL     1      -7.839   8.110  68.408  1.00  0.00    -0.118 A  
HETATM   16  C   UNL     1      -9.178   7.213  70.121  1.00  0.00    -0.155 A  
HETATM   17  N   UNL     1      -8.795   8.273  69.360  1.00  0.00    -0.145 NA 
BRANCH  15  18
HETATM   18  N   UNL     1      -7.464   9.195  67.633  1.00  0.00    -0.084 NA 
HETATM   19  C   UNL     1      -6.161   9.836  67.839  1.00  0.00    -0.052 C  
HETATM   20  C   UNL     1      -5.195   9.593  66.661  1.00  0.00    -0.044 C  
HETATM   21  N   UNL     1      -5.787   9.910  65.346  1.00  0.00    -0.069 NA 
HETATM   22  H   UNL     1      -5.129   9.770  64.579  1.00  0.00     0.000 HD 
HETATM   23  C   UNL     1      -7.020   9.122  65.180  1.00  0.00    -0.087 C  
HETATM   24  C   UNL     1      -8.061   9.361  66.300  1.00  0.00    -0.111 C  
ENDBRANCH  15  18
ENDBRANCH   2   3
TORSDOF 2
ENDMDL
MODEL      152
REMARK 921   NORMALIZED FREE ENERGY PREDICTED BY IDOCK:   -2.87 KCAL/MOL
REMARK 922        TOTAL FREE ENERGY PREDICTED BY IDOCK:   -3.67 KCAL/MOL
REMARK 923 INTER-LIGAND FREE ENERGY PREDICTED BY IDOCK:   -3.21 KCAL/MOL
REMARK 924 INTRA-LIGAND FREE ENERGY PREDICTED BY IDOCK:   -0.46 KCAL/MOL
REMARK 927      BINDING AFFINITY PREDICTED BY RF-SCORE:    0.00 PKD
ROOT
HETATM    1  C   UNL     1      -9.517  10.600  63.198  1.00  0.00    -0.360 C  
HETATM    2  C   UNL     1      -9.225   9.401  64.088  1.00  0.00     0.018 C  
ENDROOT
BRANCH   2   3
HETATM    3  N   UNL     1      -8.981   9.823  65.472  1.00  0.00    -0.164 NA 
HETATM    4  C   UNL     1      -9.027  11.147  65.874  1.00  0.00    -0.199 C  
HETATM    5  C   UNL     1      -8.820  11.600  67.118  1.00  0.00    -0.172 C  
HETATM    6  C   UNL     1      -8.893  13.050  67.391  1.00  0.00    -0.203 C  
HETATM    7  C   UNL     1      -8.518  10.584  68.147  1.00  0.00    -0.123 C  
HETATM    8  C   UNL     1      -8.470   9.164  67.745  1.00  0.00    -0.117 A  
HETATM    9  O   UNL     1      -8.312  10.928  69.310  1.00  0.00    -0.117 OA 
HETATM   10  O   UNL     1      -9.138  13.882  66.529  1.00  0.00    -0.231 OA 
HETATM   11  O   UNL     1      -8.664  13.393  68.677  1.00  0.00    -0.110 OA 
HETATM   12  C   UNL     1      -8.172   8.189  68.689  1.00  0.00    -0.125 A  
HETATM   13  C   UNL     1      -8.124   6.871  68.272  1.00  0.00    -0.119 A  
HETATM   14  F   UNL     1      -7.854   5.926  69.188  1.00  0.00    -0.087 F  
HETATM   15  C   UNL     1      -8.396   6.529  66.938  1.00  0.00    -0.113 A  
HETATM   16  C   UNL     1      -8.721   8.799  66.415  1.00  0.00    -0.139 A  
HETATM   17  N   UNL     1      -8.704   7.494  66.031  1.00  0.00    -0.157 NA 
BRANCH  15  18
HETATM   18  N   UNL     1      -8.391   5.203  66.538  1.00  0.00    -0.108 NA 
HETATM   19  C   UNL     1      -7.122   4.492  66.350  1.00  0.00    -0.075 C  
HETATM   20  C   UNL     1      -6.892   3.407  67.422  1.00  0.00    -0.046 C  
HETATM   21  N   UNL     1      -8.041   2.494  67.583  1.00  0.00    -0.067 NA 
HETATM   22  H   UNL     1      -7.866   1.765  68.276  1.00  0.00     0.000 HD 
HETATM   23  C   UNL     1      -9.239   3.291  67.896  1.00  0.00    -0.195 C  
HETATM   24  C   UNL     1      -9.563   4.365  66.829  1.00  0.00    -0.199 C  
ENDBRANCH  15  18
ENDBRANCH   2   3
TORSDOF 2
ENDMDL
MODEL      153
REMARK 921   NORMALIZED FREE ENERGY PREDICTED BY IDOCK:   -2.85 KCAL/MOL
REMARK 922        TOTAL FREE ENERGY PREDICTED BY IDOCK:   -3.64 KCAL/MOL
REMARK 923 INTER-LIGAND FREE ENERGY PREDICTED BY IDOCK:   -3.17 KCAL/MOL
REMARK 924 INTRA-LIGAND FREE ENERGY PREDICTED BY IDOCK:   -0.47 KCAL/MOL
REMARK 927      BINDING AFFINITY PREDICTED BY RF-SCORE:    0.00 PKD
ROOT
HETATM    1  C   UNL     1      -7.960  10.722  65.665  1.00  0.00    -0.095 C  
HETATM    2  C   UNL     1      -8.021   9.376  66.372  1.00  0.00    -0.108 C  
ENDROOT
BRANCH   2   3
HETATM    3  N   UNL     1      -7.633   9.504  67.781  1.00  0.00    -0.087 NA 
HETATM    4  C   UNL     1      -7.078  10.659  68.305  1.00  0.00    -0.081 C  
HETATM    5  C   UNL     1      -6.707  10.846  69.580  1.00  0.00    -0.117 C  
HETATM    6  C   UNL     1      -6.117  12.137  69.988  1.00  0.00    -0.138 C  
HETATM    7  C   UNL     1      -6.916   9.709  70.499  1.00  0.00    -0.130 C  
HETATM    8  C   UNL     1      -7.513   8.468  69.965  1.00  0.00    -0.060 A  
HETATM    9  O   UNL     1      -6.594   9.808  71.682  1.00  0.00    -0.306 OA 
HETATM   10  O   UNL     1      -5.944  13.068  69.216  1.00  0.00    -0.080 OA 
HETATM   11  O   UNL     1      -5.777  12.212  71.293  1.00  0.00    -0.381 OA 
HETATM   12  C   UNL     1      -7.705   7.378  70.804  1.00  0.00    -0.088 A  
HETATM   13  C   UNL     1      -8.255   6.229  70.265  1.00  0.00    -0.125 A  
HETATM   14  F   UNL     1      -8.459   5.181  71.081  1.00  0.00    -0.111 F  
HETATM   15  C   UNL     1      -8.633   6.179  68.914  1.00  0.00    -0.121 A  
HETATM   16  C   UNL     1      -7.882   8.388  68.616  1.00  0.00    -0.116 A  
HETATM   17  N   UNL     1      -8.454   7.262  68.112  1.00  0.00    -0.123 NA 
BRANCH  15  18
HETATM   18  N   UNL     1      -9.225   5.041  68.393  1.00  0.00    -0.115 NA 
HETATM   19  C   UNL     1     -10.590   5.096  67.861  1.00  0.00     0.047 C  
HETATM   20  C   UNL     1     -10.631   4.930  66.328  1.00  0.00    -0.255 C  
HETATM   21  N   UNL     1      -9.877   3.756  65.847  1.00  0.00    -0.379 NA 
HETATM   22  H   UNL     1      -9.934   3.643  64.835  1.00  0.00     0.000 HD 
HETATM   23  C   UNL     1      -8.487   3.858  66.325  1.00  0.00    -0.109 C  
HETATM   24  C   UNL     1      -8.370   3.969  67.864  1.00  0.00    -0.093 C  
ENDBRANCH  15  18
ENDBRANCH   2   3
TORSDOF 2
ENDMDL
MODEL      154
REMARK 921   NORMALIZED FREE ENERGY PREDICTED BY IDOCK:   -2.80 KCAL/MOL
REMARK 922        TOTAL FREE ENERGY PREDICTED BY IDOCK:   -3.59 KCAL/MOL
REMARK 923 INTER-LIGAND FREE ENERGY PREDICTED BY IDOCK:   -3.12 KCAL/MOL
REMARK 924 INTRA-LIGAND FREE ENERGY PREDICTED BY IDOCK:   -0.47 KCAL/MOL
REMARK 927      BINDING AFFINITY PREDICTED BY RF-SCORE:    0.00 PKD
ROOT
HETATM    1  C   UNL     1      -9.446   9.543  65.920  1.00  0.00    -0.307 C  
HETATM    2  C   UNL     1     -10.032   8.173  66.232  1.00  0.00    -0.077 C  
ENDROOT
BRANCH   2   3
HETATM    3  N   UNL     1     -10.004   7.907  67.674  1.00  0.00    -0.168 NA 
HETATM    4  C   UNL     1     -10.650   8.709  68.599  1.00  0.00    -0.129 C  
HETATM    5  C   UNL     1     -10.670   8.521  69.926  1.00  0.00    -0.224 C  
HETATM    6  C   UNL     1     -11.398   9.474  70.789  1.00  0.00    -0.321 C  
HETATM    7  C   UNL     1      -9.934   7.346  70.436  1.00  0.00    -0.188 C  
HETATM    8  C   UNL     1      -9.243   6.471  69.468  1.00  0.00    -0.142 A  
HETATM    9  O   UNL     1      -9.905   7.115  71.644  1.00  0.00    -0.164 OA 
HETATM   10  O   UNL     1     -11.999  10.446  70.356  1.00  0.00    -0.275 OA 
HETATM   11  O   UNL     1     -11.348   9.189  72.108  1.00  0.00    -0.330 OA 
HETATM   12  C   UNL     1      -8.528   5.369  69.922  1.00  0.00    -0.103 A  
HETATM   13  C   UNL     1      -7.884   4.580  68.987  1.00  0.00    -0.070 A  
HETATM   14  F   UNL     1      -7.209   3.503  69.423  1.00  0.00    -0.046 F  
HETATM   15  C   UNL     1      -7.973   4.872  67.616  1.00  0.00    -0.094 A  
HETATM   16  C   UNL     1      -9.302   6.752  68.096  1.00  0.00    -0.122 A  
HETATM   17  N   UNL     1      -8.691   5.944  67.189  1.00  0.00    -0.109 NA 
BRANCH  15  18
HETATM   18  N   UNL     1      -7.363   4.051  66.683  1.00  0.00    -0.071 NA 
HETATM   19  C   UNL     1      -5.925   4.172  66.419  1.00  0.00    -0.027 C  
HETATM   20  C   UNL     1      -5.130   2.952  66.927  1.00  0.00    -0.004 C  
HETATM   21  N   UNL     1      -5.688   1.662  66.476  1.00  0.00    -0.017 NA 
HETATM   22  H   UNL     1      -5.137   0.865  66.797  1.00  0.00     0.000 HD 
HETATM   23  C   UNL     1      -7.096   1.581  66.899  1.00  0.00    -0.046 C  
HETATM   24  C   UNL     1      -7.968   2.747  66.374  1.00  0.00    -0.081 C  
ENDBRANCH  15  18
ENDBRANCH   2   3
TORSDOF 2
ENDMDL
MODEL      155
REMARK 921   NORMALIZED FREE ENERGY PREDICTED BY IDOCK:   -2.77 KCAL/MOL
REMARK 922        TOTAL FREE ENERGY PREDICTED BY IDOCK:   -3.55 KCAL/MOL
REMARK 923 INTER-LIGAND FREE ENERGY PREDICTED BY IDOCK:   -3.93 KCAL/MOL
REMARK 924 INTRA-LIGAND FREE ENERGY PREDICTED BY IDOCK:    0.38 KCAL/MOL
REMARK 927      BINDING AFFINITY PREDICTED BY RF-SCORE:    0.00 PKD
ROOT
HETATM    1  C   UNL     1     -10.578   5.528  66.717  1.00  0.00    -0.360 C  
HETATM    2  C   UNL     1     -10.941   6.931  67.179  1.00  0.00    -0.357 C  
ENDROOT
BRANCH   2   3
HETATM    3  N   UNL     1      -9.883   7.888  66.836  1.00  0.00    -0.216 NA 
HETATM    4  C   UNL     1      -8.786   7.549  66.062  1.00  0.00    -0.158 C  
HETATM    5  C   UNL     1      -7.788   8.371  65.708  1.00  0.00    -0.101 C  
HETATM    6  C   UNL     1      -6.675   7.858  64.884  1.00  0.00    -0.051 C  
HETATM    7  C   UNL     1      -7.880   9.764  66.191  1.00  0.00    -0.107 C  
HETATM    8  C   UNL     1      -9.045  10.152  67.011  1.00  0.00    -0.155 A  
HETATM    9  O   UNL     1      -6.998  10.573  65.908  1.00  0.00    -0.125 OA 
HETATM   10  O   UNL     1      -6.607   6.701  64.496  1.00  0.00    -0.040 OA 
HETATM   11  O   UNL     1      -5.725   8.772  64.590  1.00  0.00    -0.061 OA 
HETATM   12  C   UNL     1      -9.149  11.451  67.493  1.00  0.00    -0.157 A  
HETATM   13  C   UNL     1     -10.247  11.774  68.269  1.00  0.00    -0.205 A  
HETATM   14  F   UNL     1     -10.357  13.035  68.718  1.00  0.00    -0.235 F  
HETATM   15  C   UNL     1     -11.242  10.820  68.538  1.00  0.00    -0.279 A  
HETATM   16  C   UNL     1     -10.042   9.213  67.308  1.00  0.00    -0.233 A  
HETATM   17  N   UNL     1     -11.133   9.558  68.044  1.00  0.00    -0.093 NA 
BRANCH  15  18
HETATM   18  N   UNL     1     -12.361  11.163  69.277  1.00  0.00    -0.390 NA 
HETATM   19  C   UNL     1     -12.970  10.192  70.191  1.00  0.00     0.166 C  
HETATM   20  C   UNL     1     -12.777  10.578  71.672  1.00  0.00    -0.445 C  
HETATM   21  N   UNL     1     -13.174  11.969  71.969  1.00  0.00    -0.465 NA 
HETATM   22  H   UNL     1     -13.067  12.203  72.956  1.00  0.00     0.000 HD 
HETATM   23  C   UNL     1     -12.416  12.875  71.089  1.00  0.00    -0.249 C  
HETATM   24  C   UNL     1     -12.609  12.579  69.582  1.00  0.00     0.384 C  
ENDBRANCH  15  18
ENDBRANCH   2   3
TORSDOF 2
ENDMDL
MODEL      156
REMARK 921   NORMALIZED FREE ENERGY PREDICTED BY IDOCK:   -2.77 KCAL/MOL
REMARK 922        TOTAL FREE ENERGY PREDICTED BY IDOCK:   -3.55 KCAL/MOL
REMARK 923 INTER-LIGAND FREE ENERGY PREDICTED BY IDOCK:   -3.07 KCAL/MOL
REMARK 924 INTRA-LIGAND FREE ENERGY PREDICTED BY IDOCK:   -0.48 KCAL/MOL
REMARK 927      BINDING AFFINITY PREDICTED BY RF-SCORE:    0.00 PKD
ROOT
HETATM    1  C   UNL     1     -10.014   9.964  68.334  1.00  0.00    -0.177 C  
HETATM    2  C   UNL     1      -9.630   8.818  67.409  1.00  0.00    -0.161 C  
ENDROOT
BRANCH   2   3
HETATM    3  N   UNL     1      -9.694   7.532  68.113  1.00  0.00    -0.151 NA 
HETATM    4  C   UNL     1     -10.350   7.369  69.321  1.00  0.00    -0.204 C  
HETATM    5  C   UNL     1     -10.452   6.225  70.013  1.00  0.00    -0.274 C  
HETATM    6  C   UNL     1     -11.178   6.210  71.299  1.00  0.00    -0.287 C  
HETATM    7  C   UNL     1      -9.803   5.037  69.421  1.00  0.00    -0.203 C  
HETATM    8  C   UNL     1      -9.104   5.185  68.128  1.00  0.00    -0.125 A  
HETATM    9  O   UNL     1      -9.852   3.955  70.003  1.00  0.00    -0.199 OA 
HETATM   10  O   UNL     1     -11.705   7.201  71.782  1.00  0.00    -0.267 OA 
HETATM   11  O   UNL     1     -11.214   5.007  71.911  1.00  0.00     0.002 OA 
HETATM   12  C   UNL     1      -8.470   4.088  67.557  1.00  0.00    -0.103 A  
HETATM   13  C   UNL     1      -7.815   4.268  66.352  1.00  0.00    -0.094 A  
HETATM   14  F   UNL     1      -7.219   3.203  65.790  1.00  0.00    -0.063 F  
HETATM   15  C   UNL     1      -7.815   5.518  65.714  1.00  0.00    -0.104 A  
HETATM   16  C   UNL     1      -9.074   6.427  67.481  1.00  0.00    -0.114 A  
HETATM   17  N   UNL     1      -8.455   6.576  66.279  1.00  0.00    -0.123 NA 
BRANCH  15  18
HETATM   18  N   UNL     1      -7.196   5.679  64.486  1.00  0.00    -0.056 NA 
HETATM   19  C   UNL     1      -7.989   5.688  63.254  1.00  0.00    -0.101 C  
HETATM   20  C   UNL     1      -8.031   7.081  62.591  1.00  0.00    -0.116 C  
HETATM   21  N   UNL     1      -6.695   7.684  62.415  1.00  0.00    -0.075 NA 
HETATM   22  H   UNL     1      -6.735   8.592  61.953  1.00  0.00     0.000 HD 
HETATM   23  C   UNL     1      -6.029   7.749  63.727  1.00  0.00    -0.057 C  
HETATM   24  C   UNL     1      -5.901   6.373  64.425  1.00  0.00    -0.023 C  
ENDBRANCH  15  18
ENDBRANCH   2   3
TORSDOF 2
ENDMDL
MODEL      157
REMARK 921   NORMALIZED FREE ENERGY PREDICTED BY IDOCK:   -2.72 KCAL/MOL
REMARK 922        TOTAL FREE ENERGY PREDICTED BY IDOCK:   -3.50 KCAL/MOL
REMARK 923 INTER-LIGAND FREE ENERGY PREDICTED BY IDOCK:   -3.91 KCAL/MOL
REMARK 924 INTRA-LIGAND FREE ENERGY PREDICTED BY IDOCK:    0.41 KCAL/MOL
REMARK 927      BINDING AFFINITY PREDICTED BY RF-SCORE:    0.00 PKD
ROOT
HETATM    1  C   UNL     1     -10.952  15.695  64.590  1.00  0.00    -0.344 C  
HETATM    2  C   UNL     1     -11.050  15.365  66.072  1.00  0.00    -0.233 C  
ENDROOT
BRANCH   2   3
HETATM    3  N   UNL     1     -10.042  14.370  66.455  1.00  0.00    -0.268 NA 
HETATM    4  C   UNL     1     -10.230  13.008  66.293  1.00  0.00    -0.288 C  
HETATM    5  C   UNL     1      -9.352  12.048  66.616  1.00  0.00    -0.221 C  
HETATM    6  C   UNL     1      -9.703  10.631  66.392  1.00  0.00    -0.196 C  
HETATM    7  C   UNL     1      -8.069  12.496  67.195  1.00  0.00    -0.156 C  
HETATM    8  C   UNL     1      -7.842  13.945  67.371  1.00  0.00    -0.177 A  
HETATM    9  O   UNL     1      -7.218  11.670  67.520  1.00  0.00    -0.102 OA 
HETATM   10  O   UNL     1     -10.771  10.272  65.918  1.00  0.00    -0.071 OA 
HETATM   11  O   UNL     1      -8.746   9.750  66.757  1.00  0.00    -0.130 OA 
HETATM   12  C   UNL     1      -6.651  14.394  67.929  1.00  0.00    -0.179 A  
HETATM   13  C   UNL     1      -6.479  15.757  68.090  1.00  0.00    -0.130 A  
HETATM   14  F   UNL     1      -5.321  16.192  68.612  1.00  0.00    -0.096 F  
HETATM   15  C   UNL     1      -7.471  16.660  67.676  1.00  0.00    -0.150 A  
HETATM   16  C   UNL     1      -8.824  14.865  66.981  1.00  0.00    -0.232 A  
HETATM   17  N   UNL     1      -8.623  16.204  67.115  1.00  0.00    -0.176 NA 
BRANCH  15  18
HETATM   18  N   UNL     1      -7.273  18.024  67.798  1.00  0.00    -0.208 NA 
HETATM   19  C   UNL     1      -8.379  18.900  68.198  1.00  0.00    -0.309 C  
HETATM   20  C   UNL     1      -8.184  19.486  69.611  1.00  0.00     0.401 C  
HETATM   21  N   UNL     1      -6.861  20.112  69.806  1.00  0.00    -0.210 NA 
HETATM   22  H   UNL     1      -6.755  20.519  70.735  1.00  0.00     0.000 HD 
HETATM   23  C   UNL     1      -5.818  19.117  69.504  1.00  0.00    -0.245 C  
HETATM   24  C   UNL     1      -5.920  18.528  68.076  1.00  0.00    -0.188 C  
ENDBRANCH  15  18
ENDBRANCH   2   3
TORSDOF 2
ENDMDL
MODEL      158
REMARK 921   NORMALIZED FREE ENERGY PREDICTED BY IDOCK:   -2.64 KCAL/MOL
REMARK 922        TOTAL FREE ENERGY PREDICTED BY IDOCK:   -3.42 KCAL/MOL
REMARK 923 INTER-LIGAND FREE ENERGY PREDICTED BY IDOCK:   -2.96 KCAL/MOL
REMARK 924 INTRA-LIGAND FREE ENERGY PREDICTED BY IDOCK:   -0.45 KCAL/MOL
REMARK 927      BINDING AFFINITY PREDICTED BY RF-SCORE:    0.00 PKD
ROOT
HETATM    1  C   UNL     1      -9.552   7.933  73.369  1.00  0.00    -0.331 C  
HETATM    2  C   UNL     1      -8.811   7.814  72.045  1.00  0.00    -0.130 C  
ENDROOT
BRANCH   2   3
HETATM    3  N   UNL     1      -8.724   6.414  71.616  1.00  0.00    -0.133 NA 
HETATM    4  C   UNL     1      -8.478   5.373  72.496  1.00  0.00    -0.118 C  
HETATM    5  C   UNL     1      -8.391   4.074  72.173  1.00  0.00    -0.101 C  
HETATM    6  C   UNL     1      -8.113   3.077  73.226  1.00  0.00    -0.072 C  
HETATM    7  C   UNL     1      -8.578   3.735  70.748  1.00  0.00    -0.071 C  
HETATM    8  C   UNL     1      -8.849   4.828  69.792  1.00  0.00    -0.128 A  
HETATM    9  O   UNL     1      -8.507   2.564  70.379  1.00  0.00    -0.048 OA 
HETATM   10  O   UNL     1      -7.953   3.370  74.402  1.00  0.00    -0.068 OA 
HETATM   11  O   UNL     1      -8.043   1.801  72.788  1.00  0.00    -0.051 OA 
HETATM   12  C   UNL     1      -9.012   4.540  68.442  1.00  0.00    -0.143 A  
HETATM   13  C   UNL     1      -9.251   5.590  67.575  1.00  0.00    -0.110 A  
HETATM   14  F   UNL     1      -9.428   5.310  66.273  1.00  0.00    -0.136 F  
HETATM   15  C   UNL     1      -9.352   6.907  68.052  1.00  0.00    -0.123 A  
HETATM   16  C   UNL     1      -8.937   6.153  70.241  1.00  0.00    -0.153 A  
HETATM   17  N   UNL     1      -9.208   7.169  69.378  1.00  0.00    -0.148 NA 
BRANCH  15  18
HETATM   18  N   UNL     1      -9.637   7.948  67.185  1.00  0.00    -0.159 NA 
HETATM   19  C   UNL     1     -10.733   8.877  67.479  1.00  0.00    -0.152 C  
HETATM   20  C   UNL     1     -10.225  10.288  67.840  1.00  0.00    -0.183 C  
HETATM   21  N   UNL     1      -9.264  10.831  66.860  1.00  0.00    -0.155 NA 
HETATM   22  H   UNL     1      -8.957  11.774  67.096  1.00  0.00     0.000 HD 
HETATM   23  C   UNL     1      -8.139   9.889  66.730  1.00  0.00    -0.117 C  
HETATM   24  C   UNL     1      -8.572   8.463  66.312  1.00  0.00    -0.135 C  
ENDBRANCH  15  18
ENDBRANCH   2   3
TORSDOF 2
ENDMDL
MODEL      159
REMARK 921   NORMALIZED FREE ENERGY PREDICTED BY IDOCK:   -2.46 KCAL/MOL
REMARK 922        TOTAL FREE ENERGY PREDICTED BY IDOCK:   -3.21 KCAL/MOL
REMARK 923 INTER-LIGAND FREE ENERGY PREDICTED BY IDOCK:   -2.74 KCAL/MOL
REMARK 924 INTRA-LIGAND FREE ENERGY PREDICTED BY IDOCK:   -0.48 KCAL/MOL
REMARK 927      BINDING AFFINITY PREDICTED BY RF-SCORE:    0.00 PKD
ROOT
HETATM    1  C   UNL     1      -6.529   7.680  71.390  1.00  0.00    -0.038 C  
HETATM    2  C   UNL     1      -6.488   7.687  69.869  1.00  0.00    -0.034 C  
ENDROOT
BRANCH   2   3
HETATM    3  N   UNL     1      -6.784   9.023  69.342  1.00  0.00    -0.048 NA 
HETATM    4  C   UNL     1      -6.373  10.187  69.970  1.00  0.00    -0.088 C  
HETATM    5  C   UNL     1      -6.605  11.436  69.542  1.00  0.00    -0.129 C  
HETATM    6  C   UNL     1      -6.109  12.583  70.330  1.00  0.00    -0.066 C  
HETATM    7  C   UNL     1      -7.366  11.571  68.283  1.00  0.00    -0.091 C  
HETATM    8  C   UNL     1      -7.808  10.343  67.590  1.00  0.00    -0.105 A  
HETATM    9  O   UNL     1      -7.619  12.687  67.833  1.00  0.00    -0.107 OA 
HETATM   10  O   UNL     1      -5.486  12.458  71.374  1.00  0.00    -0.360 OA 
HETATM   11  O   UNL     1      -6.402  13.793  69.807  1.00  0.00    -0.126 OA 
HETATM   12  C   UNL     1      -8.541  10.441  66.414  1.00  0.00    -0.137 A  
HETATM   13  C   UNL     1      -8.949   9.270  65.800  1.00  0.00    -0.192 A  
HETATM   14  F   UNL     1      -9.640   9.364  64.652  1.00  0.00    -0.299 F  
HETATM   15  C   UNL     1      -8.608   8.020  66.340  1.00  0.00    -0.145 A  
HETATM   16  C   UNL     1      -7.495   9.084  68.119  1.00  0.00    -0.084 A  
HETATM   17  N   UNL     1      -7.875   7.943  67.483  1.00  0.00    -0.120 NA 
BRANCH  15  18
HETATM   18  N   UNL     1      -8.980   6.853  65.696  1.00  0.00    -0.019 NA 
HETATM   19  C   UNL     1      -8.108   6.259  64.678  1.00  0.00    -0.115 C  
HETATM   20  C   UNL     1      -7.476   4.932  65.147  1.00  0.00    -0.076 C  
HETATM   21  N   UNL     1      -8.462   3.973  65.684  1.00  0.00    -0.109 NA 
HETATM   22  H   UNL     1      -8.035   3.091  65.966  1.00  0.00     0.000 HD 
HETATM   23  C   UNL     1      -9.198   4.619  66.785  1.00  0.00    -0.126 C  
HETATM   24  C   UNL     1      -9.908   5.931  66.368  1.00  0.00    -0.121 C  
ENDBRANCH  15  18
ENDBRANCH   2   3
TORSDOF 2
ENDMDL
MODEL      160
REMARK 921   NORMALIZED FREE ENERGY PREDICTED BY IDOCK:   -2.36 KCAL/MOL
REMARK 922        TOTAL FREE ENERGY PREDICTED BY IDOCK:   -3.10 KCAL/MOL
REMARK 923 INTER-LIGAND FREE ENERGY PREDICTED BY IDOCK:   -3.51 KCAL/MOL
REMARK 924 INTRA-LIGAND FREE ENERGY PREDICTED BY IDOCK:    0.41 KCAL/MOL
REMARK 927      BINDING AFFINITY PREDICTED BY RF-SCORE:    0.00 PKD
ROOT
HETATM    1  C   UNL     1      -5.212   7.786  71.213  1.00  0.00    -0.027 C  
HETATM    2  C   UNL     1      -6.317   8.366  72.083  1.00  0.00    -0.068 C  
ENDROOT
BRANCH   2   3
HETATM    3  N   UNL     1      -7.586   8.427  71.348  1.00  0.00    -0.087 NA 
HETATM    4  C   UNL     1      -8.592   7.488  71.507  1.00  0.00    -0.116 C  
HETATM    5  C   UNL     1      -9.773   7.486  70.874  1.00  0.00    -0.173 C  
HETATM    6  C   UNL     1     -10.745   6.407  71.141  1.00  0.00    -0.244 C  
HETATM    7  C   UNL     1     -10.013   8.592  69.924  1.00  0.00    -0.186 C  
HETATM    8  C   UNL     1      -8.958   9.610  69.743  1.00  0.00    -0.226 A  
HETATM    9  O   UNL     1     -11.074   8.651  69.304  1.00  0.00    -0.048 OA 
HETATM   10  O   UNL     1     -10.532   5.493  71.925  1.00  0.00    -0.212 OA 
HETATM   11  O   UNL     1     -11.898   6.503  70.446  1.00  0.00    -0.400 OA 
HETATM   12  C   UNL     1      -9.150  10.651  68.844  1.00  0.00    -0.181 A  
HETATM   13  C   UNL     1      -8.135  11.578  68.692  1.00  0.00    -0.132 A  
HETATM   14  F   UNL     1      -8.328  12.595  67.837  1.00  0.00    -0.132 F  
HETATM   15  C   UNL     1      -6.955  11.481  69.447  1.00  0.00    -0.071 A  
HETATM   16  C   UNL     1      -7.764   9.524  70.472  1.00  0.00    -0.157 A  
HETATM   17  N   UNL     1      -6.791  10.465  70.335  1.00  0.00    -0.288 NA 
BRANCH  15  18
HETATM   18  N   UNL     1      -5.962  12.437  69.323  1.00  0.00    -0.084 NA 
HETATM   19  C   UNL     1      -5.776  13.151  68.055  1.00  0.00    -0.115 C  
HETATM   20  C   UNL     1      -6.177  14.637  68.153  1.00  0.00    -0.141 C  
HETATM   21  N   UNL     1      -5.558  15.335  69.298  1.00  0.00    -0.096 NA 
HETATM   22  H   UNL     1      -5.811  16.322  69.335  1.00  0.00     0.000 HD 
HETATM   23  C   UNL     1      -5.908  14.616  70.535  1.00  0.00    -0.168 C  
HETATM   24  C   UNL     1      -5.481  13.128  70.528  1.00  0.00    -0.159 C  
ENDBRANCH  15  18
ENDBRANCH   2   3
TORSDOF 2
ENDMDL
MODEL      161
REMARK 921   NORMALIZED FREE ENERGY PREDICTED BY IDOCK:   -2.34 KCAL/MOL
REMARK 922        TOTAL FREE ENERGY PREDICTED BY IDOCK:   -3.07 KCAL/MOL
REMARK 923 INTER-LIGAND FREE ENERGY PREDICTED BY IDOCK:   -2.67 KCAL/MOL
REMARK 924 INTRA-LIGAND FREE ENERGY PREDICTED BY IDOCK:   -0.41 KCAL/MOL
REMARK 927      BINDING AFFINITY PREDICTED BY RF-SCORE:    0.00 PKD
ROOT
HETATM    1  C   UNL     1     -10.697   5.221  66.422  1.00  0.00    -0.290 C  
HETATM    2  C   UNL     1     -10.773   6.579  67.105  1.00  0.00    -0.368 C  
ENDROOT
BRANCH   2   3
HETATM    3  N   UNL     1      -9.572   7.374  66.827  1.00  0.00    -0.182 NA 
HETATM    4  C   UNL     1      -9.462   8.213  65.731  1.00  0.00     0.090 C  
HETATM    5  C   UNL     1      -8.400   8.969  65.421  1.00  0.00    -0.151 C  
HETATM    6  C   UNL     1      -8.428   9.808  64.206  1.00  0.00    -0.178 C  
HETATM    7  C   UNL     1      -7.247   8.894  66.342  1.00  0.00    -0.084 C  
HETATM    8  C   UNL     1      -7.343   8.012  67.523  1.00  0.00    -0.089 A  
HETATM    9  O   UNL     1      -6.236   9.557  66.118  1.00  0.00    -0.065 OA 
HETATM   10  O   UNL     1      -9.386   9.857  63.448  1.00  0.00    -0.273 OA 
HETATM   11  O   UNL     1      -7.303  10.524  63.991  1.00  0.00    -0.034 OA 
HETATM   12  C   UNL     1      -6.268   7.909  68.397  1.00  0.00    -0.048 A  
HETATM   13  C   UNL     1      -6.390   7.064  69.485  1.00  0.00    -0.035 A  
HETATM   14  F   UNL     1      -5.358   6.979  70.340  1.00  0.00    -0.021 F  
HETATM   15  C   UNL     1      -7.578   6.351  69.711  1.00  0.00    -0.093 A  
HETATM   16  C   UNL     1      -8.512   7.277  67.761  1.00  0.00    -0.121 A  
HETATM   17  N   UNL     1      -8.627   6.477  68.856  1.00  0.00    -0.124 NA 
BRANCH  15  18
HETATM   18  N   UNL     1      -7.709   5.542  70.827  1.00  0.00    -0.089 NA 
HETATM   19  C   UNL     1      -8.808   5.759  71.773  1.00  0.00    -0.136 C  
HETATM   20  C   UNL     1      -9.851   4.623  71.733  1.00  0.00    -0.183 C  
HETATM   21  N   UNL     1      -9.254   3.278  71.850  1.00  0.00    -0.109 NA 
HETATM   22  H   UNL     1      -9.956   2.538  71.849  1.00  0.00     0.000 HD 
HETATM   23  C   UNL     1      -8.256   3.109  70.780  1.00  0.00    -0.053 C  
HETATM   24  C   UNL     1      -7.143   4.186  70.796  1.00  0.00    -0.033 C  
ENDBRANCH  15  18
ENDBRANCH   2   3
TORSDOF 2
ENDMDL
MODEL      162
REMARK 921   NORMALIZED FREE ENERGY PREDICTED BY IDOCK:   -2.32 KCAL/MOL
REMARK 922        TOTAL FREE ENERGY PREDICTED BY IDOCK:   -3.06 KCAL/MOL
REMARK 923 INTER-LIGAND FREE ENERGY PREDICTED BY IDOCK:   -3.19 KCAL/MOL
REMARK 924 INTRA-LIGAND FREE ENERGY PREDICTED BY IDOCK:    0.14 KCAL/MOL
REMARK 927      BINDING AFFINITY PREDICTED BY RF-SCORE:    0.00 PKD
ROOT
HETATM    1  C   UNL     1      -6.283   9.656  70.884  1.00  0.00    -0.087 C  
HETATM    2  C   UNL     1      -6.150   9.015  69.510  1.00  0.00    -0.036 C  
ENDROOT
BRANCH   2   3
HETATM    3  N   UNL     1      -7.286   9.372  68.652  1.00  0.00    -0.074 NA 
HETATM    4  C   UNL     1      -7.578  10.678  68.296  1.00  0.00    -0.097 C  
HETATM    5  C   UNL     1      -8.593  11.073  67.514  1.00  0.00    -0.128 C  
HETATM    6  C   UNL     1      -8.782  12.510  67.231  1.00  0.00    -0.193 C  
HETATM    7  C   UNL     1      -9.472  10.008  66.990  1.00  0.00    -0.164 C  
HETATM    8  C   UNL     1      -9.177   8.606  67.350  1.00  0.00    -0.158 A  
HETATM    9  O   UNL     1     -10.427  10.298  66.270  1.00  0.00    -0.215 OA 
HETATM   10  O   UNL     1      -8.050  13.382  67.677  1.00  0.00    -0.148 OA 
HETATM   11  O   UNL     1      -9.837  12.793  66.437  1.00  0.00    -0.257 OA 
HETATM   12  C   UNL     1      -9.999   7.587  66.885  1.00  0.00    -0.318 A  
HETATM   13  C   UNL     1      -9.698   6.288  67.253  1.00  0.00    -0.129 A  
HETATM   14  F   UNL     1     -10.480   5.300  66.788  1.00  0.00    -0.214 F  
HETATM   15  C   UNL     1      -8.579   6.009  68.053  1.00  0.00    -0.114 A  
HETATM   16  C   UNL     1      -8.076   8.304  68.162  1.00  0.00    -0.124 A  
HETATM   17  N   UNL     1      -7.776   7.017  68.485  1.00  0.00    -0.117 NA 
BRANCH  15  18
HETATM   18  N   UNL     1      -8.258   4.703  68.380  1.00  0.00    -0.083 NA 
HETATM   19  C   UNL     1      -8.354   4.243  69.769  1.00  0.00    -0.061 C  
HETATM   20  C   UNL     1      -9.506   3.239  69.979  1.00  0.00    -0.161 C  
HETATM   21  N   UNL     1      -9.493   2.126  69.008  1.00  0.00    -0.123 NA 
HETATM   22  H   UNL     1     -10.244   1.455  69.174  1.00  0.00     0.000 HD 
HETATM   23  C   UNL     1      -9.529   2.686  67.646  1.00  0.00    -0.095 C  
HETATM   24  C   UNL     1      -8.364   3.661  67.348  1.00  0.00    -0.094 C  
ENDBRANCH  15  18
ENDBRANCH   2   3
TORSDOF 2
ENDMDL
MODEL      163
REMARK 921   NORMALIZED FREE ENERGY PREDICTED BY IDOCK:   -1.90 KCAL/MOL
REMARK 922        TOTAL FREE ENERGY PREDICTED BY IDOCK:   -2.59 KCAL/MOL
REMARK 923 INTER-LIGAND FREE ENERGY PREDICTED BY IDOCK:   -3.83 KCAL/MOL
REMARK 924 INTRA-LIGAND FREE ENERGY PREDICTED BY IDOCK:    1.24 KCAL/MOL
REMARK 927      BINDING AFFINITY PREDICTED BY RF-SCORE:    0.00 PKD
ROOT
HETATM    1  C   UNL     1      -6.782  14.897  67.220  1.00  0.00     0.062 C  
HETATM    2  C   UNL     1      -7.302  14.531  68.603  1.00  0.00    -0.128 C  
ENDROOT
BRANCH   2   3
HETATM    3  N   UNL     1      -8.670  15.022  68.796  1.00  0.00    -0.178 NA 
HETATM    4  C   UNL     1      -9.684  14.236  69.317  1.00  0.00     0.154 C  
HETATM    5  C   UNL     1     -10.952  14.622  69.524  1.00  0.00    -0.269 C  
HETATM    6  C   UNL     1     -11.926  13.661  70.080  1.00  0.00    -0.343 C  
HETATM    7  C   UNL     1     -11.284  16.014  69.161  1.00  0.00    -0.342 C  
HETATM    8  C   UNL     1     -10.217  16.875  68.610  1.00  0.00    -0.301 A  
HETATM    9  O   UNL     1     -12.429  16.435  69.320  1.00  0.00     0.215 OA 
HETATM   10  O   UNL     1     -11.640  12.509  70.370  1.00  0.00    -0.126 OA 
HETATM   11  O   UNL     1     -13.173  14.156  70.243  1.00  0.00    -0.054 OA 
HETATM   12  C   UNL     1     -10.506  18.184  68.244  1.00  0.00    -0.333 A  
HETATM   13  C   UNL     1      -9.485  18.955  67.720  1.00  0.00    -0.302 A  
HETATM   14  F   UNL     1      -9.759  20.226  67.385  1.00  0.00    -0.468 F  
HETATM   15  C   UNL     1      -8.188  18.435  67.588  1.00  0.00    -0.254 A  
HETATM   16  C   UNL     1      -8.919  16.373  68.452  1.00  0.00    -0.214 A  
HETATM   17  N   UNL     1      -7.919  17.158  67.967  1.00  0.00    -0.205 NA 
BRANCH  15  18
HETATM   18  N   UNL     1      -7.160  19.228  67.105  1.00  0.00    -0.203 NA 
HETATM   19  C   UNL     1      -6.051  18.627  66.358  1.00  0.00    -0.160 C  
HETATM   20  C   UNL     1      -6.068  19.016  64.865  1.00  0.00    -0.272 C  
HETATM   21  N   UNL     1      -6.185  20.471  64.643  1.00  0.00    -0.277 NA 
HETATM   22  H   UNL     1      -6.168  20.717  63.653  1.00  0.00     0.000 HD 
HETATM   23  C   UNL     1      -7.397  20.958  65.324  1.00  0.00     0.424 C  
HETATM   24  C   UNL     1      -7.419  20.651  66.841  1.00  0.00    -0.258 C  
ENDBRANCH  15  18
ENDBRANCH   2   3
TORSDOF 2
ENDMDL
MODEL      164
REMARK 921   NORMALIZED FREE ENERGY PREDICTED BY IDOCK:   -1.81 KCAL/MOL
REMARK 922        TOTAL FREE ENERGY PREDICTED BY IDOCK:   -2.49 KCAL/MOL
REMARK 923 INTER-LIGAND FREE ENERGY PREDICTED BY IDOCK:   -2.02 KCAL/MOL
REMARK 924 INTRA-LIGAND FREE ENERGY PREDICTED BY IDOCK:   -0.47 KCAL/MOL
REMARK 927      BINDING AFFINITY PREDICTED BY RF-SCORE:    0.00 PKD
ROOT
HETATM    1  C   UNL     1      -9.497   7.942  73.387  1.00  0.00    -0.341 C  
HETATM    2  C   UNL     1      -8.386   7.832  72.352  1.00  0.00    -0.126 C  
ENDROOT
BRANCH   2   3
HETATM    3  N   UNL     1      -8.301   6.468  71.817  1.00  0.00    -0.116 NA 
HETATM    4  C   UNL     1      -8.742   5.358  72.517  1.00  0.00    -0.124 C  
HETATM    5  C   UNL     1      -8.699   4.089  72.087  1.00  0.00    -0.121 C  
HETATM    6  C   UNL     1      -9.201   3.005  72.955  1.00  0.00    -0.090 C  
HETATM    7  C   UNL     1      -8.128   3.868  70.742  1.00  0.00    -0.062 C  
HETATM    8  C   UNL     1      -7.657   5.038  69.974  1.00  0.00    -0.060 A  
HETATM    9  O   UNL     1      -8.053   2.728  70.286  1.00  0.00    -0.042 OA 
HETATM   10  O   UNL     1      -9.666   3.200  74.069  1.00  0.00    -0.094 OA 
HETATM   11  O   UNL     1      -9.105   1.767  72.423  1.00  0.00    -0.071 OA 
HETATM   12  C   UNL     1      -7.100   4.857  68.714  1.00  0.00    -0.053 A  
HETATM   13  C   UNL     1      -6.659   5.975  68.030  1.00  0.00    -0.055 A  
HETATM   14  F   UNL     1      -6.138   5.803  66.804  1.00  0.00    -0.022 F  
HETATM   15  C   UNL     1      -6.795   7.257  68.584  1.00  0.00    -0.076 A  
HETATM   16  C   UNL     1      -7.767   6.326  70.514  1.00  0.00    -0.101 A  
HETATM   17  N   UNL     1      -7.359   7.417  69.811  1.00  0.00    -0.081 NA 
BRANCH  15  18
HETATM   18  N   UNL     1      -6.393   8.375  67.874  1.00  0.00    -0.055 NA 
HETATM   19  C   UNL     1      -7.308   9.020  66.928  1.00  0.00    -0.086 C  
HETATM   20  C   UNL     1      -7.780  10.405  67.417  1.00  0.00    -0.095 C  
HETATM   21  N   UNL     1      -6.671  11.287  67.830  1.00  0.00    -0.067 NA 
HETATM   22  H   UNL     1      -6.995  12.208  68.125  1.00  0.00     0.000 HD 
HETATM   23  C   UNL     1      -5.886  10.604  68.872  1.00  0.00    -0.040 C  
HETATM   24  C   UNL     1      -5.331   9.229  68.428  1.00  0.00    -0.037 C  
ENDBRANCH  15  18
ENDBRANCH   2   3
TORSDOF 2
ENDMDL
MODEL      165
REMARK 921   NORMALIZED FREE ENERGY PREDICTED BY IDOCK:   -1.70 KCAL/MOL
REMARK 922        TOTAL FREE ENERGY PREDICTED BY IDOCK:   -2.37 KCAL/MOL
REMARK 923 INTER-LIGAND FREE ENERGY PREDICTED BY IDOCK:   -2.31 KCAL/MOL
REMARK 924 INTRA-LIGAND FREE ENERGY PREDICTED BY IDOCK:   -0.05 KCAL/MOL
REMARK 927      BINDING AFFINITY PREDICTED BY RF-SCORE:    0.00 PKD
ROOT
HETATM    1  C   UNL     1     -11.474   8.383  68.429  1.00  0.00     1.112 C  
HETATM    2  C   UNL     1     -11.031   9.817  68.173  1.00  0.00    -0.175 C  
ENDROOT
BRANCH   2   3
HETATM    3  N   UNL     1     -10.109   9.886  67.034  1.00  0.00    -0.206 NA 
HETATM    4  C   UNL     1     -10.430  10.516  65.844  1.00  0.00    -0.153 C  
HETATM    5  C   UNL     1      -9.635  10.620  64.769  1.00  0.00    -0.334 C  
HETATM    6  C   UNL     1     -10.125  11.316  63.562  1.00  0.00    -0.396 C  
HETATM    7  C   UNL     1      -8.297  10.004  64.877  1.00  0.00    -0.157 C  
HETATM    8  C   UNL     1      -7.928   9.333  66.140  1.00  0.00    -0.107 A  
HETATM    9  O   UNL     1      -7.517  10.057  63.928  1.00  0.00    -0.132 OA 
HETATM   10  O   UNL     1     -11.238  11.816  63.483  1.00  0.00    -0.408 OA 
HETATM   11  O   UNL     1      -9.244  11.358  62.540  1.00  0.00    -0.335 OA 
HETATM   12  C   UNL     1      -6.682   8.731  66.263  1.00  0.00    -0.073 A  
HETATM   13  C   UNL     1      -6.377   8.100  67.456  1.00  0.00    -0.056 A  
HETATM   14  F   UNL     1      -5.166   7.535  67.583  1.00  0.00    -0.023 F  
HETATM   15  C   UNL     1      -7.293   8.094  68.520  1.00  0.00    -0.093 A  
HETATM   16  C   UNL     1      -8.832   9.298  67.210  1.00  0.00    -0.124 A  
HETATM   17  N   UNL     1      -8.501   8.704  68.388  1.00  0.00    -0.130 NA 
BRANCH  15  18
HETATM   18  N   UNL     1      -6.964   7.501  69.727  1.00  0.00    -0.054 NA 
HETATM   19  C   UNL     1      -6.541   8.324  70.864  1.00  0.00    -0.039 C  
HETATM   20  C   UNL     1      -7.587   8.343  71.997  1.00  0.00    -0.117 C  
HETATM   21  N   UNL     1      -8.033   6.995  72.402  1.00  0.00    -0.095 NA 
HETATM   22  H   UNL     1      -8.705   7.020  73.170  1.00  0.00     0.000 HD 
HETATM   23  C   UNL     1      -8.559   6.295  71.217  1.00  0.00    -0.124 C  
HETATM   24  C   UNL     1      -7.538   6.189  70.058  1.00  0.00    -0.095 C  
ENDBRANCH  15  18
ENDBRANCH   2   3
TORSDOF 2
ENDMDL
MODEL      166
REMARK 921   NORMALIZED FREE ENERGY PREDICTED BY IDOCK:   -1.56 KCAL/MOL
REMARK 922        TOTAL FREE ENERGY PREDICTED BY IDOCK:   -2.21 KCAL/MOL
REMARK 923 INTER-LIGAND FREE ENERGY PREDICTED BY IDOCK:   -1.84 KCAL/MOL
REMARK 924 INTRA-LIGAND FREE ENERGY PREDICTED BY IDOCK:   -0.37 KCAL/MOL
REMARK 927      BINDING AFFINITY PREDICTED BY RF-SCORE:    0.00 PKD
ROOT
HETATM    1  C   UNL     1      -8.852   8.155  63.957  1.00  0.00     0.544 C  
HETATM    2  C   UNL     1      -7.506   8.080  64.662  1.00  0.00    -0.097 C  
ENDROOT
BRANCH   2   3
HETATM    3  N   UNL     1      -7.452   6.927  65.568  1.00  0.00    -0.082 NA 
HETATM    4  C   UNL     1      -6.939   5.697  65.190  1.00  0.00    -0.063 C  
HETATM    5  C   UNL     1      -6.855   4.607  65.965  1.00  0.00    -0.058 C  
HETATM    6  C   UNL     1      -6.290   3.359  65.414  1.00  0.00    -0.031 C  
HETATM    7  C   UNL     1      -7.356   4.743  67.348  1.00  0.00    -0.074 C  
HETATM    8  C   UNL     1      -7.901   6.047  67.778  1.00  0.00    -0.105 A  
HETATM    9  O   UNL     1      -7.315   3.782  68.115  1.00  0.00    -0.057 OA 
HETATM   10  O   UNL     1      -5.885   3.257  64.265  1.00  0.00    -0.013 OA 
HETATM   11  O   UNL     1      -6.258   2.325  66.282  1.00  0.00    -0.023 OA 
HETATM   12  C   UNL     1      -8.395   6.198  69.068  1.00  0.00    -0.112 A  
HETATM   13  C   UNL     1      -8.909   7.430  69.430  1.00  0.00    -0.137 A  
HETATM   14  F   UNL     1      -9.368   7.581  70.682  1.00  0.00    -0.160 F  
HETATM   15  C   UNL     1      -8.905   8.503  68.525  1.00  0.00    -0.139 A  
HETATM   16  C   UNL     1      -7.925   7.129  66.887  1.00  0.00    -0.115 A  
HETATM   17  N   UNL     1      -8.402   8.343  67.272  1.00  0.00    -0.122 NA 
BRANCH  15  18
HETATM   18  N   UNL     1      -9.379   9.746  68.909  1.00  0.00    -0.152 NA 
HETATM   19  C   UNL     1      -8.446  10.798  69.321  1.00  0.00    -0.047 C  
HETATM   20  C   UNL     1      -8.375  11.954  68.302  1.00  0.00    -0.159 C  
HETATM   21  N   UNL     1      -9.702  12.482  67.926  1.00  0.00    -0.199 NA 
HETATM   22  H   UNL     1      -9.640  13.263  67.272  1.00  0.00     0.000 HD 
HETATM   23  C   UNL     1     -10.521  11.375  67.404  1.00  0.00    -0.205 C  
HETATM   24  C   UNL     1     -10.682  10.202  68.402  1.00  0.00    -0.230 C  
ENDBRANCH  15  18
ENDBRANCH   2   3
TORSDOF 2
ENDMDL
MODEL      167
REMARK 921   NORMALIZED FREE ENERGY PREDICTED BY IDOCK:   -1.51 KCAL/MOL
REMARK 922        TOTAL FREE ENERGY PREDICTED BY IDOCK:   -2.15 KCAL/MOL
REMARK 923 INTER-LIGAND FREE ENERGY PREDICTED BY IDOCK:   -2.28 KCAL/MOL
REMARK 924 INTRA-LIGAND FREE ENERGY PREDICTED BY IDOCK:    0.13 KCAL/MOL
REMARK 927      BINDING AFFINITY PREDICTED BY RF-SCORE:    0.00 PKD
ROOT
HETATM    1  C   UNL     1     -11.748   7.751  69.720  1.00  0.00     0.423 C  
HETATM    2  C   UNL     1     -11.142   9.073  70.169  1.00  0.00    -0.207 C  
ENDROOT
BRANCH   2   3
HETATM    3  N   UNL     1      -9.793   9.245  69.619  1.00  0.00    -0.177 NA 
HETATM    4  C   UNL     1      -9.541   9.949  68.453  1.00  0.00    -0.148 C  
HETATM    5  C   UNL     1      -8.336  10.149  67.899  1.00  0.00    -0.117 C  
HETATM    6  C   UNL     1      -8.228  10.915  66.641  1.00  0.00    -0.145 C  
HETATM    7  C   UNL     1      -7.180   9.563  68.607  1.00  0.00    -0.074 C  
HETATM    8  C   UNL     1      -7.423   8.814  69.858  1.00  0.00    -0.053 A  
HETATM    9  O   UNL     1      -6.046   9.702  68.153  1.00  0.00    -0.053 OA 
HETATM   10  O   UNL     1      -9.194  11.389  66.060  1.00  0.00    -0.206 OA 
HETATM   11  O   UNL     1      -6.969  11.051  66.172  1.00  0.00    -0.125 OA 
HETATM   12  C   UNL     1      -6.355   8.238  70.535  1.00  0.00    -0.036 A  
HETATM   13  C   UNL     1      -6.623   7.534  71.695  1.00  0.00    -0.042 A  
HETATM   14  F   UNL     1      -5.589   6.994  72.361  1.00  0.00    -0.036 F  
HETATM   15  C   UNL     1      -7.934   7.430  72.186  1.00  0.00    -0.093 A  
HETATM   16  C   UNL     1      -8.725   8.681  70.358  1.00  0.00    -0.155 A  
HETATM   17  N   UNL     1      -8.964   8.015  71.519  1.00  0.00    -0.135 NA 
BRANCH  15  18
HETATM   18  N   UNL     1      -8.188   6.763  73.372  1.00  0.00    -0.112 NA 
HETATM   19  C   UNL     1      -9.505   6.862  74.009  1.00  0.00    -0.240 C  
HETATM   20  C   UNL     1     -10.289   5.535  73.947  1.00  0.00    -0.261 C  
HETATM   21  N   UNL     1      -9.510   4.374  74.423  1.00  0.00    -0.110 NA 
HETATM   22  H   UNL     1     -10.049   3.508  74.402  1.00  0.00     0.000 HD 
HETATM   23  C   UNL     1      -8.268   4.284  73.636  1.00  0.00    -0.093 C  
HETATM   24  C   UNL     1      -7.401   5.565  73.701  1.00  0.00    -0.087 C  
ENDBRANCH  15  18
ENDBRANCH   2   3
TORSDOF 2
ENDMDL
MODEL      168
REMARK 921   NORMALIZED FREE ENERGY PREDICTED BY IDOCK:   -1.14 KCAL/MOL
REMARK 922        TOTAL FREE ENERGY PREDICTED BY IDOCK:   -1.74 KCAL/MOL
REMARK 923 INTER-LIGAND FREE ENERGY PREDICTED BY IDOCK:   -1.98 KCAL/MOL
REMARK 924 INTRA-LIGAND FREE ENERGY PREDICTED BY IDOCK:    0.25 KCAL/MOL
REMARK 927      BINDING AFFINITY PREDICTED BY RF-SCORE:    0.00 PKD
ROOT
HETATM    1  C   UNL     1      -5.777  13.935  67.690  1.00  0.00    -0.009 C  
HETATM    2  C   UNL     1      -7.166  13.356  67.916  1.00  0.00    -0.133 C  
ENDROOT
BRANCH   2   3
HETATM    3  N   UNL     1      -8.190  14.403  67.840  1.00  0.00    -0.144 NA 
HETATM    4  C   UNL     1      -7.981  15.614  67.202  1.00  0.00    -0.219 C  
HETATM    5  C   UNL     1      -8.872  16.610  67.091  1.00  0.00    -0.209 C  
HETATM    6  C   UNL     1      -8.496  17.852  66.387  1.00  0.00    -0.234 C  
HETATM    7  C   UNL     1     -10.195  16.381  67.708  1.00  0.00    -0.274 C  
HETATM    8  C   UNL     1     -10.445  15.094  68.388  1.00  0.00    -0.233 A  
HETATM    9  O   UNL     1     -11.060  17.254  67.649  1.00  0.00    -0.219 OA 
HETATM   10  O   UNL     1      -7.396  18.031  65.886  1.00  0.00    -0.428 OA 
HETATM   11  O   UNL     1      -9.469  18.788  66.339  1.00  0.00    -0.322 OA 
HETATM   12  C   UNL     1     -11.674  14.860  68.992  1.00  0.00    -0.347 A  
HETATM   13  C   UNL     1     -11.867  13.648  69.630  1.00  0.00    -0.335 A  
HETATM   14  F   UNL     1     -13.062  13.413  70.197  1.00  0.00    -0.066 F  
HETATM   15  C   UNL     1     -10.856  12.674  69.642  1.00  0.00     0.330 A  
HETATM   16  C   UNL     1      -9.445  14.113  68.429  1.00  0.00    -0.214 A  
HETATM   17  N   UNL     1      -9.665  12.913  69.031  1.00  0.00     0.226 NA 
BRANCH  15  18
HETATM   18  N   UNL     1     -11.072  11.446  70.244  1.00  0.00     0.096 NA 
HETATM   19  C   UNL     1     -12.418  11.064  70.684  1.00  0.00    -0.373 C  
HETATM   20  C   UNL     1     -13.015   9.928  69.829  1.00  0.00     0.982 C  
HETATM   21  N   UNL     1     -12.112   8.769  69.684  1.00  0.00     0.390 NA 
HETATM   22  H   UNL     1     -12.529   8.015  69.139  1.00  0.00     0.000 HD 
HETATM   23  C   UNL     1     -10.835   9.234  69.116  1.00  0.00    -0.133 C  
HETATM   24  C   UNL     1     -10.149  10.338  69.957  1.00  0.00    -0.115 C  
ENDBRANCH  15  18
ENDBRANCH   2   3
TORSDOF 2
ENDMDL
MODEL      169
REMARK 921   NORMALIZED FREE ENERGY PREDICTED BY IDOCK:   -0.88 KCAL/MOL
REMARK 922        TOTAL FREE ENERGY PREDICTED BY IDOCK:   -1.45 KCAL/MOL
REMARK 923 INTER-LIGAND FREE ENERGY PREDICTED BY IDOCK:   -1.68 KCAL/MOL
REMARK 924 INTRA-LIGAND FREE ENERGY PREDICTED BY IDOCK:    0.23 KCAL/MOL
REMARK 927      BINDING AFFINITY PREDICTED BY RF-SCORE:    0.00 PKD
ROOT
HETATM    1  C   UNL     1      -5.500   8.489  72.668  1.00  0.00    -0.051 C  
HETATM    2  C   UNL     1      -5.281   7.886  71.288  1.00  0.00    -0.030 C  
ENDROOT
BRANCH   2   3
HETATM    3  N   UNL     1      -6.077   8.590  70.276  1.00  0.00    -0.030 NA 
HETATM    4  C   UNL     1      -6.075   9.968  70.143  1.00  0.00    -0.070 C  
HETATM    5  C   UNL     1      -6.771  10.673  69.240  1.00  0.00    -0.075 C  
HETATM    6  C   UNL     1      -6.673  12.147  69.230  1.00  0.00    -0.084 C  
HETATM    7  C   UNL     1      -7.612   9.897  68.306  1.00  0.00    -0.080 C  
HETATM    8  C   UNL     1      -7.625   8.425  68.423  1.00  0.00    -0.097 A  
HETATM    9  O   UNL     1      -8.282  10.479  67.454  1.00  0.00    -0.117 OA 
HETATM   10  O   UNL     1      -5.978  12.778  70.013  1.00  0.00    -0.134 OA 
HETATM   11  O   UNL     1      -7.419  12.753  68.281  1.00  0.00    -0.106 OA 
HETATM   12  C   UNL     1      -8.420   7.672  67.568  1.00  0.00    -0.116 A  
HETATM   13  C   UNL     1      -8.416   6.297  67.715  1.00  0.00    -0.116 A  
HETATM   14  F   UNL     1      -9.170   5.567  66.877  1.00  0.00    -0.117 F  
HETATM   15  C   UNL     1      -7.610   5.681  68.686  1.00  0.00    -0.088 A  
HETATM   16  C   UNL     1      -6.842   7.788  69.395  1.00  0.00    -0.044 A  
HETATM   17  N   UNL     1      -6.824   6.432  69.502  1.00  0.00    -0.063 NA 
BRANCH  15  18
HETATM   18  N   UNL     1      -7.576   4.301  68.798  1.00  0.00    -0.059 NA 
HETATM   19  C   UNL     1      -8.184   3.460  67.762  1.00  0.00    -0.080 C  
HETATM   20  C   UNL     1      -7.132   2.686  66.941  1.00  0.00    -0.049 C  
HETATM   21  N   UNL     1      -6.164   1.951  67.779  1.00  0.00    -0.024 NA 
HETATM   22  H   UNL     1      -5.490   1.422  67.224  1.00  0.00     0.000 HD 
HETATM   23  C   UNL     1      -5.514   2.902  68.697  1.00  0.00    -0.014 C  
HETATM   24  C   UNL     1      -6.511   3.675  69.594  1.00  0.00    -0.033 C  
ENDBRANCH  15  18
ENDBRANCH   2   3
TORSDOF 2
ENDMDL
MODEL      170
REMARK 921   NORMALIZED FREE ENERGY PREDICTED BY IDOCK:   -0.79 KCAL/MOL
REMARK 922        TOTAL FREE ENERGY PREDICTED BY IDOCK:   -1.34 KCAL/MOL
REMARK 923 INTER-LIGAND FREE ENERGY PREDICTED BY IDOCK:   -2.17 KCAL/MOL
REMARK 924 INTRA-LIGAND FREE ENERGY PREDICTED BY IDOCK:    0.83 KCAL/MOL
REMARK 927      BINDING AFFINITY PREDICTED BY RF-SCORE:    0.00 PKD
ROOT
HETATM    1  C   UNL     1     -10.194   4.069  67.038  1.00  0.00     0.308 C  
HETATM    2  C   UNL     1     -10.784   5.328  67.657  1.00  0.00     0.042 C  
ENDROOT
BRANCH   2   3
HETATM    3  N   UNL     1      -9.798   6.414  67.679  1.00  0.00    -0.117 NA 
HETATM    4  C   UNL     1      -9.710   7.328  68.715  1.00  0.00    -0.151 C  
HETATM    5  C   UNL     1      -8.833   8.339  68.800  1.00  0.00    -0.137 C  
HETATM    6  C   UNL     1      -8.869   9.242  69.968  1.00  0.00    -0.197 C  
HETATM    7  C   UNL     1      -7.878   8.478  67.682  1.00  0.00    -0.103 C  
HETATM    8  C   UNL     1      -7.947   7.510  66.569  1.00  0.00    -0.107 A  
HETATM    9  O   UNL     1      -7.048   9.386  67.692  1.00  0.00    -0.080 OA 
HETATM   10  O   UNL     1      -9.669   9.120  70.884  1.00  0.00    -0.240 OA 
HETATM   11  O   UNL     1      -7.944  10.225  69.948  1.00  0.00    -0.160 OA 
HETATM   12  C   UNL     1      -7.072   7.628  65.496  1.00  0.00    -0.063 A  
HETATM   13  C   UNL     1      -7.175   6.711  64.466  1.00  0.00    -0.068 A  
HETATM   14  F   UNL     1      -6.316   6.812  63.438  1.00  0.00    -0.038 F  
HETATM   15  C   UNL     1      -8.122   5.675  64.519  1.00  0.00    -0.131 A  
HETATM   16  C   UNL     1      -8.895   6.478  66.590  1.00  0.00    -0.132 A  
HETATM   17  N   UNL     1      -8.959   5.564  65.584  1.00  0.00    -0.159 NA 
BRANCH  15  18
HETATM   18  N   UNL     1      -8.189   4.734  63.506  1.00  0.00    -0.101 NA 
HETATM   19  C   UNL     1      -7.760   3.353  63.749  1.00  0.00    -0.079 C  
HETATM   20  C   UNL     1      -8.942   2.362  63.750  1.00  0.00    -0.095 C  
HETATM   21  N   UNL     1      -9.811   2.489  62.564  1.00  0.00    -0.088 NA 
HETATM   22  H   UNL     1     -10.573   1.811  62.564  1.00  0.00     0.000 HD 
HETATM   23  C   UNL     1     -10.294   3.878  62.478  1.00  0.00    -0.190 C  
HETATM   24  C   UNL     1      -9.156   4.926  62.415  1.00  0.00    -0.082 C  
ENDBRANCH  15  18
ENDBRANCH   2   3
TORSDOF 2
ENDMDL
MODEL      171
REMARK 921   NORMALIZED FREE ENERGY PREDICTED BY IDOCK:   -0.25 KCAL/MOL
REMARK 922        TOTAL FREE ENERGY PREDICTED BY IDOCK:   -0.74 KCAL/MOL
REMARK 923 INTER-LIGAND FREE ENERGY PREDICTED BY IDOCK:   -0.78 KCAL/MOL
REMARK 924 INTRA-LIGAND FREE ENERGY PREDICTED BY IDOCK:    0.04 KCAL/MOL
REMARK 927      BINDING AFFINITY PREDICTED BY RF-SCORE:    0.00 PKD
ROOT
HETATM    1  C   UNL     1      -7.581   7.649  71.233  1.00  0.00    -0.080 C  
HETATM    2  C   UNL     1      -8.730   8.243  70.432  1.00  0.00    -0.139 C  
ENDROOT
BRANCH   2   3
HETATM    3  N   UNL     1      -8.761   7.693  69.072  1.00  0.00    -0.136 NA 
HETATM    4  C   UNL     1      -9.009   6.357  68.807  1.00  0.00    -0.126 C  
HETATM    5  C   UNL     1      -9.056   5.791  67.592  1.00  0.00    -0.106 C  
HETATM    6  C   UNL     1      -9.322   4.343  67.470  1.00  0.00    -0.154 C  
HETATM    7  C   UNL     1      -8.824   6.685  66.440  1.00  0.00    -0.144 C  
HETATM    8  C   UNL     1      -8.565   8.116  66.697  1.00  0.00    -0.140 A  
HETATM    9  O   UNL     1      -8.848   6.233  65.296  1.00  0.00    -0.069 OA 
HETATM   10  O   UNL     1      -9.506   3.612  68.432  1.00  0.00    -0.172 OA 
HETATM   11  O   UNL     1      -9.343   3.880  66.202  1.00  0.00    -0.154 OA 
HETATM   12  C   UNL     1      -8.326   8.976  65.632  1.00  0.00    -0.137 A  
HETATM   13  C   UNL     1      -8.075  10.307  65.912  1.00  0.00    -0.143 A  
HETATM   14  F   UNL     1      -7.863  11.142  64.882  1.00  0.00     0.095 F  
HETATM   15  C   UNL     1      -8.088  10.777  67.235  1.00  0.00    -0.117 A  
HETATM   16  C   UNL     1      -8.555   8.606  68.009  1.00  0.00    -0.137 A  
HETATM   17  N   UNL     1      -8.341   9.925  68.263  1.00  0.00    -0.109 NA 
BRANCH  15  18
HETATM   18  N   UNL     1      -7.881  12.119  67.504  1.00  0.00    -0.151 NA 
HETATM   19  C   UNL     1      -8.072  12.639  68.862  1.00  0.00     0.213 C  
HETATM   20  C   UNL     1      -6.743  13.055  69.524  1.00  0.00     0.029 C  
HETATM   21  N   UNL     1      -5.924  13.948  68.681  1.00  0.00    -0.083 NA 
HETATM   22  H   UNL     1      -5.061  14.236  69.141  1.00  0.00     0.000 HD 
HETATM   23  C   UNL     1      -5.678  13.284  67.389  1.00  0.00     0.082 C  
HETATM   24  C   UNL     1      -6.975  12.890  66.640  1.00  0.00     1.102 C  
ENDBRANCH  15  18
ENDBRANCH   2   3
TORSDOF 2
ENDMDL
MODEL      172
REMARK 921   NORMALIZED FREE ENERGY PREDICTED BY IDOCK:    1.68 KCAL/MOL
REMARK 922        TOTAL FREE ENERGY PREDICTED BY IDOCK:    1.41 KCAL/MOL
REMARK 923 INTER-LIGAND FREE ENERGY PREDICTED BY IDOCK:   -0.07 KCAL/MOL
REMARK 924 INTRA-LIGAND FREE ENERGY PREDICTED BY IDOCK:    1.48 KCAL/MOL
REMARK 927      BINDING AFFINITY PREDICTED BY RF-SCORE:    0.00 PKD
ROOT
HETATM    1  C   UNL     1      -7.672  14.878  70.070  1.00  0.00     0.250 C  
HETATM    2  C   UNL     1      -6.862  13.680  70.544  1.00  0.00     0.766 C  
ENDROOT
BRANCH   2   3
HETATM    3  N   UNL     1      -7.410  12.430  70.006  1.00  0.00     0.943 NA 
HETATM    4  C   UNL     1      -7.028  11.181  70.467  1.00  0.00     0.965 C  
HETATM    5  C   UNL     1      -7.491  10.003  70.025  1.00  0.00    -0.181 C  
HETATM    6  C   UNL     1      -6.977   8.749  70.611  1.00  0.00    -0.053 C  
HETATM    7  C   UNL     1      -8.502  10.055  68.950  1.00  0.00    -0.132 C  
HETATM    8  C   UNL     1      -8.932  11.375  68.446  1.00  0.00    -0.172 A  
HETATM    9  O   UNL     1      -8.968   9.012  68.492  1.00  0.00    -0.133 OA 
HETATM   10  O   UNL     1      -6.135   8.719  71.497  1.00  0.00    -0.048 OA 
HETATM   11  O   UNL     1      -7.510   7.624  70.088  1.00  0.00    -0.080 OA 
HETATM   12  C   UNL     1      -9.869  11.452  67.423  1.00  0.00    -0.199 A  
HETATM   13  C   UNL     1     -10.237  12.706  66.969  1.00  0.00    -0.226 A  
HETATM   14  F   UNL     1     -11.157  12.782  65.993  1.00  0.00    -0.285 F  
HETATM   15  C   UNL     1      -9.696  13.866  67.546  1.00  0.00    -0.232 A  
HETATM   16  C   UNL     1      -8.393  12.547  68.994  1.00  0.00     0.417 A  
HETATM   17  N   UNL     1      -8.794  13.772  68.558  1.00  0.00    -0.155 NA 
BRANCH  15  18
HETATM   18  N   UNL     1     -10.104  15.118  67.117  1.00  0.00    -0.238 NA 
HETATM   19  C   UNL     1     -11.291  15.750  67.701  1.00  0.00    -0.194 C  
HETATM   20  C   UNL     1     -10.937  16.972  68.574  1.00  0.00    -0.247 C  
HETATM   21  N   UNL     1     -10.052  17.938  67.894  1.00  0.00    -0.330 NA 
HETATM   22  H   UNL     1      -9.847  18.753  68.472  1.00  0.00     0.000 HD 
HETATM   23  C   UNL     1      -8.832  17.236  67.458  1.00  0.00    -0.218 C  
HETATM   24  C   UNL     1      -9.111  16.030  66.529  1.00  0.00    -0.285 C  
ENDBRANCH  15  18
ENDBRANCH   2   3
TORSDOF 2
ENDMDL
MODEL      173
REMARK 921   NORMALIZED FREE ENERGY PREDICTED BY IDOCK:    3.41 KCAL/MOL
REMARK 922        TOTAL FREE ENERGY PREDICTED BY IDOCK:    3.34 KCAL/MOL
REMARK 923 INTER-LIGAND FREE ENERGY PREDICTED BY IDOCK:    3.20 KCAL/MOL
REMARK 924 INTRA-LIGAND FREE ENERGY PREDICTED BY IDOCK:    0.15 KCAL/MOL
REMARK 927      BINDING AFFINITY PREDICTED BY RF-SCORE:    0.00 PKD
ROOT
HETATM    1  C   UNL     1      -9.519   3.785  70.121  1.00  0.00    -0.259 C  
HETATM    2  C   UNL     1      -8.863   5.035  70.691  1.00  0.00    -0.126 C  
ENDROOT
BRANCH   2   3
HETATM    3  N   UNL     1      -9.819   6.146  70.757  1.00  0.00    -0.183 NA 
HETATM    4  C   UNL     1     -10.590   6.408  71.877  1.00  0.00    -0.214 C  
HETATM    5  C   UNL     1     -11.475   7.406  72.007  1.00  0.00    -0.310 C  
HETATM    6  C   UNL     1     -12.234   7.552  73.266  1.00  0.00     1.186 C  
HETATM    7  C   UNL     1     -11.633   8.302  70.843  1.00  0.00    -0.262 C  
HETATM    8  C   UNL     1     -10.816   8.047  69.639  1.00  0.00    -0.172 A  
HETATM    9  O   UNL     1     -12.432   9.236  70.890  1.00  0.00    -0.244 OA 
HETATM   10  O   UNL     1     -12.099   6.799  74.220  1.00  0.00     3.343 OA 
HETATM   11  O   UNL     1     -13.100   8.588  73.284  1.00  0.00     0.042 OA 
HETATM   12  C   UNL     1     -10.957   8.864  68.524  1.00  0.00     0.066 A  
HETATM   13  C   UNL     1     -10.184   8.587  67.411  1.00  0.00    -0.261 A  
HETATM   14  F   UNL     1     -10.306   9.388  66.340  1.00  0.00    -0.320 F  
HETATM   15  C   UNL     1      -9.266   7.525  67.420  1.00  0.00    -0.132 A  
HETATM   16  C   UNL     1      -9.905   6.983  69.618  1.00  0.00    -0.164 A  
HETATM   17  N   UNL     1      -9.128   6.747  68.527  1.00  0.00    -0.130 NA 
BRANCH  15  18
HETATM   18  N   UNL     1      -8.463   7.282  66.319  1.00  0.00    -0.128 NA 
HETATM   19  C   UNL     1      -7.398   6.277  66.388  1.00  0.00    -0.085 C  
HETATM   20  C   UNL     1      -7.702   5.037  65.521  1.00  0.00    -0.087 C  
HETATM   21  N   UNL     1      -8.082   5.373  64.135  1.00  0.00    -0.119 NA 
HETATM   22  H   UNL     1      -8.255   4.544  63.566  1.00  0.00     0.000 HD 
HETATM   23  C   UNL     1      -9.240   6.284  64.169  1.00  0.00     1.294 C  
HETATM   24  C   UNL     1      -8.983   7.579  64.976  1.00  0.00     0.459 C  
ENDBRANCH  15  18
ENDBRANCH   2   3
TORSDOF 2
ENDMDL
MODEL      174
REMARK 921   NORMALIZED FREE ENERGY PREDICTED BY IDOCK:    3.46 KCAL/MOL
REMARK 922        TOTAL FREE ENERGY PREDICTED BY IDOCK:    3.40 KCAL/MOL
REMARK 923 INTER-LIGAND FREE ENERGY PREDICTED BY IDOCK:    3.61 KCAL/MOL
REMARK 924 INTRA-LIGAND FREE ENERGY PREDICTED BY IDOCK:   -0.21 KCAL/MOL
REMARK 927      BINDING AFFINITY PREDICTED BY RF-SCORE:    0.00 PKD
ROOT
HETATM    1  C   UNL     1      -8.968   7.119  63.001  1.00  0.00     1.131 C  
HETATM    2  C   UNL     1      -7.918   6.382  63.820  1.00  0.00    -0.086 C  
ENDROOT
BRANCH   2   3
HETATM    3  N   UNL     1      -8.547   5.538  64.842  1.00  0.00    -0.139 NA 
HETATM    4  C   UNL     1      -9.136   4.319  64.552  1.00  0.00    -0.150 C  
HETATM    5  C   UNL     1      -9.722   3.498  65.435  1.00  0.00    -0.093 C  
HETATM    6  C   UNL     1     -10.319   2.230  64.970  1.00  0.00     0.956 C  
HETATM    7  C   UNL     1      -9.731   3.944  66.843  1.00  0.00    -0.157 C  
HETATM    8  C   UNL     1      -9.102   5.237  67.179  1.00  0.00    -0.112 A  
HETATM    9  O   UNL     1     -10.256   3.243  67.707  1.00  0.00     0.604 OA 
HETATM   10  O   UNL     1     -10.311   1.875  63.800  1.00  0.00    -0.131 OA 
HETATM   11  O   UNL     1     -10.884   1.484  65.943  1.00  0.00     2.980 OA 
HETATM   12  C   UNL     1      -9.111   5.689  68.493  1.00  0.00    -0.118 A  
HETATM   13  C   UNL     1      -8.524   6.910  68.767  1.00  0.00    -0.121 A  
HETATM   14  F   UNL     1      -8.515   7.338  70.040  1.00  0.00    -0.130 F  
HETATM   15  C   UNL     1      -7.912   7.658  67.748  1.00  0.00    -0.121 A  
HETATM   16  C   UNL     1      -8.501   6.010  66.176  1.00  0.00    -0.134 A  
HETATM   17  N   UNL     1      -7.896   7.192  66.471  1.00  0.00    -0.103 NA 
BRANCH  15  18
HETATM   18  N   UNL     1      -7.286   8.858  68.038  1.00  0.00    -0.082 NA 
HETATM   19  C   UNL     1      -8.022   9.933  68.709  1.00  0.00    -0.093 C  
HETATM   20  C   UNL     1      -7.529  10.171  70.152  1.00  0.00    -0.133 C  
HETATM   21  N   UNL     1      -6.065  10.334  70.249  1.00  0.00    -0.084 NA 
HETATM   22  H   UNL     1      -5.755  10.516  71.204  1.00  0.00     0.000 HD 
HETATM   23  C   UNL     1      -5.417   9.147  69.665  1.00  0.00    -0.034 C  
HETATM   24  C   UNL     1      -5.824   8.882  68.195  1.00  0.00    -0.042 C  
ENDBRANCH  15  18
ENDBRANCH   2   3
TORSDOF 2
ENDMDL
MODEL      175
REMARK 921   NORMALIZED FREE ENERGY PREDICTED BY IDOCK:    3.80 KCAL/MOL
REMARK 922        TOTAL FREE ENERGY PREDICTED BY IDOCK:    3.78 KCAL/MOL
REMARK 923 INTER-LIGAND FREE ENERGY PREDICTED BY IDOCK:    2.66 KCAL/MOL
REMARK 924 INTRA-LIGAND FREE ENERGY PREDICTED BY IDOCK:    1.12 KCAL/MOL
REMARK 927      BINDING AFFINITY PREDICTED BY RF-SCORE:    0.00 PKD
ROOT
HETATM    1  C   UNL     1     -10.476   3.185  67.915  1.00  0.00     2.514 C  
HETATM    2  C   UNL     1     -10.478   4.017  69.189  1.00  0.00     1.269 C  
ENDROOT
BRANCH   2   3
HETATM    3  N   UNL     1      -9.109   4.297  69.635  1.00  0.00    -0.103 NA 
HETATM    4  C   UNL     1      -8.781   4.525  70.961  1.00  0.00    -0.113 C  
HETATM    5  C   UNL     1      -7.554   4.781  71.436  1.00  0.00    -0.079 C  
HETATM    6  C   UNL     1      -7.364   5.014  72.882  1.00  0.00    -0.090 C  
HETATM    7  C   UNL     1      -6.459   4.818  70.445  1.00  0.00    -0.031 C  
HETATM    8  C   UNL     1      -6.782   4.571  69.025  1.00  0.00    -0.046 A  
HETATM    9  O   UNL     1      -5.308   5.053  70.810  1.00  0.00    -0.004 OA 
HETATM   10  O   UNL     1      -8.279   4.987  73.691  1.00  0.00    -0.106 OA 
HETATM   11  O   UNL     1      -6.088   5.266  73.248  1.00  0.00    -0.039 OA 
HETATM   12  C   UNL     1      -5.774   4.617  68.070  1.00  0.00    -0.021 A  
HETATM   13  C   UNL     1      -6.116   4.393  66.749  1.00  0.00    -0.031 A  
HETATM   14  F   UNL     1      -5.139   4.418  65.828  1.00  0.00    -0.007 F  
HETATM   15  C   UNL     1      -7.442   4.100  66.390  1.00  0.00    -0.084 A  
HETATM   16  C   UNL     1      -8.101   4.294  68.640  1.00  0.00    -0.076 A  
HETATM   17  N   UNL     1      -8.413   4.042  67.341  1.00  0.00    -0.098 NA 
BRANCH  15  18
HETATM   18  N   UNL     1      -7.769   3.832  65.072  1.00  0.00    -0.084 NA 
HETATM   19  C   UNL     1      -8.322   2.526  64.699  1.00  0.00    -0.088 C  
HETATM   20  C   UNL     1      -9.805   2.614  64.282  1.00  0.00    -0.105 C  
HETATM   21  N   UNL     1     -10.066   3.656  63.269  1.00  0.00    -0.163 NA 
HETATM   22  H   UNL     1     -11.045   3.685  62.983  1.00  0.00     0.000 HD 
HETATM   23  C   UNL     1      -9.593   4.950  63.789  1.00  0.00     0.361 C  
HETATM   24  C   UNL     1      -8.093   4.950  64.175  1.00  0.00    -0.115 C  
ENDBRANCH  15  18
ENDBRANCH   2   3
TORSDOF 2
ENDMDL
MODEL      176
REMARK 921   NORMALIZED FREE ENERGY PREDICTED BY IDOCK:    4.99 KCAL/MOL
REMARK 922        TOTAL FREE ENERGY PREDICTED BY IDOCK:    5.11 KCAL/MOL
REMARK 923 INTER-LIGAND FREE ENERGY PREDICTED BY IDOCK:    3.84 KCAL/MOL
REMARK 924 INTRA-LIGAND FREE ENERGY PREDICTED BY IDOCK:    1.27 KCAL/MOL
REMARK 927      BINDING AFFINITY PREDICTED BY RF-SCORE:    0.00 PKD
ROOT
HETATM    1  C   UNL     1      -8.167  14.402  66.828  1.00  0.00     0.080 C  
HETATM    2  C   UNL     1      -9.116  13.334  66.305  1.00  0.00     0.029 C  
ENDROOT
BRANCH   2   3
HETATM    3  N   UNL     1      -8.827  12.031  66.914  1.00  0.00    -0.192 NA 
HETATM    4  C   UNL     1      -9.209  10.831  66.339  1.00  0.00    -0.170 C  
HETATM    5  C   UNL     1      -8.973   9.609  66.838  1.00  0.00    -0.151 C  
HETATM    6  C   UNL     1      -9.455   8.417  66.110  1.00  0.00    -0.194 C  
HETATM    7  C   UNL     1      -8.236   9.550  68.116  1.00  0.00    -0.114 C  
HETATM    8  C   UNL     1      -7.810  10.817  68.745  1.00  0.00    -0.129 A  
HETATM    9  O   UNL     1      -7.988   8.462  68.634  1.00  0.00    -0.116 OA 
HETATM   10  O   UNL     1     -10.070   8.479  65.056  1.00  0.00     1.314 OA 
HETATM   11  O   UNL     1      -9.165   7.240  66.705  1.00  0.00    -0.142 OA 
HETATM   12  C   UNL     1      -7.130  10.791  69.957  1.00  0.00    -0.035 A  
HETATM   13  C   UNL     1      -6.759  11.998  70.522  1.00  0.00     1.177 A  
HETATM   14  F   UNL     1      -6.085  11.973  71.683  1.00  0.00     0.464 F  
HETATM   15  C   UNL     1      -7.041  13.211  69.874  1.00  0.00     0.637 A  
HETATM   16  C   UNL     1      -8.095  12.041  68.127  1.00  0.00    -0.160 A  
HETATM   17  N   UNL     1      -7.692  13.217  68.681  1.00  0.00    -0.110 NA 
BRANCH  15  18
HETATM   18  N   UNL     1      -6.626  14.413  70.423  1.00  0.00    -0.105 NA 
HETATM   19  C   UNL     1      -5.271  14.912  70.173  1.00  0.00    -0.104 C  
HETATM   20  C   UNL     1      -5.263  16.164  69.271  1.00  0.00    -0.111 C  
HETATM   21  N   UNL     1      -6.185  17.220  69.731  1.00  0.00    -0.237 NA 
HETATM   22  H   UNL     1      -6.151  18.052  69.142  1.00  0.00     0.000 HD 
HETATM   23  C   UNL     1      -7.542  16.655  69.828  1.00  0.00     0.570 C  
HETATM   24  C   UNL     1      -7.634  15.427  70.766  1.00  0.00     1.638 C  
ENDBRANCH  15  18
ENDBRANCH   2   3
TORSDOF 2
ENDMDL
MODEL      177
REMARK 921   NORMALIZED FREE ENERGY PREDICTED BY IDOCK:   12.29 KCAL/MOL
REMARK 922        TOTAL FREE ENERGY PREDICTED BY IDOCK:   13.26 KCAL/MOL
REMARK 923 INTER-LIGAND FREE ENERGY PREDICTED BY IDOCK:   13.04 KCAL/MOL
REMARK 924 INTRA-LIGAND FREE ENERGY PREDICTED BY IDOCK:    0.22 KCAL/MOL
REMARK 927      BINDING AFFINITY PREDICTED BY RF-SCORE:    0.00 PKD
ROOT
HETATM    1  C   UNL     1     -12.190  11.061  71.557  1.00  0.00    -0.191 C  
HETATM    2  C   UNL     1     -11.812  10.788  70.109  1.00  0.00    -0.343 C  
ENDROOT
BRANCH   2   3
HETATM    3  N   UNL     1     -11.436   9.383  69.920  1.00  0.00    -0.098 NA 
HETATM    4  C   UNL     1     -12.244   8.329  70.314  1.00  0.00     0.540 C  
HETATM    5  C   UNL     1     -11.965   7.026  70.168  1.00  0.00    -0.133 C  
HETATM    6  C   UNL     1     -12.927   6.014  70.650  1.00  0.00     2.496 C  
HETATM    7  C   UNL     1     -10.677   6.696  69.525  1.00  0.00    -0.260 C  
HETATM    8  C   UNL     1      -9.801   7.803  69.090  1.00  0.00    -0.173 A  
HETATM    9  O   UNL     1     -10.354   5.521  69.363  1.00  0.00    -0.231 OA 
HETATM   10  O   UNL     1     -13.988   6.300  71.186  1.00  0.00     0.858 OA 
HETATM   11  O   UNL     1     -12.542   4.735  70.455  1.00  0.00     7.561 OA 
HETATM   12  C   UNL     1      -8.576   7.521  68.498  1.00  0.00    -0.129 A  
HETATM   13  C   UNL     1      -7.777   8.583  68.115  1.00  0.00    -0.102 A  
HETATM   14  F   UNL     1      -6.601   8.311  67.526  1.00  0.00    -0.053 F  
HETATM   15  C   UNL     1      -8.207   9.907  68.296  1.00  0.00    -0.109 A  
HETATM   16  C   UNL     1     -10.200   9.133  69.276  1.00  0.00    -0.210 A  
HETATM   17  N   UNL     1      -9.416  10.165  68.861  1.00  0.00    -0.172 NA 
BRANCH  15  18
HETATM   18  N   UNL     1      -7.422  10.965  67.869  1.00  0.00    -0.088 NA 
HETATM   19  C   UNL     1      -6.271  10.725  66.993  1.00  0.00    -0.070 C  
HETATM   20  C   UNL     1      -6.494  11.270  65.567  1.00  0.00     0.505 C  
HETATM   21  N   UNL     1      -6.946  12.675  65.544  1.00  0.00     3.110 NA 
HETATM   22  H   UNL     1      -7.064  13.031  64.595  1.00  0.00     0.000 HD 
HETATM   23  C   UNL     1      -8.177  12.789  66.345  1.00  0.00     0.490 C  
HETATM   24  C   UNL     1      -8.009  12.311  67.808  1.00  0.00    -0.154 C  
ENDBRANCH  15  18
ENDBRANCH   2   3
TORSDOF 2
ENDMDL
MODEL      178
REMARK 921   NORMALIZED FREE ENERGY PREDICTED BY IDOCK:   15.48 KCAL/MOL
REMARK 922        TOTAL FREE ENERGY PREDICTED BY IDOCK:   16.83 KCAL/MOL
REMARK 923 INTER-LIGAND FREE ENERGY PREDICTED BY IDOCK:   15.36 KCAL/MOL
REMARK 924 INTRA-LIGAND FREE ENERGY PREDICTED BY IDOCK:    1.46 KCAL/MOL
REMARK 927      BINDING AFFINITY PREDICTED BY RF-SCORE:    0.00 PKD
ROOT
HETATM    1  C   UNL     1      -7.564   9.169  72.962  1.00  0.00     0.835 C  
HETATM    2  C   UNL     1      -8.765   9.997  73.394  1.00  0.00     7.433 C  
ENDROOT
BRANCH   2   3
HETATM    3  N   UNL     1      -9.902   9.783  72.492  1.00  0.00     2.412 NA 
HETATM    4  C   UNL     1     -10.737  10.808  72.079  1.00  0.00     5.283 C  
HETATM    5  C   UNL     1     -11.787  10.684  71.254  1.00  0.00    -0.257 C  
HETATM    6  C   UNL     1     -12.593  11.874  70.913  1.00  0.00    -0.266 C  
HETATM    7  C   UNL     1     -12.067   9.326  70.745  1.00  0.00    -0.171 C  
HETATM    8  C   UNL     1     -11.186   8.218  71.165  1.00  0.00    -0.296 A  
HETATM    9  O   UNL     1     -13.018   9.138  69.988  1.00  0.00     0.976 OA 
HETATM   10  O   UNL     1     -12.355  12.991  71.347  1.00  0.00    -0.227 OA 
HETATM   11  O   UNL     1     -13.627  11.632  70.079  1.00  0.00     1.507 OA 
HETATM   12  C   UNL     1     -11.437   6.928  70.714  1.00  0.00    -0.381 A  
HETATM   13  C   UNL     1     -10.598   5.914  71.139  1.00  0.00    -0.246 A  
HETATM   14  F   UNL     1     -10.828   4.670  70.688  1.00  0.00    -0.102 F  
HETATM   15  C   UNL     1      -9.508   6.188  71.981  1.00  0.00    -0.152 A  
HETATM   16  C   UNL     1     -10.102   8.464  72.019  1.00  0.00    -0.294 A  
HETATM   17  N   UNL     1      -9.267   7.459  72.398  1.00  0.00    -0.136 NA 
BRANCH  15  18
HETATM   18  N   UNL     1      -8.646   5.176  72.365  1.00  0.00    -0.124 NA 
HETATM   19  C   UNL     1      -8.474   4.849  73.784  1.00  0.00    -0.104 C  
HETATM   20  C   UNL     1      -9.075   3.476  74.148  1.00  0.00    -0.089 C  
HETATM   21  N   UNL     1      -8.632   2.389  73.254  1.00  0.00    -0.069 NA 
HETATM   22  H   UNL     1      -9.016   1.482  73.522  1.00  0.00     0.000 HD 
HETATM   23  C   UNL     1      -8.964   2.753  71.866  1.00  0.00    -0.081 C  
HETATM   24  C   UNL     1      -8.342   4.096  71.414  1.00  0.00    -0.086 C  
ENDBRANCH  15  18
ENDBRANCH   2   3
TORSDOF 2
ENDMDL
MODEL      179
REMARK 921   NORMALIZED FREE ENERGY PREDICTED BY IDOCK:   17.43 KCAL/MOL
REMARK 922        TOTAL FREE ENERGY PREDICTED BY IDOCK:   19.00 KCAL/MOL
REMARK 923 INTER-LIGAND FREE ENERGY PREDICTED BY IDOCK:   18.25 KCAL/MOL
REMARK 924 INTRA-LIGAND FREE ENERGY PREDICTED BY IDOCK:    0.75 KCAL/MOL
REMARK 927      BINDING AFFINITY PREDICTED BY RF-SCORE:    0.00 PKD
ROOT
HETATM    1  C   UNL     1     -12.240  14.429  66.376  1.00  0.00    -0.363 C  
HETATM    2  C   UNL     1     -11.029  14.805  65.535  1.00  0.00    -0.346 C  
ENDROOT
BRANCH   2   3
HETATM    3  N   UNL     1      -9.965  13.803  65.669  1.00  0.00    -0.283 NA 
HETATM    4  C   UNL     1      -9.541  13.011  64.616  1.00  0.00     0.331 C  
HETATM    5  C   UNL     1      -8.574  12.084  64.668  1.00  0.00     1.344 C  
HETATM    6  C   UNL     1      -8.240  11.307  63.456  1.00  0.00     0.575 C  
HETATM    7  C   UNL     1      -7.907  11.900  65.972  1.00  0.00     0.558 C  
HETATM    8  C   UNL     1      -8.336  12.739  67.110  1.00  0.00    -0.164 A  
HETATM    9  O   UNL     1      -7.014  11.063  66.094  1.00  0.00    -0.125 OA 
HETATM   10  O   UNL     1      -8.805  11.463  62.384  1.00  0.00    -0.301 OA 
HETATM   11  O   UNL     1      -7.255  10.399  63.625  1.00  0.00    -0.106 OA 
HETATM   12  C   UNL     1      -7.737  12.576  68.353  1.00  0.00    -0.136 A  
HETATM   13  C   UNL     1      -8.175  13.371  69.397  1.00  0.00     0.844 A  
HETATM   14  F   UNL     1      -7.583  13.227  70.594  1.00  0.00     1.769 F  
HETATM   15  C   UNL     1      -9.178  14.332  69.197  1.00  0.00     0.142 A  
HETATM   16  C   UNL     1      -9.348  13.694  66.939  1.00  0.00    -0.257 A  
HETATM   17  N   UNL     1      -9.741  14.491  67.969  1.00  0.00    -0.213 NA 
BRANCH  15  18
HETATM   18  N   UNL     1      -9.579  15.155  70.235  1.00  0.00     0.223 NA 
HETATM   19  C   UNL     1     -10.993  15.235  70.612  1.00  0.00    -0.284 C  
HETATM   20  C   UNL     1     -11.273  14.593  71.987  1.00  0.00     0.659 C  
HETATM   21  N   UNL     1     -10.370  15.076  73.050  1.00  0.00     2.517 NA 
HETATM   22  H   UNL     1     -10.582  14.664  73.959  1.00  0.00     0.000 HD 
HETATM   23  C   UNL     1      -8.977  14.835  72.634  1.00  0.00     7.924 C  
HETATM   24  C   UNL     1      -8.611  15.501  71.286  1.00  0.00     3.939 C  
ENDBRANCH  15  18
ENDBRANCH   2   3
TORSDOF 2
ENDMDL
MODEL      180
REMARK 921   NORMALIZED FREE ENERGY PREDICTED BY IDOCK:   48.12 KCAL/MOL
REMARK 922        TOTAL FREE ENERGY PREDICTED BY IDOCK:   53.28 KCAL/MOL
REMARK 923 INTER-LIGAND FREE ENERGY PREDICTED BY IDOCK:   53.20 KCAL/MOL
REMARK 924 INTRA-LIGAND FREE ENERGY PREDICTED BY IDOCK:    0.08 KCAL/MOL
REMARK 927      BINDING AFFINITY PREDICTED BY RF-SCORE:    0.00 PKD
ROOT
HETATM    1  C   UNL     1      -8.814  11.510  70.123  1.00  0.00     2.812 C  
HETATM    2  C   UNL     1      -9.816  11.136  69.041  1.00  0.00    -0.114 C  
ENDROOT
BRANCH   2   3
HETATM    3  N   UNL     1      -9.402   9.913  68.343  1.00  0.00    -0.132 NA 
HETATM    4  C   UNL     1      -9.386   8.669  68.951  1.00  0.00    -0.145 C  
HETATM    5  C   UNL     1      -9.026   7.515  68.372  1.00  0.00    -0.128 C  
HETATM    6  C   UNL     1      -9.051   6.264  69.157  1.00  0.00    -0.130 C  
HETATM    7  C   UNL     1      -8.612   7.589  66.956  1.00  0.00    -0.122 C  
HETATM    8  C   UNL     1      -8.628   8.904  66.283  1.00  0.00    -0.145 A  
HETATM    9  O   UNL     1      -8.264   6.569  66.363  1.00  0.00    -0.109 OA 
HETATM   10  O   UNL     1      -9.390   6.217  70.331  1.00  0.00    -0.158 OA 
HETATM   11  O   UNL     1      -8.665   5.164  68.475  1.00  0.00    -0.097 OA 
HETATM   12  C   UNL     1      -8.227   9.005  64.957  1.00  0.00    -0.154 A  
HETATM   13  C   UNL     1      -8.243  10.255  64.364  1.00  0.00    -0.159 A  
HETATM   14  F   UNL     1      -7.874  10.350  63.076  1.00  0.00    -0.144 F  
HETATM   15  C   UNL     1      -8.677  11.383  65.078  1.00  0.00     0.237 A  
HETATM   16  C   UNL     1      -9.041  10.047  66.980  1.00  0.00    -0.142 A  
HETATM   17  N   UNL     1      -9.083  11.262  66.370  1.00  0.00    -0.186 NA 
BRANCH  15  18
HETATM   18  N   UNL     1      -8.734  12.623  64.465  1.00  0.00     1.918 NA 
HETATM   19  C   UNL     1      -9.289  13.777  65.179  1.00  0.00     0.755 C  
HETATM   20  C   UNL     1      -8.211  14.820  65.538  1.00  0.00     3.508 C  
HETATM   21  N   UNL     1      -7.370  15.209  64.390  1.00  0.00    13.021 NA 
HETATM   22  H   UNL     1      -6.679  15.919  64.635  1.00  0.00     0.000 HD 
HETATM   23  C   UNL     1      -6.755  13.998  63.821  1.00  0.00    23.864 C  
HETATM   24  C   UNL     1      -7.786  12.929  63.384  1.00  0.00     9.154 C  
ENDBRANCH  15  18
ENDBRANCH   2   3
TORSDOF 2
ENDMDL
MODEL      181
REMARK 921   NORMALIZED FREE ENERGY PREDICTED BY IDOCK:   52.71 KCAL/MOL
REMARK 922        TOTAL FREE ENERGY PREDICTED BY IDOCK:   58.40 KCAL/MOL
REMARK 923 INTER-LIGAND FREE ENERGY PREDICTED BY IDOCK:   58.18 KCAL/MOL
REMARK 924 INTRA-LIGAND FREE ENERGY PREDICTED BY IDOCK:    0.22 KCAL/MOL
REMARK 927      BINDING AFFINITY PREDICTED BY RF-SCORE:    0.00 PKD
ROOT
HETATM    1  C   UNL     1      -7.191   7.144  66.335  1.00  0.00    -0.078 C  
HETATM    2  C   UNL     1      -8.137   8.106  67.039  1.00  0.00    -0.108 C  
ENDROOT
BRANCH   2   3
HETATM    3  N   UNL     1      -9.325   8.368  66.220  1.00  0.00    -0.210 NA 
HETATM    4  C   UNL     1      -9.559   9.585  65.602  1.00  0.00    -0.277 C  
HETATM    5  C   UNL     1     -10.617   9.889  64.838  1.00  0.00     0.967 C  
HETATM    6  C   UNL     1     -10.733  11.241  64.254  1.00  0.00    -0.349 C  
HETATM    7  C   UNL     1     -11.617   8.820  64.641  1.00  0.00    12.427 C  
HETATM    8  C   UNL     1     -11.386   7.510  65.283  1.00  0.00     8.364 A  
HETATM    9  O   UNL     1     -12.616   9.030  63.955  1.00  0.00    15.069 OA 
HETATM   10  O   UNL     1      -9.901  12.120  64.429  1.00  0.00    -0.219 OA 
HETATM   11  O   UNL     1     -11.840  11.437  63.505  1.00  0.00    -0.263 OA 
HETATM   12  C   UNL     1     -12.319   6.492  65.129  1.00  0.00     9.006 A  
HETATM   13  C   UNL     1     -12.074   5.283  65.756  1.00  0.00     3.141 A  
HETATM   14  F   UNL     1     -12.966   4.293  65.592  1.00  0.00     5.200 F  
HETATM   15  C   UNL     1     -10.903   5.086  66.504  1.00  0.00     0.010 A  
HETATM   16  C   UNL     1     -10.233   7.295  66.050  1.00  0.00     0.734 A  
HETATM   17  N   UNL     1      -9.992   6.088  66.630  1.00  0.00    -0.167 NA 
BRANCH  15  18
HETATM   18  N   UNL     1     -10.643   3.859  67.091  1.00  0.00     1.152 NA 
HETATM   19  C   UNL     1     -10.763   2.625  66.308  1.00  0.00     3.855 C  
HETATM   20  C   UNL     1      -9.396   1.963  66.042  1.00  0.00     0.133 C  
HETATM   21  N   UNL     1      -8.584   1.788  67.262  1.00  0.00    -0.089 NA 
HETATM   22  H   UNL     1      -7.694   1.326  67.076  1.00  0.00     0.000 HD 
HETATM   23  C   UNL     1      -8.412   3.102  67.907  1.00  0.00    -0.088 C  
HETATM   24  C   UNL     1      -9.749   3.799  68.256  1.00  0.00    -0.030 C  
ENDBRANCH  15  18
ENDBRANCH   2   3
TORSDOF 2
ENDMDL
