MODEL        1
REMARK 921   NORMALIZED FREE ENERGY PREDICTED BY IDOCK:   -5.98 KCAL/MOL
REMARK 922        TOTAL FREE ENERGY PREDICTED BY IDOCK:   -6.81 KCAL/MOL
REMARK 923 INTER-LIGAND FREE ENERGY PREDICTED BY IDOCK:   -6.68 KCAL/MOL
REMARK 924 INTRA-LIGAND FREE ENERGY PREDICTED BY IDOCK:   -0.13 KCAL/MOL
REMARK 927      BINDING AFFINITY PREDICTED BY RF-SCORE:    0.00 PKD
ROOT
HETATM    1  C   UNL     1      -8.232  17.641  66.429  1.00  0.00    -0.298 C  
HETATM    2  C   UNL     1      -8.866  16.263  66.321  1.00  0.00    -0.367 C  
ENDROOT
BRANCH   2   3
HETATM    3  C   UNL     1     -10.380  16.334  66.515  1.00  0.00    -0.307 C  
BRANCH   3   4
HETATM    4  N   UNL     1     -11.083  15.304  65.760  1.00  0.00    -0.328 N  
HETATM    5  C   UNL     1     -11.288  14.044  66.283  1.00  0.00    -0.333 A  
HETATM    6  C   UNL     1     -11.948  13.080  65.581  1.00  0.00    -0.429 A  
HETATM    7  N   UNL     1     -11.974  11.987  66.396  1.00  0.00    -0.593 NA 
HETATM    8  C   UNL     1     -12.465  13.283  64.279  1.00  0.00    -0.269 C  
HETATM    9  N   UNL     1     -12.213  14.553  63.813  1.00  0.00    -1.047 N  
HETATM   10  O   UNL     1     -13.068  12.438  63.630  1.00  0.00    -0.748 OA 
HETATM   11  C   UNL     1     -11.327  12.346  67.550  1.00  0.00    -0.315 A  
HETATM   12  H   UNL     1     -12.393  11.080  66.187  1.00  0.00     0.000 HD 
HETATM   13  H   UNL     1     -12.558  14.770  62.877  1.00  0.00     0.000 HD 
HETATM   14  C   UNL     1     -11.543  15.572  64.471  1.00  0.00    -0.283 C  
HETATM   15  N   UNL     1     -10.898  13.592  67.507  1.00  0.00    -0.261 NA 
HETATM   16  O   UNL     1     -11.392  16.652  63.900  1.00  0.00    -1.104 OA 
ENDBRANCH   3   4
ENDBRANCH   2   3
TORSDOF 2
ENDMDL
MODEL        2
REMARK 921   NORMALIZED FREE ENERGY PREDICTED BY IDOCK:   -5.76 KCAL/MOL
REMARK 922        TOTAL FREE ENERGY PREDICTED BY IDOCK:   -6.56 KCAL/MOL
REMARK 923 INTER-LIGAND FREE ENERGY PREDICTED BY IDOCK:   -6.44 KCAL/MOL
REMARK 924 INTRA-LIGAND FREE ENERGY PREDICTED BY IDOCK:   -0.12 KCAL/MOL
REMARK 927      BINDING AFFINITY PREDICTED BY RF-SCORE:    0.00 PKD
ROOT
HETATM    1  C   UNL     1      -9.196   9.532  64.902  1.00  0.00    -0.284 C  
HETATM    2  C   UNL     1      -9.927  10.681  64.226  1.00  0.00    -0.413 C  
ENDROOT
BRANCH   2   3
HETATM    3  C   UNL     1     -10.921  11.342  65.180  1.00  0.00    -0.192 C  
BRANCH   3   4
HETATM    4  N   UNL     1     -11.145  12.746  64.859  1.00  0.00    -0.283 N  
HETATM    5  C   UNL     1     -10.413  13.748  65.462  1.00  0.00    -0.318 A  
HETATM    6  C   UNL     1     -10.618  15.060  65.161  1.00  0.00    -0.418 A  
HETATM    7  N   UNL     1      -9.726  15.755  65.923  1.00  0.00    -0.336 NA 
HETATM    8  C   UNL     1     -11.585  15.502  64.224  1.00  0.00    -0.194 C  
HETATM    9  N   UNL     1     -12.288  14.455  63.672  1.00  0.00    -1.106 N  
HETATM   10  O   UNL     1     -11.783  16.673  63.929  1.00  0.00    -1.153 OA 
HETATM   11  C   UNL     1      -9.027  14.826  66.649  1.00  0.00    -0.255 A  
HETATM   12  H   UNL     1      -9.604  16.768  65.949  1.00  0.00     0.000 HD 
HETATM   13  H   UNL     1     -13.003  14.701  62.988  1.00  0.00     0.000 HD 
HETATM   14  C   UNL     1     -12.133  13.105  63.942  1.00  0.00    -0.470 C  
HETATM   15  N   UNL     1      -9.427  13.596  66.389  1.00  0.00    -0.263 NA 
HETATM   16  O   UNL     1     -12.860  12.296  63.366  1.00  0.00    -0.754 OA 
ENDBRANCH   3   4
ENDBRANCH   2   3
TORSDOF 2
ENDMDL
MODEL        3
REMARK 921   NORMALIZED FREE ENERGY PREDICTED BY IDOCK:   -5.68 KCAL/MOL
REMARK 922        TOTAL FREE ENERGY PREDICTED BY IDOCK:   -6.47 KCAL/MOL
REMARK 923 INTER-LIGAND FREE ENERGY PREDICTED BY IDOCK:   -6.35 KCAL/MOL
REMARK 924 INTRA-LIGAND FREE ENERGY PREDICTED BY IDOCK:   -0.12 KCAL/MOL
REMARK 927      BINDING AFFINITY PREDICTED BY RF-SCORE:    0.00 PKD
ROOT
HETATM    1  C   UNL     1     -10.086  18.518  67.473  1.00  0.00    -0.383 C  
HETATM    2  C   UNL     1     -10.906  17.284  67.129  1.00  0.00    -0.085 C  
ENDROOT
BRANCH   2   3
HETATM    3  C   UNL     1     -10.146  16.362  66.176  1.00  0.00    -0.346 C  
BRANCH   3   4
HETATM    4  N   UNL     1     -10.981  15.278  65.673  1.00  0.00    -0.343 N  
HETATM    5  C   UNL     1     -11.110  14.090  66.362  1.00  0.00    -0.316 A  
HETATM    6  C   UNL     1     -11.893  13.078  65.896  1.00  0.00    -0.416 A  
HETATM    7  N   UNL     1     -11.793  12.082  66.821  1.00  0.00    -0.614 NA 
HETATM    8  C   UNL     1     -12.623  13.153  64.685  1.00  0.00    -0.322 C  
HETATM    9  N   UNL     1     -12.439  14.356  64.042  1.00  0.00    -0.920 N  
HETATM   10  O   UNL     1     -13.340  12.262  64.248  1.00  0.00    -0.777 OA 
HETATM   11  C   UNL     1     -10.952  12.543  67.801  1.00  0.00    -0.234 A  
HETATM   12  H   UNL     1     -12.253  11.171  66.790  1.00  0.00     0.000 HD 
HETATM   13  H   UNL     1     -12.937  14.480  63.161  1.00  0.00     0.000 HD 
HETATM   14  C   UNL     1     -11.653  15.419  64.458  1.00  0.00    -0.296 C  
HETATM   15  N   UNL     1     -10.521  13.763  67.545  1.00  0.00    -0.244 NA 
HETATM   16  O   UNL     1     -11.588  16.424  63.751  1.00  0.00    -1.055 OA 
ENDBRANCH   3   4
ENDBRANCH   2   3
TORSDOF 2
ENDMDL
MODEL        4
REMARK 921   NORMALIZED FREE ENERGY PREDICTED BY IDOCK:   -5.63 KCAL/MOL
REMARK 922        TOTAL FREE ENERGY PREDICTED BY IDOCK:   -6.41 KCAL/MOL
REMARK 923 INTER-LIGAND FREE ENERGY PREDICTED BY IDOCK:   -6.39 KCAL/MOL
REMARK 924 INTRA-LIGAND FREE ENERGY PREDICTED BY IDOCK:   -0.03 KCAL/MOL
REMARK 927      BINDING AFFINITY PREDICTED BY RF-SCORE:    0.00 PKD
ROOT
HETATM    1  C   UNL     1     -11.014  10.141  67.738  1.00  0.00    -0.338 C  
HETATM    2  C   UNL     1     -11.471  11.475  67.169  1.00  0.00    -0.313 C  
ENDROOT
BRANCH   2   3
HETATM    3  C   UNL     1     -11.023  11.640  65.717  1.00  0.00    -0.274 C  
BRANCH   3   4
HETATM    4  N   UNL     1     -11.213  13.001  65.231  1.00  0.00    -0.285 N  
HETATM    5  C   UNL     1     -10.380  14.027  65.625  1.00  0.00    -0.329 A  
HETATM    6  C   UNL     1     -10.554  15.300  65.169  1.00  0.00    -0.430 A  
HETATM    7  N   UNL     1      -9.561  16.034  65.746  1.00  0.00    -0.393 NA 
HETATM    8  C   UNL     1     -11.586  15.671  64.273  1.00  0.00    -0.189 C  
HETATM    9  N   UNL     1     -12.387  14.605  63.933  1.00  0.00    -1.060 N  
HETATM   10  O   UNL     1     -11.759  16.804  63.841  1.00  0.00    -1.076 OA 
HETATM   11  C   UNL     1      -8.838  15.168  66.524  1.00  0.00    -0.277 A  
HETATM   12  H   UNL     1      -9.391  17.033  65.624  1.00  0.00     0.000 HD 
HETATM   13  H   UNL     1     -13.153  14.801  63.289  1.00  0.00     0.000 HD 
HETATM   14  C   UNL     1     -12.268  13.294  64.367  1.00  0.00    -0.390 C  
HETATM   15  N   UNL     1      -9.316  13.940  66.470  1.00  0.00    -0.271 NA 
HETATM   16  O   UNL     1     -13.084  12.461  63.973  1.00  0.00    -0.763 OA 
ENDBRANCH   3   4
ENDBRANCH   2   3
TORSDOF 2
ENDMDL
MODEL        5
REMARK 921   NORMALIZED FREE ENERGY PREDICTED BY IDOCK:   -5.61 KCAL/MOL
REMARK 922        TOTAL FREE ENERGY PREDICTED BY IDOCK:   -6.39 KCAL/MOL
REMARK 923 INTER-LIGAND FREE ENERGY PREDICTED BY IDOCK:   -6.28 KCAL/MOL
REMARK 924 INTRA-LIGAND FREE ENERGY PREDICTED BY IDOCK:   -0.10 KCAL/MOL
REMARK 927      BINDING AFFINITY PREDICTED BY RF-SCORE:    0.00 PKD
ROOT
HETATM    1  C   UNL     1     -11.732  15.776  69.565  1.00  0.00    -0.369 C  
HETATM    2  C   UNL     1     -11.657  14.306  69.180  1.00  0.00    -0.346 C  
ENDROOT
BRANCH   2   3
HETATM    3  C   UNL     1     -10.571  14.063  68.132  1.00  0.00    -0.248 C  
BRANCH   3   4
HETATM    4  N   UNL     1     -11.116  13.967  66.783  1.00  0.00    -0.301 N  
HETATM    5  C   UNL     1     -11.051  15.028  65.904  1.00  0.00    -0.334 A  
HETATM    6  C   UNL     1     -11.556  14.939  64.642  1.00  0.00    -0.395 A  
HETATM    7  N   UNL     1     -11.311  16.149  64.063  1.00  0.00    -1.347 NA 
HETATM    8  C   UNL     1     -12.183  13.775  64.135  1.00  0.00    -0.396 C  
HETATM    9  N   UNL     1     -12.227  12.763  65.066  1.00  0.00    -0.448 N  
HETATM   10  O   UNL     1     -12.637  13.666  63.004  1.00  0.00    -0.729 OA 
HETATM   11  C   UNL     1     -10.670  16.910  65.007  1.00  0.00    -0.040 A  
HETATM   12  H   UNL     1     -11.556  16.433  63.114  1.00  0.00     0.000 HD 
HETATM   13  H   UNL     1     -12.667  11.892  64.768  1.00  0.00     0.000 HD 
HETATM   14  C   UNL     1     -11.741  12.793  66.363  1.00  0.00    -0.403 C  
HETATM   15  N   UNL     1     -10.501  16.252  66.137  1.00  0.00    -0.329 NA 
HETATM   16  O   UNL     1     -11.876  11.797  67.073  1.00  0.00    -0.599 OA 
ENDBRANCH   3   4
ENDBRANCH   2   3
TORSDOF 2
ENDMDL
MODEL        6
REMARK 921   NORMALIZED FREE ENERGY PREDICTED BY IDOCK:   -5.60 KCAL/MOL
REMARK 922        TOTAL FREE ENERGY PREDICTED BY IDOCK:   -6.38 KCAL/MOL
REMARK 923 INTER-LIGAND FREE ENERGY PREDICTED BY IDOCK:   -6.25 KCAL/MOL
REMARK 924 INTRA-LIGAND FREE ENERGY PREDICTED BY IDOCK:   -0.12 KCAL/MOL
REMARK 927      BINDING AFFINITY PREDICTED BY RF-SCORE:    0.00 PKD
ROOT
HETATM    1  C   UNL     1     -11.848  12.819  69.628  1.00  0.00    -0.384 C  
HETATM    2  C   UNL     1     -11.891  12.103  68.287  1.00  0.00    -0.361 C  
ENDROOT
BRANCH   2   3
HETATM    3  C   UNL     1     -10.648  12.414  67.454  1.00  0.00    -0.216 C  
BRANCH   3   4
HETATM    4  N   UNL     1     -10.850  13.552  66.565  1.00  0.00    -0.282 N  
HETATM    5  C   UNL     1     -11.484  13.410  65.348  1.00  0.00    -0.302 A  
HETATM    6  C   UNL     1     -11.677  14.472  64.517  1.00  0.00    -0.410 A  
HETATM    7  N   UNL     1     -12.333  13.974  63.431  1.00  0.00    -1.154 NA 
HETATM    8  C   UNL     1     -11.247  15.787  64.823  1.00  0.00    -0.366 C  
HETATM    9  N   UNL     1     -10.611  15.855  66.041  1.00  0.00    -0.326 N  
HETATM   10  O   UNL     1     -11.416  16.760  64.099  1.00  0.00    -1.171 OA 
HETATM   11  C   UNL     1     -12.503  12.633  63.660  1.00  0.00    -0.427 A  
HETATM   12  H   UNL     1     -12.638  14.496  62.609  1.00  0.00     0.000 HD 
HETATM   13  H   UNL     1     -10.274  16.775  66.325  1.00  0.00     0.000 HD 
HETATM   14  C   UNL     1     -10.377  14.814  66.925  1.00  0.00    -0.267 C  
HETATM   15  N   UNL     1     -11.994  12.263  64.819  1.00  0.00    -0.378 NA 
HETATM   16  O   UNL     1      -9.776  15.047  67.973  1.00  0.00    -0.210 OA 
ENDBRANCH   3   4
ENDBRANCH   2   3
TORSDOF 2
ENDMDL
MODEL        7
REMARK 921   NORMALIZED FREE ENERGY PREDICTED BY IDOCK:   -5.53 KCAL/MOL
REMARK 922        TOTAL FREE ENERGY PREDICTED BY IDOCK:   -6.30 KCAL/MOL
REMARK 923 INTER-LIGAND FREE ENERGY PREDICTED BY IDOCK:   -6.17 KCAL/MOL
REMARK 924 INTRA-LIGAND FREE ENERGY PREDICTED BY IDOCK:   -0.13 KCAL/MOL
REMARK 927      BINDING AFFINITY PREDICTED BY RF-SCORE:    0.00 PKD
ROOT
HETATM    1  C   UNL     1     -10.187  10.402  67.201  1.00  0.00    -0.271 C  
HETATM    2  C   UNL     1     -10.184  11.770  67.864  1.00  0.00    -0.203 C  
ENDROOT
BRANCH   2   3
HETATM    3  C   UNL     1     -11.530  12.473  67.690  1.00  0.00    -0.334 C  
BRANCH   3   4
HETATM    4  N   UNL     1     -11.466  13.554  66.715  1.00  0.00    -0.331 N  
HETATM    5  C   UNL     1     -11.864  13.367  65.407  1.00  0.00    -0.353 A  
HETATM    6  C   UNL     1     -11.809  14.378  64.495  1.00  0.00    -0.449 A  
HETATM    7  N   UNL     1     -12.281  13.847  63.331  1.00  0.00    -1.102 NA 
HETATM    8  C   UNL     1     -11.344  15.679  64.803  1.00  0.00    -0.343 C  
HETATM    9  N   UNL     1     -10.951  15.793  66.117  1.00  0.00    -0.232 N  
HETATM   10  O   UNL     1     -11.293  16.607  64.005  1.00  0.00    -1.120 OA 
HETATM   11  C   UNL     1     -12.596  12.540  63.599  1.00  0.00    -0.392 A  
HETATM   12  H   UNL     1     -12.380  14.327  62.436  1.00  0.00     0.000 HD 
HETATM   13  H   UNL     1     -10.604  16.707  66.409  1.00  0.00     0.000 HD 
HETATM   14  C   UNL     1     -10.974  14.805  67.088  1.00  0.00    -0.320 C  
HETATM   15  N   UNL     1     -12.350  12.222  64.855  1.00  0.00    -0.477 NA 
HETATM   16  O   UNL     1     -10.570  15.073  68.219  1.00  0.00    -0.239 OA 
ENDBRANCH   3   4
ENDBRANCH   2   3
TORSDOF 2
ENDMDL
MODEL        8
REMARK 921   NORMALIZED FREE ENERGY PREDICTED BY IDOCK:   -5.20 KCAL/MOL
REMARK 922        TOTAL FREE ENERGY PREDICTED BY IDOCK:   -5.93 KCAL/MOL
REMARK 923 INTER-LIGAND FREE ENERGY PREDICTED BY IDOCK:   -5.81 KCAL/MOL
REMARK 924 INTRA-LIGAND FREE ENERGY PREDICTED BY IDOCK:   -0.12 KCAL/MOL
REMARK 927      BINDING AFFINITY PREDICTED BY RF-SCORE:    0.00 PKD
ROOT
HETATM    1  C   UNL     1     -13.330  15.733  72.862  1.00  0.00    -0.661 C  
HETATM    2  C   UNL     1     -13.325  15.221  71.430  1.00  0.00    -0.573 C  
ENDROOT
BRANCH   2   3
HETATM    3  C   UNL     1     -11.916  14.831  70.986  1.00  0.00    -0.331 C  
BRANCH   3   4
HETATM    4  N   UNL     1     -11.914  14.124  69.711  1.00  0.00    -0.319 N  
HETATM    5  C   UNL     1     -12.013  12.749  69.652  1.00  0.00    -0.288 A  
HETATM    6  C   UNL     1     -12.016  12.086  68.461  1.00  0.00    -0.214 A  
HETATM    7  N   UNL     1     -12.137  10.766  68.777  1.00  0.00    -0.785 NA 
HETATM    8  C   UNL     1     -11.913  12.738  67.208  1.00  0.00    -0.280 C  
HETATM    9  N   UNL     1     -11.803  14.103  67.340  1.00  0.00    -0.396 N  
HETATM   10  O   UNL     1     -11.922  12.168  66.124  1.00  0.00    -0.593 OA 
HETATM   11  C   UNL     1     -12.201  10.697  70.145  1.00  0.00    -0.320 A  
HETATM   12  H   UNL     1     -12.173   9.982  68.124  1.00  0.00     0.000 HD 
HETATM   13  H   UNL     1     -11.725  14.638  66.475  1.00  0.00     0.000 HD 
HETATM   14  C   UNL     1     -11.786  14.834  68.517  1.00  0.00    -0.317 C  
HETATM   15  N   UNL     1     -12.126  11.890  70.702  1.00  0.00    -0.356 NA 
HETATM   16  O   UNL     1     -11.665  16.057  68.457  1.00  0.00    -0.375 OA 
ENDBRANCH   3   4
ENDBRANCH   2   3
TORSDOF 2
ENDMDL
MODEL        9
REMARK 921   NORMALIZED FREE ENERGY PREDICTED BY IDOCK:   -5.18 KCAL/MOL
REMARK 922        TOTAL FREE ENERGY PREDICTED BY IDOCK:   -5.91 KCAL/MOL
REMARK 923 INTER-LIGAND FREE ENERGY PREDICTED BY IDOCK:   -5.87 KCAL/MOL
REMARK 924 INTRA-LIGAND FREE ENERGY PREDICTED BY IDOCK:   -0.04 KCAL/MOL
REMARK 927      BINDING AFFINITY PREDICTED BY RF-SCORE:    0.00 PKD
ROOT
HETATM    1  C   UNL     1     -12.033  16.288  72.522  1.00  0.00    -0.648 C  
HETATM    2  C   UNL     1     -11.451  15.350  71.476  1.00  0.00    -0.478 C  
ENDROOT
BRANCH   2   3
HETATM    3  C   UNL     1     -12.553  14.712  70.630  1.00  0.00    -0.357 C  
BRANCH   3   4
HETATM    4  N   UNL     1     -12.690  13.284  70.887  1.00  0.00    -0.293 N  
HETATM    5  C   UNL     1     -12.160  12.344  70.028  1.00  0.00    -0.263 A  
HETATM    6  C   UNL     1     -12.284  11.008  70.269  1.00  0.00    -0.363 A  
HETATM    7  N   UNL     1     -11.642  10.389  69.238  1.00  0.00    -0.423 NA 
HETATM    8  C   UNL     1     -12.958  10.481  71.397  1.00  0.00    -0.440 C  
HETATM    9  N   UNL     1     -13.474  11.470  72.203  1.00  0.00    -0.523 N  
HETATM   10  O   UNL     1     -13.076   9.287  71.642  1.00  0.00    -0.340 OA 
HETATM   11  C   UNL     1     -11.164  11.383  68.424  1.00  0.00    -0.263 A  
HETATM   12  H   UNL     1     -11.539   9.383  69.099  1.00  0.00     0.000 HD 
HETATM   13  H   UNL     1     -13.974  11.160  73.036  1.00  0.00     0.000 HD 
HETATM   14  C   UNL     1     -13.389  12.839  72.010  1.00  0.00    -0.466 C  
HETATM   15  N   UNL     1     -11.466  12.583  68.881  1.00  0.00    -0.285 NA 
HETATM   16  O   UNL     1     -13.923  13.590  72.826  1.00  0.00    -0.733 OA 
ENDBRANCH   3   4
ENDBRANCH   2   3
TORSDOF 2
ENDMDL
MODEL       10
REMARK 921   NORMALIZED FREE ENERGY PREDICTED BY IDOCK:   -5.16 KCAL/MOL
REMARK 922        TOTAL FREE ENERGY PREDICTED BY IDOCK:   -5.88 KCAL/MOL
REMARK 923 INTER-LIGAND FREE ENERGY PREDICTED BY IDOCK:   -5.86 KCAL/MOL
REMARK 924 INTRA-LIGAND FREE ENERGY PREDICTED BY IDOCK:   -0.02 KCAL/MOL
REMARK 927      BINDING AFFINITY PREDICTED BY RF-SCORE:    0.00 PKD
ROOT
HETATM    1  C   UNL     1      -8.475  12.920  68.116  1.00  0.00    -0.176 C  
HETATM    2  C   UNL     1      -9.007  14.318  68.386  1.00  0.00    -0.189 C  
ENDROOT
BRANCH   2   3
HETATM    3  C   UNL     1     -10.535  14.343  68.366  1.00  0.00    -0.246 C  
BRANCH   3   4
HETATM    4  N   UNL     1     -11.073  14.161  67.023  1.00  0.00    -0.300 N  
HETATM    5  C   UNL     1     -11.023  15.172  66.086  1.00  0.00    -0.331 A  
HETATM    6  C   UNL     1     -11.522  15.004  64.830  1.00  0.00    -0.403 A  
HETATM    7  N   UNL     1     -11.296  16.183  64.185  1.00  0.00    -1.238 NA 
HETATM    8  C   UNL     1     -12.126  13.802  64.387  1.00  0.00    -0.436 C  
HETATM    9  N   UNL     1     -12.156  12.843  65.373  1.00  0.00    -0.429 N  
HETATM   10  O   UNL     1     -12.574  13.621  63.262  1.00  0.00    -0.816 OA 
HETATM   11  C   UNL     1     -10.672  17.007  65.086  1.00  0.00    -0.053 A  
HETATM   12  H   UNL     1     -11.543  16.409  63.220  1.00  0.00     0.000 HD 
HETATM   13  H   UNL     1     -12.579  11.948  65.123  1.00  0.00     0.000 HD 
HETATM   14  C   UNL     1     -11.675  12.954  66.668  1.00  0.00    -0.390 C  
HETATM   15  N   UNL     1     -10.496  16.417  66.252  1.00  0.00    -0.310 NA 
HETATM   16  O   UNL     1     -11.796  11.997  67.432  1.00  0.00    -0.546 OA 
ENDBRANCH   3   4
ENDBRANCH   2   3
TORSDOF 2
ENDMDL
MODEL       11
REMARK 921   NORMALIZED FREE ENERGY PREDICTED BY IDOCK:   -5.13 KCAL/MOL
REMARK 922        TOTAL FREE ENERGY PREDICTED BY IDOCK:   -5.85 KCAL/MOL
REMARK 923 INTER-LIGAND FREE ENERGY PREDICTED BY IDOCK:   -5.70 KCAL/MOL
REMARK 924 INTRA-LIGAND FREE ENERGY PREDICTED BY IDOCK:   -0.15 KCAL/MOL
REMARK 927      BINDING AFFINITY PREDICTED BY RF-SCORE:    0.00 PKD
ROOT
HETATM    1  C   UNL     1     -11.781  13.581  66.289  1.00  0.00    -0.401 C  
HETATM    2  C   UNL     1     -11.864  12.722  67.541  1.00  0.00    -0.402 C  
ENDROOT
BRANCH   2   3
HETATM    3  C   UNL     1     -11.064  13.337  68.689  1.00  0.00    -0.268 C  
BRANCH   3   4
HETATM    4  N   UNL     1     -11.922  13.979  69.678  1.00  0.00    -0.319 N  
HETATM    5  C   UNL     1     -12.533  13.252  70.679  1.00  0.00    -0.298 A  
HETATM    6  C   UNL     1     -13.331  13.850  71.607  1.00  0.00    -0.362 A  
HETATM    7  N   UNL     1     -13.747  12.849  72.433  1.00  0.00    -0.554 NA 
HETATM    8  C   UNL     1     -13.601  15.240  71.621  1.00  0.00    -0.491 C  
HETATM    9  N   UNL     1     -12.974  15.901  70.590  1.00  0.00    -0.686 N  
HETATM   10  O   UNL     1     -14.307  15.804  72.447  1.00  0.00    -0.514 OA 
HETATM   11  C   UNL     1     -13.179  11.694  71.961  1.00  0.00    -0.338 A  
HETATM   12  H   UNL     1     -14.361  12.940  73.243  1.00  0.00     0.000 HD 
HETATM   13  H   UNL     1     -13.125  16.909  70.538  1.00  0.00     0.000 HD 
HETATM   14  C   UNL     1     -12.159  15.352  69.613  1.00  0.00    -0.327 C  
HETATM   15  N   UNL     1     -12.436  11.911  70.893  1.00  0.00    -0.353 NA 
HETATM   16  O   UNL     1     -11.686  16.089  68.748  1.00  0.00    -0.385 OA 
ENDBRANCH   3   4
ENDBRANCH   2   3
TORSDOF 2
ENDMDL
MODEL       12
REMARK 921   NORMALIZED FREE ENERGY PREDICTED BY IDOCK:   -5.07 KCAL/MOL
REMARK 922        TOTAL FREE ENERGY PREDICTED BY IDOCK:   -5.79 KCAL/MOL
REMARK 923 INTER-LIGAND FREE ENERGY PREDICTED BY IDOCK:   -5.78 KCAL/MOL
REMARK 924 INTRA-LIGAND FREE ENERGY PREDICTED BY IDOCK:   -0.00 KCAL/MOL
REMARK 927      BINDING AFFINITY PREDICTED BY RF-SCORE:    0.00 PKD
ROOT
HETATM    1  C   UNL     1     -12.253  12.443  63.435  1.00  0.00    -0.623 C  
HETATM    2  C   UNL     1     -12.095  13.835  64.029  1.00  0.00    -0.448 C  
ENDROOT
BRANCH   2   3
HETATM    3  C   UNL     1     -10.834  13.930  64.887  1.00  0.00    -0.405 C  
BRANCH   3   4
HETATM    4  N   UNL     1     -11.103  14.499  66.202  1.00  0.00    -0.328 N  
HETATM    5  C   UNL     1     -10.638  15.749  66.553  1.00  0.00    -0.306 A  
HETATM    6  C   UNL     1     -10.892  16.285  67.780  1.00  0.00    -0.315 A  
HETATM    7  N   UNL     1     -10.300  17.513  67.773  1.00  0.00    -0.352 NA 
HETATM    8  C   UNL     1     -11.635  15.615  68.782  1.00  0.00    -0.384 C  
HETATM    9  N   UNL     1     -12.055  14.371  68.373  1.00  0.00    -0.574 N  
HETATM   10  O   UNL     1     -11.884  16.076  69.889  1.00  0.00    -0.315 OA 
HETATM   11  C   UNL     1      -9.718  17.658  66.541  1.00  0.00    -0.304 A  
HETATM   12  H   UNL     1     -10.293  18.192  68.535  1.00  0.00     0.000 HD 
HETATM   13  H   UNL     1     -12.597  13.830  69.047  1.00  0.00     0.000 HD 
HETATM   14  C   UNL     1     -11.824  13.768  67.147  1.00  0.00    -0.406 C  
HETATM   15  N   UNL     1      -9.907  16.598  65.779  1.00  0.00    -0.536 NA 
HETATM   16  O   UNL     1     -12.262  12.635  66.948  1.00  0.00    -0.489 OA 
ENDBRANCH   3   4
ENDBRANCH   2   3
TORSDOF 2
ENDMDL
MODEL       13
REMARK 921   NORMALIZED FREE ENERGY PREDICTED BY IDOCK:   -5.04 KCAL/MOL
REMARK 922        TOTAL FREE ENERGY PREDICTED BY IDOCK:   -5.76 KCAL/MOL
REMARK 923 INTER-LIGAND FREE ENERGY PREDICTED BY IDOCK:   -5.58 KCAL/MOL
REMARK 924 INTRA-LIGAND FREE ENERGY PREDICTED BY IDOCK:   -0.17 KCAL/MOL
REMARK 927      BINDING AFFINITY PREDICTED BY RF-SCORE:    0.00 PKD
ROOT
HETATM    1  C   UNL     1     -12.541  15.826  74.035  1.00  0.00    -0.758 C  
HETATM    2  C   UNL     1     -12.145  16.063  72.586  1.00  0.00    -0.640 C  
ENDROOT
BRANCH   2   3
HETATM    3  C   UNL     1     -13.192  15.499  71.626  1.00  0.00    -0.492 C  
BRANCH   3   4
HETATM    4  N   UNL     1     -12.728  14.296  70.947  1.00  0.00    -0.340 N  
HETATM    5  C   UNL     1     -12.038  14.365  69.754  1.00  0.00    -0.334 A  
HETATM    6  C   UNL     1     -11.600  13.242  69.119  1.00  0.00    -0.319 A  
HETATM    7  N   UNL     1     -10.961  13.681  67.998  1.00  0.00    -0.244 NA 
HETATM    8  C   UNL     1     -11.814  11.934  69.617  1.00  0.00    -0.337 C  
HETATM    9  N   UNL     1     -12.519  11.936  70.799  1.00  0.00    -0.335 N  
HETATM   10  O   UNL     1     -11.424  10.909  69.071  1.00  0.00    -0.255 OA 
HETATM   11  C   UNL     1     -11.047  15.049  68.011  1.00  0.00    -0.300 A  
HETATM   12  H   UNL     1     -10.509  13.105  67.288  1.00  0.00     0.000 HD 
HETATM   13  H   UNL     1     -12.709  11.025  71.215  1.00  0.00     0.000 HD 
HETATM   14  C   UNL     1     -12.998  13.039  71.488  1.00  0.00    -0.305 C  
HETATM   15  N   UNL     1     -11.700  15.492  69.068  1.00  0.00    -0.367 NA 
HETATM   16  O   UNL     1     -13.626  12.862  72.531  1.00  0.00    -0.556 OA 
ENDBRANCH   3   4
ENDBRANCH   2   3
TORSDOF 2
ENDMDL
MODEL       14
REMARK 921   NORMALIZED FREE ENERGY PREDICTED BY IDOCK:   -4.98 KCAL/MOL
REMARK 922        TOTAL FREE ENERGY PREDICTED BY IDOCK:   -5.69 KCAL/MOL
REMARK 923 INTER-LIGAND FREE ENERGY PREDICTED BY IDOCK:   -5.52 KCAL/MOL
REMARK 924 INTRA-LIGAND FREE ENERGY PREDICTED BY IDOCK:   -0.17 KCAL/MOL
REMARK 927      BINDING AFFINITY PREDICTED BY RF-SCORE:    0.00 PKD
ROOT
HETATM    1  C   UNL     1     -10.096   8.793  67.833  1.00  0.00    -0.257 C  
HETATM    2  C   UNL     1     -10.144   9.032  66.332  1.00  0.00    -0.351 C  
ENDROOT
BRANCH   2   3
HETATM    3  C   UNL     1      -9.407  10.316  65.952  1.00  0.00    -0.180 C  
BRANCH   3   4
HETATM    4  N   UNL     1     -10.266  11.259  65.247  1.00  0.00    -0.261 N  
HETATM    5  C   UNL     1     -11.009  12.202  65.927  1.00  0.00    -0.292 A  
HETATM    6  C   UNL     1     -11.810  13.087  65.271  1.00  0.00    -0.376 A  
HETATM    7  N   UNL     1     -12.372  13.862  66.241  1.00  0.00    -0.460 NA 
HETATM    8  C   UNL     1     -11.950  13.112  63.862  1.00  0.00    -0.488 C  
HETATM    9  N   UNL     1     -11.196  12.138  63.248  1.00  0.00    -0.692 N  
HETATM   10  O   UNL     1     -12.656  13.901  63.246  1.00  0.00    -0.824 OA 
HETATM   11  C   UNL     1     -11.883  13.405  67.437  1.00  0.00    -0.375 A  
HETATM   12  H   UNL     1     -13.029  14.632  66.104  1.00  0.00     0.000 HD 
HETATM   13  H   UNL     1     -11.249  12.098  62.230  1.00  0.00     0.000 HD 
HETATM   14  C   UNL     1     -10.371  11.207  63.857  1.00  0.00    -0.380 C  
HETATM   15  N   UNL     1     -11.052  12.394  67.275  1.00  0.00    -0.266 NA 
HETATM   16  O   UNL     1      -9.774  10.391  63.155  1.00  0.00    -0.319 OA 
ENDBRANCH   3   4
ENDBRANCH   2   3
TORSDOF 2
ENDMDL
MODEL       15
REMARK 921   NORMALIZED FREE ENERGY PREDICTED BY IDOCK:   -4.96 KCAL/MOL
REMARK 922        TOTAL FREE ENERGY PREDICTED BY IDOCK:   -5.66 KCAL/MOL
REMARK 923 INTER-LIGAND FREE ENERGY PREDICTED BY IDOCK:   -5.55 KCAL/MOL
REMARK 924 INTRA-LIGAND FREE ENERGY PREDICTED BY IDOCK:   -0.11 KCAL/MOL
REMARK 927      BINDING AFFINITY PREDICTED BY RF-SCORE:    0.00 PKD
ROOT
HETATM    1  C   UNL     1     -10.319  17.254  68.193  1.00  0.00    -0.357 C  
HETATM    2  C   UNL     1     -10.618  16.103  69.141  1.00  0.00    -0.276 C  
ENDROOT
BRANCH   2   3
HETATM    3  C   UNL     1     -11.899  15.373  68.738  1.00  0.00    -0.318 C  
BRANCH   3   4
HETATM    4  N   UNL     1     -12.206  14.262  69.631  1.00  0.00    -0.335 N  
HETATM    5  C   UNL     1     -12.981  14.439  70.759  1.00  0.00    -0.326 A  
HETATM    6  C   UNL     1     -13.272  13.402  71.592  1.00  0.00    -0.364 A  
HETATM    7  N   UNL     1     -14.053  13.931  72.577  1.00  0.00    -0.702 NA 
HETATM    8  C   UNL     1     -12.809  12.080  71.381  1.00  0.00    -0.288 C  
HETATM    9  N   UNL     1     -12.032  11.977  70.250  1.00  0.00    -0.442 N  
HETATM   10  O   UNL     1     -13.063  11.129  72.109  1.00  0.00    -0.463 OA 
HETATM   11  C   UNL     1     -14.193  15.264  72.288  1.00  0.00    -0.547 A  
HETATM   12  H   UNL     1     -14.454  13.433  73.372  1.00  0.00     0.000 HD 
HETATM   13  H   UNL     1     -11.664  11.050  70.036  1.00  0.00     0.000 HD 
HETATM   14  C   UNL     1     -11.694  12.991  69.369  1.00  0.00    -0.326 C  
HETATM   15  N   UNL     1     -13.549  15.600  71.187  1.00  0.00    -0.576 NA 
HETATM   16  O   UNL     1     -10.972  12.728  68.407  1.00  0.00    -0.232 OA 
ENDBRANCH   3   4
ENDBRANCH   2   3
TORSDOF 2
ENDMDL
MODEL       16
REMARK 921   NORMALIZED FREE ENERGY PREDICTED BY IDOCK:   -4.90 KCAL/MOL
REMARK 922        TOTAL FREE ENERGY PREDICTED BY IDOCK:   -5.59 KCAL/MOL
REMARK 923 INTER-LIGAND FREE ENERGY PREDICTED BY IDOCK:   -5.46 KCAL/MOL
REMARK 924 INTRA-LIGAND FREE ENERGY PREDICTED BY IDOCK:   -0.13 KCAL/MOL
REMARK 927      BINDING AFFINITY PREDICTED BY RF-SCORE:    0.00 PKD
ROOT
HETATM    1  C   UNL     1     -10.625   9.119  67.910  1.00  0.00    -0.272 C  
HETATM    2  C   UNL     1     -11.278  10.479  68.099  1.00  0.00    -0.357 C  
ENDROOT
BRANCH   2   3
HETATM    3  C   UNL     1     -10.361  11.605  67.622  1.00  0.00    -0.189 C  
BRANCH   3   4
HETATM    4  N   UNL     1     -10.991  12.439  66.607  1.00  0.00    -0.257 N  
HETATM    5  C   UNL     1     -10.743  12.248  65.264  1.00  0.00    -0.292 A  
HETATM    6  C   UNL     1     -11.335  13.023  64.312  1.00  0.00    -0.376 A  
HETATM    7  N   UNL     1     -10.876  12.553  63.118  1.00  0.00    -0.650 NA 
HETATM    8  C   UNL     1     -12.233  14.075  64.615  1.00  0.00    -0.435 C  
HETATM    9  N   UNL     1     -12.425  14.221  65.970  1.00  0.00    -0.423 N  
HETATM   10  O   UNL     1     -12.785  14.781  63.780  1.00  0.00    -0.767 OA 
HETATM   11  C   UNL     1     -10.028  11.516  63.408  1.00  0.00    -0.417 A  
HETATM   12  H   UNL     1     -11.116  12.904  62.190  1.00  0.00     0.000 HD 
HETATM   13  H   UNL     1     -13.062  14.962  66.261  1.00  0.00     0.000 HD 
HETATM   14  C   UNL     1     -11.849  13.473  66.984  1.00  0.00    -0.402 C  
HETATM   15  N   UNL     1      -9.928  11.310  64.707  1.00  0.00    -0.260 NA 
HETATM   16  O   UNL     1     -12.120  13.747  68.153  1.00  0.00    -0.364 OA 
ENDBRANCH   3   4
ENDBRANCH   2   3
TORSDOF 2
ENDMDL
MODEL       17
REMARK 921   NORMALIZED FREE ENERGY PREDICTED BY IDOCK:   -4.89 KCAL/MOL
REMARK 922        TOTAL FREE ENERGY PREDICTED BY IDOCK:   -5.59 KCAL/MOL
REMARK 923 INTER-LIGAND FREE ENERGY PREDICTED BY IDOCK:   -5.46 KCAL/MOL
REMARK 924 INTRA-LIGAND FREE ENERGY PREDICTED BY IDOCK:   -0.13 KCAL/MOL
REMARK 927      BINDING AFFINITY PREDICTED BY RF-SCORE:    0.00 PKD
ROOT
HETATM    1  C   UNL     1     -12.502  11.851  63.370  1.00  0.00    -0.582 C  
HETATM    2  C   UNL     1     -11.640  13.061  63.693  1.00  0.00    -0.507 C  
ENDROOT
BRANCH   2   3
HETATM    3  C   UNL     1     -12.393  14.057  64.576  1.00  0.00    -0.378 C  
BRANCH   3   4
HETATM    4  N   UNL     1     -11.493  14.868  65.385  1.00  0.00    -0.341 N  
HETATM    5  C   UNL     1     -11.047  14.436  66.617  1.00  0.00    -0.326 A  
HETATM    6  C   UNL     1     -10.202  15.190  67.374  1.00  0.00    -0.235 A  
HETATM    7  N   UNL     1      -9.968  14.459  68.500  1.00  0.00    -0.233 NA 
HETATM    8  C   UNL     1      -9.723  16.461  66.972  1.00  0.00    -0.248 C  
HETATM    9  N   UNL     1     -10.217  16.837  65.744  1.00  0.00    -0.323 N  
HETATM   10  O   UNL     1      -8.958  17.156  67.628  1.00  0.00    -0.222 OA 
HETATM   11  C   UNL     1     -10.684  13.298  68.368  1.00  0.00    -0.257 A  
HETATM   12  H   UNL     1      -9.375  14.725  69.288  1.00  0.00     0.000 HD 
HETATM   13  H   UNL     1      -9.913  17.745  65.391  1.00  0.00     0.000 HD 
HETATM   14  C   UNL     1     -11.082  16.122  64.932  1.00  0.00    -0.325 C  
HETATM   15  N   UNL     1     -11.352  13.259  67.231  1.00  0.00    -0.299 NA 
HETATM   16  O   UNL     1     -11.439  16.614  63.862  1.00  0.00    -1.186 OA 
ENDBRANCH   3   4
ENDBRANCH   2   3
TORSDOF 2
ENDMDL
MODEL       18
REMARK 921   NORMALIZED FREE ENERGY PREDICTED BY IDOCK:   -4.81 KCAL/MOL
REMARK 922        TOTAL FREE ENERGY PREDICTED BY IDOCK:   -5.50 KCAL/MOL
REMARK 923 INTER-LIGAND FREE ENERGY PREDICTED BY IDOCK:   -5.44 KCAL/MOL
REMARK 924 INTRA-LIGAND FREE ENERGY PREDICTED BY IDOCK:   -0.06 KCAL/MOL
REMARK 927      BINDING AFFINITY PREDICTED BY RF-SCORE:    0.00 PKD
ROOT
HETATM    1  C   UNL     1     -12.377  12.011  63.434  1.00  0.00    -0.635 C  
HETATM    2  C   UNL     1     -12.572  12.596  64.823  1.00  0.00    -0.530 C  
ENDROOT
BRANCH   2   3
HETATM    3  C   UNL     1     -11.264  12.595  65.613  1.00  0.00    -0.309 C  
BRANCH   3   4
HETATM    4  N   UNL     1     -11.356  13.383  66.836  1.00  0.00    -0.311 N  
HETATM    5  C   UNL     1     -11.570  12.786  68.061  1.00  0.00    -0.341 A  
HETATM    6  C   UNL     1     -11.653  13.520  69.206  1.00  0.00    -0.316 A  
HETATM    7  N   UNL     1     -11.855  12.616  70.207  1.00  0.00    -0.537 NA 
HETATM    8  C   UNL     1     -11.534  14.931  69.236  1.00  0.00    -0.303 C  
HETATM    9  N   UNL     1     -11.336  15.461  67.982  1.00  0.00    -0.339 N  
HETATM   10  O   UNL     1     -11.595  15.613  70.251  1.00  0.00    -0.297 OA 
HETATM   11  C   UNL     1     -11.885  11.380  69.615  1.00  0.00    -0.362 A  
HETATM   12  H   UNL     1     -11.962  12.819  71.201  1.00  0.00     0.000 HD 
HETATM   13  H   UNL     1     -11.241  16.476  67.929  1.00  0.00     0.000 HD 
HETATM   14  C   UNL     1     -11.251  14.773  66.783  1.00  0.00    -0.344 C  
HETATM   15  N   UNL     1     -11.716  11.455  68.309  1.00  0.00    -0.493 NA 
HETATM   16  O   UNL     1     -11.085  15.408  65.742  1.00  0.00    -0.324 OA 
ENDBRANCH   3   4
ENDBRANCH   2   3
TORSDOF 2
ENDMDL
MODEL       19
REMARK 921   NORMALIZED FREE ENERGY PREDICTED BY IDOCK:   -4.80 KCAL/MOL
REMARK 922        TOTAL FREE ENERGY PREDICTED BY IDOCK:   -5.48 KCAL/MOL
REMARK 923 INTER-LIGAND FREE ENERGY PREDICTED BY IDOCK:   -5.42 KCAL/MOL
REMARK 924 INTRA-LIGAND FREE ENERGY PREDICTED BY IDOCK:   -0.06 KCAL/MOL
REMARK 927      BINDING AFFINITY PREDICTED BY RF-SCORE:    0.00 PKD
ROOT
HETATM    1  C   UNL     1     -11.968  16.056  71.831  1.00  0.00    -0.606 C  
HETATM    2  C   UNL     1     -12.073  15.677  70.362  1.00  0.00    -0.425 C  
ENDROOT
BRANCH   2   3
HETATM    3  C   UNL     1     -10.703  15.700  69.685  1.00  0.00    -0.278 C  
BRANCH   3   4
HETATM    4  N   UNL     1     -10.797  15.972  68.256  1.00  0.00    -0.304 N  
HETATM    5  C   UNL     1     -10.567  17.234  67.748  1.00  0.00    -0.367 A  
HETATM    6  C   UNL     1     -10.650  17.489  66.412  1.00  0.00    -0.195 A  
HETATM    7  N   UNL     1     -10.356  18.813  66.274  1.00  0.00    -0.430 NA 
HETATM    8  C   UNL     1     -10.979  16.503  65.451  1.00  0.00    -0.131 C  
HETATM    9  N   UNL     1     -11.209  15.274  66.025  1.00  0.00    -0.284 N  
HETATM   10  O   UNL     1     -11.052  16.703  64.245  1.00  0.00    -1.029 OA 
HETATM   11  C   UNL     1     -10.111  19.292  67.534  1.00  0.00    -0.389 A  
HETATM   12  H   UNL     1     -10.325  19.344  65.402  1.00  0.00     0.000 HD 
HETATM   13  H   UNL     1     -11.451  14.514  65.389  1.00  0.00     0.000 HD 
HETATM   14  C   UNL     1     -11.148  14.952  67.372  1.00  0.00    -0.325 C  
HETATM   15  N   UNL     1     -10.234  18.351  68.451  1.00  0.00    -0.384 NA 
HETATM   16  O   UNL     1     -11.399  13.799  67.720  1.00  0.00    -0.276 OA 
ENDBRANCH   3   4
ENDBRANCH   2   3
TORSDOF 2
ENDMDL
MODEL       20
REMARK 921   NORMALIZED FREE ENERGY PREDICTED BY IDOCK:   -4.79 KCAL/MOL
REMARK 922        TOTAL FREE ENERGY PREDICTED BY IDOCK:   -5.47 KCAL/MOL
REMARK 923 INTER-LIGAND FREE ENERGY PREDICTED BY IDOCK:   -5.35 KCAL/MOL
REMARK 924 INTRA-LIGAND FREE ENERGY PREDICTED BY IDOCK:   -0.12 KCAL/MOL
REMARK 927      BINDING AFFINITY PREDICTED BY RF-SCORE:    0.00 PKD
ROOT
HETATM    1  C   UNL     1      -9.635  20.395  67.351  1.00  0.00    -0.584 C  
HETATM    2  C   UNL     1     -10.513  19.285  66.794  1.00  0.00    -0.544 C  
ENDROOT
BRANCH   2   3
HETATM    3  C   UNL     1      -9.670  18.179  66.160  1.00  0.00    -0.210 C  
BRANCH   3   4
HETATM    4  N   UNL     1     -10.276  16.863  66.318  1.00  0.00    -0.321 N  
HETATM    5  C   UNL     1     -10.105  16.126  67.471  1.00  0.00    -0.256 A  
HETATM    6  C   UNL     1     -10.675  14.898  67.623  1.00  0.00    -0.270 A  
HETATM    7  N   UNL     1     -10.310  14.475  68.867  1.00  0.00    -0.237 NA 
HETATM    8  C   UNL     1     -11.471  14.281  66.627  1.00  0.00    -0.364 C  
HETATM    9  N   UNL     1     -11.588  15.062  65.500  1.00  0.00    -0.267 N  
HETATM   10  O   UNL     1     -12.001  13.183  66.740  1.00  0.00    -0.384 OA 
HETATM   11  C   UNL     1      -9.536  15.471  69.405  1.00  0.00    -0.279 A  
HETATM   12  H   UNL     1     -10.562  13.592  69.310  1.00  0.00     0.000 HD 
HETATM   13  H   UNL     1     -12.150  14.678  64.739  1.00  0.00     0.000 HD 
HETATM   14  C   UNL     1     -11.029  16.310  65.282  1.00  0.00    -0.236 C  
HETATM   15  N   UNL     1      -9.395  16.487  68.575  1.00  0.00    -0.221 NA 
HETATM   16  O   UNL     1     -11.224  16.869  64.202  1.00  0.00    -1.176 OA 
ENDBRANCH   3   4
ENDBRANCH   2   3
TORSDOF 2
ENDMDL
MODEL       21
REMARK 921   NORMALIZED FREE ENERGY PREDICTED BY IDOCK:   -4.77 KCAL/MOL
REMARK 922        TOTAL FREE ENERGY PREDICTED BY IDOCK:   -5.45 KCAL/MOL
REMARK 923 INTER-LIGAND FREE ENERGY PREDICTED BY IDOCK:   -5.38 KCAL/MOL
REMARK 924 INTRA-LIGAND FREE ENERGY PREDICTED BY IDOCK:   -0.07 KCAL/MOL
REMARK 927      BINDING AFFINITY PREDICTED BY RF-SCORE:    0.00 PKD
ROOT
HETATM    1  C   UNL     1     -10.128  17.610  68.751  1.00  0.00    -0.377 C  
HETATM    2  C   UNL     1     -10.591  17.667  67.304  1.00  0.00    -0.297 C  
ENDROOT
BRANCH   2   3
HETATM    3  C   UNL     1      -9.553  17.053  66.366  1.00  0.00    -0.282 C  
BRANCH   3   4
HETATM    4  N   UNL     1     -10.021  15.813  65.759  1.00  0.00    -0.338 N  
HETATM    5  C   UNL     1      -9.547  14.586  66.173  1.00  0.00    -0.297 A  
HETATM    6  C   UNL     1      -9.986  13.426  65.609  1.00  0.00    -0.235 A  
HETATM    7  N   UNL     1      -9.323  12.428  66.261  1.00  0.00    -0.319 NA 
HETATM    8  C   UNL     1     -10.945  13.381  64.568  1.00  0.00    -0.390 C  
HETATM    9  N   UNL     1     -11.364  14.637  64.194  1.00  0.00    -0.607 N  
HETATM   10  O   UNL     1     -11.363  12.353  64.050  1.00  0.00    -0.338 OA 
HETATM   11  C   UNL     1      -8.515  13.037  67.185  1.00  0.00    -0.174 A  
HETATM   12  H   UNL     1      -9.411  11.425  66.093  1.00  0.00     0.000 HD 
HETATM   13  H   UNL     1     -12.056  14.680  63.446  1.00  0.00     0.000 HD 
HETATM   14  C   UNL     1     -10.951  15.851  64.720  1.00  0.00    -0.375 C  
HETATM   15  N   UNL     1      -8.630  14.350  67.152  1.00  0.00    -0.213 NA 
HETATM   16  O   UNL     1     -11.420  16.890  64.257  1.00  0.00    -1.142 OA 
ENDBRANCH   3   4
ENDBRANCH   2   3
TORSDOF 2
ENDMDL
MODEL       22
REMARK 921   NORMALIZED FREE ENERGY PREDICTED BY IDOCK:   -4.75 KCAL/MOL
REMARK 922        TOTAL FREE ENERGY PREDICTED BY IDOCK:   -5.43 KCAL/MOL
REMARK 923 INTER-LIGAND FREE ENERGY PREDICTED BY IDOCK:   -5.27 KCAL/MOL
REMARK 924 INTRA-LIGAND FREE ENERGY PREDICTED BY IDOCK:   -0.16 KCAL/MOL
REMARK 927      BINDING AFFINITY PREDICTED BY RF-SCORE:    0.00 PKD
ROOT
HETATM    1  C   UNL     1     -10.344   8.718  70.523  1.00  0.00    -0.241 C  
HETATM    2  C   UNL     1     -10.408  10.174  70.091  1.00  0.00    -0.280 C  
ENDROOT
BRANCH   2   3
HETATM    3  C   UNL     1     -11.822  10.563  69.661  1.00  0.00    -0.234 C  
BRANCH   3   4
HETATM    4  N   UNL     1     -12.384  11.618  70.495  1.00  0.00    -0.341 N  
HETATM    5  C   UNL     1     -12.283  12.946  70.139  1.00  0.00    -0.266 A  
HETATM    6  C   UNL     1     -12.810  13.934  70.915  1.00  0.00    -0.300 A  
HETATM    7  N   UNL     1     -12.537  15.099  70.262  1.00  0.00    -0.520 NA 
HETATM    8  C   UNL     1     -13.490  13.686  72.133  1.00  0.00    -0.512 C  
HETATM    9  N   UNL     1     -13.542  12.345  72.435  1.00  0.00    -0.567 N  
HETATM   10  O   UNL     1     -13.981  14.554  72.845  1.00  0.00    -0.536 OA 
HETATM   11  C   UNL     1     -11.856  14.756  69.123  1.00  0.00    -0.305 A  
HETATM   12  H   UNL     1     -12.790  16.041  70.563  1.00  0.00     0.000 HD 
HETATM   13  H   UNL     1     -14.019  12.094  73.301  1.00  0.00     0.000 HD 
HETATM   14  C   UNL     1     -13.020  11.297  71.694  1.00  0.00    -0.432 C  
HETATM   15  N   UNL     1     -11.686  13.452  69.024  1.00  0.00    -0.302 NA 
HETATM   16  O   UNL     1     -13.143  10.148  72.119  1.00  0.00    -0.435 OA 
ENDBRANCH   3   4
ENDBRANCH   2   3
TORSDOF 2
ENDMDL
MODEL       23
REMARK 921   NORMALIZED FREE ENERGY PREDICTED BY IDOCK:   -4.74 KCAL/MOL
REMARK 922        TOTAL FREE ENERGY PREDICTED BY IDOCK:   -5.42 KCAL/MOL
REMARK 923 INTER-LIGAND FREE ENERGY PREDICTED BY IDOCK:   -5.27 KCAL/MOL
REMARK 924 INTRA-LIGAND FREE ENERGY PREDICTED BY IDOCK:   -0.14 KCAL/MOL
REMARK 927      BINDING AFFINITY PREDICTED BY RF-SCORE:    0.00 PKD
ROOT
HETATM    1  C   UNL     1     -11.207  13.472  66.369  1.00  0.00    -0.322 C  
HETATM    2  C   UNL     1     -12.033  13.392  67.643  1.00  0.00    -0.362 C  
ENDROOT
BRANCH   2   3
HETATM    3  C   UNL     1     -11.163  13.021  68.844  1.00  0.00    -0.278 C  
BRANCH   3   4
HETATM    4  N   UNL     1     -11.851  12.131  69.771  1.00  0.00    -0.332 N  
HETATM    5  C   UNL     1     -12.553  12.623  70.852  1.00  0.00    -0.249 A  
HETATM    6  C   UNL     1     -13.200  11.793  71.718  1.00  0.00    -0.329 A  
HETATM    7  N   UNL     1     -13.785  12.610  72.640  1.00  0.00    -0.670 NA 
HETATM    8  C   UNL     1     -13.204  10.383  71.588  1.00  0.00    -0.400 C  
HETATM    9  N   UNL     1     -12.475   9.960  70.500  1.00  0.00    -0.489 N  
HETATM   10  O   UNL     1     -13.784   9.616  72.346  1.00  0.00    -0.414 OA 
HETATM   11  C   UNL     1     -13.460  13.893  72.285  1.00  0.00    -0.526 A  
HETATM   12  H   UNL     1     -14.352  12.322  73.438  1.00  0.00     0.000 HD 
HETATM   13  H   UNL     1     -12.435   8.952  70.345  1.00  0.00     0.000 HD 
HETATM   14  C   UNL     1     -11.790  10.749  69.590  1.00  0.00    -0.320 C  
HETATM   15  N   UNL     1     -12.709  13.930  71.202  1.00  0.00    -0.352 NA 
HETATM   16  O   UNL     1     -11.173  10.204  68.676  1.00  0.00    -0.230 OA 
ENDBRANCH   3   4
ENDBRANCH   2   3
TORSDOF 2
ENDMDL
MODEL       24
REMARK 921   NORMALIZED FREE ENERGY PREDICTED BY IDOCK:   -4.69 KCAL/MOL
REMARK 922        TOTAL FREE ENERGY PREDICTED BY IDOCK:   -5.36 KCAL/MOL
REMARK 923 INTER-LIGAND FREE ENERGY PREDICTED BY IDOCK:   -5.19 KCAL/MOL
REMARK 924 INTRA-LIGAND FREE ENERGY PREDICTED BY IDOCK:   -0.17 KCAL/MOL
REMARK 927      BINDING AFFINITY PREDICTED BY RF-SCORE:    0.00 PKD
ROOT
HETATM    1  C   UNL     1      -9.706  10.765  63.591  1.00  0.00    -0.376 C  
HETATM    2  C   UNL     1     -10.949  11.558  63.962  1.00  0.00    -0.454 C  
ENDROOT
BRANCH   2   3
HETATM    3  C   UNL     1     -10.596  12.997  64.337  1.00  0.00    -0.409 C  
BRANCH   3   4
HETATM    4  N   UNL     1     -10.970  13.319  65.709  1.00  0.00    -0.270 N  
HETATM    5  C   UNL     1     -10.112  13.081  66.762  1.00  0.00    -0.247 A  
HETATM    6  C   UNL     1     -10.458  13.385  68.045  1.00  0.00    -0.239 A  
HETATM    7  N   UNL     1      -9.384  13.032  68.807  1.00  0.00    -0.407 NA 
HETATM    8  C   UNL     1     -11.705  13.954  68.400  1.00  0.00    -0.356 C  
HETATM    9  N   UNL     1     -12.516  14.151  67.306  1.00  0.00    -0.532 N  
HETATM   10  O   UNL     1     -12.038  14.244  69.542  1.00  0.00    -0.313 OA 
HETATM   11  C   UNL     1      -8.443  12.532  67.946  1.00  0.00    -0.171 A  
HETATM   12  H   UNL     1      -9.298  13.123  69.820  1.00  0.00     0.000 HD 
HETATM   13  H   UNL     1     -13.433  14.559  67.489  1.00  0.00     0.000 HD 
HETATM   14  C   UNL     1     -12.228  13.857  65.983  1.00  0.00    -0.462 C  
HETATM   15  N   UNL     1      -8.861  12.549  66.695  1.00  0.00    -0.183 NA 
HETATM   16  O   UNL     1     -13.078  14.085  65.124  1.00  0.00    -0.776 OA 
ENDBRANCH   3   4
ENDBRANCH   2   3
TORSDOF 2
ENDMDL
MODEL       25
REMARK 921   NORMALIZED FREE ENERGY PREDICTED BY IDOCK:   -4.68 KCAL/MOL
REMARK 922        TOTAL FREE ENERGY PREDICTED BY IDOCK:   -5.35 KCAL/MOL
REMARK 923 INTER-LIGAND FREE ENERGY PREDICTED BY IDOCK:   -5.26 KCAL/MOL
REMARK 924 INTRA-LIGAND FREE ENERGY PREDICTED BY IDOCK:   -0.10 KCAL/MOL
REMARK 927      BINDING AFFINITY PREDICTED BY RF-SCORE:    0.00 PKD
ROOT
HETATM    1  C   UNL     1      -7.780  19.234  68.699  1.00  0.00    -0.394 C  
HETATM    2  C   UNL     1      -8.448  17.885  68.482  1.00  0.00    -0.303 C  
ENDROOT
BRANCH   2   3
HETATM    3  C   UNL     1      -9.930  18.048  68.147  1.00  0.00    -0.353 C  
BRANCH   3   4
HETATM    4  N   UNL     1     -10.521  16.816  67.640  1.00  0.00    -0.320 N  
HETATM    5  C   UNL     1     -11.185  15.940  68.474  1.00  0.00    -0.362 A  
HETATM    6  C   UNL     1     -11.742  14.790  68.002  1.00  0.00    -0.333 A  
HETATM    7  N   UNL     1     -12.313  14.188  69.083  1.00  0.00    -0.520 NA 
HETATM    8  C   UNL     1     -11.683  14.399  66.642  1.00  0.00    -0.394 C  
HETATM    9  N   UNL     1     -10.996  15.308  65.870  1.00  0.00    -0.337 N  
HETATM   10  O   UNL     1     -12.182  13.377  66.189  1.00  0.00    -0.416 OA 
HETATM   11  C   UNL     1     -12.072  15.006  70.157  1.00  0.00    -0.331 A  
HETATM   12  H   UNL     1     -12.821  13.303  69.092  1.00  0.00     0.000 HD 
HETATM   13  H   UNL     1     -10.915  15.089  64.876  1.00  0.00     0.000 HD 
HETATM   14  C   UNL     1     -10.403  16.487  66.290  1.00  0.00    -0.320 C  
HETATM   15  N   UNL     1     -11.385  16.079  69.814  1.00  0.00    -0.326 NA 
HETATM   16  O   UNL     1      -9.811  17.182  65.464  1.00  0.00    -0.549 OA 
ENDBRANCH   3   4
ENDBRANCH   2   3
TORSDOF 2
ENDMDL
MODEL       26
REMARK 921   NORMALIZED FREE ENERGY PREDICTED BY IDOCK:   -4.66 KCAL/MOL
REMARK 922        TOTAL FREE ENERGY PREDICTED BY IDOCK:   -5.33 KCAL/MOL
REMARK 923 INTER-LIGAND FREE ENERGY PREDICTED BY IDOCK:   -5.23 KCAL/MOL
REMARK 924 INTRA-LIGAND FREE ENERGY PREDICTED BY IDOCK:   -0.11 KCAL/MOL
REMARK 927      BINDING AFFINITY PREDICTED BY RF-SCORE:    0.00 PKD
ROOT
HETATM    1  C   UNL     1     -12.618  15.143  70.854  1.00  0.00    -0.441 C  
HETATM    2  C   UNL     1     -11.449  16.052  70.510  1.00  0.00    -0.409 C  
ENDROOT
BRANCH   2   3
HETATM    3  C   UNL     1     -10.454  15.350  69.587  1.00  0.00    -0.280 C  
BRANCH   3   4
HETATM    4  N   UNL     1     -10.645  15.714  68.189  1.00  0.00    -0.266 N  
HETATM    5  C   UNL     1     -11.264  14.858  67.301  1.00  0.00    -0.345 A  
HETATM    6  C   UNL     1     -11.448  15.198  65.995  1.00  0.00    -0.157 A  
HETATM    7  N   UNL     1     -12.090  14.137  65.427  1.00  0.00    -0.392 NA 
HETATM    8  C   UNL     1     -11.023  16.432  65.445  1.00  0.00    -0.160 C  
HETATM    9  N   UNL     1     -10.402  17.230  66.379  1.00  0.00    -0.333 N  
HETATM   10  O   UNL     1     -11.183  16.765  64.278  1.00  0.00    -1.163 OA 
HETATM   11  C   UNL     1     -12.261  13.208  66.421  1.00  0.00    -0.329 A  
HETATM   12  H   UNL     1     -12.384  14.051  64.454  1.00  0.00     0.000 HD 
HETATM   13  H   UNL     1     -10.070  18.137  66.050  1.00  0.00     0.000 HD 
HETATM   14  C   UNL     1     -10.178  16.940  67.715  1.00  0.00    -0.308 C  
HETATM   15  N   UNL     1     -11.766  13.621  67.572  1.00  0.00    -0.349 NA 
HETATM   16  O   UNL     1      -9.591  17.766  68.413  1.00  0.00    -0.297 OA 
ENDBRANCH   3   4
ENDBRANCH   2   3
TORSDOF 2
ENDMDL
MODEL       27
REMARK 921   NORMALIZED FREE ENERGY PREDICTED BY IDOCK:   -4.62 KCAL/MOL
REMARK 922        TOTAL FREE ENERGY PREDICTED BY IDOCK:   -5.29 KCAL/MOL
REMARK 923 INTER-LIGAND FREE ENERGY PREDICTED BY IDOCK:   -5.16 KCAL/MOL
REMARK 924 INTRA-LIGAND FREE ENERGY PREDICTED BY IDOCK:   -0.13 KCAL/MOL
REMARK 927      BINDING AFFINITY PREDICTED BY RF-SCORE:    0.00 PKD
ROOT
HETATM    1  C   UNL     1     -10.636  16.316  67.108  1.00  0.00    -0.291 C  
HETATM    2  C   UNL     1     -10.887  15.706  65.737  1.00  0.00    -0.312 C  
ENDROOT
BRANCH   2   3
HETATM    3  C   UNL     1     -11.738  14.441  65.842  1.00  0.00    -0.369 C  
BRANCH   3   4
HETATM    4  N   UNL     1     -11.215  13.354  65.024  1.00  0.00    -0.308 N  
HETATM    5  C   UNL     1     -10.180  12.556  65.466  1.00  0.00    -0.275 A  
HETATM    6  C   UNL     1      -9.692  11.537  64.705  1.00  0.00    -0.219 A  
HETATM    7  N   UNL     1      -8.700  10.968  65.448  1.00  0.00    -0.316 NA 
HETATM    8  C   UNL     1     -10.192  11.217  63.419  1.00  0.00    -0.403 C  
HETATM    9  N   UNL     1     -11.211  12.058  63.035  1.00  0.00    -0.660 N  
HETATM   10  O   UNL     1      -9.778  10.302  62.719  1.00  0.00    -0.294 OA 
HETATM   11  C   UNL     1      -8.638  11.674  66.621  1.00  0.00    -0.179 A  
HETATM   12  H   UNL     1      -8.118  10.173  65.182  1.00  0.00     0.000 HD 
HETATM   13  H   UNL     1     -11.620  11.885  62.116  1.00  0.00     0.000 HD 
HETATM   14  C   UNL     1     -11.745  13.114  63.756  1.00  0.00    -0.461 C  
HETATM   15  N   UNL     1      -9.527  12.648  66.657  1.00  0.00    -0.240 NA 
HETATM   16  O   UNL     1     -12.651  13.779  63.255  1.00  0.00    -0.830 OA 
ENDBRANCH   3   4
ENDBRANCH   2   3
TORSDOF 2
ENDMDL
MODEL       28
REMARK 921   NORMALIZED FREE ENERGY PREDICTED BY IDOCK:   -4.61 KCAL/MOL
REMARK 922        TOTAL FREE ENERGY PREDICTED BY IDOCK:   -5.27 KCAL/MOL
REMARK 923 INTER-LIGAND FREE ENERGY PREDICTED BY IDOCK:   -5.13 KCAL/MOL
REMARK 924 INTRA-LIGAND FREE ENERGY PREDICTED BY IDOCK:   -0.14 KCAL/MOL
REMARK 927      BINDING AFFINITY PREDICTED BY RF-SCORE:    0.00 PKD
ROOT
HETATM    1  C   UNL     1      -7.388  20.606  66.891  1.00  0.00    -0.339 C  
HETATM    2  C   UNL     1      -7.960  19.415  66.138  1.00  0.00    -0.320 C  
ENDROOT
BRANCH   2   3
HETATM    3  C   UNL     1      -9.486  19.383  66.230  1.00  0.00    -0.368 C  
BRANCH   3   4
HETATM    4  N   UNL     1      -9.966  18.289  67.065  1.00  0.00    -0.325 N  
HETATM    5  C   UNL     1     -10.327  17.074  66.521  1.00  0.00    -0.298 A  
HETATM    6  C   UNL     1     -10.772  16.049  67.300  1.00  0.00    -0.295 A  
HETATM    7  N   UNL     1     -11.021  15.019  66.443  1.00  0.00    -0.334 NA 
HETATM    8  C   UNL     1     -10.905  16.142  68.707  1.00  0.00    -0.310 C  
HETATM    9  N   UNL     1     -10.543  17.382  69.182  1.00  0.00    -0.382 N  
HETATM   10  O   UNL     1     -11.294  15.235  69.431  1.00  0.00    -0.256 OA 
HETATM   11  C   UNL     1     -10.714  15.474  65.187  1.00  0.00    -0.440 A  
HETATM   12  H   UNL     1     -11.368  14.091  66.688  1.00  0.00     0.000 HD 
HETATM   13  H   UNL     1     -10.614  17.521  70.190  1.00  0.00     0.000 HD 
HETATM   14  C   UNL     1     -10.092  18.465  68.443  1.00  0.00    -0.390 C  
HETATM   15  N   UNL     1     -10.291  16.723  65.206  1.00  0.00    -0.643 NA 
HETATM   16  O   UNL     1      -9.823  19.514  69.029  1.00  0.00    -0.431 OA 
ENDBRANCH   3   4
ENDBRANCH   2   3
TORSDOF 2
ENDMDL
MODEL       29
REMARK 921   NORMALIZED FREE ENERGY PREDICTED BY IDOCK:   -4.58 KCAL/MOL
REMARK 922        TOTAL FREE ENERGY PREDICTED BY IDOCK:   -5.24 KCAL/MOL
REMARK 923 INTER-LIGAND FREE ENERGY PREDICTED BY IDOCK:   -5.15 KCAL/MOL
REMARK 924 INTRA-LIGAND FREE ENERGY PREDICTED BY IDOCK:   -0.08 KCAL/MOL
REMARK 927      BINDING AFFINITY PREDICTED BY RF-SCORE:    0.00 PKD
ROOT
HETATM    1  C   UNL     1     -12.267  12.121  63.588  1.00  0.00    -0.663 C  
HETATM    2  C   UNL     1     -12.235  13.498  64.233  1.00  0.00    -0.450 C  
ENDROOT
BRANCH   2   3
HETATM    3  C   UNL     1     -10.829  13.850  64.717  1.00  0.00    -0.419 C  
BRANCH   3   4
HETATM    4  N   UNL     1     -10.838  14.474  66.034  1.00  0.00    -0.303 N  
HETATM    5  C   UNL     1     -11.037  13.732  67.180  1.00  0.00    -0.302 A  
HETATM    6  C   UNL     1     -11.041  14.312  68.413  1.00  0.00    -0.256 A  
HETATM    7  N   UNL     1     -11.251  13.295  69.296  1.00  0.00    -0.383 NA 
HETATM    8  C   UNL     1     -10.852  15.700  68.620  1.00  0.00    -0.273 C  
HETATM    9  N   UNL     1     -10.675  16.382  67.437  1.00  0.00    -0.309 N  
HETATM   10  O   UNL     1     -10.843  16.246  69.716  1.00  0.00    -0.318 OA 
HETATM   11  C   UNL     1     -11.363  12.150  68.551  1.00  0.00    -0.275 A  
HETATM   12  H   UNL     1     -11.312  13.371  70.312  1.00  0.00     0.000 HD 
HETATM   13  H   UNL     1     -10.532  17.389  67.512  1.00  0.00     0.000 HD 
HETATM   14  C   UNL     1     -10.667  15.853  66.157  1.00  0.00    -0.271 C  
HETATM   15  N   UNL     1     -11.238  12.388  67.260  1.00  0.00    -0.284 NA 
HETATM   16  O   UNL     1     -10.508  16.612  65.201  1.00  0.00    -0.647 OA 
ENDBRANCH   3   4
ENDBRANCH   2   3
TORSDOF 2
ENDMDL
MODEL       30
REMARK 921   NORMALIZED FREE ENERGY PREDICTED BY IDOCK:   -4.57 KCAL/MOL
REMARK 922        TOTAL FREE ENERGY PREDICTED BY IDOCK:   -5.23 KCAL/MOL
REMARK 923 INTER-LIGAND FREE ENERGY PREDICTED BY IDOCK:   -5.10 KCAL/MOL
REMARK 924 INTRA-LIGAND FREE ENERGY PREDICTED BY IDOCK:   -0.13 KCAL/MOL
REMARK 927      BINDING AFFINITY PREDICTED BY RF-SCORE:    0.00 PKD
ROOT
HETATM    1  C   UNL     1      -7.704  10.183  67.488  1.00  0.00    -0.091 C  
HETATM    2  C   UNL     1      -8.834  11.187  67.655  1.00  0.00    -0.136 C  
ENDROOT
BRANCH   2   3
HETATM    3  C   UNL     1     -10.176  10.586  67.239  1.00  0.00    -0.215 C  
BRANCH   3   4
HETATM    4  N   UNL     1     -10.795  11.322  66.143  1.00  0.00    -0.253 N  
HETATM    5  C   UNL     1     -10.421  11.109  64.832  1.00  0.00    -0.308 A  
HETATM    6  C   UNL     1     -11.002  11.792  63.807  1.00  0.00    -0.429 A  
HETATM    7  N   UNL     1     -10.406  11.326  62.673  1.00  0.00    -0.612 NA 
HETATM    8  C   UNL     1     -12.014  12.765  63.994  1.00  0.00    -0.447 C  
HETATM    9  N   UNL     1     -12.327  12.938  65.323  1.00  0.00    -0.474 N  
HETATM   10  O   UNL     1     -12.557  13.387  63.090  1.00  0.00    -0.710 OA 
HETATM   11  C   UNL     1      -9.493  10.384  63.071  1.00  0.00    -0.330 A  
HETATM   12  H   UNL     1     -10.600  11.621  61.715  1.00  0.00     0.000 HD 
HETATM   13  H   UNL     1     -13.051  13.626  65.532  1.00  0.00     0.000 HD 
HETATM   14  C   UNL     1     -11.771  12.282  66.409  1.00  0.00    -0.365 C  
HETATM   15  N   UNL     1      -9.481  10.233  64.381  1.00  0.00    -0.279 NA 
HETATM   16  O   UNL     1     -12.160  12.569  67.541  1.00  0.00    -0.453 OA 
ENDBRANCH   3   4
ENDBRANCH   2   3
TORSDOF 2
ENDMDL
MODEL       31
REMARK 921   NORMALIZED FREE ENERGY PREDICTED BY IDOCK:   -4.56 KCAL/MOL
REMARK 922        TOTAL FREE ENERGY PREDICTED BY IDOCK:   -5.21 KCAL/MOL
REMARK 923 INTER-LIGAND FREE ENERGY PREDICTED BY IDOCK:   -5.21 KCAL/MOL
REMARK 924 INTRA-LIGAND FREE ENERGY PREDICTED BY IDOCK:   -0.00 KCAL/MOL
REMARK 927      BINDING AFFINITY PREDICTED BY RF-SCORE:    0.00 PKD
ROOT
HETATM    1  C   UNL     1     -10.744  12.565  66.547  1.00  0.00    -0.266 C  
HETATM    2  C   UNL     1     -11.407  11.618  67.535  1.00  0.00    -0.364 C  
ENDROOT
BRANCH   2   3
HETATM    3  C   UNL     1     -10.774  11.733  68.921  1.00  0.00    -0.205 C  
BRANCH   3   4
HETATM    4  N   UNL     1     -11.701  12.276  69.907  1.00  0.00    -0.301 N  
HETATM    5  C   UNL     1     -11.996  13.622  69.952  1.00  0.00    -0.348 A  
HETATM    6  C   UNL     1     -12.865  14.131  70.870  1.00  0.00    -0.334 A  
HETATM    7  N   UNL     1     -12.923  15.469  70.617  1.00  0.00    -0.617 NA 
HETATM    8  C   UNL     1     -13.522  13.338  71.842  1.00  0.00    -0.438 C  
HETATM    9  N   UNL     1     -13.172  12.010  71.751  1.00  0.00    -0.410 N  
HETATM   10  O   UNL     1     -14.313  13.768  72.672  1.00  0.00    -0.678 OA 
HETATM   11  C   UNL     1     -12.085  15.702  69.557  1.00  0.00    -0.286 A  
HETATM   12  H   UNL     1     -13.481  16.162  71.117  1.00  0.00     0.000 HD 
HETATM   13  H   UNL     1     -13.609  11.379  72.423  1.00  0.00     0.000 HD 
HETATM   14  C   UNL     1     -12.293  11.434  70.849  1.00  0.00    -0.381 C  
HETATM   15  N   UNL     1     -11.506  14.595  69.134  1.00  0.00    -0.277 NA 
HETATM   16  O   UNL     1     -12.080  10.223  70.916  1.00  0.00    -0.308 OA 
ENDBRANCH   3   4
ENDBRANCH   2   3
TORSDOF 2
ENDMDL
MODEL       32
REMARK 921   NORMALIZED FREE ENERGY PREDICTED BY IDOCK:   -4.55 KCAL/MOL
REMARK 922        TOTAL FREE ENERGY PREDICTED BY IDOCK:   -5.21 KCAL/MOL
REMARK 923 INTER-LIGAND FREE ENERGY PREDICTED BY IDOCK:   -5.14 KCAL/MOL
REMARK 924 INTRA-LIGAND FREE ENERGY PREDICTED BY IDOCK:   -0.07 KCAL/MOL
REMARK 927      BINDING AFFINITY PREDICTED BY RF-SCORE:    0.00 PKD
ROOT
HETATM    1  C   UNL     1     -12.597  12.630  64.677  1.00  0.00    -0.517 C  
HETATM    2  C   UNL     1     -12.558  13.769  65.683  1.00  0.00    -0.551 C  
ENDROOT
BRANCH   2   3
HETATM    3  C   UNL     1     -11.175  13.898  66.320  1.00  0.00    -0.309 C  
BRANCH   3   4
HETATM    4  N   UNL     1     -11.238  14.431  67.676  1.00  0.00    -0.300 N  
HETATM    5  C   UNL     1     -10.915  15.744  67.948  1.00  0.00    -0.324 A  
HETATM    6  C   UNL     1     -10.978  16.245  69.214  1.00  0.00    -0.317 A  
HETATM    7  N   UNL     1     -10.608  17.553  69.109  1.00  0.00    -0.392 NA 
HETATM    8  C   UNL     1     -11.367  15.475  70.337  1.00  0.00    -0.342 C  
HETATM    9  N   UNL     1     -11.660  14.174  69.997  1.00  0.00    -0.372 N  
HETATM   10  O   UNL     1     -11.440  15.901  71.482  1.00  0.00    -0.402 OA 
HETATM   11  C   UNL     1     -10.340  17.776  67.783  1.00  0.00    -0.380 A  
HETATM   12  H   UNL     1     -10.544  18.232  69.868  1.00  0.00     0.000 HD 
HETATM   13  H   UNL     1     -11.948  13.560  70.760  1.00  0.00     0.000 HD 
HETATM   14  C   UNL     1     -11.608  13.603  68.736  1.00  0.00    -0.324 C  
HETATM   15  N   UNL     1     -10.517  16.691  67.055  1.00  0.00    -0.303 NA 
HETATM   16  O   UNL     1     -11.891  12.412  68.609  1.00  0.00    -0.309 OA 
ENDBRANCH   3   4
ENDBRANCH   2   3
TORSDOF 2
ENDMDL
MODEL       33
REMARK 921   NORMALIZED FREE ENERGY PREDICTED BY IDOCK:   -4.53 KCAL/MOL
REMARK 922        TOTAL FREE ENERGY PREDICTED BY IDOCK:   -5.18 KCAL/MOL
REMARK 923 INTER-LIGAND FREE ENERGY PREDICTED BY IDOCK:   -5.08 KCAL/MOL
REMARK 924 INTRA-LIGAND FREE ENERGY PREDICTED BY IDOCK:   -0.10 KCAL/MOL
REMARK 927      BINDING AFFINITY PREDICTED BY RF-SCORE:    0.00 PKD
ROOT
HETATM    1  C   UNL     1     -12.617  12.473  64.495  1.00  0.00    -0.503 C  
HETATM    2  C   UNL     1     -12.251  13.655  65.379  1.00  0.00    -0.474 C  
ENDROOT
BRANCH   2   3
HETATM    3  C   UNL     1     -10.858  14.188  65.043  1.00  0.00    -0.398 C  
BRANCH   3   4
HETATM    4  N   UNL     1     -10.612  15.499  65.629  1.00  0.00    -0.350 N  
HETATM    5  C   UNL     1      -9.991  15.634  66.854  1.00  0.00    -0.248 A  
HETATM    6  C   UNL     1      -9.756  16.859  67.402  1.00  0.00    -0.247 A  
HETATM    7  N   UNL     1      -9.129  16.615  68.588  1.00  0.00    -0.237 NA 
HETATM    8  C   UNL     1     -10.126  18.075  66.777  1.00  0.00    -0.356 C  
HETATM    9  N   UNL     1     -10.752  17.868  65.569  1.00  0.00    -0.180 N  
HETATM   10  O   UNL     1      -9.919  19.188  67.244  1.00  0.00    -0.326 OA 
HETATM   11  C   UNL     1      -9.017  15.253  68.697  1.00  0.00    -0.193 A  
HETATM   12  H   UNL     1      -8.806  17.310  69.262  1.00  0.00     0.000 HD 
HETATM   13  H   UNL     1     -11.046  18.703  65.063  1.00  0.00     0.000 HD 
HETATM   14  C   UNL     1     -11.026  16.653  64.963  1.00  0.00    -0.162 C  
HETATM   15  N   UNL     1      -9.536  14.632  67.655  1.00  0.00    -0.202 NA 
HETATM   16  O   UNL     1     -11.611  16.647  63.880  1.00  0.00    -1.204 OA 
ENDBRANCH   3   4
ENDBRANCH   2   3
TORSDOF 2
ENDMDL
MODEL       34
REMARK 921   NORMALIZED FREE ENERGY PREDICTED BY IDOCK:   -4.50 KCAL/MOL
REMARK 922        TOTAL FREE ENERGY PREDICTED BY IDOCK:   -5.16 KCAL/MOL
REMARK 923 INTER-LIGAND FREE ENERGY PREDICTED BY IDOCK:   -5.04 KCAL/MOL
REMARK 924 INTRA-LIGAND FREE ENERGY PREDICTED BY IDOCK:   -0.12 KCAL/MOL
REMARK 927      BINDING AFFINITY PREDICTED BY RF-SCORE:    0.00 PKD
ROOT
HETATM    1  C   UNL     1     -12.417  12.493  64.587  1.00  0.00    -0.539 C  
HETATM    2  C   UNL     1     -12.451  13.600  65.628  1.00  0.00    -0.540 C  
ENDROOT
BRANCH   2   3
HETATM    3  C   UNL     1     -11.133  13.678  66.397  1.00  0.00    -0.303 C  
BRANCH   3   4
HETATM    4  N   UNL     1     -11.290  14.307  67.703  1.00  0.00    -0.308 N  
HETATM    5  C   UNL     1     -11.657  13.577  68.814  1.00  0.00    -0.325 A  
HETATM    6  C   UNL     1     -11.801  14.163  70.035  1.00  0.00    -0.323 A  
HETATM    7  N   UNL     1     -12.152  13.156  70.885  1.00  0.00    -0.474 NA 
HETATM    8  C   UNL     1     -11.596  15.545  70.264  1.00  0.00    -0.335 C  
HETATM    9  N   UNL     1     -11.248  16.215  69.114  1.00  0.00    -0.329 N  
HETATM   10  O   UNL     1     -11.710  16.095  71.352  1.00  0.00    -0.443 OA 
HETATM   11  C   UNL     1     -12.204  12.012  70.133  1.00  0.00    -0.231 A  
HETATM   12  H   UNL     1     -12.341  13.239  71.885  1.00  0.00     0.000 HD 
HETATM   13  H   UNL     1     -11.085  17.218  69.205  1.00  0.00     0.000 HD 
HETATM   14  C   UNL     1     -11.093  15.681  67.845  1.00  0.00    -0.324 C  
HETATM   15  N   UNL     1     -11.909  12.240  68.868  1.00  0.00    -0.314 NA 
HETATM   16  O   UNL     1     -10.790  16.430  66.916  1.00  0.00    -0.249 OA 
ENDBRANCH   3   4
ENDBRANCH   2   3
TORSDOF 2
ENDMDL
MODEL       35
REMARK 921   NORMALIZED FREE ENERGY PREDICTED BY IDOCK:   -4.47 KCAL/MOL
REMARK 922        TOTAL FREE ENERGY PREDICTED BY IDOCK:   -5.12 KCAL/MOL
REMARK 923 INTER-LIGAND FREE ENERGY PREDICTED BY IDOCK:   -4.98 KCAL/MOL
REMARK 924 INTRA-LIGAND FREE ENERGY PREDICTED BY IDOCK:   -0.14 KCAL/MOL
REMARK 927      BINDING AFFINITY PREDICTED BY RF-SCORE:    0.00 PKD
ROOT
HETATM    1  C   UNL     1      -9.866  18.382  68.242  1.00  0.00    -0.383 C  
HETATM    2  C   UNL     1     -10.696  17.401  67.429  1.00  0.00    -0.251 C  
ENDROOT
BRANCH   2   3
HETATM    3  C   UNL     1      -9.848  16.223  66.948  1.00  0.00    -0.247 C  
BRANCH   3   4
HETATM    4  N   UNL     1     -10.462  14.938  67.256  1.00  0.00    -0.259 N  
HETATM    5  C   UNL     1     -11.226  14.264  66.327  1.00  0.00    -0.337 A  
HETATM    6  C   UNL     1     -11.797  13.060  66.612  1.00  0.00    -0.393 A  
HETATM    7  N   UNL     1     -12.458  12.691  65.478  1.00  0.00    -0.648 NA 
HETATM    8  C   UNL     1     -11.662  12.412  67.863  1.00  0.00    -0.360 C  
HETATM    9  N   UNL     1     -10.901  13.143  68.747  1.00  0.00    -0.268 N  
HETATM   10  O   UNL     1     -12.157  11.328  68.143  1.00  0.00    -0.635 OA 
HETATM   11  C   UNL     1     -12.253  13.692  64.564  1.00  0.00    -0.401 A  
HETATM   12  H   UNL     1     -12.999  11.837  65.337  1.00  0.00     0.000 HD 
HETATM   13  H   UNL     1     -10.762  12.735  69.671  1.00  0.00     0.000 HD 
HETATM   14  C   UNL     1     -10.302  14.372  68.522  1.00  0.00    -0.248 C  
HETATM   15  N   UNL     1     -11.508  14.663  65.055  1.00  0.00    -0.371 NA 
HETATM   16  O   UNL     1      -9.663  14.899  69.432  1.00  0.00    -0.178 OA 
ENDBRANCH   3   4
ENDBRANCH   2   3
TORSDOF 2
ENDMDL
MODEL       36
REMARK 921   NORMALIZED FREE ENERGY PREDICTED BY IDOCK:   -4.47 KCAL/MOL
REMARK 922        TOTAL FREE ENERGY PREDICTED BY IDOCK:   -5.12 KCAL/MOL
REMARK 923 INTER-LIGAND FREE ENERGY PREDICTED BY IDOCK:   -5.01 KCAL/MOL
REMARK 924 INTRA-LIGAND FREE ENERGY PREDICTED BY IDOCK:   -0.10 KCAL/MOL
REMARK 927      BINDING AFFINITY PREDICTED BY RF-SCORE:    0.00 PKD
ROOT
HETATM    1  C   UNL     1     -14.184   7.934  71.785  1.00  0.00    -0.555 C  
HETATM    2  C   UNL     1     -14.140   9.386  71.338  1.00  0.00    -0.096 C  
ENDROOT
BRANCH   2   3
HETATM    3  C   UNL     1     -12.929  10.110  71.925  1.00  0.00    -0.447 C  
BRANCH   3   4
HETATM    4  N   UNL     1     -12.560  11.289  71.151  1.00  0.00    -0.403 N  
HETATM    5  C   UNL     1     -13.021  12.544  71.489  1.00  0.00    -0.280 A  
HETATM    6  C   UNL     1     -12.674  13.648  70.768  1.00  0.00    -0.268 A  
HETATM    7  N   UNL     1     -13.291  14.696  71.384  1.00  0.00    -0.354 NA 
HETATM    8  C   UNL     1     -11.832  13.601  69.631  1.00  0.00    -0.335 C  
HETATM    9  N   UNL     1     -11.422  12.320  69.341  1.00  0.00    -0.348 N  
HETATM   10  O   UNL     1     -11.498  14.577  68.971  1.00  0.00    -0.258 OA 
HETATM   11  C   UNL     1     -13.981  14.172  72.447  1.00  0.00    -0.512 A  
HETATM   12  H   UNL     1     -13.248  15.678  71.109  1.00  0.00     0.000 HD 
HETATM   13  H   UNL     1     -10.811  12.212  68.531  1.00  0.00     0.000 HD 
HETATM   14  C   UNL     1     -11.744  11.160  70.027  1.00  0.00    -0.356 C  
HETATM   15  N   UNL     1     -13.835  12.864  72.532  1.00  0.00    -0.557 NA 
HETATM   16  O   UNL     1     -11.299  10.086  69.622  1.00  0.00    -0.242 OA 
ENDBRANCH   3   4
ENDBRANCH   2   3
TORSDOF 2
ENDMDL
MODEL       37
REMARK 921   NORMALIZED FREE ENERGY PREDICTED BY IDOCK:   -4.46 KCAL/MOL
REMARK 922        TOTAL FREE ENERGY PREDICTED BY IDOCK:   -5.10 KCAL/MOL
REMARK 923 INTER-LIGAND FREE ENERGY PREDICTED BY IDOCK:   -4.95 KCAL/MOL
REMARK 924 INTRA-LIGAND FREE ENERGY PREDICTED BY IDOCK:   -0.15 KCAL/MOL
REMARK 927      BINDING AFFINITY PREDICTED BY RF-SCORE:    0.00 PKD
ROOT
HETATM    1  C   UNL     1     -10.112  15.401  67.745  1.00  0.00    -0.227 C  
HETATM    2  C   UNL     1     -11.282  14.799  66.982  1.00  0.00    -0.347 C  
ENDROOT
BRANCH   2   3
HETATM    3  C   UNL     1     -11.383  13.293  67.222  1.00  0.00    -0.314 C  
BRANCH   3   4
HETATM    4  N   UNL     1     -10.804  12.520  66.130  1.00  0.00    -0.266 N  
HETATM    5  C   UNL     1     -11.513  12.265  64.974  1.00  0.00    -0.336 A  
HETATM    6  C   UNL     1     -10.973  11.547  63.951  1.00  0.00    -0.401 A  
HETATM    7  N   UNL     1     -11.935  11.503  62.986  1.00  0.00    -0.908 NA 
HETATM    8  C   UNL     1      -9.665  11.005  63.986  1.00  0.00    -0.288 C  
HETATM    9  N   UNL     1      -9.020  11.283  65.170  1.00  0.00    -0.375 N  
HETATM   10  O   UNL     1      -9.152  10.364  63.078  1.00  0.00    -0.209 OA 
HETATM   11  C   UNL     1     -13.010  12.198  63.476  1.00  0.00    -0.181 A  
HETATM   12  H   UNL     1     -11.868  11.044  62.077  1.00  0.00     0.000 HD 
HETATM   13  H   UNL     1      -8.070  10.922  65.264  1.00  0.00     0.000 HD 
HETATM   14  C   UNL     1      -9.515  11.999  66.247  1.00  0.00    -0.229 C  
HETATM   15  N   UNL     1     -12.781  12.671  64.686  1.00  0.00    -0.704 NA 
HETATM   16  O   UNL     1      -8.806  12.144  67.243  1.00  0.00    -0.171 OA 
ENDBRANCH   3   4
ENDBRANCH   2   3
TORSDOF 2
ENDMDL
MODEL       38
REMARK 921   NORMALIZED FREE ENERGY PREDICTED BY IDOCK:   -4.44 KCAL/MOL
REMARK 922        TOTAL FREE ENERGY PREDICTED BY IDOCK:   -5.09 KCAL/MOL
REMARK 923 INTER-LIGAND FREE ENERGY PREDICTED BY IDOCK:   -4.97 KCAL/MOL
REMARK 924 INTRA-LIGAND FREE ENERGY PREDICTED BY IDOCK:   -0.12 KCAL/MOL
REMARK 927      BINDING AFFINITY PREDICTED BY RF-SCORE:    0.00 PKD
ROOT
HETATM    1  C   UNL     1     -12.192  12.473  70.503  1.00  0.00    -0.382 C  
HETATM    2  C   UNL     1     -11.542  13.094  69.276  1.00  0.00    -0.370 C  
ENDROOT
BRANCH   2   3
HETATM    3  C   UNL     1     -12.365  14.271  68.751  1.00  0.00    -0.051 C  
BRANCH   3   4
HETATM    4  N   UNL     1     -11.561  15.200  67.965  1.00  0.00    -0.341 N  
HETATM    5  C   UNL     1     -11.390  15.031  66.607  1.00  0.00    -0.289 A  
HETATM    6  C   UNL     1     -10.642  15.901  65.871  1.00  0.00    -0.337 A  
HETATM    7  N   UNL     1     -10.701  15.439  64.589  1.00  0.00    -0.610 NA 
HETATM    8  C   UNL     1      -9.986  17.026  66.426  1.00  0.00    -0.307 C  
HETATM    9  N   UNL     1     -10.186  17.126  67.784  1.00  0.00    -0.310 N  
HETATM   10  O   UNL     1      -9.316  17.827  65.786  1.00  0.00    -0.512 OA 
HETATM   11  C   UNL     1     -11.481  14.312  64.616  1.00  0.00    -0.385 A  
HETATM   12  H   UNL     1     -10.252  15.852  63.770  1.00  0.00     0.000 HD 
HETATM   13  H   UNL     1      -9.740  17.916  68.251  1.00  0.00     0.000 HD 
HETATM   14  C   UNL     1     -10.925  16.274  68.588  1.00  0.00    -0.340 C  
HETATM   15  N   UNL     1     -11.912  14.041  65.833  1.00  0.00    -0.388 NA 
HETATM   16  O   UNL     1     -10.990  16.502  69.796  1.00  0.00    -0.344 OA 
ENDBRANCH   3   4
ENDBRANCH   2   3
TORSDOF 2
ENDMDL
MODEL       39
REMARK 921   NORMALIZED FREE ENERGY PREDICTED BY IDOCK:   -4.43 KCAL/MOL
REMARK 922        TOTAL FREE ENERGY PREDICTED BY IDOCK:   -5.07 KCAL/MOL
REMARK 923 INTER-LIGAND FREE ENERGY PREDICTED BY IDOCK:   -4.97 KCAL/MOL
REMARK 924 INTRA-LIGAND FREE ENERGY PREDICTED BY IDOCK:   -0.10 KCAL/MOL
REMARK 927      BINDING AFFINITY PREDICTED BY RF-SCORE:    0.00 PKD
ROOT
HETATM    1  C   UNL     1     -10.349   6.060  71.339  1.00  0.00    -0.269 C  
HETATM    2  C   UNL     1     -11.446   6.705  72.172  1.00  0.00    -0.323 C  
ENDROOT
BRANCH   2   3
HETATM    3  C   UNL     1     -12.558   7.266  71.285  1.00  0.00    -0.366 C  
BRANCH   3   4
HETATM    4  N   UNL     1     -12.660   8.717  71.378  1.00  0.00    -0.309 N  
HETATM    5  C   UNL     1     -11.819   9.544  70.663  1.00  0.00    -0.233 A  
HETATM    6  C   UNL     1     -11.916  10.900  70.745  1.00  0.00    -0.346 A  
HETATM    7  N   UNL     1     -10.954  11.387  69.911  1.00  0.00    -0.471 NA 
HETATM    8  C   UNL     1     -12.865  11.565  71.560  1.00  0.00    -0.380 C  
HETATM    9  N   UNL     1     -13.659  10.683  72.256  1.00  0.00    -0.482 N  
HETATM   10  O   UNL     1     -12.978  12.781  71.646  1.00  0.00    -0.371 OA 
HETATM   11  C   UNL     1     -10.323  10.299  69.367  1.00  0.00    -0.235 A  
HETATM   12  H   UNL     1     -10.744  12.369  69.728  1.00  0.00     0.000 HD 
HETATM   13  H   UNL     1     -14.367  11.094  72.865  1.00  0.00     0.000 HD 
HETATM   14  C   UNL     1     -13.606   9.299  72.222  1.00  0.00    -0.480 C  
HETATM   15  N   UNL     1     -10.829   9.164  69.809  1.00  0.00    -0.227 NA 
HETATM   16  O   UNL     1     -14.387   8.656  72.923  1.00  0.00    -0.474 OA 
ENDBRANCH   3   4
ENDBRANCH   2   3
TORSDOF 2
ENDMDL
MODEL       40
REMARK 921   NORMALIZED FREE ENERGY PREDICTED BY IDOCK:   -4.38 KCAL/MOL
REMARK 922        TOTAL FREE ENERGY PREDICTED BY IDOCK:   -5.01 KCAL/MOL
REMARK 923 INTER-LIGAND FREE ENERGY PREDICTED BY IDOCK:   -4.88 KCAL/MOL
REMARK 924 INTRA-LIGAND FREE ENERGY PREDICTED BY IDOCK:   -0.13 KCAL/MOL
REMARK 927      BINDING AFFINITY PREDICTED BY RF-SCORE:    0.00 PKD
ROOT
HETATM    1  C   UNL     1     -12.632  12.773  64.669  1.00  0.00    -0.491 C  
HETATM    2  C   UNL     1     -12.380  13.636  65.895  1.00  0.00    -0.516 C  
ENDROOT
BRANCH   2   3
HETATM    3  C   UNL     1     -11.085  13.233  66.599  1.00  0.00    -0.291 C  
BRANCH   3   4
HETATM    4  N   UNL     1     -11.318  12.301  67.695  1.00  0.00    -0.290 N  
HETATM    5  C   UNL     1     -11.748  12.737  68.931  1.00  0.00    -0.326 A  
HETATM    6  C   UNL     1     -11.971  11.867  69.955  1.00  0.00    -0.332 A  
HETATM    7  N   UNL     1     -12.389  12.633  71.002  1.00  0.00    -0.379 NA 
HETATM    8  C   UNL     1     -11.780  10.468  69.843  1.00  0.00    -0.294 C  
HETATM    9  N   UNL     1     -11.339  10.103  68.592  1.00  0.00    -0.478 N  
HETATM   10  O   UNL     1     -11.981   9.664  70.744  1.00  0.00    -0.282 OA 
HETATM   11  C   UNL     1     -12.397  13.930  70.558  1.00  0.00    -0.369 A  
HETATM   12  H   UNL     1     -12.646  12.306  71.934  1.00  0.00     0.000 HD 
HETATM   13  H   UNL     1     -11.179   9.107  68.440  1.00  0.00     0.000 HD 
HETATM   14  C   UNL     1     -11.086  10.937  67.515  1.00  0.00    -0.310 C  
HETATM   15  N   UNL     1     -12.009  14.021  69.300  1.00  0.00    -0.337 NA 
HETATM   16  O   UNL     1     -10.679  10.444  66.463  1.00  0.00    -0.184 OA 
ENDBRANCH   3   4
ENDBRANCH   2   3
TORSDOF 2
ENDMDL
MODEL       41
REMARK 921   NORMALIZED FREE ENERGY PREDICTED BY IDOCK:   -4.35 KCAL/MOL
REMARK 922        TOTAL FREE ENERGY PREDICTED BY IDOCK:   -4.98 KCAL/MOL
REMARK 923 INTER-LIGAND FREE ENERGY PREDICTED BY IDOCK:   -4.81 KCAL/MOL
REMARK 924 INTRA-LIGAND FREE ENERGY PREDICTED BY IDOCK:   -0.17 KCAL/MOL
REMARK 927      BINDING AFFINITY PREDICTED BY RF-SCORE:    0.00 PKD
ROOT
HETATM    1  C   UNL     1      -9.127  17.152  67.160  1.00  0.00    -0.237 C  
HETATM    2  C   UNL     1      -9.568  16.807  68.574  1.00  0.00    -0.245 C  
ENDROOT
BRANCH   2   3
HETATM    3  C   UNL     1     -11.072  16.546  68.637  1.00  0.00    -0.329 C  
BRANCH   3   4
HETATM    4  N   UNL     1     -11.380  15.188  69.070  1.00  0.00    -0.276 N  
HETATM    5  C   UNL     1     -11.577  14.171  68.159  1.00  0.00    -0.331 A  
HETATM    6  C   UNL     1     -11.861  12.901  68.561  1.00  0.00    -0.313 A  
HETATM    7  N   UNL     1     -11.979  12.172  67.416  1.00  0.00    -0.570 NA 
HETATM    8  C   UNL     1     -11.980  12.524  69.921  1.00  0.00    -0.301 C  
HETATM    9  N   UNL     1     -11.787  13.587  70.773  1.00  0.00    -0.511 N  
HETATM   10  O   UNL     1     -12.226  11.389  70.310  1.00  0.00    -0.332 OA 
HETATM   11  C   UNL     1     -11.761  13.040  66.377  1.00  0.00    -0.390 A  
HETATM   12  H   UNL     1     -12.188  11.175  67.344  1.00  0.00     0.000 HD 
HETATM   13  H   UNL     1     -11.859  13.387  71.771  1.00  0.00     0.000 HD 
HETATM   14  C   UNL     1     -11.505  14.898  70.428  1.00  0.00    -0.266 C  
HETATM   15  N   UNL     1     -11.516  14.264  66.802  1.00  0.00    -0.352 NA 
HETATM   16  O   UNL     1     -11.374  15.734  71.322  1.00  0.00    -0.358 OA 
ENDBRANCH   3   4
ENDBRANCH   2   3
TORSDOF 2
ENDMDL
MODEL       42
REMARK 921   NORMALIZED FREE ENERGY PREDICTED BY IDOCK:   -4.34 KCAL/MOL
REMARK 922        TOTAL FREE ENERGY PREDICTED BY IDOCK:   -4.98 KCAL/MOL
REMARK 923 INTER-LIGAND FREE ENERGY PREDICTED BY IDOCK:   -4.86 KCAL/MOL
REMARK 924 INTRA-LIGAND FREE ENERGY PREDICTED BY IDOCK:   -0.12 KCAL/MOL
REMARK 927      BINDING AFFINITY PREDICTED BY RF-SCORE:    0.00 PKD
ROOT
HETATM    1  C   UNL     1      -9.005  11.754  67.026  1.00  0.00    -0.186 C  
HETATM    2  C   UNL     1      -9.694  12.174  68.314  1.00  0.00    -0.216 C  
ENDROOT
BRANCH   2   3
HETATM    3  C   UNL     1     -11.214  12.187  68.151  1.00  0.00    -0.267 C  
BRANCH   3   4
HETATM    4  N   UNL     1     -11.896  12.631  69.360  1.00  0.00    -0.305 N  
HETATM    5  C   UNL     1     -12.287  11.736  70.334  1.00  0.00    -0.277 A  
HETATM    6  C   UNL     1     -12.921  12.149  71.467  1.00  0.00    -0.295 A  
HETATM    7  N   UNL     1     -13.144  11.018  72.195  1.00  0.00    -0.526 NA 
HETATM    8  C   UNL     1     -13.232  13.504  71.735  1.00  0.00    -0.404 C  
HETATM    9  N   UNL     1     -12.829  14.340  70.718  1.00  0.00    -0.346 N  
HETATM   10  O   UNL     1     -13.793  13.903  72.747  1.00  0.00    -0.701 OA 
HETATM   11  C   UNL     1     -12.633   9.977  71.464  1.00  0.00    -0.425 A  
HETATM   12  H   UNL     1     -13.601  10.958  73.106  1.00  0.00     0.000 HD 
HETATM   13  H   UNL     1     -13.022  15.333  70.845  1.00  0.00     0.000 HD 
HETATM   14  C   UNL     1     -12.189  13.982  69.542  1.00  0.00    -0.308 C  
HETATM   15  N   UNL     1     -12.107  10.386  70.326  1.00  0.00    -0.288 NA 
HETATM   16  O   UNL     1     -11.909  14.861  68.727  1.00  0.00    -0.314 OA 
ENDBRANCH   3   4
ENDBRANCH   2   3
TORSDOF 2
ENDMDL
MODEL       43
REMARK 921   NORMALIZED FREE ENERGY PREDICTED BY IDOCK:   -4.34 KCAL/MOL
REMARK 922        TOTAL FREE ENERGY PREDICTED BY IDOCK:   -4.97 KCAL/MOL
REMARK 923 INTER-LIGAND FREE ENERGY PREDICTED BY IDOCK:   -4.95 KCAL/MOL
REMARK 924 INTRA-LIGAND FREE ENERGY PREDICTED BY IDOCK:   -0.03 KCAL/MOL
REMARK 927      BINDING AFFINITY PREDICTED BY RF-SCORE:    0.00 PKD
ROOT
HETATM    1  C   UNL     1      -8.309  17.186  67.551  1.00  0.00    -0.199 C  
HETATM    2  C   UNL     1      -8.913  16.753  66.224  1.00  0.00    -0.325 C  
ENDROOT
BRANCH   2   3
HETATM    3  C   UNL     1     -10.436  16.657  66.315  1.00  0.00    -0.268 C  
BRANCH   3   4
HETATM    4  N   UNL     1     -10.882  15.332  66.727  1.00  0.00    -0.312 N  
HETATM    5  C   UNL     1     -11.406  15.107  67.983  1.00  0.00    -0.337 A  
HETATM    6  C   UNL     1     -11.827  13.870  68.368  1.00  0.00    -0.374 A  
HETATM    7  N   UNL     1     -12.286  14.021  69.643  1.00  0.00    -0.398 NA 
HETATM    8  C   UNL     1     -11.761  12.730  67.531  1.00  0.00    -0.364 C  
HETATM    9  N   UNL     1     -11.217  13.021  66.301  1.00  0.00    -0.293 N  
HETATM   10  O   UNL     1     -12.140  11.610  67.849  1.00  0.00    -0.613 OA 
HETATM   11  C   UNL     1     -12.118  15.343  69.965  1.00  0.00    -0.359 A  
HETATM   12  H   UNL     1     -12.678  13.292  70.241  1.00  0.00     0.000 HD 
HETATM   13  H   UNL     1     -11.138  12.243  65.645  1.00  0.00     0.000 HD 
HETATM   14  C   UNL     1     -10.763  14.251  65.853  1.00  0.00    -0.303 C  
HETATM   15  N   UNL     1     -11.582  16.026  68.972  1.00  0.00    -0.369 NA 
HETATM   16  O   UNL     1     -10.288  14.333  64.720  1.00  0.00    -0.433 OA 
ENDBRANCH   3   4
ENDBRANCH   2   3
TORSDOF 2
ENDMDL
MODEL       44
REMARK 921   NORMALIZED FREE ENERGY PREDICTED BY IDOCK:   -4.30 KCAL/MOL
REMARK 922        TOTAL FREE ENERGY PREDICTED BY IDOCK:   -4.93 KCAL/MOL
REMARK 923 INTER-LIGAND FREE ENERGY PREDICTED BY IDOCK:   -4.79 KCAL/MOL
REMARK 924 INTRA-LIGAND FREE ENERGY PREDICTED BY IDOCK:   -0.14 KCAL/MOL
REMARK 927      BINDING AFFINITY PREDICTED BY RF-SCORE:    0.00 PKD
ROOT
HETATM    1  C   UNL     1     -10.296   5.576  71.714  1.00  0.00    -0.272 C  
HETATM    2  C   UNL     1     -11.592   6.252  72.133  1.00  0.00    -0.367 C  
ENDROOT
BRANCH   2   3
HETATM    3  C   UNL     1     -11.334   7.656  72.679  1.00  0.00    -0.370 C  
BRANCH   3   4
HETATM    4  N   UNL     1     -11.599   8.691  71.688  1.00  0.00    -0.288 N  
HETATM    5  C   UNL     1     -10.578   9.269  70.961  1.00  0.00    -0.316 A  
HETATM    6  C   UNL     1     -10.824  10.234  70.031  1.00  0.00    -0.307 A  
HETATM    7  N   UNL     1      -9.607  10.560  69.511  1.00  0.00    -0.396 NA 
HETATM    8  C   UNL     1     -12.121  10.722  69.740  1.00  0.00    -0.318 C  
HETATM    9  N   UNL     1     -13.088  10.115  70.510  1.00  0.00    -0.589 N  
HETATM   10  O   UNL     1     -12.371  11.581  68.905  1.00  0.00    -0.400 OA 
HETATM   11  C   UNL     1      -8.686   9.775  70.154  1.00  0.00    -0.180 A  
HETATM   12  H   UNL     1      -9.418  11.252  68.785  1.00  0.00     0.000 HD 
HETATM   13  H   UNL     1     -14.049  10.419  70.352  1.00  0.00     0.000 HD 
HETATM   14  C   UNL     1     -12.903   9.137  71.473  1.00  0.00    -0.347 C  
HETATM   15  N   UNL     1      -9.250   8.980  71.043  1.00  0.00    -0.248 NA 
HETATM   16  O   UNL     1     -13.883   8.710  72.084  1.00  0.00    -0.396 OA 
ENDBRANCH   3   4
ENDBRANCH   2   3
TORSDOF 2
ENDMDL
MODEL       45
REMARK 921   NORMALIZED FREE ENERGY PREDICTED BY IDOCK:   -4.30 KCAL/MOL
REMARK 922        TOTAL FREE ENERGY PREDICTED BY IDOCK:   -4.93 KCAL/MOL
REMARK 923 INTER-LIGAND FREE ENERGY PREDICTED BY IDOCK:   -4.85 KCAL/MOL
REMARK 924 INTRA-LIGAND FREE ENERGY PREDICTED BY IDOCK:   -0.08 KCAL/MOL
REMARK 927      BINDING AFFINITY PREDICTED BY RF-SCORE:    0.00 PKD
ROOT
HETATM    1  C   UNL     1     -10.202  19.861  68.334  1.00  0.00    -0.557 C  
HETATM    2  C   UNL     1     -10.615  18.854  67.271  1.00  0.00    -0.529 C  
ENDROOT
BRANCH   2   3
HETATM    3  C   UNL     1      -9.398  18.295  66.535  1.00  0.00    -0.302 C  
BRANCH   3   4
HETATM    4  N   UNL     1      -9.433  16.842  66.434  1.00  0.00    -0.267 N  
HETATM    5  C   UNL     1     -10.241  16.204  65.516  1.00  0.00    -0.331 A  
HETATM    6  C   UNL     1     -10.272  14.845  65.417  1.00  0.00    -0.379 A  
HETATM    7  N   UNL     1     -11.155  14.571  64.415  1.00  0.00    -0.621 NA 
HETATM    8  C   UNL     1      -9.497  13.988  66.235  1.00  0.00    -0.227 C  
HETATM    9  N   UNL     1      -8.727  14.687  67.137  1.00  0.00    -0.211 N  
HETATM   10  O   UNL     1      -9.500  12.766  66.162  1.00  0.00    -0.238 OA 
HETATM   11  C   UNL     1     -11.615  15.779  63.960  1.00  0.00     0.092 A  
HETATM   12  H   UNL     1     -11.422  13.648  64.073  1.00  0.00     0.000 HD 
HETATM   13  H   UNL     1      -8.142  14.131  67.760  1.00  0.00     0.000 HD 
HETATM   14  C   UNL     1      -8.657  16.062  67.292  1.00  0.00    -0.184 C  
HETATM   15  N   UNL     1     -11.075  16.790  64.613  1.00  0.00    -0.937 NA 
HETATM   16  O   UNL     1      -7.922  16.526  68.163  1.00  0.00    -0.155 OA 
ENDBRANCH   3   4
ENDBRANCH   2   3
TORSDOF 2
ENDMDL
MODEL       46
REMARK 921   NORMALIZED FREE ENERGY PREDICTED BY IDOCK:   -4.28 KCAL/MOL
REMARK 922        TOTAL FREE ENERGY PREDICTED BY IDOCK:   -4.91 KCAL/MOL
REMARK 923 INTER-LIGAND FREE ENERGY PREDICTED BY IDOCK:   -4.79 KCAL/MOL
REMARK 924 INTRA-LIGAND FREE ENERGY PREDICTED BY IDOCK:   -0.12 KCAL/MOL
REMARK 927      BINDING AFFINITY PREDICTED BY RF-SCORE:    0.00 PKD
ROOT
HETATM    1  C   UNL     1      -7.137   7.237  70.540  1.00  0.00    -0.062 C  
HETATM    2  C   UNL     1      -8.571   7.715  70.378  1.00  0.00    -0.138 C  
ENDROOT
BRANCH   2   3
HETATM    3  C   UNL     1      -8.946   8.720  71.467  1.00  0.00    -0.236 C  
BRANCH   3   4
HETATM    4  N   UNL     1     -10.380   8.742  71.728  1.00  0.00    -0.315 N  
HETATM    5  C   UNL     1     -11.235   9.528  70.984  1.00  0.00    -0.362 A  
HETATM    6  C   UNL     1     -12.576   9.546  71.224  1.00  0.00    -0.339 A  
HETATM    7  N   UNL     1     -13.100  10.409  70.308  1.00  0.00    -0.487 NA 
HETATM    8  C   UNL     1     -13.194   8.780  72.242  1.00  0.00    -0.412 C  
HETATM    9  N   UNL     1     -12.285   8.033  72.954  1.00  0.00    -0.598 N  
HETATM   10  O   UNL     1     -14.397   8.772  72.473  1.00  0.00    -0.562 OA 
HETATM   11  C   UNL     1     -12.048  10.869  69.559  1.00  0.00    -0.309 A  
HETATM   12  H   UNL     1     -14.083  10.662  70.200  1.00  0.00     0.000 HD 
HETATM   13  H   UNL     1     -12.662   7.455  73.706  1.00  0.00     0.000 HD 
HETATM   14  C   UNL     1     -10.913   7.977  72.765  1.00  0.00    -0.382 C  
HETATM   15  N   UNL     1     -10.901  10.350  69.951  1.00  0.00    -0.286 NA 
HETATM   16  O   UNL     1     -10.239   7.262  73.506  1.00  0.00    -0.300 OA 
ENDBRANCH   3   4
ENDBRANCH   2   3
TORSDOF 2
ENDMDL
MODEL       47
REMARK 921   NORMALIZED FREE ENERGY PREDICTED BY IDOCK:   -4.28 KCAL/MOL
REMARK 922        TOTAL FREE ENERGY PREDICTED BY IDOCK:   -4.90 KCAL/MOL
REMARK 923 INTER-LIGAND FREE ENERGY PREDICTED BY IDOCK:   -4.78 KCAL/MOL
REMARK 924 INTRA-LIGAND FREE ENERGY PREDICTED BY IDOCK:   -0.12 KCAL/MOL
REMARK 927      BINDING AFFINITY PREDICTED BY RF-SCORE:    0.00 PKD
ROOT
HETATM    1  C   UNL     1     -11.734  14.433  64.877  1.00  0.00    -0.408 C  
HETATM    2  C   UNL     1     -12.260  14.068  66.257  1.00  0.00    -0.493 C  
ENDROOT
BRANCH   2   3
HETATM    3  C   UNL     1     -11.146  13.519  67.147  1.00  0.00    -0.293 C  
BRANCH   3   4
HETATM    4  N   UNL     1     -11.665  12.869  68.344  1.00  0.00    -0.326 N  
HETATM    5  C   UNL     1     -11.887  13.577  69.508  1.00  0.00    -0.334 A  
HETATM    6  C   UNL     1     -12.376  12.972  70.626  1.00  0.00    -0.310 A  
HETATM    7  N   UNL     1     -12.476  13.959  71.562  1.00  0.00    -0.328 NA 
HETATM    8  C   UNL     1     -12.688  11.592  70.692  1.00  0.00    -0.138 C  
HETATM    9  N   UNL     1     -12.430  10.945  69.505  1.00  0.00    -0.427 N  
HETATM   10  O   UNL     1     -13.136  11.026  71.680  1.00  0.00    -0.446 OA 
HETATM   11  C   UNL     1     -12.041  15.111  70.961  1.00  0.00    -0.333 A  
HETATM   12  H   UNL     1     -12.809  13.859  72.521  1.00  0.00     0.000 HD 
HETATM   13  H   UNL     1     -12.632   9.946  69.480  1.00  0.00     0.000 HD 
HETATM   14  C   UNL     1     -11.928  11.499  68.339  1.00  0.00    -0.198 C  
HETATM   15  N   UNL     1     -11.674  14.906  69.710  1.00  0.00    -0.287 NA 
HETATM   16  O   UNL     1     -11.742  10.770  67.365  1.00  0.00    -0.462 OA 
ENDBRANCH   3   4
ENDBRANCH   2   3
TORSDOF 2
ENDMDL
MODEL       48
REMARK 921   NORMALIZED FREE ENERGY PREDICTED BY IDOCK:   -4.26 KCAL/MOL
REMARK 922        TOTAL FREE ENERGY PREDICTED BY IDOCK:   -4.88 KCAL/MOL
REMARK 923 INTER-LIGAND FREE ENERGY PREDICTED BY IDOCK:   -4.78 KCAL/MOL
REMARK 924 INTRA-LIGAND FREE ENERGY PREDICTED BY IDOCK:   -0.10 KCAL/MOL
REMARK 927      BINDING AFFINITY PREDICTED BY RF-SCORE:    0.00 PKD
ROOT
HETATM    1  C   UNL     1     -10.914   6.415  67.998  1.00  0.00    -0.400 C  
HETATM    2  C   UNL     1     -11.406   6.456  69.436  1.00  0.00    -0.443 C  
ENDROOT
BRANCH   2   3
HETATM    3  C   UNL     1     -10.503   7.332  70.305  1.00  0.00    -0.219 C  
BRANCH   3   4
HETATM    4  N   UNL     1     -10.967   8.712  70.368  1.00  0.00    -0.235 N  
HETATM    5  C   UNL     1     -12.036   9.075  71.161  1.00  0.00    -0.287 A  
HETATM    6  C   UNL     1     -12.469  10.366  71.225  1.00  0.00    -0.415 A  
HETATM    7  N   UNL     1     -13.516  10.358  72.098  1.00  0.00    -0.538 NA 
HETATM    8  C   UNL     1     -11.875  11.423  70.494  1.00  0.00    -0.297 C  
HETATM    9  N   UNL     1     -10.826  10.989  69.715  1.00  0.00    -0.442 N  
HETATM   10  O   UNL     1     -12.238  12.591  70.540  1.00  0.00    -0.365 OA 
HETATM   11  C   UNL     1     -13.664   9.061  72.518  1.00  0.00    -0.436 A  
HETATM   12  H   UNL     1     -14.079  11.160  72.384  1.00  0.00     0.000 HD 
HETATM   13  H   UNL     1     -10.350  11.701  69.159  1.00  0.00     0.000 HD 
HETATM   14  C   UNL     1     -10.345   9.696  69.600  1.00  0.00    -0.227 C  
HETATM   15  N   UNL     1     -12.777   8.259  71.961  1.00  0.00    -0.334 NA 
HETATM   16  O   UNL     1      -9.401   9.477  68.841  1.00  0.00    -0.144 OA 
ENDBRANCH   3   4
ENDBRANCH   2   3
TORSDOF 2
ENDMDL
MODEL       49
REMARK 921   NORMALIZED FREE ENERGY PREDICTED BY IDOCK:   -4.25 KCAL/MOL
REMARK 922        TOTAL FREE ENERGY PREDICTED BY IDOCK:   -4.87 KCAL/MOL
REMARK 923 INTER-LIGAND FREE ENERGY PREDICTED BY IDOCK:   -5.11 KCAL/MOL
REMARK 924 INTRA-LIGAND FREE ENERGY PREDICTED BY IDOCK:    0.24 KCAL/MOL
REMARK 927      BINDING AFFINITY PREDICTED BY RF-SCORE:    0.00 PKD
ROOT
HETATM    1  C   UNL     1     -12.901  16.038  74.052  1.00  0.00    -0.592 C  
HETATM    2  C   UNL     1     -12.985  15.720  72.568  1.00  0.00    -0.556 C  
ENDROOT
BRANCH   2   3
HETATM    3  C   UNL     1     -11.596  15.673  71.932  1.00  0.00    -0.461 C  
BRANCH   3   4
HETATM    4  N   UNL     1     -11.648  15.345  70.513  1.00  0.00    -0.295 N  
HETATM    5  C   UNL     1     -11.148  16.206  69.558  1.00  0.00    -0.344 A  
HETATM    6  C   UNL     1     -11.192  15.900  68.231  1.00  0.00    -0.354 A  
HETATM    7  N   UNL     1     -10.610  16.954  67.592  1.00  0.00    -0.335 NA 
HETATM    8  C   UNL     1     -11.748  14.698  67.728  1.00  0.00    -0.359 C  
HETATM    9  N   UNL     1     -12.240  13.894  68.730  1.00  0.00    -0.481 N  
HETATM   10  O   UNL     1     -11.792  14.395  66.542  1.00  0.00    -0.384 OA 
HETATM   11  C   UNL     1     -10.245  17.846  68.566  1.00  0.00    -0.390 A  
HETATM   12  H   UNL     1     -10.474  17.059  66.586  1.00  0.00     0.000 HD 
HETATM   13  H   UNL     1     -12.656  13.009  68.439  1.00  0.00     0.000 HD 
HETATM   14  C   UNL     1     -12.232  14.151  70.092  1.00  0.00    -0.351 C  
HETATM   15  N   UNL     1     -10.562  17.416  69.772  1.00  0.00     0.110 NA 
HETATM   16  O   UNL     1     -12.730  13.325  70.856  1.00  0.00    -0.318 OA 
ENDBRANCH   3   4
ENDBRANCH   2   3
TORSDOF 2
ENDMDL
MODEL       50
REMARK 921   NORMALIZED FREE ENERGY PREDICTED BY IDOCK:   -4.24 KCAL/MOL
REMARK 922        TOTAL FREE ENERGY PREDICTED BY IDOCK:   -4.86 KCAL/MOL
REMARK 923 INTER-LIGAND FREE ENERGY PREDICTED BY IDOCK:   -4.75 KCAL/MOL
REMARK 924 INTRA-LIGAND FREE ENERGY PREDICTED BY IDOCK:   -0.11 KCAL/MOL
REMARK 927      BINDING AFFINITY PREDICTED BY RF-SCORE:    0.00 PKD
ROOT
HETATM    1  C   UNL     1     -12.155  13.200  63.601  1.00  0.00    -0.583 C  
HETATM    2  C   UNL     1     -12.363  12.695  65.020  1.00  0.00    -0.561 C  
ENDROOT
BRANCH   2   3
HETATM    3  C   UNL     1     -11.061  12.739  65.820  1.00  0.00    -0.285 C  
BRANCH   3   4
HETATM    4  N   UNL     1     -11.218  12.193  67.162  1.00  0.00    -0.293 N  
HETATM    5  C   UNL     1     -10.998  10.857  67.426  1.00  0.00    -0.293 A  
HETATM    6  C   UNL     1     -11.140  10.345  68.680  1.00  0.00    -0.262 A  
HETATM    7  N   UNL     1     -10.837   9.020  68.572  1.00  0.00    -0.437 NA 
HETATM    8  C   UNL     1     -11.525  11.124  69.799  1.00  0.00    -0.312 C  
HETATM    9  N   UNL     1     -11.742  12.440  69.464  1.00  0.00    -0.315 N  
HETATM   10  O   UNL     1     -11.652  10.691  70.937  1.00  0.00    -0.320 OA 
HETATM   11  C   UNL     1     -10.527   8.798  67.256  1.00  0.00    -0.283 A  
HETATM   12  H   UNL     1     -10.840   8.330  69.324  1.00  0.00     0.000 HD 
HETATM   13  H   UNL     1     -12.023  13.061  70.224  1.00  0.00     0.000 HD 
HETATM   14  C   UNL     1     -11.623  13.019  68.211  1.00  0.00    -0.340 C  
HETATM   15  N   UNL     1     -10.619   9.899  66.535  1.00  0.00    -0.137 NA 
HETATM   16  O   UNL     1     -11.871  14.218  68.082  1.00  0.00    -0.327 OA 
ENDBRANCH   3   4
ENDBRANCH   2   3
TORSDOF 2
ENDMDL
MODEL       51
REMARK 921   NORMALIZED FREE ENERGY PREDICTED BY IDOCK:   -4.22 KCAL/MOL
REMARK 922        TOTAL FREE ENERGY PREDICTED BY IDOCK:   -4.84 KCAL/MOL
REMARK 923 INTER-LIGAND FREE ENERGY PREDICTED BY IDOCK:   -4.74 KCAL/MOL
REMARK 924 INTRA-LIGAND FREE ENERGY PREDICTED BY IDOCK:   -0.10 KCAL/MOL
REMARK 927      BINDING AFFINITY PREDICTED BY RF-SCORE:    0.00 PKD
ROOT
HETATM    1  C   UNL     1      -8.996  18.441  68.123  1.00  0.00    -0.325 C  
HETATM    2  C   UNL     1      -9.254  16.943  68.082  1.00  0.00    -0.234 C  
ENDROOT
BRANCH   2   3
HETATM    3  C   UNL     1     -10.701  16.641  67.694  1.00  0.00    -0.306 C  
BRANCH   3   4
HETATM    4  N   UNL     1     -11.056  15.247  67.927  1.00  0.00    -0.310 N  
HETATM    5  C   UNL     1     -11.450  14.804  69.173  1.00  0.00    -0.299 A  
HETATM    6  C   UNL     1     -11.787  13.502  69.392  1.00  0.00    -0.335 A  
HETATM    7  N   UNL     1     -12.129  13.429  70.710  1.00  0.00    -0.497 NA 
HETATM    8  C   UNL     1     -11.756  12.510  68.382  1.00  0.00    -0.328 C  
HETATM    9  N   UNL     1     -11.341  13.015  67.171  1.00  0.00    -0.290 N  
HETATM   10  O   UNL     1     -12.061  11.336  68.550  1.00  0.00    -0.573 OA 
HETATM   11  C   UNL     1     -11.982  14.693  71.221  1.00  0.00    -0.343 A  
HETATM   12  H   UNL     1     -12.435  12.598  71.216  1.00  0.00     0.000 HD 
HETATM   13  H   UNL     1     -11.295  12.353  66.396  1.00  0.00     0.000 HD 
HETATM   14  C   UNL     1     -10.979  14.321  66.886  1.00  0.00    -0.304 C  
HETATM   15  N   UNL     1     -11.568  15.549  70.307  1.00  0.00    -0.303 NA 
HETATM   16  O   UNL     1     -10.616  14.602  65.744  1.00  0.00    -0.292 OA 
ENDBRANCH   3   4
ENDBRANCH   2   3
TORSDOF 2
ENDMDL
MODEL       52
REMARK 921   NORMALIZED FREE ENERGY PREDICTED BY IDOCK:   -4.21 KCAL/MOL
REMARK 922        TOTAL FREE ENERGY PREDICTED BY IDOCK:   -4.83 KCAL/MOL
REMARK 923 INTER-LIGAND FREE ENERGY PREDICTED BY IDOCK:   -4.71 KCAL/MOL
REMARK 924 INTRA-LIGAND FREE ENERGY PREDICTED BY IDOCK:   -0.12 KCAL/MOL
REMARK 927      BINDING AFFINITY PREDICTED BY RF-SCORE:    0.00 PKD
ROOT
HETATM    1  C   UNL     1      -9.448  13.201  67.240  1.00  0.00    -0.225 C  
HETATM    2  C   UNL     1     -10.336  14.291  66.660  1.00  0.00    -0.279 C  
ENDROOT
BRANCH   2   3
HETATM    3  C   UNL     1      -9.549  15.204  65.719  1.00  0.00    -0.309 C  
BRANCH   3   4
HETATM    4  N   UNL     1      -9.692  16.612  66.069  1.00  0.00    -0.294 N  
HETATM    5  C   UNL     1      -8.973  17.172  67.104  1.00  0.00    -0.228 A  
HETATM    6  C   UNL     1      -9.101  18.488  67.430  1.00  0.00    -0.275 A  
HETATM    7  N   UNL     1      -8.248  18.692  68.474  1.00  0.00    -0.335 NA 
HETATM    8  C   UNL     1      -9.970  19.377  66.751  1.00  0.00    -0.378 C  
HETATM    9  N   UNL     1     -10.666  18.752  65.742  1.00  0.00    -0.365 N  
HETATM   10  O   UNL     1     -10.098  20.565  67.018  1.00  0.00    -0.429 OA 
HETATM   11  C   UNL     1      -7.648  17.486  68.728  1.00  0.00    -0.258 A  
HETATM   12  H   UNL     1      -8.089  19.570  68.970  1.00  0.00     0.000 HD 
HETATM   13  H   UNL     1     -11.312  19.334  65.209  1.00  0.00     0.000 HD 
HETATM   14  C   UNL     1     -10.587  17.420  65.367  1.00  0.00    -0.034 C  
HETATM   15  N   UNL     1      -8.072  16.543  67.909  1.00  0.00    -0.161 NA 
HETATM   16  O   UNL     1     -11.295  17.018  64.445  1.00  0.00    -1.140 OA 
ENDBRANCH   3   4
ENDBRANCH   2   3
TORSDOF 2
ENDMDL
MODEL       53
REMARK 921   NORMALIZED FREE ENERGY PREDICTED BY IDOCK:   -4.21 KCAL/MOL
REMARK 922        TOTAL FREE ENERGY PREDICTED BY IDOCK:   -4.83 KCAL/MOL
REMARK 923 INTER-LIGAND FREE ENERGY PREDICTED BY IDOCK:   -4.74 KCAL/MOL
REMARK 924 INTRA-LIGAND FREE ENERGY PREDICTED BY IDOCK:   -0.08 KCAL/MOL
REMARK 927      BINDING AFFINITY PREDICTED BY RF-SCORE:    0.00 PKD
ROOT
HETATM    1  C   UNL     1      -9.364   9.319  66.590  1.00  0.00    -0.219 C  
HETATM    2  C   UNL     1      -9.682  10.321  67.688  1.00  0.00    -0.189 C  
ENDROOT
BRANCH   2   3
HETATM    3  C   UNL     1     -11.181  10.357  67.988  1.00  0.00    -0.272 C  
BRANCH   3   4
HETATM    4  N   UNL     1     -11.584  11.597  68.639  1.00  0.00    -0.285 N  
HETATM    5  C   UNL     1     -11.776  12.758  67.920  1.00  0.00    -0.357 A  
HETATM    6  C   UNL     1     -12.157  13.917  68.526  1.00  0.00    -0.296 A  
HETATM    7  N   UNL     1     -12.258  14.838  67.526  1.00  0.00    -0.514 NA 
HETATM    8  C   UNL     1     -12.380  14.029  69.920  1.00  0.00    -0.310 C  
HETATM    9  N   UNL     1     -12.158  12.841  70.578  1.00  0.00    -0.508 N  
HETATM   10  O   UNL     1     -12.731  15.055  70.489  1.00  0.00    -0.353 OA 
HETATM   11  C   UNL     1     -11.932  14.188  66.364  1.00  0.00    -0.436 A  
HETATM   12  H   UNL     1     -12.525  15.818  67.623  1.00  0.00     0.000 HD 
HETATM   13  H   UNL     1     -12.300  12.848  71.588  1.00  0.00     0.000 HD 
HETATM   14  C   UNL     1     -11.763  11.635  70.022  1.00  0.00    -0.321 C  
HETATM   15  N   UNL     1     -11.632  12.921  66.576  1.00  0.00    -0.351 NA 
HETATM   16  O   UNL     1     -11.594  10.665  70.762  1.00  0.00    -0.333 OA 
ENDBRANCH   3   4
ENDBRANCH   2   3
TORSDOF 2
ENDMDL
MODEL       54
REMARK 921   NORMALIZED FREE ENERGY PREDICTED BY IDOCK:   -4.20 KCAL/MOL
REMARK 922        TOTAL FREE ENERGY PREDICTED BY IDOCK:   -4.82 KCAL/MOL
REMARK 923 INTER-LIGAND FREE ENERGY PREDICTED BY IDOCK:   -4.66 KCAL/MOL
REMARK 924 INTRA-LIGAND FREE ENERGY PREDICTED BY IDOCK:   -0.16 KCAL/MOL
REMARK 927      BINDING AFFINITY PREDICTED BY RF-SCORE:    0.00 PKD
ROOT
HETATM    1  C   UNL     1      -9.504  16.914  68.480  1.00  0.00    -0.266 C  
HETATM    2  C   UNL     1     -10.253  15.712  69.034  1.00  0.00    -0.225 C  
ENDROOT
BRANCH   2   3
HETATM    3  C   UNL     1     -11.523  15.433  68.230  1.00  0.00    -0.353 C  
BRANCH   3   4
HETATM    4  N   UNL     1     -11.374  14.288  67.341  1.00  0.00    -0.316 N  
HETATM    5  C   UNL     1     -11.550  12.997  67.795  1.00  0.00    -0.340 A  
HETATM    6  C   UNL     1     -11.415  11.925  66.965  1.00  0.00    -0.316 A  
HETATM    7  N   UNL     1     -11.666  10.830  67.736  1.00  0.00    -0.684 NA 
HETATM    8  C   UNL     1     -11.084  12.042  65.593  1.00  0.00    -0.313 C  
HETATM    9  N   UNL     1     -10.908  13.352  65.210  1.00  0.00    -0.299 N  
HETATM   10  O   UNL     1     -10.964  11.097  64.823  1.00  0.00    -0.260 OA 
HETATM   11  C   UNL     1     -11.939  11.296  68.996  1.00  0.00    -0.325 A  
HETATM   12  H   UNL     1     -11.653   9.855  67.436  1.00  0.00     0.000 HD 
HETATM   13  H   UNL     1     -10.667  13.510  64.231  1.00  0.00     0.000 HD 
HETATM   14  C   UNL     1     -11.023  14.481  66.005  1.00  0.00    -0.324 C  
HETATM   15  N   UNL     1     -11.874  12.612  69.060  1.00  0.00    -0.304 NA 
HETATM   16  O   UNL     1     -10.817  15.585  65.503  1.00  0.00    -0.337 OA 
ENDBRANCH   3   4
ENDBRANCH   2   3
TORSDOF 2
ENDMDL
MODEL       55
REMARK 921   NORMALIZED FREE ENERGY PREDICTED BY IDOCK:   -4.20 KCAL/MOL
REMARK 922        TOTAL FREE ENERGY PREDICTED BY IDOCK:   -4.81 KCAL/MOL
REMARK 923 INTER-LIGAND FREE ENERGY PREDICTED BY IDOCK:   -4.70 KCAL/MOL
REMARK 924 INTRA-LIGAND FREE ENERGY PREDICTED BY IDOCK:   -0.11 KCAL/MOL
REMARK 927      BINDING AFFINITY PREDICTED BY RF-SCORE:    0.00 PKD
ROOT
HETATM    1  C   UNL     1      -7.560  14.004  68.502  1.00  0.00    -0.130 C  
HETATM    2  C   UNL     1      -8.190  13.555  67.193  1.00  0.00    -0.126 C  
ENDROOT
BRANCH   2   3
HETATM    3  C   UNL     1      -9.392  12.644  67.441  1.00  0.00    -0.189 C  
BRANCH   3   4
HETATM    4  N   UNL     1     -10.332  12.654  66.326  1.00  0.00    -0.248 N  
HETATM    5  C   UNL     1     -10.155  11.836  65.230  1.00  0.00    -0.262 A  
HETATM    6  C   UNL     1     -11.034  11.841  64.189  1.00  0.00    -0.374 A  
HETATM    7  N   UNL     1     -10.560  10.919  63.304  1.00  0.00    -0.701 NA 
HETATM    8  C   UNL     1     -12.180  12.673  64.142  1.00  0.00    -0.450 C  
HETATM    9  N   UNL     1     -12.287  13.471  65.258  1.00  0.00    -0.439 N  
HETATM   10  O   UNL     1     -12.990  12.690  63.224  1.00  0.00    -0.595 OA 
HETATM   11  C   UNL     1      -9.416  10.403  63.856  1.00  0.00    -0.304 A  
HETATM   12  H   UNL     1     -10.975  10.662  62.408  1.00  0.00     0.000 HD 
HETATM   13  H   UNL     1     -13.092  14.098  65.290  1.00  0.00     0.000 HD 
HETATM   14  C   UNL     1     -11.426  13.519  66.342  1.00  0.00    -0.331 C  
HETATM   15  N   UNL     1      -9.145  10.946  65.027  1.00  0.00    -0.199 NA 
HETATM   16  O   UNL     1     -11.664  14.307  67.257  1.00  0.00    -0.356 OA 
ENDBRANCH   3   4
ENDBRANCH   2   3
TORSDOF 2
ENDMDL
MODEL       56
REMARK 921   NORMALIZED FREE ENERGY PREDICTED BY IDOCK:   -4.19 KCAL/MOL
REMARK 922        TOTAL FREE ENERGY PREDICTED BY IDOCK:   -4.81 KCAL/MOL
REMARK 923 INTER-LIGAND FREE ENERGY PREDICTED BY IDOCK:   -4.68 KCAL/MOL
REMARK 924 INTRA-LIGAND FREE ENERGY PREDICTED BY IDOCK:   -0.13 KCAL/MOL
REMARK 927      BINDING AFFINITY PREDICTED BY RF-SCORE:    0.00 PKD
ROOT
HETATM    1  C   UNL     1     -11.952  13.037  69.398  1.00  0.00    -0.338 C  
HETATM    2  C   UNL     1     -12.176  12.030  70.514  1.00  0.00    -0.414 C  
ENDROOT
BRANCH   2   3
HETATM    3  C   UNL     1     -12.160  10.598  69.979  1.00  0.00    -0.316 C  
BRANCH   3   4
HETATM    4  N   UNL     1     -11.745   9.634  70.992  1.00  0.00    -0.325 N  
HETATM    5  C   UNL     1     -10.422   9.277  71.145  1.00  0.00    -0.331 A  
HETATM    6  C   UNL     1     -10.031   8.380  72.093  1.00  0.00    -0.306 A  
HETATM    7  N   UNL     1      -8.678   8.278  71.965  1.00  0.00    -0.164 NA 
HETATM    8  C   UNL     1     -10.933   7.746  72.982  1.00  0.00    -0.381 C  
HETATM    9  N   UNL     1     -12.235   8.136  72.766  1.00  0.00    -0.611 N  
HETATM   10  O   UNL     1     -10.608   6.943  73.848  1.00  0.00    -0.369 OA 
HETATM   11  C   UNL     1      -8.318   9.119  70.945  1.00  0.00    -0.185 A  
HETATM   12  H   UNL     1      -8.055   7.690  72.521  1.00  0.00     0.000 HD 
HETATM   13  H   UNL     1     -12.940   7.717  73.373  1.00  0.00     0.000 HD 
HETATM   14  C   UNL     1     -12.696   9.034  71.817  1.00  0.00    -0.366 C  
HETATM   15  N   UNL     1      -9.361   9.738  70.426  1.00  0.00    -0.202 NA 
HETATM   16  O   UNL     1     -13.904   9.260  71.749  1.00  0.00    -0.372 OA 
ENDBRANCH   3   4
ENDBRANCH   2   3
TORSDOF 2
ENDMDL
MODEL       57
REMARK 921   NORMALIZED FREE ENERGY PREDICTED BY IDOCK:   -4.18 KCAL/MOL
REMARK 922        TOTAL FREE ENERGY PREDICTED BY IDOCK:   -4.79 KCAL/MOL
REMARK 923 INTER-LIGAND FREE ENERGY PREDICTED BY IDOCK:   -4.65 KCAL/MOL
REMARK 924 INTRA-LIGAND FREE ENERGY PREDICTED BY IDOCK:   -0.14 KCAL/MOL
REMARK 927      BINDING AFFINITY PREDICTED BY RF-SCORE:    0.00 PKD
ROOT
HETATM    1  C   UNL     1     -11.248  10.957  69.571  1.00  0.00    -0.340 C  
HETATM    2  C   UNL     1     -11.690  12.079  68.645  1.00  0.00    -0.380 C  
ENDROOT
BRANCH   2   3
HETATM    3  C   UNL     1     -10.487  12.811  68.048  1.00  0.00    -0.226 C  
BRANCH   3   4
HETATM    4  N   UNL     1     -10.271  12.467  66.648  1.00  0.00    -0.227 N  
HETATM    5  C   UNL     1     -11.014  13.049  65.642  1.00  0.00    -0.273 A  
HETATM    6  C   UNL     1     -10.811  12.733  64.332  1.00  0.00    -0.368 A  
HETATM    7  N   UNL     1     -11.698  13.493  63.630  1.00  0.00    -0.689 NA 
HETATM    8  C   UNL     1      -9.842  11.794  63.900  1.00  0.00    -0.274 C  
HETATM    9  N   UNL     1      -9.149  11.242  64.953  1.00  0.00    -0.379 N  
HETATM   10  O   UNL     1      -9.633  11.498  62.730  1.00  0.00    -0.358 OA 
HETATM   11  C   UNL     1     -12.395  14.231  64.552  1.00  0.00    -0.410 A  
HETATM   12  H   UNL     1     -11.820  13.509  62.617  1.00  0.00     0.000 HD 
HETATM   13  H   UNL     1      -8.433  10.556  64.713  1.00  0.00     0.000 HD 
HETATM   14  C   UNL     1      -9.313  11.515  66.301  1.00  0.00    -0.213 C  
HETATM   15  N   UNL     1     -11.999  13.978  65.784  1.00  0.00    -0.384 NA 
HETATM   16  O   UNL     1      -8.613  10.917  67.119  1.00  0.00    -0.128 OA 
ENDBRANCH   3   4
ENDBRANCH   2   3
TORSDOF 2
ENDMDL
MODEL       58
REMARK 921   NORMALIZED FREE ENERGY PREDICTED BY IDOCK:   -4.17 KCAL/MOL
REMARK 922        TOTAL FREE ENERGY PREDICTED BY IDOCK:   -4.79 KCAL/MOL
REMARK 923 INTER-LIGAND FREE ENERGY PREDICTED BY IDOCK:   -4.64 KCAL/MOL
REMARK 924 INTRA-LIGAND FREE ENERGY PREDICTED BY IDOCK:   -0.14 KCAL/MOL
REMARK 927      BINDING AFFINITY PREDICTED BY RF-SCORE:    0.00 PKD
ROOT
HETATM    1  C   UNL     1     -10.832   6.633  67.447  1.00  0.00    -0.434 C  
HETATM    2  C   UNL     1     -11.267   6.203  68.840  1.00  0.00    -0.338 C  
ENDROOT
BRANCH   2   3
HETATM    3  C   UNL     1     -10.468   6.933  69.919  1.00  0.00    -0.216 C  
BRANCH   3   4
HETATM    4  N   UNL     1     -11.213   8.043  70.502  1.00  0.00    -0.264 N  
HETATM    5  C   UNL     1     -11.013   9.342  70.083  1.00  0.00    -0.246 A  
HETATM    6  C   UNL     1     -11.711  10.380  70.624  1.00  0.00    -0.351 A  
HETATM    7  N   UNL     1     -11.270  11.495  69.975  1.00  0.00    -0.489 NA 
HETATM    8  C   UNL     1     -12.679  10.218  71.644  1.00  0.00    -0.456 C  
HETATM    9  N   UNL     1     -12.819   8.903  72.024  1.00  0.00    -0.368 N  
HETATM   10  O   UNL     1     -13.326  11.131  72.141  1.00  0.00    -0.452 OA 
HETATM   11  C   UNL     1     -10.326  11.074  69.075  1.00  0.00    -0.209 A  
HETATM   12  H   UNL     1     -11.582  12.454  70.129  1.00  0.00     0.000 HD 
HETATM   13  H   UNL     1     -13.502   8.713  72.758  1.00  0.00     0.000 HD 
HETATM   14  C   UNL     1     -12.136   7.807  71.521  1.00  0.00    -0.309 C  
HETATM   15  N   UNL     1     -10.149   9.768  69.121  1.00  0.00    -0.181 NA 
HETATM   16  O   UNL     1     -12.374   6.693  71.987  1.00  0.00    -0.330 OA 
ENDBRANCH   3   4
ENDBRANCH   2   3
TORSDOF 2
ENDMDL
MODEL       59
REMARK 921   NORMALIZED FREE ENERGY PREDICTED BY IDOCK:   -4.16 KCAL/MOL
REMARK 922        TOTAL FREE ENERGY PREDICTED BY IDOCK:   -4.77 KCAL/MOL
REMARK 923 INTER-LIGAND FREE ENERGY PREDICTED BY IDOCK:   -4.59 KCAL/MOL
REMARK 924 INTRA-LIGAND FREE ENERGY PREDICTED BY IDOCK:   -0.18 KCAL/MOL
REMARK 927      BINDING AFFINITY PREDICTED BY RF-SCORE:    0.00 PKD
ROOT
HETATM    1  C   UNL     1     -11.441  15.165  67.948  1.00  0.00    -0.344 C  
HETATM    2  C   UNL     1     -10.942  14.516  66.667  1.00  0.00    -0.321 C  
ENDROOT
BRANCH   2   3
HETATM    3  C   UNL     1     -11.908  13.435  66.181  1.00  0.00    -0.385 C  
BRANCH   3   4
HETATM    4  N   UNL     1     -11.294  12.114  66.161  1.00  0.00    -0.346 N  
HETATM    5  C   UNL     1     -10.625  11.648  65.048  1.00  0.00    -0.289 A  
HETATM    6  C   UNL     1     -10.047  10.415  65.029  1.00  0.00    -0.309 A  
HETATM    7  N   UNL     1      -9.477  10.297  63.796  1.00  0.00    -0.290 NA 
HETATM    8  C   UNL     1     -10.086   9.520  66.126  1.00  0.00    -0.256 C  
HETATM    9  N   UNL     1     -10.779  10.040  67.195  1.00  0.00    -0.239 N  
HETATM   10  O   UNL     1      -9.567   8.411  66.138  1.00  0.00    -0.221 OA 
HETATM   11  C   UNL     1      -9.741  11.466  63.131  1.00  0.00    -0.393 A  
HETATM   12  H   UNL     1      -8.956   9.495  63.438  1.00  0.00     0.000 HD 
HETATM   13  H   UNL     1     -10.847   9.447  68.023  1.00  0.00     0.000 HD 
HETATM   14  C   UNL     1     -11.394  11.279  67.274  1.00  0.00    -0.255 C  
HETATM   15  N   UNL     1     -10.440  12.306  63.870  1.00  0.00    -0.394 NA 
HETATM   16  O   UNL     1     -11.989  11.583  68.308  1.00  0.00    -0.544 OA 
ENDBRANCH   3   4
ENDBRANCH   2   3
TORSDOF 2
ENDMDL
MODEL       60
REMARK 921   NORMALIZED FREE ENERGY PREDICTED BY IDOCK:   -4.15 KCAL/MOL
REMARK 922        TOTAL FREE ENERGY PREDICTED BY IDOCK:   -4.76 KCAL/MOL
REMARK 923 INTER-LIGAND FREE ENERGY PREDICTED BY IDOCK:   -4.97 KCAL/MOL
REMARK 924 INTRA-LIGAND FREE ENERGY PREDICTED BY IDOCK:    0.21 KCAL/MOL
REMARK 927      BINDING AFFINITY PREDICTED BY RF-SCORE:    0.00 PKD
ROOT
HETATM    1  C   UNL     1     -10.304  10.473  67.486  1.00  0.00    -0.265 C  
HETATM    2  C   UNL     1     -11.015  11.751  67.902  1.00  0.00    -0.272 C  
ENDROOT
BRANCH   2   3
HETATM    3  C   UNL     1     -11.769  12.373  66.726  1.00  0.00    -0.362 C  
BRANCH   3   4
HETATM    4  N   UNL     1     -11.306  13.722  66.424  1.00  0.00    -0.310 N  
HETATM    5  C   UNL     1     -11.347  14.724  67.371  1.00  0.00    -0.351 A  
HETATM    6  C   UNL     1     -10.911  15.985  67.092  1.00  0.00    -0.239 A  
HETATM    7  N   UNL     1     -11.087  16.696  68.242  1.00  0.00    -0.346 NA 
HETATM    8  C   UNL     1     -10.393  16.368  65.831  1.00  0.00    -0.362 C  
HETATM    9  N   UNL     1     -10.394  15.326  64.932  1.00  0.00    -0.434 N  
HETATM   10  O   UNL     1      -9.987  17.490  65.557  1.00  0.00    -0.552 OA 
HETATM   11  C   UNL     1     -11.622  15.828  69.158  1.00  0.00    -0.392 A  
HETATM   12  H   UNL     1     -10.864  17.681  68.391  1.00  0.00     0.000 HD 
HETATM   13  H   UNL     1     -10.033  15.532  64.000  1.00  0.00     0.000 HD 
HETATM   14  C   UNL     1     -10.829  14.029  65.150  1.00  0.00    -0.369 C  
HETATM   15  N   UNL     1     -11.792  14.622  68.653  1.00  0.00    -0.323 NA 
HETATM   16  O   UNL     1     -10.773  13.219  64.225  1.00  0.00    -0.396 OA 
ENDBRANCH   3   4
ENDBRANCH   2   3
TORSDOF 2
ENDMDL
MODEL       61
REMARK 921   NORMALIZED FREE ENERGY PREDICTED BY IDOCK:   -4.15 KCAL/MOL
REMARK 922        TOTAL FREE ENERGY PREDICTED BY IDOCK:   -4.76 KCAL/MOL
REMARK 923 INTER-LIGAND FREE ENERGY PREDICTED BY IDOCK:   -4.63 KCAL/MOL
REMARK 924 INTRA-LIGAND FREE ENERGY PREDICTED BY IDOCK:   -0.13 KCAL/MOL
REMARK 927      BINDING AFFINITY PREDICTED BY RF-SCORE:    0.00 PKD
ROOT
HETATM    1  C   UNL     1      -9.698   9.960  67.487  1.00  0.00    -0.193 C  
HETATM    2  C   UNL     1     -10.975   9.975  68.311  1.00  0.00    -0.278 C  
ENDROOT
BRANCH   2   3
HETATM    3  C   UNL     1     -10.749  10.633  69.672  1.00  0.00    -0.244 C  
BRANCH   3   4
HETATM    4  N   UNL     1     -10.739   9.664  70.760  1.00  0.00    -0.311 N  
HETATM    5  C   UNL     1     -11.883   9.373  71.474  1.00  0.00    -0.385 A  
HETATM    6  C   UNL     1     -11.877   8.464  72.489  1.00  0.00    -0.358 A  
HETATM    7  N   UNL     1     -13.158   8.423  72.952  1.00  0.00    -0.646 NA 
HETATM    8  C   UNL     1     -10.718   7.757  72.894  1.00  0.00    -0.385 C  
HETATM    9  N   UNL     1      -9.613   8.105  72.152  1.00  0.00    -0.216 N  
HETATM   10  O   UNL     1     -10.687   6.930  73.796  1.00  0.00    -0.347 OA 
HETATM   11  C   UNL     1     -13.875   9.311  72.193  1.00  0.00    -0.413 A  
HETATM   12  H   UNL     1     -13.515   7.845  73.714  1.00  0.00     0.000 HD 
HETATM   13  H   UNL     1      -8.740   7.634  72.391  1.00  0.00     0.000 HD 
HETATM   14  C   UNL     1      -9.552   9.024  71.117  1.00  0.00    -0.286 C  
HETATM   15  N   UNL     1     -13.122   9.905  71.287  1.00  0.00    -0.385 NA 
HETATM   16  O   UNL     1      -8.471   9.228  70.565  1.00  0.00    -0.182 OA 
ENDBRANCH   3   4
ENDBRANCH   2   3
TORSDOF 2
ENDMDL
MODEL       62
REMARK 921   NORMALIZED FREE ENERGY PREDICTED BY IDOCK:   -4.15 KCAL/MOL
REMARK 922        TOTAL FREE ENERGY PREDICTED BY IDOCK:   -4.76 KCAL/MOL
REMARK 923 INTER-LIGAND FREE ENERGY PREDICTED BY IDOCK:   -4.63 KCAL/MOL
REMARK 924 INTRA-LIGAND FREE ENERGY PREDICTED BY IDOCK:   -0.13 KCAL/MOL
REMARK 927      BINDING AFFINITY PREDICTED BY RF-SCORE:    0.00 PKD
ROOT
HETATM    1  C   UNL     1     -11.708  15.671  71.854  1.00  0.00    -0.544 C  
HETATM    2  C   UNL     1     -11.333  15.124  70.486  1.00  0.00    -0.334 C  
ENDROOT
BRANCH   2   3
HETATM    3  C   UNL     1     -12.512  14.399  69.837  1.00  0.00    -0.261 C  
BRANCH   3   4
HETATM    4  N   UNL     1     -12.106  13.165  69.175  1.00  0.00    -0.267 N  
HETATM    5  C   UNL     1     -11.880  13.120  67.815  1.00  0.00    -0.348 A  
HETATM    6  C   UNL     1     -11.496  11.968  67.196  1.00  0.00    -0.335 A  
HETATM    7  N   UNL     1     -11.357  12.291  65.879  1.00  0.00    -0.344 NA 
HETATM    8  C   UNL     1     -11.305  10.743  67.880  1.00  0.00    -0.299 C  
HETATM    9  N   UNL     1     -11.561  10.856  69.227  1.00  0.00    -0.292 N  
HETATM   10  O   UNL     1     -10.953   9.697  67.349  1.00  0.00    -0.247 OA 
HETATM   11  C   UNL     1     -11.664  13.622  65.768  1.00  0.00    -0.348 A  
HETATM   12  H   UNL     1     -11.078  11.664  65.123  1.00  0.00     0.000 HD 
HETATM   13  H   UNL     1     -11.443  10.008  69.783  1.00  0.00     0.000 HD 
HETATM   14  C   UNL     1     -11.960  11.991  69.914  1.00  0.00    -0.318 C  
HETATM   15  N   UNL     1     -11.988  14.151  66.932  1.00  0.00    -0.433 NA 
HETATM   16  O   UNL     1     -12.161  11.914  71.126  1.00  0.00    -0.262 OA 
ENDBRANCH   3   4
ENDBRANCH   2   3
TORSDOF 2
ENDMDL
MODEL       63
REMARK 921   NORMALIZED FREE ENERGY PREDICTED BY IDOCK:   -4.13 KCAL/MOL
REMARK 922        TOTAL FREE ENERGY PREDICTED BY IDOCK:   -4.73 KCAL/MOL
REMARK 923 INTER-LIGAND FREE ENERGY PREDICTED BY IDOCK:   -4.58 KCAL/MOL
REMARK 924 INTRA-LIGAND FREE ENERGY PREDICTED BY IDOCK:   -0.16 KCAL/MOL
REMARK 927      BINDING AFFINITY PREDICTED BY RF-SCORE:    0.00 PKD
ROOT
HETATM    1  C   UNL     1      -7.621  17.343  68.581  1.00  0.00    -0.265 C  
HETATM    2  C   UNL     1      -8.801  17.160  67.640  1.00  0.00    -0.218 C  
ENDROOT
BRANCH   2   3
HETATM    3  C   UNL     1      -8.472  16.164  66.527  1.00  0.00    -0.311 C  
BRANCH   3   4
HETATM    4  N   UNL     1      -9.468  15.105  66.421  1.00  0.00    -0.276 N  
HETATM    5  C   UNL     1     -10.533  15.205  65.551  1.00  0.00    -0.379 A  
HETATM    6  C   UNL     1     -11.463  14.214  65.447  1.00  0.00    -0.325 A  
HETATM    7  N   UNL     1     -12.347  14.639  64.501  1.00  0.00    -0.577 NA 
HETATM    8  C   UNL     1     -11.419  13.023  66.212  1.00  0.00    -0.337 C  
HETATM    9  N   UNL     1     -10.342  12.995  67.068  1.00  0.00    -0.246 N  
HETATM   10  O   UNL     1     -12.236  12.114  66.132  1.00  0.00    -0.611 OA 
HETATM   11  C   UNL     1     -11.908  15.868  64.080  1.00  0.00     0.028 A  
HETATM   12  H   UNL     1     -13.175  14.141  64.170  1.00  0.00     0.000 HD 
HETATM   13  H   UNL     1     -10.248  12.164  67.651  1.00  0.00     0.000 HD 
HETATM   14  C   UNL     1      -9.370  13.970  67.226  1.00  0.00    -0.230 C  
HETATM   15  N   UNL     1     -10.806  16.236  64.705  1.00  0.00    -0.676 NA 
HETATM   16  O   UNL     1      -8.476  13.791  68.052  1.00  0.00    -0.155 OA 
ENDBRANCH   3   4
ENDBRANCH   2   3
TORSDOF 2
ENDMDL
MODEL       64
REMARK 921   NORMALIZED FREE ENERGY PREDICTED BY IDOCK:   -4.09 KCAL/MOL
REMARK 922        TOTAL FREE ENERGY PREDICTED BY IDOCK:   -4.69 KCAL/MOL
REMARK 923 INTER-LIGAND FREE ENERGY PREDICTED BY IDOCK:   -4.58 KCAL/MOL
REMARK 924 INTRA-LIGAND FREE ENERGY PREDICTED BY IDOCK:   -0.12 KCAL/MOL
REMARK 927      BINDING AFFINITY PREDICTED BY RF-SCORE:    0.00 PKD
ROOT
HETATM    1  C   UNL     1     -11.662  13.839  69.059  1.00  0.00    -0.372 C  
HETATM    2  C   UNL     1     -12.030  12.715  70.016  1.00  0.00    -0.377 C  
ENDROOT
BRANCH   2   3
HETATM    3  C   UNL     1     -11.963  11.354  69.323  1.00  0.00    -0.332 C  
BRANCH   3   4
HETATM    4  N   UNL     1     -11.385  10.326  70.179  1.00  0.00    -0.294 N  
HETATM    5  C   UNL     1     -12.146   9.661  71.118  1.00  0.00    -0.362 A  
HETATM    6  C   UNL     1     -11.609   8.696  71.916  1.00  0.00    -0.350 A  
HETATM    7  N   UNL     1     -12.635   8.256  72.699  1.00  0.00    -0.607 NA 
HETATM    8  C   UNL     1     -10.249   8.306  71.857  1.00  0.00    -0.245 C  
HETATM    9  N   UNL     1      -9.546   9.018  70.913  1.00  0.00    -0.239 N  
HETATM   10  O   UNL     1      -9.743   7.437  72.556  1.00  0.00    -0.149 OA 
HETATM   11  C   UNL     1     -13.741   8.978  72.334  1.00  0.00    -0.479 A  
HETATM   12  H   UNL     1     -12.588   7.531  73.416  1.00  0.00     0.000 HD 
HETATM   13  H   UNL     1      -8.556   8.787  70.816  1.00  0.00     0.000 HD 
HETATM   14  C   UNL     1     -10.030  10.012  70.078  1.00  0.00    -0.222 C  
HETATM   15  N   UNL     1     -13.471   9.842  71.374  1.00  0.00    -0.357 NA 
HETATM   16  O   UNL     1      -9.255  10.561  69.294  1.00  0.00    -0.191 OA 
ENDBRANCH   3   4
ENDBRANCH   2   3
TORSDOF 2
ENDMDL
MODEL       65
REMARK 921   NORMALIZED FREE ENERGY PREDICTED BY IDOCK:   -4.07 KCAL/MOL
REMARK 922        TOTAL FREE ENERGY PREDICTED BY IDOCK:   -4.67 KCAL/MOL
REMARK 923 INTER-LIGAND FREE ENERGY PREDICTED BY IDOCK:   -4.52 KCAL/MOL
REMARK 924 INTRA-LIGAND FREE ENERGY PREDICTED BY IDOCK:   -0.15 KCAL/MOL
REMARK 927      BINDING AFFINITY PREDICTED BY RF-SCORE:    0.00 PKD
ROOT
HETATM    1  C   UNL     1     -11.799  12.590  65.421  1.00  0.00    -0.479 C  
HETATM    2  C   UNL     1     -11.799  14.097  65.617  1.00  0.00    -0.377 C  
ENDROOT
BRANCH   2   3
HETATM    3  C   UNL     1     -10.538  14.732  65.033  1.00  0.00    -0.429 C  
BRANCH   3   4
HETATM    4  N   UNL     1      -9.796  15.502  66.024  1.00  0.00    -0.308 N  
HETATM    5  C   UNL     1      -9.933  16.871  66.120  1.00  0.00    -0.315 A  
HETATM    6  C   UNL     1      -9.244  17.593  67.048  1.00  0.00    -0.250 A  
HETATM    7  N   UNL     1      -9.627  18.888  66.863  1.00  0.00    -0.303 NA 
HETATM    8  C   UNL     1      -8.343  17.011  67.972  1.00  0.00    -0.211 C  
HETATM    9  N   UNL     1      -8.243  15.648  67.812  1.00  0.00    -0.141 N  
HETATM   10  O   UNL     1      -7.718  17.634  68.821  1.00  0.00    -0.267 OA 
HETATM   11  C   UNL     1     -10.529  18.884  65.831  1.00  0.00    -0.391 A  
HETATM   12  H   UNL     1      -9.306  19.701  67.390  1.00  0.00     0.000 HD 
HETATM   13  H   UNL     1      -7.608  15.162  68.447  1.00  0.00     0.000 HD 
HETATM   14  C   UNL     1      -8.908  14.861  66.886  1.00  0.00    -0.258 C  
HETATM   15  N   UNL     1     -10.732  17.670  65.359  1.00  0.00    -0.579 NA 
HETATM   16  O   UNL     1      -8.690  13.649  66.870  1.00  0.00    -0.214 OA 
ENDBRANCH   3   4
ENDBRANCH   2   3
TORSDOF 2
ENDMDL
MODEL       66
REMARK 921   NORMALIZED FREE ENERGY PREDICTED BY IDOCK:   -4.07 KCAL/MOL
REMARK 922        TOTAL FREE ENERGY PREDICTED BY IDOCK:   -4.67 KCAL/MOL
REMARK 923 INTER-LIGAND FREE ENERGY PREDICTED BY IDOCK:   -4.55 KCAL/MOL
REMARK 924 INTRA-LIGAND FREE ENERGY PREDICTED BY IDOCK:   -0.12 KCAL/MOL
REMARK 927      BINDING AFFINITY PREDICTED BY RF-SCORE:    0.00 PKD
ROOT
HETATM    1  C   UNL     1     -12.029  15.245  71.225  1.00  0.00    -0.409 C  
HETATM    2  C   UNL     1     -11.437  14.248  70.241  1.00  0.00    -0.226 C  
ENDROOT
BRANCH   2   3
HETATM    3  C   UNL     1     -12.373  14.019  69.055  1.00  0.00    -0.104 C  
BRANCH   3   4
HETATM    4  N   UNL     1     -11.718  13.309  67.963  1.00  0.00    -0.340 N  
HETATM    5  C   UNL     1     -11.080  13.987  66.945  1.00  0.00    -0.304 A  
HETATM    6  C   UNL     1     -10.463  13.326  65.926  1.00  0.00    -0.285 A  
HETATM    7  N   UNL     1      -9.940  14.296  65.124  1.00  0.00    -0.563 NA 
HETATM    8  C   UNL     1     -10.429  11.914  65.823  1.00  0.00    -0.256 C  
HETATM    9  N   UNL     1     -11.095  11.302  66.860  1.00  0.00    -0.293 N  
HETATM   10  O   UNL     1      -9.876  11.295  64.923  1.00  0.00    -0.238 OA 
HETATM   11  C   UNL     1     -10.268  15.496  65.699  1.00  0.00    -0.376 A  
HETATM   12  H   UNL     1      -9.408  14.157  64.264  1.00  0.00     0.000 HD 
HETATM   13  H   UNL     1     -11.111  10.282  66.849  1.00  0.00     0.000 HD 
HETATM   14  C   UNL     1     -11.747  11.915  67.917  1.00  0.00    -0.298 C  
HETATM   15  N   UNL     1     -10.963  15.337  66.808  1.00  0.00    -0.318 NA 
HETATM   16  O   UNL     1     -12.308  11.213  68.758  1.00  0.00    -0.539 OA 
ENDBRANCH   3   4
ENDBRANCH   2   3
TORSDOF 2
ENDMDL
MODEL       67
REMARK 921   NORMALIZED FREE ENERGY PREDICTED BY IDOCK:   -4.06 KCAL/MOL
REMARK 922        TOTAL FREE ENERGY PREDICTED BY IDOCK:   -4.66 KCAL/MOL
REMARK 923 INTER-LIGAND FREE ENERGY PREDICTED BY IDOCK:   -4.50 KCAL/MOL
REMARK 924 INTRA-LIGAND FREE ENERGY PREDICTED BY IDOCK:   -0.16 KCAL/MOL
REMARK 927      BINDING AFFINITY PREDICTED BY RF-SCORE:    0.00 PKD
ROOT
HETATM    1  C   UNL     1     -11.623   9.212  71.563  1.00  0.00    -0.439 C  
HETATM    2  C   UNL     1     -11.104  10.188  70.519  1.00  0.00    -0.400 C  
ENDROOT
BRANCH   2   3
HETATM    3  C   UNL     1     -12.242  11.012  69.917  1.00  0.00    -0.336 C  
BRANCH   3   4
HETATM    4  N   UNL     1     -12.079  12.440  70.158  1.00  0.00    -0.328 N  
HETATM    5  C   UNL     1     -11.293  13.222  69.338  1.00  0.00    -0.219 A  
HETATM    6  C   UNL     1     -11.142  14.558  69.560  1.00  0.00    -0.253 A  
HETATM    7  N   UNL     1     -10.322  15.004  68.566  1.00  0.00    -0.224 NA 
HETATM    8  C   UNL     1     -11.763  15.244  70.632  1.00  0.00    -0.332 C  
HETATM    9  N   UNL     1     -12.518  14.403  71.417  1.00  0.00    -0.341 N  
HETATM   10  O   UNL     1     -11.651  16.444  70.849  1.00  0.00    -0.358 OA 
HETATM   11  C   UNL     1     -10.017  13.913  67.794  1.00  0.00    -0.241 A  
HETATM   12  H   UNL     1      -9.998  15.961  68.425  1.00  0.00     0.000 HD 
HETATM   13  H   UNL     1     -12.995  14.832  72.211  1.00  0.00     0.000 HD 
HETATM   14  C   UNL     1     -12.704  13.041  71.251  1.00  0.00    -0.293 C  
HETATM   15  N   UNL     1     -10.594  12.815  68.243  1.00  0.00    -0.232 NA 
HETATM   16  O   UNL     1     -13.406  12.433  72.059  1.00  0.00    -0.507 OA 
ENDBRANCH   3   4
ENDBRANCH   2   3
TORSDOF 2
ENDMDL
MODEL       68
REMARK 921   NORMALIZED FREE ENERGY PREDICTED BY IDOCK:   -4.06 KCAL/MOL
REMARK 922        TOTAL FREE ENERGY PREDICTED BY IDOCK:   -4.66 KCAL/MOL
REMARK 923 INTER-LIGAND FREE ENERGY PREDICTED BY IDOCK:   -4.54 KCAL/MOL
REMARK 924 INTRA-LIGAND FREE ENERGY PREDICTED BY IDOCK:   -0.12 KCAL/MOL
REMARK 927      BINDING AFFINITY PREDICTED BY RF-SCORE:    0.00 PKD
ROOT
HETATM    1  C   UNL     1     -11.666  12.617  66.732  1.00  0.00    -0.460 C  
HETATM    2  C   UNL     1     -10.928  11.360  67.167  1.00  0.00    -0.340 C  
ENDROOT
BRANCH   2   3
HETATM    3  C   UNL     1     -10.321  11.528  68.559  1.00  0.00    -0.210 C  
BRANCH   3   4
HETATM    4  N   UNL     1     -11.173  10.973  69.604  1.00  0.00    -0.266 N  
HETATM    5  C   UNL     1     -11.205   9.618  69.860  1.00  0.00    -0.207 A  
HETATM    6  C   UNL     1     -11.997   9.097  70.839  1.00  0.00    -0.242 A  
HETATM    7  N   UNL     1     -11.770   7.753  70.817  1.00  0.00    -0.393 NA 
HETATM    8  C   UNL     1     -12.842   9.885  71.657  1.00  0.00    -0.436 C  
HETATM    9  N   UNL     1     -12.772  11.222  71.340  1.00  0.00    -0.406 N  
HETATM   10  O   UNL     1     -13.557   9.444  72.549  1.00  0.00    -0.459 OA 
HETATM   11  C   UNL     1     -10.852   7.529  69.824  1.00  0.00    -0.225 A  
HETATM   12  H   UNL     1     -12.199   7.051  71.421  1.00  0.00     0.000 HD 
HETATM   13  H   UNL     1     -13.357  11.850  71.892  1.00  0.00     0.000 HD 
HETATM   14  C   UNL     1     -11.996  11.812  70.355  1.00  0.00    -0.332 C  
HETATM   15  N   UNL     1     -10.492   8.647  69.224  1.00  0.00    -0.222 NA 
HETATM   16  O   UNL     1     -12.064  13.030  70.193  1.00  0.00    -0.336 OA 
ENDBRANCH   3   4
ENDBRANCH   2   3
TORSDOF 2
ENDMDL
MODEL       69
REMARK 921   NORMALIZED FREE ENERGY PREDICTED BY IDOCK:   -4.05 KCAL/MOL
REMARK 922        TOTAL FREE ENERGY PREDICTED BY IDOCK:   -4.65 KCAL/MOL
REMARK 923 INTER-LIGAND FREE ENERGY PREDICTED BY IDOCK:   -4.69 KCAL/MOL
REMARK 924 INTRA-LIGAND FREE ENERGY PREDICTED BY IDOCK:    0.04 KCAL/MOL
REMARK 927      BINDING AFFINITY PREDICTED BY RF-SCORE:    0.00 PKD
ROOT
HETATM    1  C   UNL     1     -11.418  15.209  71.467  1.00  0.00    -0.422 C  
HETATM    2  C   UNL     1     -11.440  15.752  70.047  1.00  0.00    -0.359 C  
ENDROOT
BRANCH   2   3
HETATM    3  C   UNL     1     -10.124  16.449  69.701  1.00  0.00    -0.149 C  
BRANCH   3   4
HETATM    4  N   UNL     1     -10.227  17.256  68.491  1.00  0.00    -0.335 N  
HETATM    5  C   UNL     1     -10.363  16.674  67.248  1.00  0.00    -0.298 A  
HETATM    6  C   UNL     1     -10.464  17.427  66.117  1.00  0.00    -0.284 A  
HETATM    7  N   UNL     1     -10.594  16.535  65.094  1.00  0.00    -0.674 NA 
HETATM    8  C   UNL     1     -10.434  18.842  66.119  1.00  0.00    -0.457 C  
HETATM    9  N   UNL     1     -10.282  19.356  67.387  1.00  0.00    -0.390 N  
HETATM   10  O   UNL     1     -10.531  19.542  65.119  1.00  0.00    -0.185 OA 
HETATM   11  C   UNL     1     -10.565  15.286  65.659  1.00  0.00    -0.362 A  
HETATM   12  H   UNL     1     -10.694  16.753  64.102  1.00  0.00     0.000 HD 
HETATM   13  H   UNL     1     -10.252  20.373  67.463  1.00  0.00     0.000 HD 
HETATM   14  C   UNL     1     -10.166  18.647  68.571  1.00  0.00    -0.353 C  
HETATM   15  N   UNL     1     -10.423  15.342  66.970  1.00  0.00    -0.288 NA 
HETATM   16  O   UNL     1     -10.021  19.267  69.625  1.00  0.00    -0.139 OA 
ENDBRANCH   3   4
ENDBRANCH   2   3
TORSDOF 2
ENDMDL
MODEL       70
REMARK 921   NORMALIZED FREE ENERGY PREDICTED BY IDOCK:   -4.05 KCAL/MOL
REMARK 922        TOTAL FREE ENERGY PREDICTED BY IDOCK:   -4.65 KCAL/MOL
REMARK 923 INTER-LIGAND FREE ENERGY PREDICTED BY IDOCK:   -4.50 KCAL/MOL
REMARK 924 INTRA-LIGAND FREE ENERGY PREDICTED BY IDOCK:   -0.15 KCAL/MOL
REMARK 927      BINDING AFFINITY PREDICTED BY RF-SCORE:    0.00 PKD
ROOT
HETATM    1  C   UNL     1     -10.952  15.123  67.508  1.00  0.00    -0.310 C  
HETATM    2  C   UNL     1      -9.440  15.271  67.562  1.00  0.00    -0.202 C  
ENDROOT
BRANCH   2   3
HETATM    3  C   UNL     1      -8.903  15.935  66.295  1.00  0.00    -0.351 C  
BRANCH   3   4
HETATM    4  N   UNL     1      -8.336  17.252  66.559  1.00  0.00    -0.256 N  
HETATM    5  C   UNL     1      -9.072  18.403  66.369  1.00  0.00    -0.261 A  
HETATM    6  C   UNL     1      -8.545  19.634  66.619  1.00  0.00    -0.343 A  
HETATM    7  N   UNL     1      -9.539  20.523  66.336  1.00  0.00    -0.654 NA 
HETATM    8  C   UNL     1      -7.222  19.835  67.082  1.00  0.00    -0.222 C  
HETATM    9  N   UNL     1      -6.541  18.649  67.236  1.00  0.00    -0.199 N  
HETATM   10  O   UNL     1      -6.727  20.929  67.323  1.00  0.00    -0.298 OA 
HETATM   11  C   UNL     1     -10.618  19.782  65.928  1.00  0.00    -0.453 A  
HETATM   12  H   UNL     1      -9.491  21.539  66.413  1.00  0.00     0.000 HD 
HETATM   13  H   UNL     1      -5.578  18.719  67.568  1.00  0.00     0.000 HD 
HETATM   14  C   UNL     1      -7.015  17.371  66.992  1.00  0.00    -0.184 C  
HETATM   15  N   UNL     1     -10.360  18.489  65.937  1.00  0.00    -0.599 NA 
HETATM   16  O   UNL     1      -6.263  16.412  67.170  1.00  0.00    -0.167 OA 
ENDBRANCH   3   4
ENDBRANCH   2   3
TORSDOF 2
ENDMDL
MODEL       71
REMARK 921   NORMALIZED FREE ENERGY PREDICTED BY IDOCK:   -4.04 KCAL/MOL
REMARK 922        TOTAL FREE ENERGY PREDICTED BY IDOCK:   -4.64 KCAL/MOL
REMARK 923 INTER-LIGAND FREE ENERGY PREDICTED BY IDOCK:   -4.87 KCAL/MOL
REMARK 924 INTRA-LIGAND FREE ENERGY PREDICTED BY IDOCK:    0.23 KCAL/MOL
REMARK 927      BINDING AFFINITY PREDICTED BY RF-SCORE:    0.00 PKD
ROOT
HETATM    1  C   UNL     1      -6.984  20.477  67.349  1.00  0.00    -0.363 C  
HETATM    2  C   UNL     1      -6.990  19.290  68.299  1.00  0.00    -0.306 C  
ENDROOT
BRANCH   2   3
HETATM    3  C   UNL     1      -8.416  18.900  68.688  1.00  0.00    -0.346 C  
BRANCH   3   4
HETATM    4  N   UNL     1      -9.175  18.381  67.556  1.00  0.00    -0.270 N  
HETATM    5  C   UNL     1      -9.090  17.057  67.180  1.00  0.00    -0.223 A  
HETATM    6  C   UNL     1      -9.801  16.569  66.125  1.00  0.00    -0.332 A  
HETATM    7  N   UNL     1      -9.485  15.245  66.051  1.00  0.00    -0.325 NA 
HETATM    8  C   UNL     1     -10.668  17.364  65.338  1.00  0.00    -0.035 C  
HETATM    9  N   UNL     1     -10.695  18.674  65.757  1.00  0.00    -0.344 N  
HETATM   10  O   UNL     1     -11.325  16.950  64.391  1.00  0.00    -1.133 OA 
HETATM   11  C   UNL     1      -8.596  14.999  67.066  1.00  0.00    -0.239 A  
HETATM   12  H   UNL     1      -9.840  14.569  65.374  1.00  0.00     0.000 HD 
HETATM   13  H   UNL     1     -11.301  19.306  65.233  1.00  0.00     0.000 HD 
HETATM   14  C   UNL     1      -9.992  19.232  66.813  1.00  0.00    -0.361 C  
HETATM   15  N   UNL     1      -8.337  16.086  67.767  1.00  0.00    -0.149 NA 
HETATM   16  O   UNL     1     -10.122  20.434  67.045  1.00  0.00    -0.445 OA 
ENDBRANCH   3   4
ENDBRANCH   2   3
TORSDOF 2
ENDMDL
MODEL       72
REMARK 921   NORMALIZED FREE ENERGY PREDICTED BY IDOCK:   -4.04 KCAL/MOL
REMARK 922        TOTAL FREE ENERGY PREDICTED BY IDOCK:   -4.64 KCAL/MOL
REMARK 923 INTER-LIGAND FREE ENERGY PREDICTED BY IDOCK:   -4.56 KCAL/MOL
REMARK 924 INTRA-LIGAND FREE ENERGY PREDICTED BY IDOCK:   -0.07 KCAL/MOL
REMARK 927      BINDING AFFINITY PREDICTED BY RF-SCORE:    0.00 PKD
ROOT
HETATM    1  C   UNL     1      -9.898   8.426  66.692  1.00  0.00    -0.343 C  
HETATM    2  C   UNL     1     -10.768   9.394  67.478  1.00  0.00    -0.290 C  
ENDROOT
BRANCH   2   3
HETATM    3  C   UNL     1     -10.160   9.698  68.848  1.00  0.00    -0.187 C  
BRANCH   3   4
HETATM    4  N   UNL     1     -11.028  10.538  69.663  1.00  0.00    -0.264 N  
HETATM    5  C   UNL     1     -11.869   9.996  70.612  1.00  0.00    -0.325 A  
HETATM    6  C   UNL     1     -12.678  10.780  71.378  1.00  0.00    -0.439 A  
HETATM    7  N   UNL     1     -13.349   9.922  72.199  1.00  0.00    -0.525 NA 
HETATM    8  C   UNL     1     -12.728  12.190  71.265  1.00  0.00    -0.261 C  
HETATM    9  N   UNL     1     -11.877  12.663  70.293  1.00  0.00    -0.537 N  
HETATM   10  O   UNL     1     -13.439  12.918  71.947  1.00  0.00    -0.451 OA 
HETATM   11  C   UNL     1     -12.912   8.661  71.886  1.00  0.00    -0.372 A  
HETATM   12  H   UNL     1     -14.041  10.170  72.907  1.00  0.00     0.000 HD 
HETATM   13  H   UNL     1     -11.862  13.675  70.157  1.00  0.00     0.000 HD 
HETATM   14  C   UNL     1     -11.038  11.921  69.478  1.00  0.00    -0.102 C  
HETATM   15  N   UNL     1     -12.012   8.677  70.922  1.00  0.00    -0.242 NA 
HETATM   16  O   UNL     1     -10.348  12.506  68.644  1.00  0.00    -0.225 OA 
ENDBRANCH   3   4
ENDBRANCH   2   3
TORSDOF 2
ENDMDL
MODEL       73
REMARK 921   NORMALIZED FREE ENERGY PREDICTED BY IDOCK:   -4.02 KCAL/MOL
REMARK 922        TOTAL FREE ENERGY PREDICTED BY IDOCK:   -4.61 KCAL/MOL
REMARK 923 INTER-LIGAND FREE ENERGY PREDICTED BY IDOCK:   -4.86 KCAL/MOL
REMARK 924 INTRA-LIGAND FREE ENERGY PREDICTED BY IDOCK:    0.25 KCAL/MOL
REMARK 927      BINDING AFFINITY PREDICTED BY RF-SCORE:    0.00 PKD
ROOT
HETATM    1  C   UNL     1     -12.832  10.638  71.300  1.00  0.00    -0.535 C  
HETATM    2  C   UNL     1     -12.115  11.805  70.641  1.00  0.00    -0.407 C  
ENDROOT
BRANCH   2   3
HETATM    3  C   UNL     1     -12.857  13.119  70.884  1.00  0.00    -0.159 C  
BRANCH   3   4
HETATM    4  N   UNL     1     -12.168  14.261  70.295  1.00  0.00    -0.322 N  
HETATM    5  C   UNL     1     -11.858  14.298  68.952  1.00  0.00    -0.336 A  
HETATM    6  C   UNL     1     -11.217  15.366  68.398  1.00  0.00    -0.315 A  
HETATM    7  N   UNL     1     -11.088  15.069  67.074  1.00  0.00    -0.330 NA 
HETATM    8  C   UNL     1     -10.818  16.503  69.141  1.00  0.00    -0.334 C  
HETATM    9  N   UNL     1     -11.143  16.394  70.473  1.00  0.00    -0.382 N  
HETATM   10  O   UNL     1     -10.249  17.479  68.668  1.00  0.00    -0.335 OA 
HETATM   11  C   UNL     1     -11.656  13.835  66.894  1.00  0.00    -0.370 A  
HETATM   12  H   UNL     1     -10.652  15.651  66.358  1.00  0.00     0.000 HD 
HETATM   13  H   UNL     1     -10.884  17.181  71.069  1.00  0.00     0.000 HD 
HETATM   14  C   UNL     1     -11.785  15.336  71.097  1.00  0.00    -0.360 C  
HETATM   15  N   UNL     1     -12.132  13.342  68.021  1.00  0.00    -0.313 NA 
HETATM   16  O   UNL     1     -11.988  15.394  72.309  1.00  0.00    -0.363 OA 
ENDBRANCH   3   4
ENDBRANCH   2   3
TORSDOF 2
ENDMDL
MODEL       74
REMARK 921   NORMALIZED FREE ENERGY PREDICTED BY IDOCK:   -4.01 KCAL/MOL
REMARK 922        TOTAL FREE ENERGY PREDICTED BY IDOCK:   -4.60 KCAL/MOL
REMARK 923 INTER-LIGAND FREE ENERGY PREDICTED BY IDOCK:   -4.50 KCAL/MOL
REMARK 924 INTRA-LIGAND FREE ENERGY PREDICTED BY IDOCK:   -0.11 KCAL/MOL
REMARK 927      BINDING AFFINITY PREDICTED BY RF-SCORE:    0.00 PKD
ROOT
HETATM    1  C   UNL     1     -11.950  14.320  69.836  1.00  0.00    -0.397 C  
HETATM    2  C   UNL     1     -11.440  14.855  68.507  1.00  0.00    -0.336 C  
ENDROOT
BRANCH   2   3
HETATM    3  C   UNL     1     -12.152  14.187  67.331  1.00  0.00    -0.344 C  
BRANCH   3   4
HETATM    4  N   UNL     1     -11.279  13.276  66.602  1.00  0.00    -0.299 N  
HETATM    5  C   UNL     1     -11.104  11.969  67.008  1.00  0.00    -0.298 A  
HETATM    6  C   UNL     1     -10.292  11.114  66.325  1.00  0.00    -0.249 A  
HETATM    7  N   UNL     1     -10.366   9.928  66.992  1.00  0.00    -0.235 NA 
HETATM    8  C   UNL     1      -9.568  11.487  65.166  1.00  0.00    -0.210 C  
HETATM    9  N   UNL     1      -9.777  12.804  64.826  1.00  0.00    -0.515 N  
HETATM   10  O   UNL     1      -8.839  10.738  64.530  1.00  0.00    -0.185 OA 
HETATM   11  C   UNL     1     -11.220  10.126  68.046  1.00  0.00    -0.179 A  
HETATM   12  H   UNL     1      -9.881   9.062  66.754  1.00  0.00     0.000 HD 
HETATM   13  H   UNL     1      -9.285  13.142  63.998  1.00  0.00     0.000 HD 
HETATM   14  C   UNL     1     -10.581  13.723  65.480  1.00  0.00    -0.307 C  
HETATM   15  N   UNL     1     -11.682  11.361  68.080  1.00  0.00    -0.556 NA 
HETATM   16  O   UNL     1     -10.644  14.874  65.047  1.00  0.00    -0.386 OA 
ENDBRANCH   3   4
ENDBRANCH   2   3
TORSDOF 2
ENDMDL
MODEL       75
REMARK 921   NORMALIZED FREE ENERGY PREDICTED BY IDOCK:   -4.01 KCAL/MOL
REMARK 922        TOTAL FREE ENERGY PREDICTED BY IDOCK:   -4.60 KCAL/MOL
REMARK 923 INTER-LIGAND FREE ENERGY PREDICTED BY IDOCK:   -4.44 KCAL/MOL
REMARK 924 INTRA-LIGAND FREE ENERGY PREDICTED BY IDOCK:   -0.16 KCAL/MOL
REMARK 927      BINDING AFFINITY PREDICTED BY RF-SCORE:    0.00 PKD
ROOT
HETATM    1  C   UNL     1      -9.823  16.943  67.813  1.00  0.00    -0.252 C  
HETATM    2  C   UNL     1     -10.876  16.381  66.871  1.00  0.00    -0.118 C  
ENDROOT
BRANCH   2   3
HETATM    3  C   UNL     1     -11.456  15.072  67.407  1.00  0.00    -0.317 C  
BRANCH   3   4
HETATM    4  N   UNL     1     -11.203  13.948  66.513  1.00  0.00    -0.315 N  
HETATM    5  C   UNL     1     -10.021  13.239  66.567  1.00  0.00    -0.280 A  
HETATM    6  C   UNL     1      -9.784  12.186  65.735  1.00  0.00    -0.229 A  
HETATM    7  N   UNL     1      -8.545  11.726  66.071  1.00  0.00    -0.389 NA 
HETATM    8  C   UNL     1     -10.709  11.742  64.760  1.00  0.00    -0.302 C  
HETATM    9  N   UNL     1     -11.857  12.500  64.750  1.00  0.00    -0.364 N  
HETATM   10  O   UNL     1     -10.525  10.794  64.007  1.00  0.00    -0.358 OA 
HETATM   11  C   UNL     1      -8.095  12.526  67.089  1.00  0.00    -0.156 A  
HETATM   12  H   UNL     1      -8.050  10.941  65.647  1.00  0.00     0.000 HD 
HETATM   13  H   UNL     1     -12.570  12.235  64.070  1.00  0.00     0.000 HD 
HETATM   14  C   UNL     1     -12.155  13.583  65.561  1.00  0.00    -0.419 C  
HETATM   15  N   UNL     1      -8.973  13.457  67.410  1.00  0.00    -0.205 NA 
HETATM   16  O   UNL     1     -13.230  14.163  65.410  1.00  0.00    -0.741 OA 
ENDBRANCH   3   4
ENDBRANCH   2   3
TORSDOF 2
ENDMDL
MODEL       76
REMARK 921   NORMALIZED FREE ENERGY PREDICTED BY IDOCK:   -4.00 KCAL/MOL
REMARK 922        TOTAL FREE ENERGY PREDICTED BY IDOCK:   -4.59 KCAL/MOL
REMARK 923 INTER-LIGAND FREE ENERGY PREDICTED BY IDOCK:   -4.52 KCAL/MOL
REMARK 924 INTRA-LIGAND FREE ENERGY PREDICTED BY IDOCK:   -0.08 KCAL/MOL
REMARK 927      BINDING AFFINITY PREDICTED BY RF-SCORE:    0.00 PKD
ROOT
HETATM    1  C   UNL     1     -10.245  16.171  66.478  1.00  0.00    -0.304 C  
HETATM    2  C   UNL     1     -10.558  15.456  65.173  1.00  0.00    -0.458 C  
ENDROOT
BRANCH   2   3
HETATM    3  C   UNL     1     -11.768  14.535  65.323  1.00  0.00    -0.361 C  
BRANCH   3   4
HETATM    4  N   UNL     1     -11.412  13.243  65.895  1.00  0.00    -0.322 N  
HETATM    5  C   UNL     1     -10.795  12.267  65.139  1.00  0.00    -0.301 A  
HETATM    6  C   UNL     1     -10.457  11.060  65.673  1.00  0.00    -0.230 A  
HETATM    7  N   UNL     1      -9.867  10.364  64.660  1.00  0.00    -0.322 NA 
HETATM    8  C   UNL     1     -10.709  10.708  67.021  1.00  0.00    -0.259 C  
HETATM    9  N   UNL     1     -11.337  11.718  67.713  1.00  0.00    -0.267 N  
HETATM   10  O   UNL     1     -10.408   9.635  67.528  1.00  0.00    -0.209 OA 
HETATM   11  C   UNL     1      -9.880  11.186  63.563  1.00  0.00    -0.353 A  
HETATM   12  H   UNL     1      -9.491   9.416  64.709  1.00  0.00     0.000 HD 
HETATM   13  H   UNL     1     -11.550  11.532  68.693  1.00  0.00     0.000 HD 
HETATM   14  C   UNL     1     -11.713  12.960  67.227  1.00  0.00    -0.373 C  
HETATM   15  N   UNL     1     -10.441  12.350  63.827  1.00  0.00    -0.435 NA 
HETATM   16  O   UNL     1     -12.284  13.747  67.983  1.00  0.00    -0.323 OA 
ENDBRANCH   3   4
ENDBRANCH   2   3
TORSDOF 2
ENDMDL
MODEL       77
REMARK 921   NORMALIZED FREE ENERGY PREDICTED BY IDOCK:   -3.96 KCAL/MOL
REMARK 922        TOTAL FREE ENERGY PREDICTED BY IDOCK:   -4.55 KCAL/MOL
REMARK 923 INTER-LIGAND FREE ENERGY PREDICTED BY IDOCK:   -4.50 KCAL/MOL
REMARK 924 INTRA-LIGAND FREE ENERGY PREDICTED BY IDOCK:   -0.05 KCAL/MOL
REMARK 927      BINDING AFFINITY PREDICTED BY RF-SCORE:    0.00 PKD
ROOT
HETATM    1  C   UNL     1     -11.344  10.201  70.122  1.00  0.00    -0.372 C  
HETATM    2  C   UNL     1     -10.603  11.078  69.126  1.00  0.00    -0.253 C  
ENDROOT
BRANCH   2   3
HETATM    3  C   UNL     1     -11.575  11.810  68.201  1.00  0.00    -0.323 C  
BRANCH   3   4
HETATM    4  N   UNL     1     -11.377  13.254  68.223  1.00  0.00    -0.280 N  
HETATM    5  C   UNL     1     -11.782  14.019  69.297  1.00  0.00    -0.326 A  
HETATM    6  C   UNL     1     -11.594  15.368  69.321  1.00  0.00    -0.339 A  
HETATM    7  N   UNL     1     -12.097  15.787  70.517  1.00  0.00    -0.383 NA 
HETATM    8  C   UNL     1     -10.984  16.088  68.265  1.00  0.00    -0.335 C  
HETATM    9  N   UNL     1     -10.619  15.268  67.222  1.00  0.00    -0.284 N  
HETATM   10  O   UNL     1     -10.796  17.298  68.265  1.00  0.00    -0.365 OA 
HETATM   11  C   UNL     1     -12.565  14.668  71.156  1.00  0.00    -0.334 A  
HETATM   12  H   UNL     1     -12.121  16.745  70.868  1.00  0.00     0.000 HD 
HETATM   13  H   UNL     1     -10.172  15.721  66.424  1.00  0.00     0.000 HD 
HETATM   14  C   UNL     1     -10.788  13.896  67.133  1.00  0.00    -0.284 C  
HETATM   15  N   UNL     1     -12.387  13.578  70.434  1.00  0.00    -0.341 NA 
HETATM   16  O   UNL     1     -10.414  13.314  66.115  1.00  0.00    -0.283 OA 
ENDBRANCH   3   4
ENDBRANCH   2   3
TORSDOF 2
ENDMDL
MODEL       78
REMARK 921   NORMALIZED FREE ENERGY PREDICTED BY IDOCK:   -3.96 KCAL/MOL
REMARK 922        TOTAL FREE ENERGY PREDICTED BY IDOCK:   -4.54 KCAL/MOL
REMARK 923 INTER-LIGAND FREE ENERGY PREDICTED BY IDOCK:   -4.45 KCAL/MOL
REMARK 924 INTRA-LIGAND FREE ENERGY PREDICTED BY IDOCK:   -0.10 KCAL/MOL
REMARK 927      BINDING AFFINITY PREDICTED BY RF-SCORE:    0.00 PKD
ROOT
HETATM    1  C   UNL     1      -7.783   9.360  69.017  1.00  0.00    -0.075 C  
HETATM    2  C   UNL     1      -8.934   9.792  69.911  1.00  0.00    -0.254 C  
ENDROOT
BRANCH   2   3
HETATM    3  C   UNL     1     -10.283   9.543  69.236  1.00  0.00    -0.203 C  
BRANCH   3   4
HETATM    4  N   UNL     1     -11.367   9.405  70.201  1.00  0.00    -0.222 N  
HETATM    5  C   UNL     1     -11.601   8.211  70.852  1.00  0.00    -0.267 A  
HETATM    6  C   UNL     1     -12.611   8.081  71.758  1.00  0.00    -0.325 A  
HETATM    7  N   UNL     1     -12.541   6.794  72.201  1.00  0.00    -0.542 NA 
HETATM    8  C   UNL     1     -13.492   9.136  72.098  1.00  0.00    -0.469 C  
HETATM    9  N   UNL     1     -13.212  10.290  71.403  1.00  0.00    -0.381 N  
HETATM   10  O   UNL     1     -14.401   9.049  72.913  1.00  0.00    -0.550 OA 
HETATM   11  C   UNL     1     -11.492   6.210  71.540  1.00  0.00    -0.264 A  
HETATM   12  H   UNL     1     -13.150   6.351  72.890  1.00  0.00     0.000 HD 
HETATM   13  H   UNL     1     -13.809  11.094  71.599  1.00  0.00     0.000 HD 
HETATM   14  C   UNL     1     -12.209  10.484  70.467  1.00  0.00    -0.344 C  
HETATM   15  N   UNL     1     -10.903   7.051  70.711  1.00  0.00    -0.239 NA 
HETATM   16  O   UNL     1     -12.105  11.584  69.925  1.00  0.00    -0.309 OA 
ENDBRANCH   3   4
ENDBRANCH   2   3
TORSDOF 2
ENDMDL
MODEL       79
REMARK 921   NORMALIZED FREE ENERGY PREDICTED BY IDOCK:   -3.95 KCAL/MOL
REMARK 922        TOTAL FREE ENERGY PREDICTED BY IDOCK:   -4.54 KCAL/MOL
REMARK 923 INTER-LIGAND FREE ENERGY PREDICTED BY IDOCK:   -4.59 KCAL/MOL
REMARK 924 INTRA-LIGAND FREE ENERGY PREDICTED BY IDOCK:    0.06 KCAL/MOL
REMARK 927      BINDING AFFINITY PREDICTED BY RF-SCORE:    0.00 PKD
ROOT
HETATM    1  C   UNL     1     -11.727  12.751  63.540  1.00  0.00    -0.597 C  
HETATM    2  C   UNL     1     -12.739  12.571  64.661  1.00  0.00    -0.434 C  
ENDROOT
BRANCH   2   3
HETATM    3  C   UNL     1     -12.477  13.550  65.805  1.00  0.00    -0.462 C  
BRANCH   3   4
HETATM    4  N   UNL     1     -11.197  13.308  66.458  1.00  0.00    -0.298 N  
HETATM    5  C   UNL     1     -10.149  14.197  66.337  1.00  0.00    -0.293 A  
HETATM    6  C   UNL     1      -8.952  13.974  66.950  1.00  0.00    -0.227 A  
HETATM    7  N   UNL     1      -8.171  15.044  66.627  1.00  0.00    -0.370 NA 
HETATM    8  C   UNL     1      -8.685  12.831  67.742  1.00  0.00    -0.184 C  
HETATM    9  N   UNL     1      -9.765  11.981  67.808  1.00  0.00    -0.187 N  
HETATM   10  O   UNL     1      -7.623  12.611  68.310  1.00  0.00    -0.116 OA 
HETATM   11  C   UNL     1      -8.936  15.860  65.834  1.00  0.00    -0.216 A  
HETATM   12  H   UNL     1      -7.206  15.206  66.919  1.00  0.00     0.000 HD 
HETATM   13  H   UNL     1      -9.642  11.135  68.364  1.00  0.00     0.000 HD 
HETATM   14  C   UNL     1     -11.001  12.146  67.204  1.00  0.00    -0.268 C  
HETATM   15  N   UNL     1     -10.144  15.367  65.641  1.00  0.00    -0.352 NA 
HETATM   16  O   UNL     1     -11.858  11.276  67.356  1.00  0.00    -0.590 OA 
ENDBRANCH   3   4
ENDBRANCH   2   3
TORSDOF 2
ENDMDL
MODEL       80
REMARK 921   NORMALIZED FREE ENERGY PREDICTED BY IDOCK:   -3.91 KCAL/MOL
REMARK 922        TOTAL FREE ENERGY PREDICTED BY IDOCK:   -4.49 KCAL/MOL
REMARK 923 INTER-LIGAND FREE ENERGY PREDICTED BY IDOCK:   -4.53 KCAL/MOL
REMARK 924 INTRA-LIGAND FREE ENERGY PREDICTED BY IDOCK:    0.04 KCAL/MOL
REMARK 927      BINDING AFFINITY PREDICTED BY RF-SCORE:    0.00 PKD
ROOT
HETATM    1  C   UNL     1      -9.761  20.285  67.417  1.00  0.00    -0.584 C  
HETATM    2  C   UNL     1     -10.879  19.290  67.145  1.00  0.00    -0.543 C  
ENDROOT
BRANCH   2   3
HETATM    3  C   UNL     1     -10.372  18.095  66.338  1.00  0.00    -0.394 C  
BRANCH   3   4
HETATM    4  N   UNL     1      -9.444  17.268  67.100  1.00  0.00    -0.250 N  
HETATM    5  C   UNL     1      -9.859  16.551  68.203  1.00  0.00    -0.244 A  
HETATM    6  C   UNL     1      -8.995  15.774  68.913  1.00  0.00    -0.226 A  
HETATM    7  N   UNL     1      -9.738  15.215  69.910  1.00  0.00    -0.471 NA 
HETATM    8  C   UNL     1      -7.622  15.642  68.590  1.00  0.00    -0.143 C  
HETATM    9  N   UNL     1      -7.273  16.392  67.491  1.00  0.00    -0.133 N  
HETATM   10  O   UNL     1      -6.826  14.944  69.206  1.00  0.00    -0.124 OA 
HETATM   11  C   UNL     1     -11.017  15.684  69.752  1.00  0.00    -0.304 A  
HETATM   12  H   UNL     1      -9.409  14.574  70.632  1.00  0.00     0.000 HD 
HETATM   13  H   UNL     1      -6.296  16.344  67.201  1.00  0.00     0.000 HD 
HETATM   14  C   UNL     1      -8.100  17.206  66.733  1.00  0.00    -0.243 C  
HETATM   15  N   UNL     1     -11.117  16.501  68.721  1.00  0.00    -0.330 NA 
HETATM   16  O   UNL     1      -7.619  17.823  65.783  1.00  0.00    -0.536 OA 
ENDBRANCH   3   4
ENDBRANCH   2   3
TORSDOF 2
ENDMDL
MODEL       81
REMARK 921   NORMALIZED FREE ENERGY PREDICTED BY IDOCK:   -3.89 KCAL/MOL
REMARK 922        TOTAL FREE ENERGY PREDICTED BY IDOCK:   -4.47 KCAL/MOL
REMARK 923 INTER-LIGAND FREE ENERGY PREDICTED BY IDOCK:   -4.51 KCAL/MOL
REMARK 924 INTRA-LIGAND FREE ENERGY PREDICTED BY IDOCK:    0.04 KCAL/MOL
REMARK 927      BINDING AFFINITY PREDICTED BY RF-SCORE:    0.00 PKD
ROOT
HETATM    1  C   UNL     1     -10.438  15.901  65.728  1.00  0.00    -0.386 C  
HETATM    2  C   UNL     1     -11.369  15.328  64.671  1.00  0.00    -0.364 C  
ENDROOT
BRANCH   2   3
HETATM    3  C   UNL     1     -12.354  14.331  65.281  1.00  0.00    -0.424 C  
BRANCH   3   4
HETATM    4  N   UNL     1     -11.727  13.051  65.588  1.00  0.00    -0.354 N  
HETATM    5  C   UNL     1     -11.552  12.630  66.889  1.00  0.00    -0.373 A  
HETATM    6  C   UNL     1     -10.970  11.432  67.178  1.00  0.00    -0.285 A  
HETATM    7  N   UNL     1     -10.973  11.342  68.538  1.00  0.00    -0.202 NA 
HETATM    8  C   UNL     1     -10.499  10.537  66.186  1.00  0.00    -0.168 C  
HETATM    9  N   UNL     1     -10.691  11.025  64.914  1.00  0.00    -0.255 N  
HETATM   10  O   UNL     1      -9.980   9.452  66.417  1.00  0.00    -0.244 OA 
HETATM   11  C   UNL     1     -11.556  12.491  69.004  1.00  0.00    -0.314 A  
HETATM   12  H   UNL     1     -10.611  10.570  69.100  1.00  0.00     0.000 HD 
HETATM   13  H   UNL     1     -10.374  10.430  64.148  1.00  0.00     0.000 HD 
HETATM   14  C   UNL     1     -11.267  12.233  64.556  1.00  0.00    -0.326 C  
HETATM   15  N   UNL     1     -11.917  13.294  68.021  1.00  0.00    -0.345 NA 
HETATM   16  O   UNL     1     -11.348  12.523  63.362  1.00  0.00    -0.466 OA 
ENDBRANCH   3   4
ENDBRANCH   2   3
TORSDOF 2
ENDMDL
MODEL       82
REMARK 921   NORMALIZED FREE ENERGY PREDICTED BY IDOCK:   -3.87 KCAL/MOL
REMARK 922        TOTAL FREE ENERGY PREDICTED BY IDOCK:   -4.45 KCAL/MOL
REMARK 923 INTER-LIGAND FREE ENERGY PREDICTED BY IDOCK:   -4.34 KCAL/MOL
REMARK 924 INTRA-LIGAND FREE ENERGY PREDICTED BY IDOCK:   -0.11 KCAL/MOL
REMARK 927      BINDING AFFINITY PREDICTED BY RF-SCORE:    0.00 PKD
ROOT
HETATM    1  C   UNL     1     -13.943  15.256  72.373  1.00  0.00    -0.642 C  
HETATM    2  C   UNL     1     -13.366  15.212  70.967  1.00  0.00    -0.504 C  
ENDROOT
BRANCH   2   3
HETATM    3  C   UNL     1     -11.875  14.879  70.990  1.00  0.00    -0.327 C  
BRANCH   3   4
HETATM    4  N   UNL     1     -11.431  14.245  69.755  1.00  0.00    -0.266 N  
HETATM    5  C   UNL     1     -10.905  14.984  68.716  1.00  0.00    -0.249 A  
HETATM    6  C   UNL     1     -10.485  14.393  67.562  1.00  0.00    -0.252 A  
HETATM    7  N   UNL     1     -10.022  15.408  66.778  1.00  0.00    -0.243 NA 
HETATM    8  C   UNL     1     -10.557  12.998  67.332  1.00  0.00    -0.234 C  
HETATM    9  N   UNL     1     -11.104  12.323  68.400  1.00  0.00    -0.225 N  
HETATM   10  O   UNL     1     -10.180  12.440  66.310  1.00  0.00    -0.230 OA 
HETATM   11  C   UNL     1     -10.186  16.562  67.498  1.00  0.00    -0.283 A  
HETATM   12  H   UNL     1      -9.631  15.324  65.839  1.00  0.00     0.000 HD 
HETATM   13  H   UNL     1     -11.186  11.311  68.303  1.00  0.00     0.000 HD 
HETATM   14  C   UNL     1     -11.555  12.865  69.593  1.00  0.00    -0.248 C  
HETATM   15  N   UNL     1     -10.723  16.333  68.681  1.00  0.00    -0.290 NA 
HETATM   16  O   UNL     1     -12.033  12.115  70.444  1.00  0.00    -0.343 OA 
ENDBRANCH   3   4
ENDBRANCH   2   3
TORSDOF 2
ENDMDL
MODEL       83
REMARK 921   NORMALIZED FREE ENERGY PREDICTED BY IDOCK:   -3.85 KCAL/MOL
REMARK 922        TOTAL FREE ENERGY PREDICTED BY IDOCK:   -4.42 KCAL/MOL
REMARK 923 INTER-LIGAND FREE ENERGY PREDICTED BY IDOCK:   -4.30 KCAL/MOL
REMARK 924 INTRA-LIGAND FREE ENERGY PREDICTED BY IDOCK:   -0.12 KCAL/MOL
REMARK 927      BINDING AFFINITY PREDICTED BY RF-SCORE:    0.00 PKD
ROOT
HETATM    1  C   UNL     1     -10.834  16.488  69.196  1.00  0.00    -0.334 C  
HETATM    2  C   UNL     1      -9.779  15.401  69.061  1.00  0.00    -0.239 C  
ENDROOT
BRANCH   2   3
HETATM    3  C   UNL     1      -8.988  15.556  67.762  1.00  0.00    -0.173 C  
BRANCH   3   4
HETATM    4  N   UNL     1      -9.447  14.641  66.724  1.00  0.00    -0.248 N  
HETATM    5  C   UNL     1     -10.325  15.049  65.742  1.00  0.00    -0.335 A  
HETATM    6  C   UNL     1     -10.751  14.197  64.768  1.00  0.00    -0.419 A  
HETATM    7  N   UNL     1     -11.586  14.931  63.978  1.00  0.00    -0.666 NA 
HETATM    8  C   UNL     1     -10.343  12.844  64.686  1.00  0.00    -0.344 C  
HETATM    9  N   UNL     1      -9.481  12.499  65.702  1.00  0.00    -0.447 N  
HETATM   10  O   UNL     1     -10.704  12.059  63.818  1.00  0.00    -0.341 OA 
HETATM   11  C   UNL     1     -11.622  16.191  64.515  1.00  0.00    -0.164 A  
HETATM   12  H   UNL     1     -12.085  14.606  63.150  1.00  0.00     0.000 HD 
HETATM   13  H   UNL     1      -9.146  11.535  65.704  1.00  0.00     0.000 HD 
HETATM   14  C   UNL     1      -9.018  13.314  66.722  1.00  0.00    -0.174 C  
HETATM   15  N   UNL     1     -10.864  16.291  65.591  1.00  0.00    -0.259 NA 
HETATM   16  O   UNL     1      -8.256  12.838  67.564  1.00  0.00    -0.157 OA 
ENDBRANCH   3   4
ENDBRANCH   2   3
TORSDOF 2
ENDMDL
MODEL       84
REMARK 921   NORMALIZED FREE ENERGY PREDICTED BY IDOCK:   -3.84 KCAL/MOL
REMARK 922        TOTAL FREE ENERGY PREDICTED BY IDOCK:   -4.42 KCAL/MOL
REMARK 923 INTER-LIGAND FREE ENERGY PREDICTED BY IDOCK:   -4.28 KCAL/MOL
REMARK 924 INTRA-LIGAND FREE ENERGY PREDICTED BY IDOCK:   -0.13 KCAL/MOL
REMARK 927      BINDING AFFINITY PREDICTED BY RF-SCORE:    0.00 PKD
ROOT
HETATM    1  C   UNL     1     -12.263  15.557  72.111  1.00  0.00    -0.488 C  
HETATM    2  C   UNL     1     -11.787  14.373  71.285  1.00  0.00    -0.287 C  
ENDROOT
BRANCH   2   3
HETATM    3  C   UNL     1     -12.729  14.101  70.112  1.00  0.00    -0.172 C  
BRANCH   3   4
HETATM    4  N   UNL     1     -12.017  13.990  68.845  1.00  0.00    -0.352 N  
HETATM    5  C   UNL     1     -11.663  12.763  68.324  1.00  0.00    -0.344 A  
HETATM    6  C   UNL     1     -11.002  12.657  67.138  1.00  0.00    -0.261 A  
HETATM    7  N   UNL     1     -10.829  11.321  66.932  1.00  0.00    -0.270 NA 
HETATM    8  C   UNL     1     -10.623  13.776  66.356  1.00  0.00    -0.284 C  
HETATM    9  N   UNL     1     -10.993  14.966  66.939  1.00  0.00    -0.321 N  
HETATM   10  O   UNL     1     -10.036  13.709  65.283  1.00  0.00    -0.316 OA 
HETATM   11  C   UNL     1     -11.396  10.685  68.007  1.00  0.00    -0.278 A  
HETATM   12  H   UNL     1     -10.369  10.880  66.135  1.00  0.00     0.000 HD 
HETATM   13  H   UNL     1     -10.751  15.816  66.429  1.00  0.00     0.000 HD 
HETATM   14  C   UNL     1     -11.658  15.140  68.142  1.00  0.00    -0.341 C  
HETATM   15  N   UNL     1     -11.909  11.540  68.870  1.00  0.00    -0.334 NA 
HETATM   16  O   UNL     1     -11.901  16.284  68.528  1.00  0.00    -0.236 OA 
ENDBRANCH   3   4
ENDBRANCH   2   3
TORSDOF 2
ENDMDL
MODEL       85
REMARK 921   NORMALIZED FREE ENERGY PREDICTED BY IDOCK:   -3.84 KCAL/MOL
REMARK 922        TOTAL FREE ENERGY PREDICTED BY IDOCK:   -4.41 KCAL/MOL
REMARK 923 INTER-LIGAND FREE ENERGY PREDICTED BY IDOCK:   -4.43 KCAL/MOL
REMARK 924 INTRA-LIGAND FREE ENERGY PREDICTED BY IDOCK:    0.02 KCAL/MOL
REMARK 927      BINDING AFFINITY PREDICTED BY RF-SCORE:    0.00 PKD
ROOT
HETATM    1  C   UNL     1     -11.930  16.024  71.987  1.00  0.00    -0.622 C  
HETATM    2  C   UNL     1     -11.275  15.463  70.734  1.00  0.00    -0.378 C  
ENDROOT
BRANCH   2   3
HETATM    3  C   UNL     1     -12.220  14.520  69.990  1.00  0.00    -0.342 C  
BRANCH   3   4
HETATM    4  N   UNL     1     -11.589  13.247  69.666  1.00  0.00    -0.281 N  
HETATM    5  C   UNL     1     -11.929  12.086  70.329  1.00  0.00    -0.314 A  
HETATM    6  C   UNL     1     -11.343  10.894  70.024  1.00  0.00    -0.307 A  
HETATM    7  N   UNL     1     -11.920   9.980  70.855  1.00  0.00    -0.334 NA 
HETATM    8  C   UNL     1     -10.351  10.748  69.025  1.00  0.00    -0.215 C  
HETATM    9  N   UNL     1     -10.049  11.944  68.415  1.00  0.00    -0.203 N  
HETATM   10  O   UNL     1      -9.815   9.689  68.726  1.00  0.00    -0.157 OA 
HETATM   11  C   UNL     1     -12.826  10.667  71.621  1.00  0.00    -0.465 A  
HETATM   12  H   UNL     1     -11.717   8.981  70.898  1.00  0.00     0.000 HD 
HETATM   13  H   UNL     1      -9.339  11.913  67.682  1.00  0.00     0.000 HD 
HETATM   14  C   UNL     1     -10.601  13.186  68.683  1.00  0.00    -0.239 C  
HETATM   15  N   UNL     1     -12.850  11.951  71.322  1.00  0.00    -0.351 NA 
HETATM   16  O   UNL     1     -10.204  14.164  68.049  1.00  0.00    -0.224 OA 
ENDBRANCH   3   4
ENDBRANCH   2   3
TORSDOF 2
ENDMDL
MODEL       86
REMARK 921   NORMALIZED FREE ENERGY PREDICTED BY IDOCK:   -3.83 KCAL/MOL
REMARK 922        TOTAL FREE ENERGY PREDICTED BY IDOCK:   -4.41 KCAL/MOL
REMARK 923 INTER-LIGAND FREE ENERGY PREDICTED BY IDOCK:   -4.32 KCAL/MOL
REMARK 924 INTRA-LIGAND FREE ENERGY PREDICTED BY IDOCK:   -0.08 KCAL/MOL
REMARK 927      BINDING AFFINITY PREDICTED BY RF-SCORE:    0.00 PKD
ROOT
HETATM    1  C   UNL     1     -12.885  11.077  71.358  1.00  0.00    -0.548 C  
HETATM    2  C   UNL     1     -12.698   9.612  71.718  1.00  0.00    -0.510 C  
ENDROOT
BRANCH   2   3
HETATM    3  C   UNL     1     -11.255   9.164  71.488  1.00  0.00    -0.360 C  
BRANCH   3   4
HETATM    4  N   UNL     1     -11.100   8.414  70.248  1.00  0.00    -0.240 N  
HETATM    5  C   UNL     1     -10.551   8.992  69.122  1.00  0.00    -0.203 A  
HETATM    6  C   UNL     1     -10.402   8.291  67.963  1.00  0.00    -0.213 A  
HETATM    7  N   UNL     1      -9.827   9.159  67.082  1.00  0.00    -0.180 NA 
HETATM    8  C   UNL     1     -10.794   6.939  67.815  1.00  0.00    -0.241 C  
HETATM    9  N   UNL     1     -11.346   6.430  68.969  1.00  0.00    -0.581 N  
HETATM   10  O   UNL     1     -10.664   6.284  66.789  1.00  0.00    -0.290 OA 
HETATM   11  C   UNL     1      -9.658  10.341  67.754  1.00  0.00    -0.152 A  
HETATM   12  H   UNL     1      -9.572   8.965  66.113  1.00  0.00     0.000 HD 
HETATM   13  H   UNL     1     -11.652   5.457  68.934  1.00  0.00     0.000 HD 
HETATM   14  C   UNL     1     -11.532   7.090  70.172  1.00  0.00    -0.256 C  
HETATM   15  N   UNL     1     -10.092  10.268  68.997  1.00  0.00    -0.201 NA 
HETATM   16  O   UNL     1     -12.058   6.486  71.107  1.00  0.00    -0.350 OA 
ENDBRANCH   3   4
ENDBRANCH   2   3
TORSDOF 2
ENDMDL
MODEL       87
REMARK 921   NORMALIZED FREE ENERGY PREDICTED BY IDOCK:   -3.79 KCAL/MOL
REMARK 922        TOTAL FREE ENERGY PREDICTED BY IDOCK:   -4.35 KCAL/MOL
REMARK 923 INTER-LIGAND FREE ENERGY PREDICTED BY IDOCK:   -4.28 KCAL/MOL
REMARK 924 INTRA-LIGAND FREE ENERGY PREDICTED BY IDOCK:   -0.07 KCAL/MOL
REMARK 927      BINDING AFFINITY PREDICTED BY RF-SCORE:    0.00 PKD
ROOT
HETATM    1  C   UNL     1      -6.453  20.669  64.383  1.00  0.00    -0.306 C  
HETATM    2  C   UNL     1      -6.578  19.663  65.516  1.00  0.00    -0.297 C  
ENDROOT
BRANCH   2   3
HETATM    3  C   UNL     1      -7.491  20.188  66.624  1.00  0.00    -0.279 C  
BRANCH   3   4
HETATM    4  N   UNL     1      -8.446  19.184  67.075  1.00  0.00    -0.278 N  
HETATM    5  C   UNL     1      -8.067  18.157  67.915  1.00  0.00    -0.247 A  
HETATM    6  C   UNL     1      -8.960  17.220  68.341  1.00  0.00    -0.269 A  
HETATM    7  N   UNL     1      -8.252  16.382  69.151  1.00  0.00    -0.226 NA 
HETATM    8  C   UNL     1     -10.324  17.215  67.962  1.00  0.00    -0.353 C  
HETATM    9  N   UNL     1     -10.630  18.255  67.114  1.00  0.00    -0.392 N  
HETATM   10  O   UNL     1     -11.148  16.391  68.337  1.00  0.00    -0.343 OA 
HETATM   11  C   UNL     1      -6.966  16.855  69.172  1.00  0.00    -0.234 A  
HETATM   12  H   UNL     1      -8.609  15.563  69.644  1.00  0.00     0.000 HD 
HETATM   13  H   UNL     1     -11.599  18.314  66.800  1.00  0.00     0.000 HD 
HETATM   14  C   UNL     1      -9.770  19.232  66.640  1.00  0.00    -0.353 C  
HETATM   15  N   UNL     1      -6.825  17.934  68.427  1.00  0.00    -0.218 NA 
HETATM   16  O   UNL     1     -10.208  20.088  65.871  1.00  0.00    -0.486 OA 
ENDBRANCH   3   4
ENDBRANCH   2   3
TORSDOF 2
ENDMDL
MODEL       88
REMARK 921   NORMALIZED FREE ENERGY PREDICTED BY IDOCK:   -3.78 KCAL/MOL
REMARK 922        TOTAL FREE ENERGY PREDICTED BY IDOCK:   -4.34 KCAL/MOL
REMARK 923 INTER-LIGAND FREE ENERGY PREDICTED BY IDOCK:   -4.23 KCAL/MOL
REMARK 924 INTRA-LIGAND FREE ENERGY PREDICTED BY IDOCK:   -0.11 KCAL/MOL
REMARK 927      BINDING AFFINITY PREDICTED BY RF-SCORE:    0.00 PKD
ROOT
HETATM    1  C   UNL     1     -12.238  14.401  69.974  1.00  0.00    -0.408 C  
HETATM    2  C   UNL     1     -11.835  13.660  68.709  1.00  0.00    -0.395 C  
ENDROOT
BRANCH   2   3
HETATM    3  C   UNL     1     -11.902  14.576  67.486  1.00  0.00    -0.374 C  
BRANCH   3   4
HETATM    4  N   UNL     1     -10.607  15.162  67.164  1.00  0.00    -0.289 N  
HETATM    5  C   UNL     1     -10.255  16.418  67.613  1.00  0.00    -0.272 A  
HETATM    6  C   UNL     1      -9.044  16.967  67.317  1.00  0.00    -0.223 A  
HETATM    7  N   UNL     1      -9.037  18.188  67.922  1.00  0.00    -0.261 NA 
HETATM    8  C   UNL     1      -8.063  16.311  66.534  1.00  0.00    -0.302 C  
HETATM    9  N   UNL     1      -8.483  15.071  66.108  1.00  0.00    -0.289 N  
HETATM   10  O   UNL     1      -6.964  16.777  66.260  1.00  0.00    -0.187 OA 
HETATM   11  C   UNL     1     -10.246  18.317  68.554  1.00  0.00    -0.379 A  
HETATM   12  H   UNL     1      -8.280  18.873  67.908  1.00  0.00     0.000 HD 
HETATM   13  H   UNL     1      -7.825  14.541  65.537  1.00  0.00     0.000 HD 
HETATM   14  C   UNL     1      -9.701  14.463  66.367  1.00  0.00    -0.302 C  
HETATM   15  N   UNL     1     -11.008  17.254  68.381  1.00  0.00    -0.259 NA 
HETATM   16  O   UNL     1      -9.922  13.349  65.894  1.00  0.00    -0.289 OA 
ENDBRANCH   3   4
ENDBRANCH   2   3
TORSDOF 2
ENDMDL
MODEL       89
REMARK 921   NORMALIZED FREE ENERGY PREDICTED BY IDOCK:   -3.77 KCAL/MOL
REMARK 922        TOTAL FREE ENERGY PREDICTED BY IDOCK:   -4.34 KCAL/MOL
REMARK 923 INTER-LIGAND FREE ENERGY PREDICTED BY IDOCK:   -4.23 KCAL/MOL
REMARK 924 INTRA-LIGAND FREE ENERGY PREDICTED BY IDOCK:   -0.11 KCAL/MOL
REMARK 927      BINDING AFFINITY PREDICTED BY RF-SCORE:    0.00 PKD
ROOT
HETATM    1  C   UNL     1      -7.816  13.396  68.332  1.00  0.00    -0.138 C  
HETATM    2  C   UNL     1      -7.770  12.531  67.082  1.00  0.00    -0.109 C  
ENDROOT
BRANCH   2   3
HETATM    3  C   UNL     1      -8.937  11.544  67.048  1.00  0.00    -0.174 C  
BRANCH   3   4
HETATM    4  N   UNL     1      -9.955  11.925  66.077  1.00  0.00    -0.225 N  
HETATM    5  C   UNL     1     -10.975  12.793  66.408  1.00  0.00    -0.276 A  
HETATM    6  C   UNL     1     -11.925  13.155  65.502  1.00  0.00    -0.412 A  
HETATM    7  N   UNL     1     -12.751  14.016  66.160  1.00  0.00    -0.483 NA 
HETATM    8  C   UNL     1     -11.951  12.676  64.169  1.00  0.00    -0.426 C  
HETATM    9  N   UNL     1     -10.917  11.805  63.911  1.00  0.00    -0.374 N  
HETATM   10  O   UNL     1     -12.788  12.990  63.333  1.00  0.00    -0.640 OA 
HETATM   11  C   UNL     1     -12.258  14.132  67.434  1.00  0.00    -0.243 A  
HETATM   12  H   UNL     1     -13.575  14.483  65.780  1.00  0.00     0.000 HD 
HETATM   13  H   UNL     1     -10.874  11.420  62.967  1.00  0.00     0.000 HD 
HETATM   14  C   UNL     1      -9.928  11.393  64.788  1.00  0.00    -0.267 C  
HETATM   15  N   UNL     1     -11.178  13.396  67.612  1.00  0.00    -0.265 NA 
HETATM   16  O   UNL     1      -9.079  10.592  64.395  1.00  0.00    -0.196 OA 
ENDBRANCH   3   4
ENDBRANCH   2   3
TORSDOF 2
ENDMDL
MODEL       90
REMARK 921   NORMALIZED FREE ENERGY PREDICTED BY IDOCK:   -3.76 KCAL/MOL
REMARK 922        TOTAL FREE ENERGY PREDICTED BY IDOCK:   -4.32 KCAL/MOL
REMARK 923 INTER-LIGAND FREE ENERGY PREDICTED BY IDOCK:   -4.15 KCAL/MOL
REMARK 924 INTRA-LIGAND FREE ENERGY PREDICTED BY IDOCK:   -0.18 KCAL/MOL
REMARK 927      BINDING AFFINITY PREDICTED BY RF-SCORE:    0.00 PKD
ROOT
HETATM    1  C   UNL     1      -6.291  20.845  63.967  1.00  0.00    -0.318 C  
HETATM    2  C   UNL     1      -5.851  19.495  64.513  1.00  0.00    -0.310 C  
ENDROOT
BRANCH   2   3
HETATM    3  C   UNL     1      -6.150  19.379  66.008  1.00  0.00    -0.180 C  
BRANCH   3   4
HETATM    4  N   UNL     1      -7.167  18.374  66.291  1.00  0.00    -0.239 N  
HETATM    5  C   UNL     1      -8.505  18.703  66.355  1.00  0.00    -0.272 A  
HETATM    6  C   UNL     1      -9.458  17.764  66.616  1.00  0.00    -0.292 A  
HETATM    7  N   UNL     1     -10.646  18.432  66.593  1.00  0.00    -0.367 NA 
HETATM    8  C   UNL     1      -9.162  16.398  66.844  1.00  0.00    -0.218 C  
HETATM    9  N   UNL     1      -7.811  16.142  66.780  1.00  0.00    -0.244 N  
HETATM   10  O   UNL     1      -9.998  15.533  67.072  1.00  0.00    -0.233 OA 
HETATM   11  C   UNL     1     -10.351  19.743  66.320  1.00  0.00    -0.519 A  
HETATM   12  H   UNL     1     -11.573  18.034  66.749  1.00  0.00     0.000 HD 
HETATM   13  H   UNL     1      -7.525  15.175  66.935  1.00  0.00     0.000 HD 
HETATM   14  C   UNL     1      -6.796  17.050  66.528  1.00  0.00    -0.246 C  
HETATM   15  N   UNL     1      -9.055  19.935  66.173  1.00  0.00    -0.367 NA 
HETATM   16  O   UNL     1      -5.631  16.653  66.520  1.00  0.00    -0.341 OA 
ENDBRANCH   3   4
ENDBRANCH   2   3
TORSDOF 2
ENDMDL
MODEL       91
REMARK 921   NORMALIZED FREE ENERGY PREDICTED BY IDOCK:   -3.74 KCAL/MOL
REMARK 922        TOTAL FREE ENERGY PREDICTED BY IDOCK:   -4.31 KCAL/MOL
REMARK 923 INTER-LIGAND FREE ENERGY PREDICTED BY IDOCK:   -4.29 KCAL/MOL
REMARK 924 INTRA-LIGAND FREE ENERGY PREDICTED BY IDOCK:   -0.01 KCAL/MOL
REMARK 927      BINDING AFFINITY PREDICTED BY RF-SCORE:    0.00 PKD
ROOT
HETATM    1  C   UNL     1      -9.853   4.000  71.966  1.00  0.00    -0.242 C  
HETATM    2  C   UNL     1     -10.276   5.343  71.391  1.00  0.00    -0.279 C  
ENDROOT
BRANCH   2   3
HETATM    3  C   UNL     1     -10.368   6.408  72.483  1.00  0.00    -0.191 C  
BRANCH   3   4
HETATM    4  N   UNL     1     -10.891   7.672  71.980  1.00  0.00    -0.229 N  
HETATM    5  C   UNL     1     -12.226   7.825  71.669  1.00  0.00    -0.313 A  
HETATM    6  C   UNL     1     -12.719   9.006  71.202  1.00  0.00    -0.192 A  
HETATM    7  N   UNL     1     -14.053   8.799  71.017  1.00  0.00    -0.590 NA 
HETATM    8  C   UNL     1     -11.917  10.155  70.995  1.00  0.00    -0.378 C  
HETATM    9  N   UNL     1     -10.596   9.930  71.310  1.00  0.00    -0.201 N  
HETATM   10  O   UNL     1     -12.335  11.231  70.585  1.00  0.00    -0.348 OA 
HETATM   11  C   UNL     1     -14.300   7.501  71.380  1.00  0.00    -0.394 A  
HETATM   12  H   UNL     1     -14.735   9.477  70.674  1.00  0.00     0.000 HD 
HETATM   13  H   UNL     1      -9.960  10.718  71.184  1.00  0.00     0.000 HD 
HETATM   14  C   UNL     1     -10.034   8.754  71.779  1.00  0.00    -0.326 C  
HETATM   15  N   UNL     1     -13.205   6.884  71.780  1.00  0.00    -0.299 NA 
HETATM   16  O   UNL     1      -8.823   8.720  71.999  1.00  0.00    -0.312 OA 
ENDBRANCH   3   4
ENDBRANCH   2   3
TORSDOF 2
ENDMDL
MODEL       92
REMARK 921   NORMALIZED FREE ENERGY PREDICTED BY IDOCK:   -3.73 KCAL/MOL
REMARK 922        TOTAL FREE ENERGY PREDICTED BY IDOCK:   -4.29 KCAL/MOL
REMARK 923 INTER-LIGAND FREE ENERGY PREDICTED BY IDOCK:   -4.38 KCAL/MOL
REMARK 924 INTRA-LIGAND FREE ENERGY PREDICTED BY IDOCK:    0.08 KCAL/MOL
REMARK 927      BINDING AFFINITY PREDICTED BY RF-SCORE:    0.00 PKD
ROOT
HETATM    1  C   UNL     1     -10.588  15.732  65.721  1.00  0.00    -0.369 C  
HETATM    2  C   UNL     1     -10.916  15.309  67.144  1.00  0.00    -0.331 C  
ENDROOT
BRANCH   2   3
HETATM    3  C   UNL     1     -11.023  16.520  68.071  1.00  0.00    -0.320 C  
BRANCH   3   4
HETATM    4  N   UNL     1      -9.785  17.288  68.122  1.00  0.00    -0.273 N  
HETATM    5  C   UNL     1      -9.701  18.552  67.576  1.00  0.00    -0.300 A  
HETATM    6  C   UNL     1      -8.547  19.274  67.626  1.00  0.00    -0.296 A  
HETATM    7  N   UNL     1      -8.828  20.457  67.011  1.00  0.00    -0.485 NA 
HETATM    8  C   UNL     1      -7.356  18.796  68.226  1.00  0.00    -0.271 C  
HETATM    9  N   UNL     1      -7.505  17.526  68.736  1.00  0.00    -0.260 N  
HETATM   10  O   UNL     1      -6.308  19.426  68.292  1.00  0.00    -0.225 OA 
HETATM   11  C   UNL     1     -10.139  20.391  66.619  1.00  0.00    -0.322 A  
HETATM   12  H   UNL     1      -8.187  21.239  66.869  1.00  0.00     0.000 HD 
HETATM   13  H   UNL     1      -6.684  17.119  69.183  1.00  0.00     0.000 HD 
HETATM   14  C   UNL     1      -8.645  16.740  68.710  1.00  0.00    -0.255 C  
HETATM   15  N   UNL     1     -10.695  19.241  66.949  1.00  0.00    -0.456 NA 
HETATM   16  O   UNL     1      -8.602  15.613  69.203  1.00  0.00    -0.216 OA 
ENDBRANCH   3   4
ENDBRANCH   2   3
TORSDOF 2
ENDMDL
MODEL       93
REMARK 921   NORMALIZED FREE ENERGY PREDICTED BY IDOCK:   -3.72 KCAL/MOL
REMARK 922        TOTAL FREE ENERGY PREDICTED BY IDOCK:   -4.28 KCAL/MOL
REMARK 923 INTER-LIGAND FREE ENERGY PREDICTED BY IDOCK:   -4.16 KCAL/MOL
REMARK 924 INTRA-LIGAND FREE ENERGY PREDICTED BY IDOCK:   -0.12 KCAL/MOL
REMARK 927      BINDING AFFINITY PREDICTED BY RF-SCORE:    0.00 PKD
ROOT
HETATM    1  C   UNL     1     -12.515  13.078  64.449  1.00  0.00    -0.406 C  
HETATM    2  C   UNL     1     -12.141  14.361  65.174  1.00  0.00    -0.395 C  
ENDROOT
BRANCH   2   3
HETATM    3  C   UNL     1     -10.795  14.898  64.689  1.00  0.00    -0.275 C  
BRANCH   3   4
HETATM    4  N   UNL     1     -10.124  15.705  65.702  1.00  0.00    -0.347 N  
HETATM    5  C   UNL     1      -9.259  15.139  66.615  1.00  0.00    -0.270 A  
HETATM    6  C   UNL     1      -8.628  15.891  67.559  1.00  0.00    -0.168 A  
HETATM    7  N   UNL     1      -7.856  15.018  68.267  1.00  0.00    -0.115 NA 
HETATM    8  C   UNL     1      -8.807  17.290  67.686  1.00  0.00    -0.220 C  
HETATM    9  N   UNL     1      -9.691  17.787  66.756  1.00  0.00    -0.295 N  
HETATM   10  O   UNL     1      -8.246  17.991  68.519  1.00  0.00    -0.296 OA 
HETATM   11  C   UNL     1      -8.061  13.781  67.715  1.00  0.00    -0.176 A  
HETATM   12  H   UNL     1      -7.246  15.242  69.054  1.00  0.00     0.000 HD 
HETATM   13  H   UNL     1      -9.868  18.791  66.789  1.00  0.00     0.000 HD 
HETATM   14  C   UNL     1     -10.369  17.076  65.779  1.00  0.00    -0.261 C  
HETATM   15  N   UNL     1      -8.912  13.825  66.708  1.00  0.00    -0.221 NA 
HETATM   16  O   UNL     1     -11.140  17.677  65.032  1.00  0.00    -0.716 OA 
ENDBRANCH   3   4
ENDBRANCH   2   3
TORSDOF 2
ENDMDL
MODEL       94
REMARK 921   NORMALIZED FREE ENERGY PREDICTED BY IDOCK:   -3.69 KCAL/MOL
REMARK 922        TOTAL FREE ENERGY PREDICTED BY IDOCK:   -4.24 KCAL/MOL
REMARK 923 INTER-LIGAND FREE ENERGY PREDICTED BY IDOCK:   -4.07 KCAL/MOL
REMARK 924 INTRA-LIGAND FREE ENERGY PREDICTED BY IDOCK:   -0.17 KCAL/MOL
REMARK 927      BINDING AFFINITY PREDICTED BY RF-SCORE:    0.00 PKD
ROOT
HETATM    1  C   UNL     1      -7.926   9.068  68.734  1.00  0.00    -0.101 C  
HETATM    2  C   UNL     1      -8.866  10.086  69.360  1.00  0.00    -0.200 C  
ENDROOT
BRANCH   2   3
HETATM    3  C   UNL     1     -10.289   9.929  68.824  1.00  0.00    -0.203 C  
BRANCH   3   4
HETATM    4  N   UNL     1     -11.255   9.676  69.885  1.00  0.00    -0.233 N  
HETATM    5  C   UNL     1     -11.916  10.709  70.516  1.00  0.00    -0.352 A  
HETATM    6  C   UNL     1     -12.823  10.475  71.506  1.00  0.00    -0.463 A  
HETATM    7  N   UNL     1     -13.278  11.703  71.884  1.00  0.00    -0.454 NA 
HETATM    8  C   UNL     1     -13.153   9.177  71.967  1.00  0.00    -0.429 C  
HETATM    9  N   UNL     1     -12.448   8.197  71.307  1.00  0.00    -0.419 N  
HETATM   10  O   UNL     1     -13.969   8.939  72.848  1.00  0.00    -0.401 OA 
HETATM   11  C   UNL     1     -12.622  12.619  71.103  1.00  0.00    -0.258 A  
HETATM   12  H   UNL     1     -13.971  11.902  72.606  1.00  0.00     0.000 HD 
HETATM   13  H   UNL     1     -12.637   7.235  71.590  1.00  0.00     0.000 HD 
HETATM   14  C   UNL     1     -11.511   8.369  70.302  1.00  0.00    -0.062 C  
HETATM   15  N   UNL     1     -11.786  12.040  70.263  1.00  0.00    -0.251 NA 
HETATM   16  O   UNL     1     -10.959   7.378  69.826  1.00  0.00    -0.247 OA 
ENDBRANCH   3   4
ENDBRANCH   2   3
TORSDOF 2
ENDMDL
MODEL       95
REMARK 921   NORMALIZED FREE ENERGY PREDICTED BY IDOCK:   -3.68 KCAL/MOL
REMARK 922        TOTAL FREE ENERGY PREDICTED BY IDOCK:   -4.23 KCAL/MOL
REMARK 923 INTER-LIGAND FREE ENERGY PREDICTED BY IDOCK:   -4.07 KCAL/MOL
REMARK 924 INTRA-LIGAND FREE ENERGY PREDICTED BY IDOCK:   -0.16 KCAL/MOL
REMARK 927      BINDING AFFINITY PREDICTED BY RF-SCORE:    0.00 PKD
ROOT
HETATM    1  C   UNL     1      -9.160   4.209  69.187  1.00  0.00    -0.191 C  
HETATM    2  C   UNL     1     -10.033   4.516  70.394  1.00  0.00    -0.284 C  
ENDROOT
BRANCH   2   3
HETATM    3  C   UNL     1      -9.438   5.645  71.235  1.00  0.00    -0.148 C  
BRANCH   3   4
HETATM    4  N   UNL     1     -10.400   6.709  71.491  1.00  0.00    -0.208 N  
HETATM    5  C   UNL     1     -10.603   7.729  70.586  1.00  0.00    -0.222 A  
HETATM    6  C   UNL     1     -11.505   8.723  70.821  1.00  0.00    -0.270 A  
HETATM    7  N   UNL     1     -11.448   9.536  69.729  1.00  0.00    -0.440 NA 
HETATM    8  C   UNL     1     -12.293   8.795  71.996  1.00  0.00    -0.377 C  
HETATM    9  N   UNL     1     -12.031   7.757  72.861  1.00  0.00    -0.609 N  
HETATM   10  O   UNL     1     -13.116   9.671  72.229  1.00  0.00    -0.414 OA 
HETATM   11  C   UNL     1     -10.513   8.993  68.887  1.00  0.00    -0.210 A  
HETATM   12  H   UNL     1     -11.994  10.383  69.569  1.00  0.00     0.000 HD 
HETATM   13  H   UNL     1     -12.565   7.747  73.731  1.00  0.00     0.000 HD 
HETATM   14  C   UNL     1     -11.124   6.725  72.684  1.00  0.00    -0.265 C  
HETATM   15  N   UNL     1      -9.981   7.893  69.385  1.00  0.00    -0.185 NA 
HETATM   16  O   UNL     1     -11.004   5.880  73.570  1.00  0.00    -0.250 OA 
ENDBRANCH   3   4
ENDBRANCH   2   3
TORSDOF 2
ENDMDL
MODEL       96
REMARK 921   NORMALIZED FREE ENERGY PREDICTED BY IDOCK:   -3.67 KCAL/MOL
REMARK 922        TOTAL FREE ENERGY PREDICTED BY IDOCK:   -4.23 KCAL/MOL
REMARK 923 INTER-LIGAND FREE ENERGY PREDICTED BY IDOCK:   -4.24 KCAL/MOL
REMARK 924 INTRA-LIGAND FREE ENERGY PREDICTED BY IDOCK:    0.01 KCAL/MOL
REMARK 927      BINDING AFFINITY PREDICTED BY RF-SCORE:    0.00 PKD
ROOT
HETATM    1  C   UNL     1     -11.298  15.949  64.552  1.00  0.00    -0.316 C  
HETATM    2  C   UNL     1     -10.247  16.177  65.627  1.00  0.00    -0.390 C  
ENDROOT
BRANCH   2   3
HETATM    3  C   UNL     1     -10.661  17.300  66.578  1.00  0.00    -0.178 C  
BRANCH   3   4
HETATM    4  N   UNL     1      -9.594  18.273  66.781  1.00  0.00    -0.287 N  
HETATM    5  C   UNL     1      -8.463  17.958  67.505  1.00  0.00    -0.232 A  
HETATM    6  C   UNL     1      -7.463  18.865  67.693  1.00  0.00    -0.226 A  
HETATM    7  N   UNL     1      -6.517  18.218  68.431  1.00  0.00    -0.203 NA 
HETATM    8  C   UNL     1      -7.501  20.183  67.177  1.00  0.00    -0.290 C  
HETATM    9  N   UNL     1      -8.661  20.434  66.480  1.00  0.00    -0.544 N  
HETATM   10  O   UNL     1      -6.614  21.014  67.323  1.00  0.00    -0.309 OA 
HETATM   11  C   UNL     1      -6.993  16.952  68.653  1.00  0.00    -0.191 A  
HETATM   12  H   UNL     1      -5.628  18.601  68.755  1.00  0.00     0.000 HD 
HETATM   13  H   UNL     1      -8.756  21.367  66.079  1.00  0.00     0.000 HD 
HETATM   14  C   UNL     1      -9.714  19.561  66.260  1.00  0.00    -0.402 C  
HETATM   15  N   UNL     1      -8.177  16.768  68.101  1.00  0.00    -0.193 NA 
HETATM   16  O   UNL     1     -10.691  19.955  65.622  1.00  0.00    -0.478 OA 
ENDBRANCH   3   4
ENDBRANCH   2   3
TORSDOF 2
ENDMDL
MODEL       97
REMARK 921   NORMALIZED FREE ENERGY PREDICTED BY IDOCK:   -3.67 KCAL/MOL
REMARK 922        TOTAL FREE ENERGY PREDICTED BY IDOCK:   -4.23 KCAL/MOL
REMARK 923 INTER-LIGAND FREE ENERGY PREDICTED BY IDOCK:   -4.06 KCAL/MOL
REMARK 924 INTRA-LIGAND FREE ENERGY PREDICTED BY IDOCK:   -0.17 KCAL/MOL
REMARK 927      BINDING AFFINITY PREDICTED BY RF-SCORE:    0.00 PKD
ROOT
HETATM    1  C   UNL     1     -11.401  15.979  69.429  1.00  0.00    -0.355 C  
HETATM    2  C   UNL     1     -10.226  15.045  69.187  1.00  0.00    -0.241 C  
ENDROOT
BRANCH   2   3
HETATM    3  C   UNL     1      -9.701  15.173  67.758  1.00  0.00    -0.211 C  
BRANCH   3   4
HETATM    4  N   UNL     1      -9.883  13.948  66.990  1.00  0.00    -0.251 N  
HETATM    5  C   UNL     1     -11.037  13.714  66.272  1.00  0.00    -0.301 A  
HETATM    6  C   UNL     1     -11.208  12.570  65.550  1.00  0.00    -0.314 A  
HETATM    7  N   UNL     1     -12.437  12.682  64.972  1.00  0.00    -0.563 NA 
HETATM    8  C   UNL     1     -10.236  11.542  65.481  1.00  0.00    -0.258 C  
HETATM    9  N   UNL     1      -9.119  11.833  66.230  1.00  0.00    -0.225 N  
HETATM   10  O   UNL     1     -10.360  10.510  64.834  1.00  0.00    -0.328 OA 
HETATM   11  C   UNL     1     -12.949  13.889  65.374  1.00  0.00    -0.326 A  
HETATM   12  H   UNL     1     -12.888  12.002  64.359  1.00  0.00     0.000 HD 
HETATM   13  H   UNL     1      -8.376  11.133  66.226  1.00  0.00     0.000 HD 
HETATM   14  C   UNL     1      -8.889  12.969  66.989  1.00  0.00    -0.212 C  
HETATM   15  N   UNL     1     -12.117  14.536  66.167  1.00  0.00    -0.335 NA 
HETATM   16  O   UNL     1      -7.833  13.064  67.614  1.00  0.00    -0.140 OA 
ENDBRANCH   3   4
ENDBRANCH   2   3
TORSDOF 2
ENDMDL
MODEL       98
REMARK 921   NORMALIZED FREE ENERGY PREDICTED BY IDOCK:   -3.66 KCAL/MOL
REMARK 922        TOTAL FREE ENERGY PREDICTED BY IDOCK:   -4.21 KCAL/MOL
REMARK 923 INTER-LIGAND FREE ENERGY PREDICTED BY IDOCK:   -4.10 KCAL/MOL
REMARK 924 INTRA-LIGAND FREE ENERGY PREDICTED BY IDOCK:   -0.11 KCAL/MOL
REMARK 927      BINDING AFFINITY PREDICTED BY RF-SCORE:    0.00 PKD
ROOT
HETATM    1  C   UNL     1     -10.470   5.269  69.881  1.00  0.00    -0.351 C  
HETATM    2  C   UNL     1     -11.290   6.548  69.960  1.00  0.00    -0.472 C  
ENDROOT
BRANCH   2   3
HETATM    3  C   UNL     1     -10.403   7.756  70.260  1.00  0.00    -0.215 C  
BRANCH   3   4
HETATM    4  N   UNL     1     -10.824   8.946  69.531  1.00  0.00    -0.198 N  
HETATM    5  C   UNL     1     -10.472   9.143  68.212  1.00  0.00    -0.208 A  
HETATM    6  C   UNL     1     -10.868  10.252  67.527  1.00  0.00    -0.298 A  
HETATM    7  N   UNL     1     -10.357  10.109  66.272  1.00  0.00    -0.207 NA 
HETATM    8  C   UNL     1     -11.655  11.280  68.101  1.00  0.00    -0.289 C  
HETATM    9  N   UNL     1     -11.957  11.028  69.419  1.00  0.00    -0.327 N  
HETATM   10  O   UNL     1     -12.032  12.282  67.506  1.00  0.00    -0.513 OA 
HETATM   11  C   UNL     1      -9.676   8.920  66.261  1.00  0.00    -0.275 A  
HETATM   12  H   UNL     1     -10.461  10.760  65.492  1.00  0.00     0.000 HD 
HETATM   13  H   UNL     1     -12.524  11.730  69.897  1.00  0.00     0.000 HD 
HETATM   14  C   UNL     1     -11.580   9.928  70.171  1.00  0.00    -0.218 C  
HETATM   15  N   UNL     1      -9.729   8.312  67.430  1.00  0.00    -0.162 NA 
HETATM   16  O   UNL     1     -11.927   9.866  71.351  1.00  0.00    -0.362 OA 
ENDBRANCH   3   4
ENDBRANCH   2   3
TORSDOF 2
ENDMDL
MODEL       99
REMARK 921   NORMALIZED FREE ENERGY PREDICTED BY IDOCK:   -3.65 KCAL/MOL
REMARK 922        TOTAL FREE ENERGY PREDICTED BY IDOCK:   -4.21 KCAL/MOL
REMARK 923 INTER-LIGAND FREE ENERGY PREDICTED BY IDOCK:   -4.07 KCAL/MOL
REMARK 924 INTRA-LIGAND FREE ENERGY PREDICTED BY IDOCK:   -0.13 KCAL/MOL
REMARK 927      BINDING AFFINITY PREDICTED BY RF-SCORE:    0.00 PKD
ROOT
HETATM    1  C   UNL     1     -11.432  14.742  69.905  1.00  0.00    -0.322 C  
HETATM    2  C   UNL     1     -11.734  15.967  69.057  1.00  0.00    -0.322 C  
ENDROOT
BRANCH   2   3
HETATM    3  C   UNL     1     -10.755  16.087  67.889  1.00  0.00    -0.316 C  
BRANCH   3   4
HETATM    4  N   UNL     1      -9.729  17.095  68.129  1.00  0.00    -0.266 N  
HETATM    5  C   UNL     1      -8.514  16.765  68.692  1.00  0.00    -0.259 A  
HETATM    6  C   UNL     1      -7.553  17.705  68.914  1.00  0.00    -0.219 A  
HETATM    7  N   UNL     1      -6.502  17.031  69.461  1.00  0.00    -0.236 NA 
HETATM    8  C   UNL     1      -7.717  19.075  68.596  1.00  0.00    -0.343 C  
HETATM    9  N   UNL     1      -8.954  19.337  68.053  1.00  0.00    -0.306 N  
HETATM   10  O   UNL     1      -6.867  19.938  68.777  1.00  0.00    -0.313 OA 
HETATM   11  C   UNL     1      -6.882  15.717  69.544  1.00  0.00    -0.189 A  
HETATM   12  H   UNL     1      -5.607  17.428  69.752  1.00  0.00     0.000 HD 
HETATM   13  H   UNL     1      -9.141  20.308  67.799  1.00  0.00     0.000 HD 
HETATM   14  C   UNL     1      -9.973  18.431  67.810  1.00  0.00    -0.346 C  
HETATM   15  N   UNL     1      -8.103  15.527  69.084  1.00  0.00    -0.225 NA 
HETATM   16  O   UNL     1     -11.030  18.839  67.328  1.00  0.00    -0.412 OA 
ENDBRANCH   3   4
ENDBRANCH   2   3
TORSDOF 2
ENDMDL
MODEL      100
REMARK 921   NORMALIZED FREE ENERGY PREDICTED BY IDOCK:   -3.65 KCAL/MOL
REMARK 922        TOTAL FREE ENERGY PREDICTED BY IDOCK:   -4.20 KCAL/MOL
REMARK 923 INTER-LIGAND FREE ENERGY PREDICTED BY IDOCK:   -4.16 KCAL/MOL
REMARK 924 INTRA-LIGAND FREE ENERGY PREDICTED BY IDOCK:   -0.04 KCAL/MOL
REMARK 927      BINDING AFFINITY PREDICTED BY RF-SCORE:    0.00 PKD
ROOT
HETATM    1  C   UNL     1     -11.262  11.938  63.508  1.00  0.00    -0.501 C  
HETATM    2  C   UNL     1     -12.083  13.127  63.984  1.00  0.00    -0.511 C  
ENDROOT
BRANCH   2   3
HETATM    3  C   UNL     1     -12.039  13.255  65.507  1.00  0.00    -0.435 C  
BRANCH   3   4
HETATM    4  N   UNL     1     -10.806  13.877  65.974  1.00  0.00    -0.288 N  
HETATM    5  C   UNL     1     -10.576  15.228  65.810  1.00  0.00    -0.347 A  
HETATM    6  C   UNL     1      -9.427  15.812  66.250  1.00  0.00    -0.317 A  
HETATM    7  N   UNL     1      -9.545  17.134  65.936  1.00  0.00    -0.529 NA 
HETATM    8  C   UNL     1      -8.388  15.098  66.894  1.00  0.00    -0.232 C  
HETATM    9  N   UNL     1      -8.675  13.757  67.011  1.00  0.00    -0.317 N  
HETATM   10  O   UNL     1      -7.350  15.599  67.306  1.00  0.00    -0.187 OA 
HETATM   11  C   UNL     1     -10.761  17.281  65.321  1.00  0.00    -0.010 A  
HETATM   12  H   UNL     1      -8.862  17.869  66.122  1.00  0.00     0.000 HD 
HETATM   13  H   UNL     1      -7.968  13.180  67.467  1.00  0.00     0.000 HD 
HETATM   14  C   UNL     1      -9.817  13.103  66.580  1.00  0.00    -0.265 C  
HETATM   15  N   UNL     1     -11.409  16.136  65.230  1.00  0.00    -0.026 NA 
HETATM   16  O   UNL     1      -9.908  11.887  66.752  1.00  0.00    -0.193 OA 
ENDBRANCH   3   4
ENDBRANCH   2   3
TORSDOF 2
ENDMDL
MODEL      101
REMARK 921   NORMALIZED FREE ENERGY PREDICTED BY IDOCK:   -3.64 KCAL/MOL
REMARK 922        TOTAL FREE ENERGY PREDICTED BY IDOCK:   -4.19 KCAL/MOL
REMARK 923 INTER-LIGAND FREE ENERGY PREDICTED BY IDOCK:   -4.25 KCAL/MOL
REMARK 924 INTRA-LIGAND FREE ENERGY PREDICTED BY IDOCK:    0.06 KCAL/MOL
REMARK 927      BINDING AFFINITY PREDICTED BY RF-SCORE:    0.00 PKD
ROOT
HETATM    1  C   UNL     1      -5.977  19.936  66.786  1.00  0.00    -0.180 C  
HETATM    2  C   UNL     1      -6.058  19.786  68.298  1.00  0.00    -0.270 C  
ENDROOT
BRANCH   2   3
HETATM    3  C   UNL     1      -7.509  19.680  68.767  1.00  0.00    -0.329 C  
BRANCH   3   4
HETATM    4  N   UNL     1      -8.229  18.605  68.096  1.00  0.00    -0.293 N  
HETATM    5  C   UNL     1      -9.195  18.870  67.147  1.00  0.00    -0.290 A  
HETATM    6  C   UNL     1      -9.867  17.866  66.517  1.00  0.00    -0.343 A  
HETATM    7  N   UNL     1     -10.720  18.484  65.652  1.00  0.00    -0.498 NA 
HETATM    8  C   UNL     1      -9.640  16.493  66.779  1.00  0.00    -0.254 C  
HETATM    9  N   UNL     1      -8.678  16.301  67.744  1.00  0.00    -0.178 N  
HETATM   10  O   UNL     1     -10.223  15.572  66.221  1.00  0.00    -0.267 OA 
HETATM   11  C   UNL     1     -10.522  19.832  65.805  1.00  0.00    -0.445 A  
HETATM   12  H   UNL     1     -11.379  18.032  65.016  1.00  0.00     0.000 HD 
HETATM   13  H   UNL     1      -8.463  15.333  67.984  1.00  0.00     0.000 HD 
HETATM   14  C   UNL     1      -7.967  17.276  68.426  1.00  0.00    -0.253 C  
HETATM   15  N   UNL     1      -9.600  20.094  66.710  1.00  0.00    -0.411 NA 
HETATM   16  O   UNL     1      -7.145  16.929  69.274  1.00  0.00    -0.237 OA 
ENDBRANCH   3   4
ENDBRANCH   2   3
TORSDOF 2
ENDMDL
MODEL      102
REMARK 921   NORMALIZED FREE ENERGY PREDICTED BY IDOCK:   -3.63 KCAL/MOL
REMARK 922        TOTAL FREE ENERGY PREDICTED BY IDOCK:   -4.18 KCAL/MOL
REMARK 923 INTER-LIGAND FREE ENERGY PREDICTED BY IDOCK:   -4.07 KCAL/MOL
REMARK 924 INTRA-LIGAND FREE ENERGY PREDICTED BY IDOCK:   -0.11 KCAL/MOL
REMARK 927      BINDING AFFINITY PREDICTED BY RF-SCORE:    0.00 PKD
ROOT
HETATM    1  C   UNL     1     -10.495  19.102  66.449  1.00  0.00    -0.548 C  
HETATM    2  C   UNL     1     -10.517  17.631  66.834  1.00  0.00    -0.290 C  
ENDROOT
BRANCH   2   3
HETATM    3  C   UNL     1      -9.690  16.791  65.861  1.00  0.00    -0.217 C  
BRANCH   3   4
HETATM    4  N   UNL     1      -9.698  15.376  66.208  1.00  0.00    -0.276 N  
HETATM    5  C   UNL     1     -10.667  14.522  65.723  1.00  0.00    -0.315 A  
HETATM    6  C   UNL     1     -10.673  13.198  66.043  1.00  0.00    -0.276 A  
HETATM    7  N   UNL     1     -11.746  12.668  65.390  1.00  0.00    -0.366 NA 
HETATM    8  C   UNL     1      -9.709  12.597  66.889  1.00  0.00    -0.234 C  
HETATM    9  N   UNL     1      -8.783  13.505  67.348  1.00  0.00    -0.209 N  
HETATM   10  O   UNL     1      -9.687  11.409  67.185  1.00  0.00    -0.180 OA 
HETATM   11  C   UNL     1     -12.335  13.701  64.708  1.00  0.00    -0.390 A  
HETATM   12  H   UNL     1     -12.052  11.695  65.406  1.00  0.00     0.000 HD 
HETATM   13  H   UNL     1      -8.057  13.140  67.964  1.00  0.00     0.000 HD 
HETATM   14  C   UNL     1      -8.727  14.861  67.067  1.00  0.00    -0.238 C  
HETATM   15  N   UNL     1     -11.699  14.841  64.895  1.00  0.00    -0.389 NA 
HETATM   16  O   UNL     1      -7.833  15.537  67.576  1.00  0.00    -0.139 OA 
ENDBRANCH   3   4
ENDBRANCH   2   3
TORSDOF 2
ENDMDL
MODEL      103
REMARK 921   NORMALIZED FREE ENERGY PREDICTED BY IDOCK:   -3.62 KCAL/MOL
REMARK 922        TOTAL FREE ENERGY PREDICTED BY IDOCK:   -4.17 KCAL/MOL
REMARK 923 INTER-LIGAND FREE ENERGY PREDICTED BY IDOCK:   -4.01 KCAL/MOL
REMARK 924 INTRA-LIGAND FREE ENERGY PREDICTED BY IDOCK:   -0.16 KCAL/MOL
REMARK 927      BINDING AFFINITY PREDICTED BY RF-SCORE:    0.00 PKD
ROOT
HETATM    1  C   UNL     1     -12.072  10.997  69.734  1.00  0.00    -0.424 C  
HETATM    2  C   UNL     1     -11.697  12.205  68.890  1.00  0.00    -0.381 C  
ENDROOT
BRANCH   2   3
HETATM    3  C   UNL     1     -10.221  12.168  68.495  1.00  0.00    -0.207 C  
BRANCH   3   4
HETATM    4  N   UNL     1     -10.032  11.809  67.095  1.00  0.00    -0.202 N  
HETATM    5  C   UNL     1      -9.790  10.506  66.713  1.00  0.00    -0.193 A  
HETATM    6  C   UNL     1      -9.618  10.168  65.405  1.00  0.00    -0.264 A  
HETATM    7  N   UNL     1      -9.415   8.820  65.399  1.00  0.00    -0.449 NA 
HETATM    8  C   UNL     1      -9.666  11.107  64.346  1.00  0.00    -0.268 C  
HETATM    9  N   UNL     1      -9.896  12.386  64.797  1.00  0.00    -0.466 N  
HETATM   10  O   UNL     1      -9.524  10.829  63.162  1.00  0.00    -0.267 OA 
HETATM   11  C   UNL     1      -9.473   8.411  66.706  1.00  0.00    -0.197 A  
HETATM   12  H   UNL     1      -9.251   8.230  64.581  1.00  0.00     0.000 HD 
HETATM   13  H   UNL     1      -9.943  13.116  64.086  1.00  0.00     0.000 HD 
HETATM   14  C   UNL     1     -10.071  12.795  66.109  1.00  0.00    -0.266 C  
HETATM   15  N   UNL     1      -9.699   9.418  67.527  1.00  0.00    -0.151 NA 
HETATM   16  O   UNL     1     -10.254  13.990  66.341  1.00  0.00    -0.277 OA 
ENDBRANCH   3   4
ENDBRANCH   2   3
TORSDOF 2
ENDMDL
MODEL      104
REMARK 921   NORMALIZED FREE ENERGY PREDICTED BY IDOCK:   -3.61 KCAL/MOL
REMARK 922        TOTAL FREE ENERGY PREDICTED BY IDOCK:   -4.16 KCAL/MOL
REMARK 923 INTER-LIGAND FREE ENERGY PREDICTED BY IDOCK:   -4.09 KCAL/MOL
REMARK 924 INTRA-LIGAND FREE ENERGY PREDICTED BY IDOCK:   -0.07 KCAL/MOL
REMARK 927      BINDING AFFINITY PREDICTED BY RF-SCORE:    0.00 PKD
ROOT
HETATM    1  C   UNL     1     -12.608  10.147  71.367  1.00  0.00    -0.526 C  
HETATM    2  C   UNL     1     -11.550  10.521  70.341  1.00  0.00    -0.430 C  
ENDROOT
BRANCH   2   3
HETATM    3  C   UNL     1     -12.177  11.187  69.116  1.00  0.00    -0.175 C  
BRANCH   3   4
HETATM    4  N   UNL     1     -11.475  12.404  68.729  1.00  0.00    -0.279 N  
HETATM    5  C   UNL     1     -10.618  12.428  67.648  1.00  0.00    -0.216 A  
HETATM    6  C   UNL     1      -9.964  13.566  67.282  1.00  0.00    -0.236 A  
HETATM    7  N   UNL     1      -9.227  13.228  66.187  1.00  0.00    -0.472 NA 
HETATM    8  C   UNL     1     -10.101  14.796  67.969  1.00  0.00    -0.218 C  
HETATM    9  N   UNL     1     -10.956  14.699  69.043  1.00  0.00    -0.249 N  
HETATM   10  O   UNL     1      -9.532  15.835  67.657  1.00  0.00    -0.216 OA 
HETATM   11  C   UNL     1      -9.471  11.901  65.946  1.00  0.00    -0.214 A  
HETATM   12  H   UNL     1      -8.612  13.842  65.651  1.00  0.00     0.000 HD 
HETATM   13  H   UNL     1     -11.102  15.551  69.585  1.00  0.00     0.000 HD 
HETATM   14  C   UNL     1     -11.643  13.574  69.470  1.00  0.00    -0.294 C  
HETATM   15  N   UNL     1     -10.314  11.389  66.822  1.00  0.00    -0.225 NA 
HETATM   16  O   UNL     1     -12.362  13.658  70.465  1.00  0.00    -0.337 OA 
ENDBRANCH   3   4
ENDBRANCH   2   3
TORSDOF 2
ENDMDL
MODEL      105
REMARK 921   NORMALIZED FREE ENERGY PREDICTED BY IDOCK:   -3.61 KCAL/MOL
REMARK 922        TOTAL FREE ENERGY PREDICTED BY IDOCK:   -4.15 KCAL/MOL
REMARK 923 INTER-LIGAND FREE ENERGY PREDICTED BY IDOCK:   -4.22 KCAL/MOL
REMARK 924 INTRA-LIGAND FREE ENERGY PREDICTED BY IDOCK:    0.07 KCAL/MOL
REMARK 927      BINDING AFFINITY PREDICTED BY RF-SCORE:    0.00 PKD
ROOT
HETATM    1  C   UNL     1     -12.203  13.404  69.509  1.00  0.00    -0.260 C  
HETATM    2  C   UNL     1     -11.413  12.198  69.025  1.00  0.00    -0.351 C  
ENDROOT
BRANCH   2   3
HETATM    3  C   UNL     1     -11.276  12.201  67.502  1.00  0.00    -0.297 C  
BRANCH   3   4
HETATM    4  N   UNL     1     -10.629  13.410  67.008  1.00  0.00    -0.263 N  
HETATM    5  C   UNL     1      -9.276  13.620  67.175  1.00  0.00    -0.244 A  
HETATM    6  C   UNL     1      -8.668  14.747  66.710  1.00  0.00    -0.224 A  
HETATM    7  N   UNL     1      -7.351  14.614  67.035  1.00  0.00    -0.333 NA 
HETATM    8  C   UNL     1      -9.359  15.782  66.034  1.00  0.00    -0.349 C  
HETATM    9  N   UNL     1     -10.704  15.515  65.915  1.00  0.00    -0.331 N  
HETATM   10  O   UNL     1      -8.837  16.800  65.599  1.00  0.00    -0.461 OA 
HETATM   11  C   UNL     1      -7.229  13.412  67.682  1.00  0.00    -0.161 A  
HETATM   12  H   UNL     1      -6.602  15.279  66.837  1.00  0.00     0.000 HD 
HETATM   13  H   UNL     1     -11.266  16.221  65.438  1.00  0.00     0.000 HD 
HETATM   14  C   UNL     1     -11.382  14.396  66.372  1.00  0.00    -0.350 C  
HETATM   15  N   UNL     1      -8.386  12.787  67.782  1.00  0.00    -0.163 NA 
HETATM   16  O   UNL     1     -12.597  14.323  66.193  1.00  0.00    -0.436 OA 
ENDBRANCH   3   4
ENDBRANCH   2   3
TORSDOF 2
ENDMDL
MODEL      106
REMARK 921   NORMALIZED FREE ENERGY PREDICTED BY IDOCK:   -3.59 KCAL/MOL
REMARK 922        TOTAL FREE ENERGY PREDICTED BY IDOCK:   -4.14 KCAL/MOL
REMARK 923 INTER-LIGAND FREE ENERGY PREDICTED BY IDOCK:   -4.21 KCAL/MOL
REMARK 924 INTRA-LIGAND FREE ENERGY PREDICTED BY IDOCK:    0.07 KCAL/MOL
REMARK 927      BINDING AFFINITY PREDICTED BY RF-SCORE:    0.00 PKD
ROOT
HETATM    1  C   UNL     1     -11.703  12.315  69.293  1.00  0.00    -0.388 C  
HETATM    2  C   UNL     1     -12.316  13.581  68.717  1.00  0.00     0.013 C  
ENDROOT
BRANCH   2   3
HETATM    3  C   UNL     1     -11.413  14.197  67.649  1.00  0.00    -0.338 C  
BRANCH   3   4
HETATM    4  N   UNL     1     -11.194  13.296  66.524  1.00  0.00    -0.298 N  
HETATM    5  C   UNL     1     -10.014  12.595  66.383  1.00  0.00    -0.255 A  
HETATM    6  C   UNL     1      -9.809  11.749  65.335  1.00  0.00    -0.233 A  
HETATM    7  N   UNL     1      -8.563  11.230  65.521  1.00  0.00    -0.376 NA 
HETATM    8  C   UNL     1     -10.768  11.526  64.317  1.00  0.00    -0.355 C  
HETATM    9  N   UNL     1     -11.912  12.265  64.510  1.00  0.00    -0.388 N  
HETATM   10  O   UNL     1     -10.613  10.765  63.369  1.00  0.00    -0.191 OA 
HETATM   11  C   UNL     1      -8.076  11.790  66.674  1.00  0.00    -0.094 A  
HETATM   12  H   UNL     1      -8.085  10.557  64.920  1.00  0.00     0.000 HD 
HETATM   13  H   UNL     1     -12.648  12.153  63.812  1.00  0.00     0.000 HD 
HETATM   14  C   UNL     1     -12.178  13.145  65.547  1.00  0.00    -0.461 C  
HETATM   15  N   UNL     1      -8.939  12.626  67.218  1.00  0.00    -0.186 NA 
HETATM   16  O   UNL     1     -13.255  13.741  65.561  1.00  0.00    -0.662 OA 
ENDBRANCH   3   4
ENDBRANCH   2   3
TORSDOF 2
ENDMDL
MODEL      107
REMARK 921   NORMALIZED FREE ENERGY PREDICTED BY IDOCK:   -3.59 KCAL/MOL
REMARK 922        TOTAL FREE ENERGY PREDICTED BY IDOCK:   -4.13 KCAL/MOL
REMARK 923 INTER-LIGAND FREE ENERGY PREDICTED BY IDOCK:   -3.98 KCAL/MOL
REMARK 924 INTRA-LIGAND FREE ENERGY PREDICTED BY IDOCK:   -0.16 KCAL/MOL
REMARK 927      BINDING AFFINITY PREDICTED BY RF-SCORE:    0.00 PKD
ROOT
HETATM    1  C   UNL     1     -12.375  12.607  63.353  1.00  0.00    -0.553 C  
HETATM    2  C   UNL     1     -12.088  13.681  64.390  1.00  0.00    -0.470 C  
ENDROOT
BRANCH   2   3
HETATM    3  C   UNL     1     -12.124  13.108  65.807  1.00  0.00    -0.447 C  
BRANCH   3   4
HETATM    4  N   UNL     1     -10.890  13.364  66.539  1.00  0.00    -0.281 N  
HETATM    5  C   UNL     1      -9.789  12.545  66.400  1.00  0.00    -0.253 A  
HETATM    6  C   UNL     1      -8.633  12.785  67.080  1.00  0.00    -0.197 A  
HETATM    7  N   UNL     1      -7.772  11.800  66.698  1.00  0.00    -0.337 NA 
HETATM    8  C   UNL     1      -8.467  13.871  67.974  1.00  0.00    -0.173 C  
HETATM    9  N   UNL     1      -9.606  14.637  68.076  1.00  0.00    -0.207 N  
HETATM   10  O   UNL     1      -7.438  14.114  68.591  1.00  0.00    -0.114 OA 
HETATM   11  C   UNL     1      -8.452  11.012  65.806  1.00  0.00    -0.119 A  
HETATM   12  H   UNL     1      -6.810  11.673  67.015  1.00  0.00     0.000 HD 
HETATM   13  H   UNL     1      -9.558  15.439  68.705  1.00  0.00     0.000 HD 
HETATM   14  C   UNL     1     -10.810  14.442  67.420  1.00  0.00    -0.292 C  
HETATM   15  N   UNL     1      -9.683  11.442  65.608  1.00  0.00    -0.224 NA 
HETATM   16  O   UNL     1     -11.740  15.219  67.638  1.00  0.00    -0.308 OA 
ENDBRANCH   3   4
ENDBRANCH   2   3
TORSDOF 2
ENDMDL
MODEL      108
REMARK 921   NORMALIZED FREE ENERGY PREDICTED BY IDOCK:   -3.56 KCAL/MOL
REMARK 922        TOTAL FREE ENERGY PREDICTED BY IDOCK:   -4.10 KCAL/MOL
REMARK 923 INTER-LIGAND FREE ENERGY PREDICTED BY IDOCK:   -3.95 KCAL/MOL
REMARK 924 INTRA-LIGAND FREE ENERGY PREDICTED BY IDOCK:   -0.15 KCAL/MOL
REMARK 927      BINDING AFFINITY PREDICTED BY RF-SCORE:    0.00 PKD
ROOT
HETATM    1  C   UNL     1     -10.259  20.085  68.468  1.00  0.00    -0.484 C  
HETATM    2  C   UNL     1     -10.532  18.787  67.724  1.00  0.00    -0.479 C  
ENDROOT
BRANCH   2   3
HETATM    3  C   UNL     1      -9.498  18.551  66.624  1.00  0.00    -0.311 C  
BRANCH   3   4
HETATM    4  N   UNL     1      -8.730  17.331  66.839  1.00  0.00    -0.230 N  
HETATM    5  C   UNL     1      -7.624  17.314  67.663  1.00  0.00    -0.179 A  
HETATM    6  C   UNL     1      -6.907  16.174  67.870  1.00  0.00    -0.137 A  
HETATM    7  N   UNL     1      -5.910  16.519  68.732  1.00  0.00    -0.128 NA 
HETATM    8  C   UNL     1      -7.226  14.934  67.264  1.00  0.00    -0.107 C  
HETATM    9  N   UNL     1      -8.329  15.025  66.445  1.00  0.00    -0.365 N  
HETATM   10  O   UNL     1      -6.605  13.894  67.438  1.00  0.00    -0.270 OA 
HETATM   11  C   UNL     1      -6.073  17.853  69.003  1.00  0.00    -0.216 A  
HETATM   12  H   UNL     1      -5.183  15.906  69.103  1.00  0.00     0.000 HD 
HETATM   13  H   UNL     1      -8.616  14.167  65.974  1.00  0.00     0.000 HD 
HETATM   14  C   UNL     1      -9.093  16.152  66.188  1.00  0.00    -0.347 C  
HETATM   15  N   UNL     1      -7.109  18.362  68.364  1.00  0.00    -0.255 NA 
HETATM   16  O   UNL     1     -10.045  16.062  65.413  1.00  0.00    -0.442 OA 
ENDBRANCH   3   4
ENDBRANCH   2   3
TORSDOF 2
ENDMDL
MODEL      109
REMARK 921   NORMALIZED FREE ENERGY PREDICTED BY IDOCK:   -3.55 KCAL/MOL
REMARK 922        TOTAL FREE ENERGY PREDICTED BY IDOCK:   -4.09 KCAL/MOL
REMARK 923 INTER-LIGAND FREE ENERGY PREDICTED BY IDOCK:   -4.02 KCAL/MOL
REMARK 924 INTRA-LIGAND FREE ENERGY PREDICTED BY IDOCK:   -0.07 KCAL/MOL
REMARK 927      BINDING AFFINITY PREDICTED BY RF-SCORE:    0.00 PKD
ROOT
HETATM    1  C   UNL     1     -10.980  15.782  64.632  1.00  0.00    -0.333 C  
HETATM    2  C   UNL     1     -11.290  14.531  65.439  1.00  0.00    -0.341 C  
ENDROOT
BRANCH   2   3
HETATM    3  C   UNL     1     -10.276  14.335  66.566  1.00  0.00    -0.276 C  
BRANCH   3   4
HETATM    4  N   UNL     1     -10.740  13.383  67.567  1.00  0.00    -0.253 N  
HETATM    5  C   UNL     1     -10.660  12.022  67.357  1.00  0.00    -0.223 A  
HETATM    6  C   UNL     1     -11.089  11.130  68.293  1.00  0.00    -0.251 A  
HETATM    7  N   UNL     1     -10.851   9.897  67.761  1.00  0.00    -0.352 NA 
HETATM    8  C   UNL     1     -11.649  11.515  69.536  1.00  0.00    -0.333 C  
HETATM    9  N   UNL     1     -11.713  12.883  69.674  1.00  0.00    -0.383 N  
HETATM   10  O   UNL     1     -12.034  10.735  70.397  1.00  0.00    -0.295 OA 
HETATM   11  C   UNL     1     -10.289  10.107  66.529  1.00  0.00    -0.202 A  
HETATM   12  H   UNL     1     -11.051   8.996  68.196  1.00  0.00     0.000 HD 
HETATM   13  H   UNL     1     -12.106  13.232  70.548  1.00  0.00     0.000 HD 
HETATM   14  C   UNL     1     -11.302  13.839  68.760  1.00  0.00    -0.283 C  
HETATM   15  N   UNL     1     -10.163  11.391  66.257  1.00  0.00    -0.225 NA 
HETATM   16  O   UNL     1     -11.445  15.030  69.038  1.00  0.00    -0.271 OA 
ENDBRANCH   3   4
ENDBRANCH   2   3
TORSDOF 2
ENDMDL
MODEL      110
REMARK 921   NORMALIZED FREE ENERGY PREDICTED BY IDOCK:   -3.53 KCAL/MOL
REMARK 922        TOTAL FREE ENERGY PREDICTED BY IDOCK:   -4.07 KCAL/MOL
REMARK 923 INTER-LIGAND FREE ENERGY PREDICTED BY IDOCK:   -4.15 KCAL/MOL
REMARK 924 INTRA-LIGAND FREE ENERGY PREDICTED BY IDOCK:    0.08 KCAL/MOL
REMARK 927      BINDING AFFINITY PREDICTED BY RF-SCORE:    0.00 PKD
ROOT
HETATM    1  C   UNL     1      -9.629   9.290  66.798  1.00  0.00    -0.240 C  
HETATM    2  C   UNL     1     -10.615  10.421  66.550  1.00  0.00    -0.220 C  
ENDROOT
BRANCH   2   3
HETATM    3  C   UNL     1     -10.508  11.497  67.631  1.00  0.00    -0.189 C  
BRANCH   3   4
HETATM    4  N   UNL     1     -10.127  12.793  67.085  1.00  0.00    -0.232 N  
HETATM    5  C   UNL     1     -10.951  13.476  66.214  1.00  0.00    -0.289 A  
HETATM    6  C   UNL     1     -10.599  14.691  65.706  1.00  0.00    -0.320 A  
HETATM    7  N   UNL     1     -11.637  15.067  64.906  1.00  0.00    -0.388 NA 
HETATM    8  C   UNL     1      -9.380  15.341  66.017  1.00  0.00    -0.311 C  
HETATM    9  N   UNL     1      -8.602  14.600  66.877  1.00  0.00    -0.318 N  
HETATM   10  O   UNL     1      -9.043  16.434  65.581  1.00  0.00    -0.446 OA 
HETATM   11  C   UNL     1     -12.564  14.060  64.971  1.00  0.00    -0.390 A  
HETATM   12  H   UNL     1     -11.709  15.930  64.365  1.00  0.00     0.000 HD 
HETATM   13  H   UNL     1      -7.706  15.009  67.144  1.00  0.00     0.000 HD 
HETATM   14  C   UNL     1      -8.898  13.360  67.420  1.00  0.00    -0.214 C  
HETATM   15  N   UNL     1     -12.171  13.078  65.759  1.00  0.00    -0.454 NA 
HETATM   16  O   UNL     1      -8.077  12.826  68.167  1.00  0.00    -0.141 OA 
ENDBRANCH   3   4
ENDBRANCH   2   3
TORSDOF 2
ENDMDL
MODEL      111
REMARK 921   NORMALIZED FREE ENERGY PREDICTED BY IDOCK:   -3.50 KCAL/MOL
REMARK 922        TOTAL FREE ENERGY PREDICTED BY IDOCK:   -4.04 KCAL/MOL
REMARK 923 INTER-LIGAND FREE ENERGY PREDICTED BY IDOCK:   -3.87 KCAL/MOL
REMARK 924 INTRA-LIGAND FREE ENERGY PREDICTED BY IDOCK:   -0.17 KCAL/MOL
REMARK 927      BINDING AFFINITY PREDICTED BY RF-SCORE:    0.00 PKD
ROOT
HETATM    1  C   UNL     1     -12.206  12.189  63.397  1.00  0.00    -0.635 C  
HETATM    2  C   UNL     1     -12.351  13.042  64.647  1.00  0.00    -0.480 C  
ENDROOT
BRANCH   2   3
HETATM    3  C   UNL     1     -12.061  12.229  65.909  1.00  0.00    -0.186 C  
BRANCH   3   4
HETATM    4  N   UNL     1     -10.908  12.739  66.642  1.00  0.00    -0.260 N  
HETATM    5  C   UNL     1     -11.051  13.672  67.647  1.00  0.00    -0.273 A  
HETATM    6  C   UNL     1      -9.976  14.146  68.337  1.00  0.00    -0.235 A  
HETATM    7  N   UNL     1     -10.482  15.027  69.245  1.00  0.00    -0.243 NA 
HETATM    8  C   UNL     1      -8.645  13.734  68.082  1.00  0.00    -0.175 C  
HETATM    9  N   UNL     1      -8.573  12.816  67.060  1.00  0.00    -0.272 N  
HETATM   10  O   UNL     1      -7.663  14.138  68.691  1.00  0.00    -0.128 OA 
HETATM   11  C   UNL     1     -11.840  15.042  69.058  1.00  0.00    -0.300 A  
HETATM   12  H   UNL     1      -9.955  15.570  69.930  1.00  0.00     0.000 HD 
HETATM   13  H   UNL     1      -7.642  12.474  66.821  1.00  0.00     0.000 HD 
HETATM   14  C   UNL     1      -9.624  12.302  66.318  1.00  0.00    -0.242 C  
HETATM   15  N   UNL     1     -12.213  14.227  68.090  1.00  0.00    -0.225 NA 
HETATM   16  O   UNL     1      -9.381  11.492  65.423  1.00  0.00    -0.217 OA 
ENDBRANCH   3   4
ENDBRANCH   2   3
TORSDOF 2
ENDMDL
MODEL      112
REMARK 921   NORMALIZED FREE ENERGY PREDICTED BY IDOCK:   -3.48 KCAL/MOL
REMARK 922        TOTAL FREE ENERGY PREDICTED BY IDOCK:   -4.01 KCAL/MOL
REMARK 923 INTER-LIGAND FREE ENERGY PREDICTED BY IDOCK:   -3.90 KCAL/MOL
REMARK 924 INTRA-LIGAND FREE ENERGY PREDICTED BY IDOCK:   -0.11 KCAL/MOL
REMARK 927      BINDING AFFINITY PREDICTED BY RF-SCORE:    0.00 PKD
ROOT
HETATM    1  C   UNL     1      -5.895   7.873  73.905  1.00  0.00    -0.071 C  
HETATM    2  C   UNL     1      -7.378   8.200  73.831  1.00  0.00    -0.207 C  
ENDROOT
BRANCH   2   3
HETATM    3  C   UNL     1      -8.094   7.301  72.824  1.00  0.00    -0.106 C  
BRANCH   3   4
HETATM    4  N   UNL     1      -9.450   7.755  72.544  1.00  0.00    -0.164 N  
HETATM    5  C   UNL     1      -9.715   8.639  71.518  1.00  0.00    -0.263 A  
HETATM    6  C   UNL     1     -10.983   9.062  71.252  1.00  0.00    -0.313 A  
HETATM    7  N   UNL     1     -10.872   9.904  70.186  1.00  0.00    -0.281 NA 
HETATM    8  C   UNL     1     -12.114   8.642  71.994  1.00  0.00    -0.375 C  
HETATM    9  N   UNL     1     -11.778   7.775  73.008  1.00  0.00    -0.611 N  
HETATM   10  O   UNL     1     -13.264   8.999  71.771  1.00  0.00    -0.342 OA 
HETATM   11  C   UNL     1      -9.541   9.949  69.862  1.00  0.00    -0.227 A  
HETATM   12  H   UNL     1     -11.631  10.403  69.721  1.00  0.00     0.000 HD 
HETATM   13  H   UNL     1     -12.547   7.431  73.584  1.00  0.00     0.000 HD 
HETATM   14  C   UNL     1     -10.513   7.315  73.333  1.00  0.00    -0.377 C  
HETATM   15  N   UNL     1      -8.814   9.189  70.658  1.00  0.00    -0.215 NA 
HETATM   16  O   UNL     1     -10.386   6.547  74.287  1.00  0.00    -0.349 OA 
ENDBRANCH   3   4
ENDBRANCH   2   3
TORSDOF 2
ENDMDL
MODEL      113
REMARK 921   NORMALIZED FREE ENERGY PREDICTED BY IDOCK:   -3.46 KCAL/MOL
REMARK 922        TOTAL FREE ENERGY PREDICTED BY IDOCK:   -3.99 KCAL/MOL
REMARK 923 INTER-LIGAND FREE ENERGY PREDICTED BY IDOCK:   -3.87 KCAL/MOL
REMARK 924 INTRA-LIGAND FREE ENERGY PREDICTED BY IDOCK:   -0.11 KCAL/MOL
REMARK 927      BINDING AFFINITY PREDICTED BY RF-SCORE:    0.00 PKD
ROOT
HETATM    1  C   UNL     1     -10.349   3.992  73.539  1.00  0.00    -0.233 C  
HETATM    2  C   UNL     1     -11.145   5.274  73.352  1.00  0.00    -0.362 C  
ENDROOT
BRANCH   2   3
HETATM    3  C   UNL     1     -11.317   5.608  71.870  1.00  0.00    -0.141 C  
BRANCH   3   4
HETATM    4  N   UNL     1     -11.497   7.036  71.643  1.00  0.00    -0.255 N  
HETATM    5  C   UNL     1     -10.418   7.892  71.555  1.00  0.00    -0.210 A  
HETATM    6  C   UNL     1     -10.584   9.227  71.338  1.00  0.00    -0.347 A  
HETATM    7  N   UNL     1      -9.326   9.750  71.298  1.00  0.00    -0.187 NA 
HETATM    8  C   UNL     1     -11.852   9.840  71.194  1.00  0.00    -0.382 C  
HETATM    9  N   UNL     1     -12.882   8.934  71.308  1.00  0.00    -0.469 N  
HETATM   10  O   UNL     1     -12.029  11.034  70.991  1.00  0.00    -0.318 OA 
HETATM   11  C   UNL     1      -8.462   8.704  71.493  1.00  0.00    -0.181 A  
HETATM   12  H   UNL     1      -9.076  10.729  71.151  1.00  0.00     0.000 HD 
HETATM   13  H   UNL     1     -13.827   9.308  71.214  1.00  0.00     0.000 HD 
HETATM   14  C   UNL     1     -12.781   7.571  71.535  1.00  0.00    -0.359 C  
HETATM   15  N   UNL     1      -9.101   7.561  71.654  1.00  0.00    -0.133 NA 
HETATM   16  O   UNL     1     -13.811   6.904  71.624  1.00  0.00    -0.297 OA 
ENDBRANCH   3   4
ENDBRANCH   2   3
TORSDOF 2
ENDMDL
MODEL      114
REMARK 921   NORMALIZED FREE ENERGY PREDICTED BY IDOCK:   -3.45 KCAL/MOL
REMARK 922        TOTAL FREE ENERGY PREDICTED BY IDOCK:   -3.98 KCAL/MOL
REMARK 923 INTER-LIGAND FREE ENERGY PREDICTED BY IDOCK:   -3.89 KCAL/MOL
REMARK 924 INTRA-LIGAND FREE ENERGY PREDICTED BY IDOCK:   -0.09 KCAL/MOL
REMARK 927      BINDING AFFINITY PREDICTED BY RF-SCORE:    0.00 PKD
ROOT
HETATM    1  C   UNL     1     -10.678   5.851  67.057  1.00  0.00    -0.396 C  
HETATM    2  C   UNL     1     -11.062   7.032  67.935  1.00  0.00    -0.135 C  
ENDROOT
BRANCH   2   3
HETATM    3  C   UNL     1      -9.955   8.086  67.962  1.00  0.00    -0.179 C  
BRANCH   3   4
HETATM    4  N   UNL     1     -10.475   9.438  67.801  1.00  0.00    -0.242 N  
HETATM    5  C   UNL     1     -11.061  10.112  68.852  1.00  0.00    -0.207 A  
HETATM    6  C   UNL     1     -11.544  11.378  68.705  1.00  0.00    -0.313 A  
HETATM    7  N   UNL     1     -12.033  11.727  69.929  1.00  0.00    -0.330 NA 
HETATM    8  C   UNL     1     -11.492  12.093  67.484  1.00  0.00    -0.340 C  
HETATM    9  N   UNL     1     -10.910  11.359  66.477  1.00  0.00    -0.281 N  
HETATM   10  O   UNL     1     -11.910  13.233  67.327  1.00  0.00    -0.355 OA 
HETATM   11  C   UNL     1     -11.821  10.654  70.754  1.00  0.00    -0.357 A  
HETATM   12  H   UNL     1     -12.470  12.614  70.181  1.00  0.00     0.000 HD 
HETATM   13  H   UNL     1     -10.840  11.814  65.566  1.00  0.00     0.000 HD 
HETATM   14  C   UNL     1     -10.409  10.070  66.559  1.00  0.00    -0.198 C  
HETATM   15  N   UNL     1     -11.232   9.656  70.124  1.00  0.00    -0.253 NA 
HETATM   16  O   UNL     1      -9.931   9.551  65.551  1.00  0.00    -0.304 OA 
ENDBRANCH   3   4
ENDBRANCH   2   3
TORSDOF 2
ENDMDL
MODEL      115
REMARK 921   NORMALIZED FREE ENERGY PREDICTED BY IDOCK:   -3.44 KCAL/MOL
REMARK 922        TOTAL FREE ENERGY PREDICTED BY IDOCK:   -3.97 KCAL/MOL
REMARK 923 INTER-LIGAND FREE ENERGY PREDICTED BY IDOCK:   -3.86 KCAL/MOL
REMARK 924 INTRA-LIGAND FREE ENERGY PREDICTED BY IDOCK:   -0.11 KCAL/MOL
REMARK 927      BINDING AFFINITY PREDICTED BY RF-SCORE:    0.00 PKD
ROOT
HETATM    1  C   UNL     1     -11.841  15.753  71.590  1.00  0.00    -0.539 C  
HETATM    2  C   UNL     1     -11.641  14.921  70.333  1.00  0.00    -0.330 C  
ENDROOT
BRANCH   2   3
HETATM    3  C   UNL     1     -10.260  15.160  69.724  1.00  0.00    -0.185 C  
BRANCH   3   4
HETATM    4  N   UNL     1     -10.242  14.927  68.285  1.00  0.00    -0.221 N  
HETATM    5  C   UNL     1      -9.805  13.731  67.756  1.00  0.00    -0.234 A  
HETATM    6  C   UNL     1      -9.791  13.510  66.412  1.00  0.00    -0.295 A  
HETATM    7  N   UNL     1      -9.317  12.242  66.254  1.00  0.00    -0.291 NA 
HETATM    8  C   UNL     1     -10.212  14.472  65.461  1.00  0.00    -0.370 C  
HETATM    9  N   UNL     1     -10.621  15.644  66.055  1.00  0.00    -0.317 N  
HETATM   10  O   UNL     1     -10.218  14.296  64.249  1.00  0.00    -0.090 OA 
HETATM   11  C   UNL     1      -9.067  11.760  67.512  1.00  0.00    -0.175 A  
HETATM   12  H   UNL     1      -9.176  11.748  65.372  1.00  0.00     0.000 HD 
HETATM   13  H   UNL     1     -10.938  16.383  65.427  1.00  0.00     0.000 HD 
HETATM   14  C   UNL     1     -10.651  15.933  67.409  1.00  0.00    -0.315 C  
HETATM   15  N   UNL     1      -9.353  12.647  68.445  1.00  0.00    -0.186 NA 
HETATM   16  O   UNL     1     -11.035  17.044  67.772  1.00  0.00    -0.316 OA 
ENDBRANCH   3   4
ENDBRANCH   2   3
TORSDOF 2
ENDMDL
MODEL      116
REMARK 921   NORMALIZED FREE ENERGY PREDICTED BY IDOCK:   -3.44 KCAL/MOL
REMARK 922        TOTAL FREE ENERGY PREDICTED BY IDOCK:   -3.97 KCAL/MOL
REMARK 923 INTER-LIGAND FREE ENERGY PREDICTED BY IDOCK:   -3.87 KCAL/MOL
REMARK 924 INTRA-LIGAND FREE ENERGY PREDICTED BY IDOCK:   -0.10 KCAL/MOL
REMARK 927      BINDING AFFINITY PREDICTED BY RF-SCORE:    0.00 PKD
ROOT
HETATM    1  C   UNL     1      -7.371   3.200  69.819  1.00  0.00    -0.044 C  
HETATM    2  C   UNL     1      -8.138   4.457  69.435  1.00  0.00    -0.061 C  
ENDROOT
BRANCH   2   3
HETATM    3  C   UNL     1      -9.631   4.169  69.283  1.00  0.00    -0.186 C  
BRANCH   3   4
HETATM    4  N   UNL     1     -10.456   5.147  69.982  1.00  0.00    -0.283 N  
HETATM    5  C   UNL     1     -10.625   5.097  71.350  1.00  0.00    -0.137 A  
HETATM    6  C   UNL     1     -11.393   6.012  72.006  1.00  0.00    -0.290 A  
HETATM    7  N   UNL     1     -11.325   5.670  73.323  1.00  0.00    -0.492 NA 
HETATM    8  C   UNL     1     -12.073   7.069  71.352  1.00  0.00    -0.355 C  
HETATM    9  N   UNL     1     -11.874   7.050  69.991  1.00  0.00    -0.600 N  
HETATM   10  O   UNL     1     -12.761   7.909  71.918  1.00  0.00    -0.314 OA 
HETATM   11  C   UNL     1     -10.521   4.562  73.397  1.00  0.00    -0.201 A  
HETATM   12  H   UNL     1     -11.784   6.144  74.102  1.00  0.00     0.000 HD 
HETATM   13  H   UNL     1     -12.336   7.785  69.455  1.00  0.00     0.000 HD 
HETATM   14  C   UNL     1     -11.115   6.146  69.266  1.00  0.00    -0.393 C  
HETATM   15  N   UNL     1     -10.082   4.192  72.210  1.00  0.00    -0.176 NA 
HETATM   16  O   UNL     1     -11.054   6.267  68.042  1.00  0.00    -0.333 OA 
ENDBRANCH   3   4
ENDBRANCH   2   3
TORSDOF 2
ENDMDL
MODEL      117
REMARK 921   NORMALIZED FREE ENERGY PREDICTED BY IDOCK:   -3.43 KCAL/MOL
REMARK 922        TOTAL FREE ENERGY PREDICTED BY IDOCK:   -3.95 KCAL/MOL
REMARK 923 INTER-LIGAND FREE ENERGY PREDICTED BY IDOCK:   -4.20 KCAL/MOL
REMARK 924 INTRA-LIGAND FREE ENERGY PREDICTED BY IDOCK:    0.25 KCAL/MOL
REMARK 927      BINDING AFFINITY PREDICTED BY RF-SCORE:    0.00 PKD
ROOT
HETATM    1  C   UNL     1      -9.541  19.574  68.690  1.00  0.00    -0.483 C  
HETATM    2  C   UNL     1     -10.183  19.950  67.363  1.00  0.00    -0.565 C  
ENDROOT
BRANCH   2   3
HETATM    3  C   UNL     1     -10.125  18.789  66.372  1.00  0.00    -0.404 C  
BRANCH   3   4
HETATM    4  N   UNL     1      -8.961  17.938  66.584  1.00  0.00    -0.262 N  
HETATM    5  C   UNL     1      -7.715  18.294  66.111  1.00  0.00    -0.220 A  
HETATM    6  C   UNL     1      -6.624  17.502  66.312  1.00  0.00    -0.260 A  
HETATM    7  N   UNL     1      -5.582  18.160  65.730  1.00  0.00    -0.181 NA 
HETATM    8  C   UNL     1      -6.676  16.268  67.005  1.00  0.00    -0.182 C  
HETATM    9  N   UNL     1      -7.948  15.967  67.435  1.00  0.00    -0.147 N  
HETATM   10  O   UNL     1      -5.711  15.542  67.206  1.00  0.00    -0.336 OA 
HETATM   11  C   UNL     1      -6.096  19.317  65.205  1.00  0.00    -0.267 A  
HETATM   12  H   UNL     1      -4.610  17.851  65.692  1.00  0.00     0.000 HD 
HETATM   13  H   UNL     1      -8.059  15.089  67.943  1.00  0.00     0.000 HD 
HETATM   14  C   UNL     1      -9.095  16.723  67.256  1.00  0.00    -0.220 C  
HETATM   15  N   UNL     1      -7.393  19.423  65.421  1.00  0.00    -0.417 NA 
HETATM   16  O   UNL     1     -10.163  16.297  67.696  1.00  0.00    -0.259 OA 
ENDBRANCH   3   4
ENDBRANCH   2   3
TORSDOF 2
ENDMDL
MODEL      118
REMARK 921   NORMALIZED FREE ENERGY PREDICTED BY IDOCK:   -3.39 KCAL/MOL
REMARK 922        TOTAL FREE ENERGY PREDICTED BY IDOCK:   -3.91 KCAL/MOL
REMARK 923 INTER-LIGAND FREE ENERGY PREDICTED BY IDOCK:   -3.75 KCAL/MOL
REMARK 924 INTRA-LIGAND FREE ENERGY PREDICTED BY IDOCK:   -0.17 KCAL/MOL
REMARK 927      BINDING AFFINITY PREDICTED BY RF-SCORE:    0.00 PKD
ROOT
HETATM    1  C   UNL     1      -8.046   7.499  67.494  1.00  0.00    -0.113 C  
HETATM    2  C   UNL     1      -8.147   7.629  69.005  1.00  0.00    -0.126 C  
ENDROOT
BRANCH   2   3
HETATM    3  C   UNL     1      -8.707   6.353  69.634  1.00  0.00    -0.138 C  
BRANCH   3   4
HETATM    4  N   UNL     1     -10.003   6.570  70.264  1.00  0.00    -0.174 N  
HETATM    5  C   UNL     1     -10.109   6.856  71.610  1.00  0.00    -0.190 A  
HETATM    6  C   UNL     1     -11.320   7.063  72.200  1.00  0.00    -0.265 A  
HETATM    7  N   UNL     1     -11.048   7.326  73.510  1.00  0.00    -0.567 NA 
HETATM    8  C   UNL     1     -12.548   6.999  71.499  1.00  0.00    -0.385 C  
HETATM    9  N   UNL     1     -12.371   6.697  70.168  1.00  0.00    -0.454 N  
HETATM   10  O   UNL     1     -13.648   7.190  72.003  1.00  0.00    -0.224 OA 
HETATM   11  C   UNL     1      -9.685   7.263  73.645  1.00  0.00    -0.289 A  
HETATM   12  H   UNL     1     -11.726   7.530  74.245  1.00  0.00     0.000 HD 
HETATM   13  H   UNL     1     -13.217   6.635  69.601  1.00  0.00     0.000 HD 
HETATM   14  C   UNL     1     -11.173   6.468  69.512  1.00  0.00    -0.372 C  
HETATM   15  N   UNL     1      -9.090   6.977  72.504  1.00  0.00    -0.128 NA 
HETATM   16  O   UNL     1     -11.195   6.193  68.312  1.00  0.00    -0.323 OA 
ENDBRANCH   3   4
ENDBRANCH   2   3
TORSDOF 2
ENDMDL
MODEL      119
REMARK 921   NORMALIZED FREE ENERGY PREDICTED BY IDOCK:   -3.39 KCAL/MOL
REMARK 922        TOTAL FREE ENERGY PREDICTED BY IDOCK:   -3.91 KCAL/MOL
REMARK 923 INTER-LIGAND FREE ENERGY PREDICTED BY IDOCK:   -3.84 KCAL/MOL
REMARK 924 INTRA-LIGAND FREE ENERGY PREDICTED BY IDOCK:   -0.07 KCAL/MOL
REMARK 927      BINDING AFFINITY PREDICTED BY RF-SCORE:    0.00 PKD
ROOT
HETATM    1  C   UNL     1     -10.247   5.408  67.562  1.00  0.00    -0.243 C  
HETATM    2  C   UNL     1      -9.761   5.462  69.002  1.00  0.00    -0.208 C  
ENDROOT
BRANCH   2   3
HETATM    3  C   UNL     1      -9.269   6.862  69.368  1.00  0.00    -0.147 C  
BRANCH   3   4
HETATM    4  N   UNL     1     -10.280   7.634  70.079  1.00  0.00    -0.208 N  
HETATM    5  C   UNL     1     -10.615   7.349  71.387  1.00  0.00    -0.214 A  
HETATM    6  C   UNL     1     -11.557   8.072  72.055  1.00  0.00    -0.316 A  
HETATM    7  N   UNL     1     -11.620   7.527  73.303  1.00  0.00    -0.617 NA 
HETATM    8  C   UNL     1     -12.262   9.154  71.475  1.00  0.00    -0.349 C  
HETATM    9  N   UNL     1     -11.891   9.375  70.168  1.00  0.00    -0.466 N  
HETATM   10  O   UNL     1     -13.106   9.826  72.055  1.00  0.00    -0.414 OA 
HETATM   11  C   UNL     1     -10.713   6.500  73.326  1.00  0.00    -0.274 A  
HETATM   12  H   UNL     1     -12.224   7.825  74.070  1.00  0.00     0.000 HD 
HETATM   13  H   UNL     1     -12.361  10.143  69.687  1.00  0.00     0.000 HD 
HETATM   14  C   UNL     1     -10.950   8.673  69.433  1.00  0.00    -0.019 C  
HETATM   15  N   UNL     1     -10.088   6.369  72.171  1.00  0.00    -0.177 NA 
HETATM   16  O   UNL     1     -10.748   8.996  68.262  1.00  0.00    -0.191 OA 
ENDBRANCH   3   4
ENDBRANCH   2   3
TORSDOF 2
ENDMDL
MODEL      120
REMARK 921   NORMALIZED FREE ENERGY PREDICTED BY IDOCK:   -3.35 KCAL/MOL
REMARK 922        TOTAL FREE ENERGY PREDICTED BY IDOCK:   -3.86 KCAL/MOL
REMARK 923 INTER-LIGAND FREE ENERGY PREDICTED BY IDOCK:   -3.75 KCAL/MOL
REMARK 924 INTRA-LIGAND FREE ENERGY PREDICTED BY IDOCK:   -0.11 KCAL/MOL
REMARK 927      BINDING AFFINITY PREDICTED BY RF-SCORE:    0.00 PKD
ROOT
HETATM    1  C   UNL     1     -11.158  16.552  64.722  1.00  0.00    -0.197 C  
HETATM    2  C   UNL     1     -10.572  15.222  65.168  1.00  0.00    -0.453 C  
ENDROOT
BRANCH   2   3
HETATM    3  C   UNL     1     -11.234  14.729  66.455  1.00  0.00    -0.342 C  
BRANCH   3   4
HETATM    4  N   UNL     1     -10.731  13.425  66.870  1.00  0.00    -0.272 N  
HETATM    5  C   UNL     1      -9.592  13.306  67.639  1.00  0.00    -0.213 A  
HETATM    6  C   UNL     1      -9.123  12.088  68.032  1.00  0.00    -0.188 A  
HETATM    7  N   UNL     1      -8.009  12.348  68.774  1.00  0.00    -0.322 NA 
HETATM    8  C   UNL     1      -9.748  10.865  67.687  1.00  0.00    -0.171 C  
HETATM    9  N   UNL     1     -10.867  11.056  66.909  1.00  0.00    -0.276 N  
HETATM   10  O   UNL     1      -9.352   9.760  68.033  1.00  0.00    -0.129 OA 
HETATM   11  C   UNL     1      -7.860  13.710  68.791  1.00  0.00    -0.043 A  
HETATM   12  H   UNL     1      -7.404  11.662  69.227  1.00  0.00     0.000 HD 
HETATM   13  H   UNL     1     -11.368  10.215  66.623  1.00  0.00     0.000 HD 
HETATM   14  C   UNL     1     -11.389  12.262  66.471  1.00  0.00    -0.351 C  
HETATM   15  N   UNL     1      -8.810  14.318  68.107  1.00  0.00    -0.176 NA 
HETATM   16  O   UNL     1     -12.397  12.253  65.764  1.00  0.00    -0.622 OA 
ENDBRANCH   3   4
ENDBRANCH   2   3
TORSDOF 2
ENDMDL
MODEL      121
REMARK 921   NORMALIZED FREE ENERGY PREDICTED BY IDOCK:   -3.34 KCAL/MOL
REMARK 922        TOTAL FREE ENERGY PREDICTED BY IDOCK:   -3.86 KCAL/MOL
REMARK 923 INTER-LIGAND FREE ENERGY PREDICTED BY IDOCK:   -3.75 KCAL/MOL
REMARK 924 INTRA-LIGAND FREE ENERGY PREDICTED BY IDOCK:   -0.11 KCAL/MOL
REMARK 927      BINDING AFFINITY PREDICTED BY RF-SCORE:    0.00 PKD
ROOT
HETATM    1  C   UNL     1     -10.564   6.624  66.857  1.00  0.00    -0.376 C  
HETATM    2  C   UNL     1     -10.547   8.127  67.088  1.00  0.00    -0.355 C  
ENDROOT
BRANCH   2   3
HETATM    3  C   UNL     1      -9.252   8.752  66.572  1.00  0.00    -0.179 C  
BRANCH   3   4
HETATM    4  N   UNL     1      -9.301  10.209  66.577  1.00  0.00    -0.160 N  
HETATM    5  C   UNL     1      -9.665  10.920  65.453  1.00  0.00    -0.238 A  
HETATM    6  C   UNL     1      -9.716  12.282  65.457  1.00  0.00    -0.161 A  
HETATM    7  N   UNL     1     -10.117  12.637  64.203  1.00  0.00    -0.581 NA 
HETATM    8  C   UNL     1      -9.400  13.069  66.591  1.00  0.00    -0.241 C  
HETATM    9  N   UNL     1      -9.032  12.299  67.671  1.00  0.00    -0.172 N  
HETATM   10  O   UNL     1      -9.446  14.292  66.624  1.00  0.00    -0.264 OA 
HETATM   11  C   UNL     1     -10.288  11.471  63.504  1.00  0.00    -0.433 A  
HETATM   12  H   UNL     1     -10.261  13.585  63.854  1.00  0.00     0.000 HD 
HETATM   13  H   UNL     1      -8.791  12.802  68.525  1.00  0.00     0.000 HD 
HETATM   14  C   UNL     1      -8.953  10.917  67.728  1.00  0.00    -0.139 C  
HETATM   15  N   UNL     1     -10.018  10.410  64.240  1.00  0.00    -0.330 NA 
HETATM   16  O   UNL     1      -8.590  10.384  68.777  1.00  0.00    -0.124 OA 
ENDBRANCH   3   4
ENDBRANCH   2   3
TORSDOF 2
ENDMDL
MODEL      122
REMARK 921   NORMALIZED FREE ENERGY PREDICTED BY IDOCK:   -3.34 KCAL/MOL
REMARK 922        TOTAL FREE ENERGY PREDICTED BY IDOCK:   -3.86 KCAL/MOL
REMARK 923 INTER-LIGAND FREE ENERGY PREDICTED BY IDOCK:   -3.95 KCAL/MOL
REMARK 924 INTRA-LIGAND FREE ENERGY PREDICTED BY IDOCK:    0.10 KCAL/MOL
REMARK 927      BINDING AFFINITY PREDICTED BY RF-SCORE:    0.00 PKD
ROOT
HETATM    1  C   UNL     1      -7.869   6.950  73.205  1.00  0.00    -0.101 C  
HETATM    2  C   UNL     1      -8.997   7.627  73.968  1.00  0.00    -0.299 C  
ENDROOT
BRANCH   2   3
HETATM    3  C   UNL     1     -10.339   6.953  73.685  1.00  0.00    -0.365 C  
BRANCH   3   4
HETATM    4  N   UNL     1     -10.577   6.771  72.258  1.00  0.00    -0.209 N  
HETATM    5  C   UNL     1     -10.870   7.840  71.437  1.00  0.00    -0.228 A  
HETATM    6  C   UNL     1     -11.088   7.673  70.102  1.00  0.00    -0.218 A  
HETATM    7  N   UNL     1     -11.335   8.921  69.613  1.00  0.00    -0.431 NA 
HETATM    8  C   UNL     1     -11.039   6.413  69.457  1.00  0.00    -0.396 C  
HETATM    9  N   UNL     1     -10.757   5.392  70.335  1.00  0.00    -0.251 N  
HETATM   10  O   UNL     1     -11.222   6.237  68.260  1.00  0.00    -0.328 OA 
HETATM   11  C   UNL     1     -11.254   9.781  70.678  1.00  0.00    -0.334 A  
HETATM   12  H   UNL     1     -11.540   9.168  68.644  1.00  0.00     0.000 HD 
HETATM   13  H   UNL     1     -10.706   4.454  69.937  1.00  0.00     0.000 HD 
HETATM   14  C   UNL     1     -10.533   5.494  71.698  1.00  0.00    -0.231 C  
HETATM   15  N   UNL     1     -10.974   9.148  71.801  1.00  0.00    -0.370 NA 
HETATM   16  O   UNL     1     -10.306   4.471  72.343  1.00  0.00    -0.191 OA 
ENDBRANCH   3   4
ENDBRANCH   2   3
TORSDOF 2
ENDMDL
MODEL      123
REMARK 921   NORMALIZED FREE ENERGY PREDICTED BY IDOCK:   -3.33 KCAL/MOL
REMARK 922        TOTAL FREE ENERGY PREDICTED BY IDOCK:   -3.85 KCAL/MOL
REMARK 923 INTER-LIGAND FREE ENERGY PREDICTED BY IDOCK:   -3.74 KCAL/MOL
REMARK 924 INTRA-LIGAND FREE ENERGY PREDICTED BY IDOCK:   -0.11 KCAL/MOL
REMARK 927      BINDING AFFINITY PREDICTED BY RF-SCORE:    0.00 PKD
ROOT
HETATM    1  C   UNL     1     -10.030   7.068  66.825  1.00  0.00    -0.266 C  
HETATM    2  C   UNL     1     -10.649   8.447  66.987  1.00  0.00    -0.316 C  
ENDROOT
BRANCH   2   3
HETATM    3  C   UNL     1      -9.574   9.530  67.079  1.00  0.00    -0.164 C  
BRANCH   3   4
HETATM    4  N   UNL     1     -10.111  10.805  67.536  1.00  0.00    -0.181 N  
HETATM    5  C   UNL     1     -10.662  11.711  66.653  1.00  0.00    -0.270 A  
HETATM    6  C   UNL     1     -11.169  12.902  67.079  1.00  0.00    -0.288 A  
HETATM    7  N   UNL     1     -11.630  13.525  65.958  1.00  0.00    -0.326 NA 
HETATM    8  C   UNL     1     -11.169  13.307  68.436  1.00  0.00    -0.280 C  
HETATM    9  N   UNL     1     -10.594  12.365  69.258  1.00  0.00    -0.432 N  
HETATM   10  O   UNL     1     -11.625  14.366  68.846  1.00  0.00    -0.271 OA 
HETATM   11  C   UNL     1     -11.378  12.679  64.909  1.00  0.00    -0.311 A  
HETATM   12  H   UNL     1     -12.076  14.442  65.908  1.00  0.00     0.000 HD 
HETATM   13  H   UNL     1     -10.560  12.592  70.252  1.00  0.00     0.000 HD 
HETATM   14  C   UNL     1     -10.055  11.144  68.888  1.00  0.00    -0.186 C  
HETATM   15  N   UNL     1     -10.787  11.568  65.305  1.00  0.00    -0.280 NA 
HETATM   16  O   UNL     1      -9.564  10.422  69.755  1.00  0.00    -0.165 OA 
ENDBRANCH   3   4
ENDBRANCH   2   3
TORSDOF 2
ENDMDL
MODEL      124
REMARK 921   NORMALIZED FREE ENERGY PREDICTED BY IDOCK:   -3.33 KCAL/MOL
REMARK 922        TOTAL FREE ENERGY PREDICTED BY IDOCK:   -3.85 KCAL/MOL
REMARK 923 INTER-LIGAND FREE ENERGY PREDICTED BY IDOCK:   -3.86 KCAL/MOL
REMARK 924 INTRA-LIGAND FREE ENERGY PREDICTED BY IDOCK:    0.01 KCAL/MOL
REMARK 927      BINDING AFFINITY PREDICTED BY RF-SCORE:    0.00 PKD
ROOT
HETATM    1  C   UNL     1      -9.629  18.429  67.461  1.00  0.00    -0.293 C  
HETATM    2  C   UNL     1      -8.453  17.506  67.184  1.00  0.00    -0.232 C  
ENDROOT
BRANCH   2   3
HETATM    3  C   UNL     1      -7.183  18.302  66.884  1.00  0.00    -0.206 C  
BRANCH   3   4
HETATM    4  N   UNL     1      -6.666  18.984  68.063  1.00  0.00    -0.228 N  
HETATM    5  C   UNL     1      -6.110  18.283  69.113  1.00  0.00    -0.234 A  
HETATM    6  C   UNL     1      -5.622  18.919  70.215  1.00  0.00    -0.238 A  
HETATM    7  N   UNL     1      -5.147  17.933  71.027  1.00  0.00    -0.387 NA 
HETATM    8  C   UNL     1      -5.649  20.326  70.377  1.00  0.00    -0.325 C  
HETATM    9  N   UNL     1      -6.229  20.961  69.302  1.00  0.00    -0.089 N  
HETATM   10  O   UNL     1      -5.211  20.923  71.352  1.00  0.00    -0.503 OA 
HETATM   11  C   UNL     1      -5.373  16.749  70.375  1.00  0.00    -0.215 A  
HETATM   12  H   UNL     1      -4.710  18.052  71.941  1.00  0.00     0.000 HD 
HETATM   13  H   UNL     1      -6.283  21.979  69.352  1.00  0.00     0.000 HD 
HETATM   14  C   UNL     1      -6.749  20.373  68.161  1.00  0.00    -0.291 C  
HETATM   15  N   UNL     1      -5.959  16.933  69.208  1.00  0.00    -0.177 NA 
HETATM   16  O   UNL     1      -7.249  21.092  67.296  1.00  0.00    -0.441 OA 
ENDBRANCH   3   4
ENDBRANCH   2   3
TORSDOF 2
ENDMDL
MODEL      125
REMARK 921   NORMALIZED FREE ENERGY PREDICTED BY IDOCK:   -3.31 KCAL/MOL
REMARK 922        TOTAL FREE ENERGY PREDICTED BY IDOCK:   -3.83 KCAL/MOL
REMARK 923 INTER-LIGAND FREE ENERGY PREDICTED BY IDOCK:   -3.78 KCAL/MOL
REMARK 924 INTRA-LIGAND FREE ENERGY PREDICTED BY IDOCK:   -0.05 KCAL/MOL
REMARK 927      BINDING AFFINITY PREDICTED BY RF-SCORE:    0.00 PKD
ROOT
HETATM    1  C   UNL     1      -9.412   6.658  66.982  1.00  0.00    -0.170 C  
HETATM    2  C   UNL     1      -9.352   6.273  68.452  1.00  0.00    -0.113 C  
ENDROOT
BRANCH   2   3
HETATM    3  C   UNL     1     -10.738   5.913  68.987  1.00  0.00    -0.309 C  
BRANCH   3   4
HETATM    4  N   UNL     1     -10.742   5.735  70.434  1.00  0.00    -0.295 N  
HETATM    5  C   UNL     1     -11.179   6.733  71.280  1.00  0.00    -0.276 A  
HETATM    6  C   UNL     1     -11.188   6.567  72.632  1.00  0.00    -0.249 A  
HETATM    7  N   UNL     1     -11.684   7.730  73.141  1.00  0.00    -0.646 NA 
HETATM    8  C   UNL     1     -10.752   5.381  73.273  1.00  0.00    -0.276 C  
HETATM    9  N   UNL     1     -10.317   4.435  72.374  1.00  0.00    -0.185 N  
HETATM   10  O   UNL     1     -10.757   5.203  74.485  1.00  0.00    -0.343 OA 
HETATM   11  C   UNL     1     -11.950   8.542  72.069  1.00  0.00    -0.361 A  
HETATM   12  H   UNL     1     -11.829   7.953  74.126  1.00  0.00     0.000 HD 
HETATM   13  H   UNL     1      -9.987   3.553  72.768  1.00  0.00     0.000 HD 
HETATM   14  C   UNL     1     -10.275   4.545  70.994  1.00  0.00    -0.097 C  
HETATM   15  N   UNL     1     -11.650   7.960  70.924  1.00  0.00    -0.284 NA 
HETATM   16  O   UNL     1      -9.839   3.602  70.334  1.00  0.00    -0.173 OA 
ENDBRANCH   3   4
ENDBRANCH   2   3
TORSDOF 2
ENDMDL
MODEL      126
REMARK 921   NORMALIZED FREE ENERGY PREDICTED BY IDOCK:   -3.31 KCAL/MOL
REMARK 922        TOTAL FREE ENERGY PREDICTED BY IDOCK:   -3.82 KCAL/MOL
REMARK 923 INTER-LIGAND FREE ENERGY PREDICTED BY IDOCK:   -3.81 KCAL/MOL
REMARK 924 INTRA-LIGAND FREE ENERGY PREDICTED BY IDOCK:   -0.02 KCAL/MOL
REMARK 927      BINDING AFFINITY PREDICTED BY RF-SCORE:    0.00 PKD
ROOT
HETATM    1  C   UNL     1      -8.794  16.326  66.045  1.00  0.00    -0.308 C  
HETATM    2  C   UNL     1      -9.695  15.105  65.945  1.00  0.00    -0.385 C  
ENDROOT
BRANCH   2   3
HETATM    3  C   UNL     1      -9.044  13.883  66.592  1.00  0.00    -0.190 C  
BRANCH   3   4
HETATM    4  N   UNL     1     -10.006  13.068  67.325  1.00  0.00    -0.229 N  
HETATM    5  C   UNL     1     -10.565  13.505  68.507  1.00  0.00    -0.247 A  
HETATM    6  C   UNL     1     -11.467  12.747  69.191  1.00  0.00    -0.306 A  
HETATM    7  N   UNL     1     -11.810  13.484  70.286  1.00  0.00    -0.490 NA 
HETATM    8  C   UNL     1     -11.896  11.468  68.759  1.00  0.00    -0.330 C  
HETATM    9  N   UNL     1     -11.289  11.088  67.584  1.00  0.00    -0.302 N  
HETATM   10  O   UNL     1     -12.710  10.771  69.349  1.00  0.00    -0.261 OA 
HETATM   11  C   UNL     1     -11.096  14.652  70.208  1.00  0.00    -0.095 A  
HETATM   12  H   UNL     1     -12.469  13.219  71.019  1.00  0.00     0.000 HD 
HETATM   13  H   UNL     1     -11.552  10.174  67.213  1.00  0.00     0.000 HD 
HETATM   14  C   UNL     1     -10.362  11.807  66.847  1.00  0.00    -0.217 C  
HETATM   15  N   UNL     1     -10.329  14.690  69.136  1.00  0.00    -0.236 NA 
HETATM   16  O   UNL     1      -9.905  11.309  65.818  1.00  0.00    -0.212 OA 
ENDBRANCH   3   4
ENDBRANCH   2   3
TORSDOF 2
ENDMDL
MODEL      127
REMARK 921   NORMALIZED FREE ENERGY PREDICTED BY IDOCK:   -3.30 KCAL/MOL
REMARK 922        TOTAL FREE ENERGY PREDICTED BY IDOCK:   -3.81 KCAL/MOL
REMARK 923 INTER-LIGAND FREE ENERGY PREDICTED BY IDOCK:   -3.68 KCAL/MOL
REMARK 924 INTRA-LIGAND FREE ENERGY PREDICTED BY IDOCK:   -0.13 KCAL/MOL
REMARK 927      BINDING AFFINITY PREDICTED BY RF-SCORE:    0.00 PKD
ROOT
HETATM    1  C   UNL     1      -7.336   6.691  71.777  1.00  0.00    -0.086 C  
HETATM    2  C   UNL     1      -7.694   7.580  70.596  1.00  0.00    -0.090 C  
ENDROOT
BRANCH   2   3
HETATM    3  C   UNL     1      -8.011   9.004  71.052  1.00  0.00    -0.150 C  
BRANCH   3   4
HETATM    4  N   UNL     1      -9.118   9.590  70.305  1.00  0.00    -0.242 N  
HETATM    5  C   UNL     1     -10.420   9.487  70.751  1.00  0.00    -0.314 A  
HETATM    6  C   UNL     1     -11.455  10.037  70.056  1.00  0.00    -0.248 A  
HETATM    7  N   UNL     1     -12.574   9.756  70.783  1.00  0.00    -0.489 NA 
HETATM    8  C   UNL     1     -11.288  10.742  68.840  1.00  0.00    -0.284 C  
HETATM    9  N   UNL     1      -9.970  10.794  68.446  1.00  0.00    -0.158 N  
HETATM   10  O   UNL     1     -12.199  11.253  68.200  1.00  0.00    -0.622 OA 
HETATM   11  C   UNL     1     -12.157   9.048  71.880  1.00  0.00    -0.378 A  
HETATM   12  H   UNL     1     -13.533  10.019  70.554  1.00  0.00     0.000 HD 
HETATM   13  H   UNL     1      -9.776  11.288  67.575  1.00  0.00     0.000 HD 
HETATM   14  C   UNL     1      -8.877  10.251  69.101  1.00  0.00    -0.176 C  
HETATM   15  N   UNL     1     -10.851   8.869  71.885  1.00  0.00    -0.356 NA 
HETATM   16  O   UNL     1      -7.760  10.377  68.600  1.00  0.00    -0.091 OA 
ENDBRANCH   3   4
ENDBRANCH   2   3
TORSDOF 2
ENDMDL
MODEL      128
REMARK 921   NORMALIZED FREE ENERGY PREDICTED BY IDOCK:   -3.27 KCAL/MOL
REMARK 922        TOTAL FREE ENERGY PREDICTED BY IDOCK:   -3.78 KCAL/MOL
REMARK 923 INTER-LIGAND FREE ENERGY PREDICTED BY IDOCK:   -3.78 KCAL/MOL
REMARK 924 INTRA-LIGAND FREE ENERGY PREDICTED BY IDOCK:    0.00 KCAL/MOL
REMARK 927      BINDING AFFINITY PREDICTED BY RF-SCORE:    0.00 PKD
ROOT
HETATM    1  C   UNL     1     -11.950  15.043  70.126  1.00  0.00    -0.366 C  
HETATM    2  C   UNL     1     -11.961  13.917  69.104  1.00  0.00    -0.404 C  
ENDROOT
BRANCH   2   3
HETATM    3  C   UNL     1     -11.694  14.445  67.695  1.00  0.00    -0.391 C  
BRANCH   3   4
HETATM    4  N   UNL     1     -10.311  14.869  67.516  1.00  0.00    -0.238 N  
HETATM    5  C   UNL     1      -9.286  13.951  67.409  1.00  0.00    -0.228 A  
HETATM    6  C   UNL     1      -7.993  14.345  67.238  1.00  0.00    -0.180 A  
HETATM    7  N   UNL     1      -7.267  13.194  67.162  1.00  0.00    -0.361 NA 
HETATM    8  C   UNL     1      -7.597  15.702  67.163  1.00  0.00    -0.223 C  
HETATM    9  N   UNL     1      -8.663  16.562  67.291  1.00  0.00    -0.184 N  
HETATM   10  O   UNL     1      -6.444  16.083  67.001  1.00  0.00    -0.271 OA 
HETATM   11  C   UNL     1      -8.159  12.161  67.292  1.00  0.00    -0.176 A  
HETATM   12  H   UNL     1      -6.257  13.116  67.034  1.00  0.00     0.000 HD 
HETATM   13  H   UNL     1      -8.450  17.559  67.246  1.00  0.00     0.000 HD 
HETATM   14  C   UNL     1      -9.995  16.227  67.474  1.00  0.00    -0.248 C  
HETATM   15  N   UNL     1      -9.395  12.595  67.445  1.00  0.00    -0.183 NA 
HETATM   16  O   UNL     1     -10.826  17.128  67.586  1.00  0.00    -0.332 OA 
ENDBRANCH   3   4
ENDBRANCH   2   3
TORSDOF 2
ENDMDL
MODEL      129
REMARK 921   NORMALIZED FREE ENERGY PREDICTED BY IDOCK:   -3.25 KCAL/MOL
REMARK 922        TOTAL FREE ENERGY PREDICTED BY IDOCK:   -3.75 KCAL/MOL
REMARK 923 INTER-LIGAND FREE ENERGY PREDICTED BY IDOCK:   -3.64 KCAL/MOL
REMARK 924 INTRA-LIGAND FREE ENERGY PREDICTED BY IDOCK:   -0.11 KCAL/MOL
REMARK 927      BINDING AFFINITY PREDICTED BY RF-SCORE:    0.00 PKD
ROOT
HETATM    1  C   UNL     1     -10.456  12.722  67.050  1.00  0.00    -0.245 C  
HETATM    2  C   UNL     1     -10.129  11.735  68.160  1.00  0.00    -0.196 C  
ENDROOT
BRANCH   2   3
HETATM    3  C   UNL     1     -11.120  10.572  68.177  1.00  0.00    -0.287 C  
BRANCH   3   4
HETATM    4  N   UNL     1     -11.072   9.823  69.426  1.00  0.00    -0.207 N  
HETATM    5  C   UNL     1     -11.861  10.169  70.503  1.00  0.00    -0.321 A  
HETATM    6  C   UNL     1     -11.820   9.468  71.670  1.00  0.00    -0.397 A  
HETATM    7  N   UNL     1     -12.722  10.074  72.493  1.00  0.00    -0.155 NA 
HETATM    8  C   UNL     1     -10.978   8.348  71.876  1.00  0.00    -0.305 C  
HETATM    9  N   UNL     1     -10.209   8.067  70.770  1.00  0.00    -0.193 N  
HETATM   10  O   UNL     1     -10.928   7.696  72.911  1.00  0.00    -0.341 OA 
HETATM   11  C   UNL     1     -13.263  11.113  71.781  1.00  0.00    -0.381 A  
HETATM   12  H   UNL     1     -12.950   9.806  73.452  1.00  0.00     0.000 HD 
HETATM   13  H   UNL     1      -9.576   7.270  70.848  1.00  0.00     0.000 HD 
HETATM   14  C   UNL     1     -10.198   8.744  69.561  1.00  0.00    -0.208 C  
HETATM   15  N   UNL     1     -12.754  11.195  70.567  1.00  0.00    -0.257 NA 
HETATM   16  O   UNL     1      -9.433   8.366  68.674  1.00  0.00    -0.146 OA 
ENDBRANCH   3   4
ENDBRANCH   2   3
TORSDOF 2
ENDMDL
MODEL      130
REMARK 921   NORMALIZED FREE ENERGY PREDICTED BY IDOCK:   -3.25 KCAL/MOL
REMARK 922        TOTAL FREE ENERGY PREDICTED BY IDOCK:   -3.75 KCAL/MOL
REMARK 923 INTER-LIGAND FREE ENERGY PREDICTED BY IDOCK:   -3.77 KCAL/MOL
REMARK 924 INTRA-LIGAND FREE ENERGY PREDICTED BY IDOCK:    0.02 KCAL/MOL
REMARK 927      BINDING AFFINITY PREDICTED BY RF-SCORE:    0.00 PKD
ROOT
HETATM    1  C   UNL     1     -11.186  12.299  66.176  1.00  0.00    -0.372 C  
HETATM    2  C   UNL     1     -11.559  12.115  67.639  1.00  0.00    -0.413 C  
ENDROOT
BRANCH   2   3
HETATM    3  C   UNL     1     -10.542  12.790  68.559  1.00  0.00    -0.252 C  
BRANCH   3   4
HETATM    4  N   UNL     1     -10.578  14.243  68.449  1.00  0.00    -0.246 N  
HETATM    5  C   UNL     1      -9.535  14.946  67.883  1.00  0.00    -0.200 A  
HETATM    6  C   UNL     1      -9.568  16.304  67.775  1.00  0.00    -0.223 A  
HETATM    7  N   UNL     1      -8.398  16.652  67.167  1.00  0.00    -0.169 NA 
HETATM    8  C   UNL     1     -10.650  17.095  68.232  1.00  0.00    -0.375 C  
HETATM    9  N   UNL     1     -11.646  16.333  68.798  1.00  0.00    -0.302 N  
HETATM   10  O   UNL     1     -10.709  18.315  68.140  1.00  0.00    -0.330 OA 
HETATM   11  C   UNL     1      -7.717  15.485  66.938  1.00  0.00    -0.165 A  
HETATM   12  H   UNL     1      -8.090  17.595  66.929  1.00  0.00     0.000 HD 
HETATM   13  H   UNL     1     -12.460  16.840  69.150  1.00  0.00     0.000 HD 
HETATM   14  C   UNL     1     -11.670  14.956  68.944  1.00  0.00    -0.315 C  
HETATM   15  N   UNL     1      -8.386  14.431  67.365  1.00  0.00    -0.189 NA 
HETATM   16  O   UNL     1     -12.640  14.431  69.490  1.00  0.00    -0.217 OA 
ENDBRANCH   3   4
ENDBRANCH   2   3
TORSDOF 2
ENDMDL
MODEL      131
REMARK 921   NORMALIZED FREE ENERGY PREDICTED BY IDOCK:   -3.19 KCAL/MOL
REMARK 922        TOTAL FREE ENERGY PREDICTED BY IDOCK:   -3.69 KCAL/MOL
REMARK 923 INTER-LIGAND FREE ENERGY PREDICTED BY IDOCK:   -3.57 KCAL/MOL
REMARK 924 INTRA-LIGAND FREE ENERGY PREDICTED BY IDOCK:   -0.12 KCAL/MOL
REMARK 927      BINDING AFFINITY PREDICTED BY RF-SCORE:    0.00 PKD
ROOT
HETATM    1  C   UNL     1      -9.336   3.779  70.216  1.00  0.00    -0.238 C  
HETATM    2  C   UNL     1      -9.306   5.149  69.556  1.00  0.00    -0.181 C  
ENDROOT
BRANCH   2   3
HETATM    3  C   UNL     1     -10.715   5.622  69.198  1.00  0.00    -0.255 C  
BRANCH   3   4
HETATM    4  N   UNL     1     -10.775   7.062  68.980  1.00  0.00    -0.222 N  
HETATM    5  C   UNL     1     -10.975   7.939  70.025  1.00  0.00    -0.207 A  
HETATM    6  C   UNL     1     -11.028   9.286  69.825  1.00  0.00    -0.196 A  
HETATM    7  N   UNL     1     -11.222   9.833  71.058  1.00  0.00    -0.358 NA 
HETATM    8  C   UNL     1     -10.891   9.888  68.550  1.00  0.00    -0.217 C  
HETATM    9  N   UNL     1     -10.710   8.957  67.553  1.00  0.00    -0.447 N  
HETATM   10  O   UNL     1     -10.926  11.094  68.343  1.00  0.00    -0.194 OA 
HETATM   11  C   UNL     1     -11.278   8.788  71.943  1.00  0.00    -0.368 A  
HETATM   12  H   UNL     1     -11.309  10.825  71.279  1.00  0.00     0.000 HD 
HETATM   13  H   UNL     1     -10.604   9.322  66.606  1.00  0.00     0.000 HD 
HETATM   14  C   UNL     1     -10.655   7.580  67.691  1.00  0.00    -0.233 C  
HETATM   15  N   UNL     1     -11.132   7.623  71.341  1.00  0.00    -0.236 NA 
HETATM   16  O   UNL     1     -10.500   6.887  66.685  1.00  0.00    -0.223 OA 
ENDBRANCH   3   4
ENDBRANCH   2   3
TORSDOF 2
ENDMDL
MODEL      132
REMARK 921   NORMALIZED FREE ENERGY PREDICTED BY IDOCK:   -3.18 KCAL/MOL
REMARK 922        TOTAL FREE ENERGY PREDICTED BY IDOCK:   -3.68 KCAL/MOL
REMARK 923 INTER-LIGAND FREE ENERGY PREDICTED BY IDOCK:   -3.74 KCAL/MOL
REMARK 924 INTRA-LIGAND FREE ENERGY PREDICTED BY IDOCK:    0.06 KCAL/MOL
REMARK 927      BINDING AFFINITY PREDICTED BY RF-SCORE:    0.00 PKD
ROOT
HETATM    1  C   UNL     1     -10.491  16.942  67.473  1.00  0.00    -0.328 C  
HETATM    2  C   UNL     1      -9.471  15.820  67.352  1.00  0.00    -0.213 C  
ENDROOT
BRANCH   2   3
HETATM    3  C   UNL     1      -8.149  16.332  66.781  1.00  0.00    -0.264 C  
BRANCH   3   4
HETATM    4  N   UNL     1      -7.598  17.432  67.563  1.00  0.00    -0.185 N  
HETATM    5  C   UNL     1      -7.586  18.723  67.078  1.00  0.00    -0.229 A  
HETATM    6  C   UNL     1      -7.075  19.753  67.810  1.00  0.00    -0.269 A  
HETATM    7  N   UNL     1      -7.236  20.865  67.038  1.00  0.00    -0.485 NA 
HETATM    8  C   UNL     1      -6.519  19.589  69.101  1.00  0.00    -0.321 C  
HETATM    9  N   UNL     1      -6.549  18.277  69.517  1.00  0.00    -0.208 N  
HETATM   10  O   UNL     1      -6.061  20.497  69.783  1.00  0.00    -0.343 OA 
HETATM   11  C   UNL     1      -7.836  20.451  65.877  1.00  0.00    -0.004 A  
HETATM   12  H   UNL     1      -6.963  21.819  67.277  1.00  0.00     0.000 HD 
HETATM   13  H   UNL     1      -6.163  18.086  70.442  1.00  0.00     0.000 HD 
HETATM   14  C   UNL     1      -7.046  17.188  68.820  1.00  0.00    -0.229 C  
HETATM   15  N   UNL     1      -8.059  19.151  65.875  1.00  0.00    -0.460 NA 
HETATM   16  O   UNL     1      -6.982  16.072  69.336  1.00  0.00    -0.201 OA 
ENDBRANCH   3   4
ENDBRANCH   2   3
TORSDOF 2
ENDMDL
MODEL      133
REMARK 921   NORMALIZED FREE ENERGY PREDICTED BY IDOCK:   -3.18 KCAL/MOL
REMARK 922        TOTAL FREE ENERGY PREDICTED BY IDOCK:   -3.68 KCAL/MOL
REMARK 923 INTER-LIGAND FREE ENERGY PREDICTED BY IDOCK:   -3.71 KCAL/MOL
REMARK 924 INTRA-LIGAND FREE ENERGY PREDICTED BY IDOCK:    0.03 KCAL/MOL
REMARK 927      BINDING AFFINITY PREDICTED BY RF-SCORE:    0.00 PKD
ROOT
HETATM    1  C   UNL     1     -10.706  13.491  64.527  1.00  0.00    -0.431 C  
HETATM    2  C   UNL     1     -10.604  12.944  65.943  1.00  0.00    -0.287 C  
ENDROOT
BRANCH   2   3
HETATM    3  C   UNL     1      -9.343  12.099  66.121  1.00  0.00    -0.195 C  
BRANCH   3   4
HETATM    4  N   UNL     1      -9.650  10.692  66.351  1.00  0.00    -0.184 N  
HETATM    5  C   UNL     1     -10.263  10.271  67.513  1.00  0.00    -0.210 A  
HETATM    6  C   UNL     1     -10.554   8.958  67.729  1.00  0.00    -0.202 A  
HETATM    7  N   UNL     1     -11.156   8.912  68.951  1.00  0.00    -0.433 NA 
HETATM    8  C   UNL     1     -10.253   7.932  66.800  1.00  0.00    -0.287 C  
HETATM    9  N   UNL     1      -9.630   8.418  65.674  1.00  0.00    -0.428 N  
HETATM   10  O   UNL     1     -10.510   6.746  66.965  1.00  0.00    -0.235 OA 
HETATM   11  C   UNL     1     -11.198  10.202  69.413  1.00  0.00    -0.215 A  
HETATM   12  H   UNL     1     -11.506   8.081  69.429  1.00  0.00     0.000 HD 
HETATM   13  H   UNL     1      -9.383   7.731  64.961  1.00  0.00     0.000 HD 
HETATM   14  C   UNL     1      -9.301   9.735  65.399  1.00  0.00    -0.252 C  
HETATM   15  N   UNL     1     -10.659  11.049  68.558  1.00  0.00    -0.179 NA 
HETATM   16  O   UNL     1      -8.728   9.997  64.341  1.00  0.00    -0.167 OA 
ENDBRANCH   3   4
ENDBRANCH   2   3
TORSDOF 2
ENDMDL
MODEL      134
REMARK 921   NORMALIZED FREE ENERGY PREDICTED BY IDOCK:   -3.11 KCAL/MOL
REMARK 922        TOTAL FREE ENERGY PREDICTED BY IDOCK:   -3.60 KCAL/MOL
REMARK 923 INTER-LIGAND FREE ENERGY PREDICTED BY IDOCK:   -3.48 KCAL/MOL
REMARK 924 INTRA-LIGAND FREE ENERGY PREDICTED BY IDOCK:   -0.11 KCAL/MOL
REMARK 927      BINDING AFFINITY PREDICTED BY RF-SCORE:    0.00 PKD
ROOT
HETATM    1  C   UNL     1     -11.546  13.719  65.149  1.00  0.00    -0.341 C  
HETATM    2  C   UNL     1     -11.146  12.254  65.216  1.00  0.00    -0.359 C  
ENDROOT
BRANCH   2   3
HETATM    3  C   UNL     1     -10.078  12.020  66.284  1.00  0.00    -0.222 C  
BRANCH   3   4
HETATM    4  N   UNL     1     -10.192  10.704  66.900  1.00  0.00    -0.214 N  
HETATM    5  C   UNL     1      -9.631   9.586  66.317  1.00  0.00    -0.226 A  
HETATM    6  C   UNL     1      -9.732   8.356  66.893  1.00  0.00    -0.227 A  
HETATM    7  N   UNL     1      -9.064   7.506  66.063  1.00  0.00    -0.323 NA 
HETATM    8  C   UNL     1     -10.413   8.122  68.113  1.00  0.00    -0.170 C  
HETATM    9  N   UNL     1     -10.959   9.273  68.632  1.00  0.00    -0.450 N  
HETATM   10  O   UNL     1     -10.512   7.029  68.656  1.00  0.00    -0.190 OA 
HETATM   11  C   UNL     1      -8.593   8.267  65.024  1.00  0.00    -0.075 A  
HETATM   12  H   UNL     1      -8.940   6.501  66.189  1.00  0.00     0.000 HD 
HETATM   13  H   UNL     1     -11.466   9.178  69.512  1.00  0.00     0.000 HD 
HETATM   14  C   UNL     1     -10.898  10.548  68.092  1.00  0.00    -0.253 C  
HETATM   15  N   UNL     1      -8.925   9.537  65.154  1.00  0.00    -0.196 NA 
HETATM   16  O   UNL     1     -11.458  11.471  68.683  1.00  0.00    -0.238 OA 
ENDBRANCH   3   4
ENDBRANCH   2   3
TORSDOF 2
ENDMDL
MODEL      135
REMARK 921   NORMALIZED FREE ENERGY PREDICTED BY IDOCK:   -3.10 KCAL/MOL
REMARK 922        TOTAL FREE ENERGY PREDICTED BY IDOCK:   -3.59 KCAL/MOL
REMARK 923 INTER-LIGAND FREE ENERGY PREDICTED BY IDOCK:   -3.41 KCAL/MOL
REMARK 924 INTRA-LIGAND FREE ENERGY PREDICTED BY IDOCK:   -0.17 KCAL/MOL
REMARK 927      BINDING AFFINITY PREDICTED BY RF-SCORE:    0.00 PKD
ROOT
HETATM    1  C   UNL     1      -7.445   6.236  71.908  1.00  0.00    -0.094 C  
HETATM    2  C   UNL     1      -7.998   6.680  70.563  1.00  0.00    -0.111 C  
ENDROOT
BRANCH   2   3
HETATM    3  C   UNL     1      -9.519   6.536  70.515  1.00  0.00    -0.166 C  
BRANCH   3   4
HETATM    4  N   UNL     1     -10.195   7.827  70.459  1.00  0.00    -0.200 N  
HETATM    5  C   UNL     1     -10.453   8.451  69.256  1.00  0.00    -0.215 A  
HETATM    6  C   UNL     1     -11.089   9.655  69.201  1.00  0.00    -0.092 A  
HETATM    7  N   UNL     1     -11.183   9.960  67.876  1.00  0.00    -0.509 NA 
HETATM    8  C   UNL     1     -11.524  10.358  70.351  1.00  0.00    -0.337 C  
HETATM    9  N   UNL     1     -11.223   9.688  71.514  1.00  0.00    -0.362 N  
HETATM   10  O   UNL     1     -12.104  11.436  70.330  1.00  0.00    -0.331 OA 
HETATM   11  C   UNL     1     -10.598   8.923  67.196  1.00  0.00    -0.231 A  
HETATM   12  H   UNL     1     -11.605  10.795  67.470  1.00  0.00     0.000 HD 
HETATM   13  H   UNL     1     -11.508  10.138  72.384  1.00  0.00     0.000 HD 
HETATM   14  C   UNL     1     -10.574   8.469  71.637  1.00  0.00    -0.283 C  
HETATM   15  N   UNL     1     -10.144   7.992  68.012  1.00  0.00    -0.186 NA 
HETATM   16  O   UNL     1     -10.370   8.015  72.763  1.00  0.00    -0.298 OA 
ENDBRANCH   3   4
ENDBRANCH   2   3
TORSDOF 2
ENDMDL
MODEL      136
REMARK 921   NORMALIZED FREE ENERGY PREDICTED BY IDOCK:   -3.10 KCAL/MOL
REMARK 922        TOTAL FREE ENERGY PREDICTED BY IDOCK:   -3.59 KCAL/MOL
REMARK 923 INTER-LIGAND FREE ENERGY PREDICTED BY IDOCK:   -3.41 KCAL/MOL
REMARK 924 INTRA-LIGAND FREE ENERGY PREDICTED BY IDOCK:   -0.18 KCAL/MOL
REMARK 927      BINDING AFFINITY PREDICTED BY RF-SCORE:    0.00 PKD
ROOT
HETATM    1  C   UNL     1      -9.169   8.857  65.551  1.00  0.00    -0.242 C  
HETATM    2  C   UNL     1      -9.657   7.877  66.606  1.00  0.00    -0.293 C  
ENDROOT
BRANCH   2   3
HETATM    3  C   UNL     1     -10.638   8.544  67.570  1.00  0.00    -0.214 C  
BRANCH   3   4
HETATM    4  N   UNL     1     -10.127   8.591  68.934  1.00  0.00    -0.198 N  
HETATM    5  C   UNL     1     -10.309   7.539  69.807  1.00  0.00    -0.221 A  
HETATM    6  C   UNL     1      -9.829   7.579  71.081  1.00  0.00    -0.173 A  
HETATM    7  N   UNL     1     -10.178   6.387  71.642  1.00  0.00    -0.194 NA 
HETATM    8  C   UNL     1      -9.119   8.685  71.610  1.00  0.00    -0.247 C  
HETATM    9  N   UNL     1      -8.986   9.702  70.694  1.00  0.00    -0.297 N  
HETATM   10  O   UNL     1      -8.670   8.744  72.748  1.00  0.00    -0.398 OA 
HETATM   11  C   UNL     1     -10.853   5.685  70.678  1.00  0.00    -0.234 A  
HETATM   12  H   UNL     1      -9.976   6.077  72.594  1.00  0.00     0.000 HD 
HETATM   13  H   UNL     1      -8.484  10.533  71.008  1.00  0.00     0.000 HD 
HETATM   14  C   UNL     1      -9.457   9.726  69.391  1.00  0.00    -0.201 C  
HETATM   15  N   UNL     1     -10.949   6.364  69.551  1.00  0.00    -0.322 NA 
HETATM   16  O   UNL     1      -9.262  10.729  68.705  1.00  0.00    -0.175 OA 
ENDBRANCH   3   4
ENDBRANCH   2   3
TORSDOF 2
ENDMDL
MODEL      137
REMARK 921   NORMALIZED FREE ENERGY PREDICTED BY IDOCK:   -3.09 KCAL/MOL
REMARK 922        TOTAL FREE ENERGY PREDICTED BY IDOCK:   -3.58 KCAL/MOL
REMARK 923 INTER-LIGAND FREE ENERGY PREDICTED BY IDOCK:   -3.66 KCAL/MOL
REMARK 924 INTRA-LIGAND FREE ENERGY PREDICTED BY IDOCK:    0.08 KCAL/MOL
REMARK 927      BINDING AFFINITY PREDICTED BY RF-SCORE:    0.00 PKD
ROOT
HETATM    1  C   UNL     1     -11.439  10.154  70.782  1.00  0.00    -0.442 C  
HETATM    2  C   UNL     1     -10.933   9.433  69.543  1.00  0.00    -0.193 C  
ENDROOT
BRANCH   2   3
HETATM    3  C   UNL     1      -9.779   8.491  69.883  1.00  0.00    -0.179 C  
BRANCH   3   4
HETATM    4  N   UNL     1     -10.121   7.563  70.955  1.00  0.00    -0.192 N  
HETATM    5  C   UNL     1      -9.554   7.672  72.208  1.00  0.00    -0.165 A  
HETATM    6  C   UNL     1      -9.875   6.809  73.212  1.00  0.00    -0.190 A  
HETATM    7  N   UNL     1      -9.147   7.215  74.291  1.00  0.00    -0.264 NA 
HETATM    8  C   UNL     1     -10.796   5.744  73.057  1.00  0.00    -0.271 C  
HETATM    9  N   UNL     1     -11.311   5.684  71.783  1.00  0.00    -0.174 N  
HETATM   10  O   UNL     1     -11.108   4.960  73.944  1.00  0.00    -0.295 OA 
HETATM   11  C   UNL     1      -8.421   8.304  73.883  1.00  0.00    -0.178 A  
HETATM   12  H   UNL     1      -9.143   6.791  75.219  1.00  0.00     0.000 HD 
HETATM   13  H   UNL     1     -11.983   4.938  71.600  1.00  0.00     0.000 HD 
HETATM   14  C   UNL     1     -11.020   6.523  70.720  1.00  0.00    -0.276 C  
HETATM   15  N   UNL     1      -8.649   8.602  72.619  1.00  0.00    -0.407 NA 
HETATM   16  O   UNL     1     -11.564   6.319  69.634  1.00  0.00    -0.430 OA 
ENDBRANCH   3   4
ENDBRANCH   2   3
TORSDOF 2
ENDMDL
MODEL      138
REMARK 921   NORMALIZED FREE ENERGY PREDICTED BY IDOCK:   -3.08 KCAL/MOL
REMARK 922        TOTAL FREE ENERGY PREDICTED BY IDOCK:   -3.57 KCAL/MOL
REMARK 923 INTER-LIGAND FREE ENERGY PREDICTED BY IDOCK:   -3.54 KCAL/MOL
REMARK 924 INTRA-LIGAND FREE ENERGY PREDICTED BY IDOCK:   -0.03 KCAL/MOL
REMARK 927      BINDING AFFINITY PREDICTED BY RF-SCORE:    0.00 PKD
ROOT
HETATM    1  C   UNL     1      -5.832  20.701  64.878  1.00  0.00    -0.273 C  
HETATM    2  C   UNL     1      -5.606  20.125  66.267  1.00  0.00    -0.185 C  
ENDROOT
BRANCH   2   3
HETATM    3  C   UNL     1      -6.850  20.284  67.141  1.00  0.00    -0.245 C  
BRANCH   3   4
HETATM    4  N   UNL     1      -7.247  19.030  67.770  1.00  0.00    -0.234 N  
HETATM    5  C   UNL     1      -8.352  18.326  67.337  1.00  0.00    -0.244 A  
HETATM    6  C   UNL     1      -8.722  17.152  67.920  1.00  0.00    -0.222 A  
HETATM    7  N   UNL     1      -9.829  16.739  67.241  1.00  0.00    -0.255 NA 
HETATM    8  C   UNL     1      -8.022  16.567  69.004  1.00  0.00    -0.225 C  
HETATM    9  N   UNL     1      -6.943  17.326  69.394  1.00  0.00    -0.185 N  
HETATM   10  O   UNL     1      -8.328  15.510  69.541  1.00  0.00    -0.250 OA 
HETATM   11  C   UNL     1     -10.074  17.686  66.281  1.00  0.00    -0.341 A  
HETATM   12  H   UNL     1     -10.371  15.891  67.414  1.00  0.00     0.000 HD 
HETATM   13  H   UNL     1      -6.391  16.963  70.172  1.00  0.00     0.000 HD 
HETATM   14  C   UNL     1      -6.520  18.528  68.849  1.00  0.00    -0.242 C  
HETATM   15  N   UNL     1      -9.190  18.664  66.318  1.00  0.00    -0.443 NA 
HETATM   16  O   UNL     1      -5.535  19.086  69.332  1.00  0.00    -0.192 OA 
ENDBRANCH   3   4
ENDBRANCH   2   3
TORSDOF 2
ENDMDL
MODEL      139
REMARK 921   NORMALIZED FREE ENERGY PREDICTED BY IDOCK:   -3.07 KCAL/MOL
REMARK 922        TOTAL FREE ENERGY PREDICTED BY IDOCK:   -3.55 KCAL/MOL
REMARK 923 INTER-LIGAND FREE ENERGY PREDICTED BY IDOCK:   -3.83 KCAL/MOL
REMARK 924 INTRA-LIGAND FREE ENERGY PREDICTED BY IDOCK:    0.28 KCAL/MOL
REMARK 927      BINDING AFFINITY PREDICTED BY RF-SCORE:    0.00 PKD
ROOT
HETATM    1  C   UNL     1      -8.664  16.188  69.068  1.00  0.00    -0.254 C  
HETATM    2  C   UNL     1      -8.197  15.165  68.044  1.00  0.00    -0.144 C  
ENDROOT
BRANCH   2   3
HETATM    3  C   UNL     1      -7.842  15.834  66.716  1.00  0.00    -0.213 C  
BRANCH   3   4
HETATM    4  N   UNL     1      -8.689  16.986  66.434  1.00  0.00    -0.265 N  
HETATM    5  C   UNL     1      -8.218  18.275  66.572  1.00  0.00    -0.268 A  
HETATM    6  C   UNL     1      -9.006  19.354  66.304  1.00  0.00    -0.346 A  
HETATM    7  N   UNL     1      -8.223  20.446  66.534  1.00  0.00    -0.529 NA 
HETATM    8  C   UNL     1     -10.352  19.246  65.876  1.00  0.00    -0.421 C  
HETATM    9  N   UNL     1     -10.761  17.937  65.773  1.00  0.00    -0.237 N  
HETATM   10  O   UNL     1     -11.079  20.198  65.621  1.00  0.00    -0.113 OA 
HETATM   11  C   UNL     1      -7.000  19.971  66.929  1.00  0.00    -0.220 A  
HETATM   12  H   UNL     1      -8.495  21.424  66.431  1.00  0.00     0.000 HD 
HETATM   13  H   UNL     1     -11.723  17.785  65.469  1.00  0.00     0.000 HD 
HETATM   14  C   UNL     1     -10.013  16.801  66.037  1.00  0.00    -0.313 C  
HETATM   15  N   UNL     1      -6.970  18.653  66.963  1.00  0.00    -0.198 NA 
HETATM   16  O   UNL     1     -10.542  15.697  65.907  1.00  0.00    -0.314 OA 
ENDBRANCH   3   4
ENDBRANCH   2   3
TORSDOF 2
ENDMDL
MODEL      140
REMARK 921   NORMALIZED FREE ENERGY PREDICTED BY IDOCK:   -3.05 KCAL/MOL
REMARK 922        TOTAL FREE ENERGY PREDICTED BY IDOCK:   -3.54 KCAL/MOL
REMARK 923 INTER-LIGAND FREE ENERGY PREDICTED BY IDOCK:   -3.47 KCAL/MOL
REMARK 924 INTRA-LIGAND FREE ENERGY PREDICTED BY IDOCK:   -0.06 KCAL/MOL
REMARK 927      BINDING AFFINITY PREDICTED BY RF-SCORE:    0.00 PKD
ROOT
HETATM    1  C   UNL     1     -11.537  11.815  68.276  1.00  0.00    -0.373 C  
HETATM    2  C   UNL     1     -11.755  13.048  67.413  1.00  0.00    -0.427 C  
ENDROOT
BRANCH   2   3
HETATM    3  C   UNL     1     -10.507  13.381  66.596  1.00  0.00    -0.280 C  
BRANCH   3   4
HETATM    4  N   UNL     1      -9.508  14.096  67.381  1.00  0.00    -0.214 N  
HETATM    5  C   UNL     1      -9.671  15.424  67.714  1.00  0.00    -0.211 A  
HETATM    6  C   UNL     1      -8.740  16.093  68.450  1.00  0.00    -0.190 A  
HETATM    7  N   UNL     1      -9.227  17.358  68.595  1.00  0.00    -0.274 NA 
HETATM    8  C   UNL     1      -7.547  15.496  68.924  1.00  0.00    -0.166 C  
HETATM    9  N   UNL     1      -7.441  14.177  68.544  1.00  0.00    -0.116 N  
HETATM   10  O   UNL     1      -6.699  16.071  69.594  1.00  0.00    -0.198 OA 
HETATM   11  C   UNL     1     -10.429  17.390  67.936  1.00  0.00    -0.383 A  
HETATM   12  H   UNL     1      -8.784  18.130  69.094  1.00  0.00     0.000 HD 
HETATM   13  H   UNL     1      -6.602  13.683  68.852  1.00  0.00     0.000 HD 
HETATM   14  C   UNL     1      -8.344  13.445  67.792  1.00  0.00    -0.178 C  
HETATM   15  N   UNL     1     -10.722  16.226  67.389  1.00  0.00    -0.312 NA 
HETATM   16  O   UNL     1      -8.086  12.271  67.529  1.00  0.00    -0.149 OA 
ENDBRANCH   3   4
ENDBRANCH   2   3
TORSDOF 2
ENDMDL
MODEL      141
REMARK 921   NORMALIZED FREE ENERGY PREDICTED BY IDOCK:   -3.05 KCAL/MOL
REMARK 922        TOTAL FREE ENERGY PREDICTED BY IDOCK:   -3.53 KCAL/MOL
REMARK 923 INTER-LIGAND FREE ENERGY PREDICTED BY IDOCK:   -3.40 KCAL/MOL
REMARK 924 INTRA-LIGAND FREE ENERGY PREDICTED BY IDOCK:   -0.14 KCAL/MOL
REMARK 927      BINDING AFFINITY PREDICTED BY RF-SCORE:    0.00 PKD
ROOT
HETATM    1  C   UNL     1      -8.712   7.867  65.793  1.00  0.00    -0.163 C  
HETATM    2  C   UNL     1      -9.180   6.736  66.695  1.00  0.00    -0.184 C  
ENDROOT
BRANCH   2   3
HETATM    3  C   UNL     1     -10.588   6.998  67.227  1.00  0.00    -0.325 C  
BRANCH   3   4
HETATM    4  N   UNL     1     -10.582   7.419  68.623  1.00  0.00    -0.185 N  
HETATM    5  C   UNL     1     -10.639   8.752  68.972  1.00  0.00    -0.171 A  
HETATM    6  C   UNL     1     -10.638   9.148  70.276  1.00  0.00    -0.223 A  
HETATM    7  N   UNL     1     -10.714  10.509  70.246  1.00  0.00    -0.454 NA 
HETATM    8  C   UNL     1     -10.574   8.243  71.363  1.00  0.00    -0.223 C  
HETATM    9  N   UNL     1     -10.504   6.934  70.945  1.00  0.00    -0.210 N  
HETATM   10  O   UNL     1     -10.580   8.570  72.543  1.00  0.00    -0.331 OA 
HETATM   11  C   UNL     1     -10.756  10.868  68.924  1.00  0.00    -0.215 A  
HETATM   12  H   UNL     1     -10.734  11.137  71.050  1.00  0.00     0.000 HD 
HETATM   13  H   UNL     1     -10.455   6.226  71.678  1.00  0.00     0.000 HD 
HETATM   14  C   UNL     1     -10.494   6.469  69.640  1.00  0.00    -0.216 C  
HETATM   15  N   UNL     1     -10.710   9.818  68.127  1.00  0.00    -0.237 NA 
HETATM   16  O   UNL     1     -10.413   5.257  69.440  1.00  0.00    -0.260 OA 
ENDBRANCH   3   4
ENDBRANCH   2   3
TORSDOF 2
ENDMDL
MODEL      142
REMARK 921   NORMALIZED FREE ENERGY PREDICTED BY IDOCK:   -3.05 KCAL/MOL
REMARK 922        TOTAL FREE ENERGY PREDICTED BY IDOCK:   -3.53 KCAL/MOL
REMARK 923 INTER-LIGAND FREE ENERGY PREDICTED BY IDOCK:   -3.36 KCAL/MOL
REMARK 924 INTRA-LIGAND FREE ENERGY PREDICTED BY IDOCK:   -0.17 KCAL/MOL
REMARK 927      BINDING AFFINITY PREDICTED BY RF-SCORE:    0.00 PKD
ROOT
HETATM    1  C   UNL     1     -11.254  13.697  68.423  1.00  0.00    -0.306 C  
HETATM    2  C   UNL     1     -11.719  13.066  67.120  1.00  0.00    -0.439 C  
ENDROOT
BRANCH   2   3
HETATM    3  C   UNL     1     -10.652  13.192  66.033  1.00  0.00    -0.281 C  
BRANCH   3   4
HETATM    4  N   UNL     1     -10.119  11.897  65.629  1.00  0.00    -0.236 N  
HETATM    5  C   UNL     1      -9.032  11.337  66.267  1.00  0.00    -0.197 A  
HETATM    6  C   UNL     1      -8.534  10.125  65.894  1.00  0.00    -0.141 A  
HETATM    7  N   UNL     1      -7.487   9.885  66.733  1.00  0.00    -0.094 NA 
HETATM    8  C   UNL     1      -9.076   9.353  64.838  1.00  0.00    -0.202 C  
HETATM    9  N   UNL     1     -10.146   9.975  64.237  1.00  0.00    -0.443 N  
HETATM   10  O   UNL     1      -8.654   8.258  64.488  1.00  0.00    -0.083 OA 
HETATM   11  C   UNL     1      -7.404  10.966  67.572  1.00  0.00    -0.096 A  
HETATM   12  H   UNL     1      -6.883   9.062  66.737  1.00  0.00     0.000 HD 
HETATM   13  H   UNL     1     -10.587   9.474  63.465  1.00  0.00     0.000 HD 
HETATM   14  C   UNL     1     -10.693  11.205  64.562  1.00  0.00    -0.297 C  
HETATM   15  N   UNL     1      -8.331  11.866  67.308  1.00  0.00    -0.162 NA 
HETATM   16  O   UNL     1     -11.648  11.624  63.909  1.00  0.00    -0.380 OA 
ENDBRANCH   3   4
ENDBRANCH   2   3
TORSDOF 2
ENDMDL
MODEL      143
REMARK 921   NORMALIZED FREE ENERGY PREDICTED BY IDOCK:   -3.04 KCAL/MOL
REMARK 922        TOTAL FREE ENERGY PREDICTED BY IDOCK:   -3.53 KCAL/MOL
REMARK 923 INTER-LIGAND FREE ENERGY PREDICTED BY IDOCK:   -3.38 KCAL/MOL
REMARK 924 INTRA-LIGAND FREE ENERGY PREDICTED BY IDOCK:   -0.14 KCAL/MOL
REMARK 927      BINDING AFFINITY PREDICTED BY RF-SCORE:    0.00 PKD
ROOT
HETATM    1  C   UNL     1     -10.224   4.926  66.101  1.00  0.00    -0.309 C  
HETATM    2  C   UNL     1     -10.426   5.222  67.579  1.00  0.00    -0.193 C  
ENDROOT
BRANCH   2   3
HETATM    3  C   UNL     1     -10.852   6.673  67.800  1.00  0.00    -0.294 C  
BRANCH   3   4
HETATM    4  N   UNL     1     -10.260   7.246  69.002  1.00  0.00    -0.191 N  
HETATM    5  C   UNL     1     -10.903   7.184  70.221  1.00  0.00    -0.249 A  
HETATM    6  C   UNL     1     -10.349   7.715  71.347  1.00  0.00    -0.196 A  
HETATM    7  N   UNL     1     -11.240   7.465  72.347  1.00  0.00    -0.275 NA 
HETATM    8  C   UNL     1      -9.092   8.368  71.361  1.00  0.00    -0.186 C  
HETATM    9  N   UNL     1      -8.513   8.408  70.113  1.00  0.00    -0.122 N  
HETATM   10  O   UNL     1      -8.568   8.846  72.359  1.00  0.00    -0.399 OA 
HETATM   11  C   UNL     1     -12.290   6.795  71.774  1.00  0.00    -0.356 A  
HETATM   12  H   UNL     1     -11.145   7.725  73.329  1.00  0.00     0.000 HD 
HETATM   13  H   UNL     1      -7.603   8.865  70.050  1.00  0.00     0.000 HD 
HETATM   14  C   UNL     1      -9.027   7.895  68.933  1.00  0.00    -0.141 C  
HETATM   15  N   UNL     1     -12.111   6.612  70.481  1.00  0.00    -0.342 NA 
HETATM   16  O   UNL     1      -8.380   8.030  67.894  1.00  0.00    -0.127 OA 
ENDBRANCH   3   4
ENDBRANCH   2   3
TORSDOF 2
ENDMDL
MODEL      144
REMARK 921   NORMALIZED FREE ENERGY PREDICTED BY IDOCK:   -3.04 KCAL/MOL
REMARK 922        TOTAL FREE ENERGY PREDICTED BY IDOCK:   -3.52 KCAL/MOL
REMARK 923 INTER-LIGAND FREE ENERGY PREDICTED BY IDOCK:   -3.43 KCAL/MOL
REMARK 924 INTRA-LIGAND FREE ENERGY PREDICTED BY IDOCK:   -0.09 KCAL/MOL
REMARK 927      BINDING AFFINITY PREDICTED BY RF-SCORE:    0.00 PKD
ROOT
HETATM    1  C   UNL     1      -7.320   9.941  67.825  1.00  0.00    -0.089 C  
HETATM    2  C   UNL     1      -8.259  10.932  68.496  1.00  0.00    -0.140 C  
ENDROOT
BRANCH   2   3
HETATM    3  C   UNL     1      -9.093  11.690  67.464  1.00  0.00    -0.172 C  
BRANCH   3   4
HETATM    4  N   UNL     1      -9.991  12.657  68.083  1.00  0.00    -0.220 N  
HETATM    5  C   UNL     1      -9.553  13.912  68.451  1.00  0.00    -0.215 A  
HETATM    6  C   UNL     1     -10.391  14.819  69.026  1.00  0.00    -0.243 A  
HETATM    7  N   UNL     1      -9.634  15.932  69.242  1.00  0.00    -0.253 NA 
HETATM    8  C   UNL     1     -11.757  14.555  69.293  1.00  0.00    -0.310 C  
HETATM    9  N   UNL     1     -12.124  13.284  68.915  1.00  0.00    -0.287 N  
HETATM   10  O   UNL     1     -12.534  15.354  69.800  1.00  0.00    -0.291 OA 
HETATM   11  C   UNL     1      -8.374  15.640  68.788  1.00  0.00    -0.189 A  
HETATM   12  H   UNL     1      -9.945  16.809  69.661  1.00  0.00     0.000 HD 
HETATM   13  H   UNL     1     -13.097  13.025  69.079  1.00  0.00     0.000 HD 
HETATM   14  C   UNL     1     -11.320  12.316  68.336  1.00  0.00    -0.292 C  
HETATM   15  N   UNL     1      -8.297  14.416  68.303  1.00  0.00    -0.151 NA 
HETATM   16  O   UNL     1     -11.808  11.217  68.071  1.00  0.00    -0.578 OA 
ENDBRANCH   3   4
ENDBRANCH   2   3
TORSDOF 2
ENDMDL
MODEL      145
REMARK 921   NORMALIZED FREE ENERGY PREDICTED BY IDOCK:   -3.04 KCAL/MOL
REMARK 922        TOTAL FREE ENERGY PREDICTED BY IDOCK:   -3.52 KCAL/MOL
REMARK 923 INTER-LIGAND FREE ENERGY PREDICTED BY IDOCK:   -3.45 KCAL/MOL
REMARK 924 INTRA-LIGAND FREE ENERGY PREDICTED BY IDOCK:   -0.08 KCAL/MOL
REMARK 927      BINDING AFFINITY PREDICTED BY RF-SCORE:    0.00 PKD
ROOT
HETATM    1  C   UNL     1      -8.416  15.149  69.775  1.00  0.00     0.049 C  
HETATM    2  C   UNL     1      -8.452  15.321  68.264  1.00  0.00    -0.154 C  
ENDROOT
BRANCH   2   3
HETATM    3  C   UNL     1      -7.111  15.825  67.732  1.00  0.00    -0.151 C  
BRANCH   3   4
HETATM    4  N   UNL     1      -7.061  17.279  67.646  1.00  0.00    -0.161 N  
HETATM    5  C   UNL     1      -6.498  18.039  68.651  1.00  0.00    -0.223 A  
HETATM    6  C   UNL     1      -6.447  19.398  68.571  1.00  0.00    -0.254 A  
HETATM    7  N   UNL     1      -5.826  19.809  69.713  1.00  0.00    -0.262 NA 
HETATM    8  C   UNL     1      -6.961  20.133  67.475  1.00  0.00    -0.266 C  
HETATM    9  N   UNL     1      -7.519  19.316  66.518  1.00  0.00    -0.234 N  
HETATM   10  O   UNL     1      -6.920  21.353  67.374  1.00  0.00    -0.572 OA 
HETATM   11  C   UNL     1      -5.533  18.676  70.426  1.00  0.00    -0.235 A  
HETATM   12  H   UNL     1      -5.619  20.771  69.983  1.00  0.00     0.000 HD 
HETATM   13  H   UNL     1      -7.910  19.780  65.698  1.00  0.00     0.000 HD 
HETATM   14  C   UNL     1      -7.609  17.934  66.544  1.00  0.00    -0.250 C  
HETATM   15  N   UNL     1      -5.934  17.584  69.803  1.00  0.00    -0.249 NA 
HETATM   16  O   UNL     1      -8.157  17.356  65.605  1.00  0.00    -0.485 OA 
ENDBRANCH   3   4
ENDBRANCH   2   3
TORSDOF 2
ENDMDL
MODEL      146
REMARK 921   NORMALIZED FREE ENERGY PREDICTED BY IDOCK:   -3.04 KCAL/MOL
REMARK 922        TOTAL FREE ENERGY PREDICTED BY IDOCK:   -3.52 KCAL/MOL
REMARK 923 INTER-LIGAND FREE ENERGY PREDICTED BY IDOCK:   -3.45 KCAL/MOL
REMARK 924 INTRA-LIGAND FREE ENERGY PREDICTED BY IDOCK:   -0.07 KCAL/MOL
REMARK 927      BINDING AFFINITY PREDICTED BY RF-SCORE:    0.00 PKD
ROOT
HETATM    1  C   UNL     1      -8.983  12.461  68.050  1.00  0.00    -0.194 C  
HETATM    2  C   UNL     1      -9.016  11.048  68.612  1.00  0.00    -0.167 C  
ENDROOT
BRANCH   2   3
HETATM    3  C   UNL     1     -10.434  10.476  68.587  1.00  0.00    -0.191 C  
BRANCH   3   4
HETATM    4  N   UNL     1     -10.452   9.061  68.237  1.00  0.00    -0.214 N  
HETATM    5  C   UNL     1     -10.618   8.085  69.198  1.00  0.00    -0.169 A  
HETATM    6  C   UNL     1     -10.639   6.762  68.874  1.00  0.00    -0.228 A  
HETATM    7  N   UNL     1     -10.829   6.100  70.050  1.00  0.00    -0.307 NA 
HETATM    8  C   UNL     1     -10.491   6.284  67.549  1.00  0.00    -0.236 C  
HETATM    9  N   UNL     1     -10.315   7.307  66.645  1.00  0.00    -0.480 N  
HETATM   10  O   UNL     1     -10.515   5.103  67.229  1.00  0.00    -0.196 OA 
HETATM   11  C   UNL     1     -10.912   7.057  71.027  1.00  0.00    -0.251 A  
HETATM   12  H   UNL     1     -10.896   5.089  70.177  1.00  0.00     0.000 HD 
HETATM   13  H   UNL     1     -10.201   7.033  65.668  1.00  0.00     0.000 HD 
HETATM   14  C   UNL     1     -10.276   8.665  66.912  1.00  0.00    -0.296 C  
HETATM   15  N   UNL     1     -10.785   8.274  70.537  1.00  0.00    -0.221 NA 
HETATM   16  O   UNL     1     -10.094   9.450  65.980  1.00  0.00    -0.300 OA 
ENDBRANCH   3   4
ENDBRANCH   2   3
TORSDOF 2
ENDMDL
MODEL      147
REMARK 921   NORMALIZED FREE ENERGY PREDICTED BY IDOCK:   -3.01 KCAL/MOL
REMARK 922        TOTAL FREE ENERGY PREDICTED BY IDOCK:   -3.49 KCAL/MOL
REMARK 923 INTER-LIGAND FREE ENERGY PREDICTED BY IDOCK:   -3.33 KCAL/MOL
REMARK 924 INTRA-LIGAND FREE ENERGY PREDICTED BY IDOCK:   -0.16 KCAL/MOL
REMARK 927      BINDING AFFINITY PREDICTED BY RF-SCORE:    0.00 PKD
ROOT
HETATM    1  C   UNL     1      -8.728   5.592  72.470  1.00  0.00    -0.124 C  
HETATM    2  C   UNL     1      -9.146   5.056  71.109  1.00  0.00    -0.177 C  
ENDROOT
BRANCH   2   3
HETATM    3  C   UNL     1     -10.570   5.487  70.758  1.00  0.00    -0.249 C  
BRANCH   3   4
HETATM    4  N   UNL     1     -10.596   6.530  69.740  1.00  0.00    -0.215 N  
HETATM    5  C   UNL     1     -10.509   6.226  68.397  1.00  0.00    -0.227 A  
HETATM    6  C   UNL     1     -10.537   7.199  67.443  1.00  0.00    -0.302 A  
HETATM    7  N   UNL     1     -10.442   6.545  66.251  1.00  0.00    -0.443 NA 
HETATM    8  C   UNL     1     -10.650   8.578  67.742  1.00  0.00    -0.175 C  
HETATM    9  N   UNL     1     -10.718   8.812  69.097  1.00  0.00    -0.373 N  
HETATM   10  O   UNL     1     -10.687   9.471  66.905  1.00  0.00    -0.207 OA 
HETATM   11  C   UNL     1     -10.360   5.209  66.544  1.00  0.00    -0.291 A  
HETATM   12  H   UNL     1     -10.433   6.968  65.322  1.00  0.00     0.000 HD 
HETATM   13  H   UNL     1     -10.801   9.787  69.385  1.00  0.00     0.000 HD 
HETATM   14  C   UNL     1     -10.686   7.871  70.113  1.00  0.00    -0.244 C  
HETATM   15  N   UNL     1     -10.397   4.987  67.844  1.00  0.00    -0.086 NA 
HETATM   16  O   UNL     1     -10.743   8.255  71.281  1.00  0.00    -0.217 OA 
ENDBRANCH   3   4
ENDBRANCH   2   3
TORSDOF 2
ENDMDL
MODEL      148
REMARK 921   NORMALIZED FREE ENERGY PREDICTED BY IDOCK:   -3.00 KCAL/MOL
REMARK 922        TOTAL FREE ENERGY PREDICTED BY IDOCK:   -3.48 KCAL/MOL
REMARK 923 INTER-LIGAND FREE ENERGY PREDICTED BY IDOCK:   -3.35 KCAL/MOL
REMARK 924 INTRA-LIGAND FREE ENERGY PREDICTED BY IDOCK:   -0.13 KCAL/MOL
REMARK 927      BINDING AFFINITY PREDICTED BY RF-SCORE:    0.00 PKD
ROOT
HETATM    1  C   UNL     1     -10.143  10.545  66.120  1.00  0.00    -0.306 C  
HETATM    2  C   UNL     1      -9.327  11.668  66.740  1.00  0.00    -0.193 C  
ENDROOT
BRANCH   2   3
HETATM    3  C   UNL     1      -9.954  12.150  68.048  1.00  0.00    -0.203 C  
BRANCH   3   4
HETATM    4  N   UNL     1     -10.125  13.598  68.079  1.00  0.00    -0.243 N  
HETATM    5  C   UNL     1      -9.086  14.437  68.425  1.00  0.00    -0.193 A  
HETATM    6  C   UNL     1      -9.243  15.790  68.450  1.00  0.00    -0.192 A  
HETATM    7  N   UNL     1      -8.030  16.292  68.817  1.00  0.00    -0.208 NA 
HETATM    8  C   UNL     1     -10.462  16.438  68.135  1.00  0.00    -0.302 C  
HETATM    9  N   UNL     1     -11.457  15.544  67.814  1.00  0.00    -0.292 N  
HETATM   10  O   UNL     1     -10.627  17.652  68.141  1.00  0.00    -0.376 OA 
HETATM   11  C   UNL     1      -7.201  15.216  68.996  1.00  0.00    -0.149 A  
HETATM   12  H   UNL     1      -7.787  17.277  68.935  1.00  0.00     0.000 HD 
HETATM   13  H   UNL     1     -12.366  15.943  67.576  1.00  0.00     0.000 HD 
HETATM   14  C   UNL     1     -11.364  14.162  67.778  1.00  0.00    -0.306 C  
HETATM   15  N   UNL     1      -7.819  14.074  68.766  1.00  0.00    -0.126 NA 
HETATM   16  O   UNL     1     -12.363  13.506  67.482  1.00  0.00    -0.259 OA 
ENDBRANCH   3   4
ENDBRANCH   2   3
TORSDOF 2
ENDMDL
MODEL      149
REMARK 921   NORMALIZED FREE ENERGY PREDICTED BY IDOCK:   -3.00 KCAL/MOL
REMARK 922        TOTAL FREE ENERGY PREDICTED BY IDOCK:   -3.48 KCAL/MOL
REMARK 923 INTER-LIGAND FREE ENERGY PREDICTED BY IDOCK:   -3.65 KCAL/MOL
REMARK 924 INTRA-LIGAND FREE ENERGY PREDICTED BY IDOCK:    0.17 KCAL/MOL
REMARK 927      BINDING AFFINITY PREDICTED BY RF-SCORE:    0.00 PKD
ROOT
HETATM    1  C   UNL     1      -7.329   9.555  68.936  1.00  0.00    -0.073 C  
HETATM    2  C   UNL     1      -8.543   8.709  69.288  1.00  0.00    -0.131 C  
ENDROOT
BRANCH   2   3
HETATM    3  C   UNL     1      -8.840   8.763  70.786  1.00  0.00    -0.191 C  
BRANCH   3   4
HETATM    4  N   UNL     1     -10.219   8.400  71.089  1.00  0.00    -0.194 N  
HETATM    5  C   UNL     1     -10.519   7.298  71.863  1.00  0.00    -0.200 A  
HETATM    6  C   UNL     1     -11.807   6.960  72.151  1.00  0.00    -0.281 A  
HETATM    7  N   UNL     1     -11.727   5.845  72.931  1.00  0.00    -0.520 NA 
HETATM    8  C   UNL     1     -12.926   7.693  71.687  1.00  0.00    -0.350 C  
HETATM    9  N   UNL     1     -12.557   8.769  70.911  1.00  0.00    -0.494 N  
HETATM   10  O   UNL     1     -14.092   7.417  71.937  1.00  0.00    -0.348 OA 
HETATM   11  C   UNL     1     -10.393   5.564  73.074  1.00  0.00    -0.202 A  
HETATM   12  H   UNL     1     -12.508   5.322  73.330  1.00  0.00     0.000 HD 
HETATM   13  H   UNL     1     -13.315   9.343  70.542  1.00  0.00     0.000 HD 
HETATM   14  C   UNL     1     -11.271   9.159  70.576  1.00  0.00    -0.264 C  
HETATM   15  N   UNL     1      -9.636   6.433  72.432  1.00  0.00    -0.147 NA 
HETATM   16  O   UNL     1     -11.117  10.145  69.856  1.00  0.00    -0.254 OA 
ENDBRANCH   3   4
ENDBRANCH   2   3
TORSDOF 2
ENDMDL
MODEL      150
REMARK 921   NORMALIZED FREE ENERGY PREDICTED BY IDOCK:   -2.99 KCAL/MOL
REMARK 922        TOTAL FREE ENERGY PREDICTED BY IDOCK:   -3.46 KCAL/MOL
REMARK 923 INTER-LIGAND FREE ENERGY PREDICTED BY IDOCK:   -3.33 KCAL/MOL
REMARK 924 INTRA-LIGAND FREE ENERGY PREDICTED BY IDOCK:   -0.13 KCAL/MOL
REMARK 927      BINDING AFFINITY PREDICTED BY RF-SCORE:    0.00 PKD
ROOT
HETATM    1  C   UNL     1      -9.667   8.284  66.435  1.00  0.00    -0.300 C  
HETATM    2  C   UNL     1     -10.088   8.026  67.873  1.00  0.00    -0.243 C  
ENDROOT
BRANCH   2   3
HETATM    3  C   UNL     1     -10.910   6.742  67.988  1.00  0.00    -0.235 C  
BRANCH   3   4
HETATM    4  N   UNL     1     -10.615   6.005  69.210  1.00  0.00    -0.264 N  
HETATM    5  C   UNL     1     -11.276   6.275  70.390  1.00  0.00    -0.373 A  
HETATM    6  C   UNL     1     -11.005   5.585  71.533  1.00  0.00    -0.150 A  
HETATM    7  N   UNL     1     -11.838   6.102  72.480  1.00  0.00    -0.501 NA 
HETATM    8  C   UNL     1     -10.037   4.554  71.608  1.00  0.00    -0.179 C  
HETATM    9  N   UNL     1      -9.406   4.346  70.402  1.00  0.00    -0.133 N  
HETATM   10  O   UNL     1      -9.780   3.912  72.618  1.00  0.00    -0.131 OA 
HETATM   11  C   UNL     1     -12.571   7.081  71.861  1.00  0.00    -0.295 A  
HETATM   12  H   UNL     1     -11.904   5.816  73.458  1.00  0.00     0.000 HD 
HETATM   13  H   UNL     1      -8.694   3.615  70.384  1.00  0.00     0.000 HD 
HETATM   14  C   UNL     1      -9.630   5.017  69.211  1.00  0.00    -0.162 C  
HETATM   15  N   UNL     1     -12.248   7.208  70.589  1.00  0.00    -0.253 NA 
HETATM   16  O   UNL     1      -8.963   4.713  68.223  1.00  0.00    -0.106 OA 
ENDBRANCH   3   4
ENDBRANCH   2   3
TORSDOF 2
ENDMDL
MODEL      151
REMARK 921   NORMALIZED FREE ENERGY PREDICTED BY IDOCK:   -2.98 KCAL/MOL
REMARK 922        TOTAL FREE ENERGY PREDICTED BY IDOCK:   -3.46 KCAL/MOL
REMARK 923 INTER-LIGAND FREE ENERGY PREDICTED BY IDOCK:   -3.44 KCAL/MOL
REMARK 924 INTRA-LIGAND FREE ENERGY PREDICTED BY IDOCK:   -0.01 KCAL/MOL
REMARK 927      BINDING AFFINITY PREDICTED BY RF-SCORE:    0.00 PKD
ROOT
HETATM    1  C   UNL     1      -9.205  10.770  65.360  1.00  0.00    -0.234 C  
HETATM    2  C   UNL     1     -10.331  10.879  66.376  1.00  0.00    -0.306 C  
ENDROOT
BRANCH   2   3
HETATM    3  C   UNL     1      -9.790  11.199  67.769  1.00  0.00    -0.171 C  
BRANCH   3   4
HETATM    4  N   UNL     1     -10.450  10.421  68.810  1.00  0.00    -0.187 N  
HETATM    5  C   UNL     1      -9.825   9.349  69.412  1.00  0.00    -0.178 A  
HETATM    6  C   UNL     1     -10.438   8.623  70.389  1.00  0.00    -0.208 A  
HETATM    7  N   UNL     1      -9.539   7.667  70.754  1.00  0.00    -0.166 NA 
HETATM    8  C   UNL     1     -11.746   8.898  70.856  1.00  0.00    -0.267 C  
HETATM    9  N   UNL     1     -12.316   9.968  70.205  1.00  0.00    -0.493 N  
HETATM   10  O   UNL     1     -12.317   8.268  71.737  1.00  0.00    -0.298 OA 
HETATM   11  C   UNL     1      -8.425   7.862  69.979  1.00  0.00    -0.134 A  
HETATM   12  H   UNL     1      -9.668   6.946  71.465  1.00  0.00     0.000 HD 
HETATM   13  H   UNL     1     -13.261  10.223  70.493  1.00  0.00     0.000 HD 
HETATM   14  C   UNL     1     -11.750  10.739  69.203  1.00  0.00    -0.296 C  
HETATM   15  N   UNL     1      -8.574   8.879  69.152  1.00  0.00    -0.132 NA 
HETATM   16  O   UNL     1     -12.408  11.658  68.715  1.00  0.00    -0.374 OA 
ENDBRANCH   3   4
ENDBRANCH   2   3
TORSDOF 2
ENDMDL
MODEL      152
REMARK 921   NORMALIZED FREE ENERGY PREDICTED BY IDOCK:   -2.98 KCAL/MOL
REMARK 922        TOTAL FREE ENERGY PREDICTED BY IDOCK:   -3.45 KCAL/MOL
REMARK 923 INTER-LIGAND FREE ENERGY PREDICTED BY IDOCK:   -3.39 KCAL/MOL
REMARK 924 INTRA-LIGAND FREE ENERGY PREDICTED BY IDOCK:   -0.06 KCAL/MOL
REMARK 927      BINDING AFFINITY PREDICTED BY RF-SCORE:    0.00 PKD
ROOT
HETATM    1  C   UNL     1      -6.938   6.920  65.723  1.00  0.00    -0.064 C  
HETATM    2  C   UNL     1      -7.670   8.087  66.367  1.00  0.00    -0.092 C  
ENDROOT
BRANCH   2   3
HETATM    3  C   UNL     1      -9.129   8.143  65.915  1.00  0.00    -0.130 C  
BRANCH   3   4
HETATM    4  N   UNL     1      -9.915   9.088  66.698  1.00  0.00    -0.256 N  
HETATM    5  C   UNL     1     -10.186  10.358  66.231  1.00  0.00    -0.222 A  
HETATM    6  C   UNL     1     -10.923  11.242  66.960  1.00  0.00    -0.294 A  
HETATM    7  N   UNL     1     -10.997  12.371  66.200  1.00  0.00    -0.275 NA 
HETATM    8  C   UNL     1     -11.461  10.941  68.235  1.00  0.00    -0.305 C  
HETATM    9  N   UNL     1     -11.142   9.667  68.645  1.00  0.00    -0.457 N  
HETATM   10  O   UNL     1     -12.134  11.713  68.907  1.00  0.00    -0.342 OA 
HETATM   11  C   UNL     1     -10.299  12.112  65.049  1.00  0.00    -0.287 A  
HETATM   12  H   UNL     1     -11.478  13.239  66.440  1.00  0.00     0.000 HD 
HETATM   13  H   UNL     1     -11.497   9.382  69.559  1.00  0.00     0.000 HD 
HETATM   14  C   UNL     1     -10.392   8.727  67.958  1.00  0.00    -0.220 C  
HETATM   15  N   UNL     1      -9.793  10.894  65.043  1.00  0.00    -0.258 NA 
HETATM   16  O   UNL     1     -10.188   7.631  68.480  1.00  0.00    -0.190 OA 
ENDBRANCH   3   4
ENDBRANCH   2   3
TORSDOF 2
ENDMDL
MODEL      153
REMARK 921   NORMALIZED FREE ENERGY PREDICTED BY IDOCK:   -2.98 KCAL/MOL
REMARK 922        TOTAL FREE ENERGY PREDICTED BY IDOCK:   -3.45 KCAL/MOL
REMARK 923 INTER-LIGAND FREE ENERGY PREDICTED BY IDOCK:   -3.35 KCAL/MOL
REMARK 924 INTRA-LIGAND FREE ENERGY PREDICTED BY IDOCK:   -0.11 KCAL/MOL
REMARK 927      BINDING AFFINITY PREDICTED BY RF-SCORE:    0.00 PKD
ROOT
HETATM    1  C   UNL     1     -11.260   1.909  73.371  1.00  0.00    -0.290 C  
HETATM    2  C   UNL     1     -10.561   3.193  72.955  1.00  0.00    -0.242 C  
ENDROOT
BRANCH   2   3
HETATM    3  C   UNL     1     -10.907   4.344  73.901  1.00  0.00    -0.268 C  
BRANCH   3   4
HETATM    4  N   UNL     1     -10.367   5.617  73.442  1.00  0.00    -0.205 N  
HETATM    5  C   UNL     1     -11.100   6.458  72.630  1.00  0.00    -0.261 A  
HETATM    6  C   UNL     1     -10.599   7.651  72.204  1.00  0.00    -0.232 A  
HETATM    7  N   UNL     1     -11.583   8.211  71.444  1.00  0.00    -0.270 NA 
HETATM    8  C   UNL     1      -9.307   8.119  72.545  1.00  0.00    -0.260 C  
HETATM    9  N   UNL     1      -8.626   7.228  73.342  1.00  0.00    -0.132 N  
HETATM   10  O   UNL     1      -8.836   9.190  72.183  1.00  0.00    -0.314 OA 
HETATM   11  C   UNL     1     -12.630   7.326  71.449  1.00  0.00    -0.388 A  
HETATM   12  H   UNL     1     -11.548   9.112  70.965  1.00  0.00     0.000 HD 
HETATM   13  H   UNL     1      -7.685   7.501  73.627  1.00  0.00     0.000 HD 
HETATM   14  C   UNL     1      -9.075   6.000  73.802  1.00  0.00    -0.127 C  
HETATM   15  N   UNL     1     -12.362   6.250  72.163  1.00  0.00    -0.253 NA 
HETATM   16  O   UNL     1      -8.327   5.316  74.500  1.00  0.00    -0.103 OA 
ENDBRANCH   3   4
ENDBRANCH   2   3
TORSDOF 2
ENDMDL
MODEL      154
REMARK 921   NORMALIZED FREE ENERGY PREDICTED BY IDOCK:   -2.93 KCAL/MOL
REMARK 922        TOTAL FREE ENERGY PREDICTED BY IDOCK:   -3.40 KCAL/MOL
REMARK 923 INTER-LIGAND FREE ENERGY PREDICTED BY IDOCK:   -3.28 KCAL/MOL
REMARK 924 INTRA-LIGAND FREE ENERGY PREDICTED BY IDOCK:   -0.12 KCAL/MOL
REMARK 927      BINDING AFFINITY PREDICTED BY RF-SCORE:    0.00 PKD
ROOT
HETATM    1  C   UNL     1      -5.735   6.476  73.878  1.00  0.00    -0.055 C  
HETATM    2  C   UNL     1      -7.045   7.211  73.642  1.00  0.00    -0.076 C  
ENDROOT
BRANCH   2   3
HETATM    3  C   UNL     1      -7.600   6.919  72.247  1.00  0.00    -0.092 C  
BRANCH   3   4
HETATM    4  N   UNL     1      -8.935   7.471  72.057  1.00  0.00    -0.123 N  
HETATM    5  C   UNL     1     -10.064   6.757  72.400  1.00  0.00    -0.170 A  
HETATM    6  C   UNL     1     -11.313   7.272  72.227  1.00  0.00    -0.272 A  
HETATM    7  N   UNL     1     -12.171   6.312  72.676  1.00  0.00    -0.515 NA 
HETATM    8  C   UNL     1     -11.556   8.558  71.687  1.00  0.00    -0.299 C  
HETATM    9  N   UNL     1     -10.390   9.209  71.353  1.00  0.00    -0.324 N  
HETATM   10  O   UNL     1     -12.667   9.049  71.529  1.00  0.00    -0.318 OA 
HETATM   11  C   UNL     1     -11.396   5.263  73.098  1.00  0.00    -0.291 A  
HETATM   12  H   UNL     1     -13.190   6.364  72.695  1.00  0.00     0.000 HD 
HETATM   13  H   UNL     1     -10.491  10.144  70.957  1.00  0.00     0.000 HD 
HETATM   14  C   UNL     1      -9.095   8.738  71.496  1.00  0.00    -0.252 C  
HETATM   15  N   UNL     1     -10.109   5.507  72.939  1.00  0.00    -0.172 NA 
HETATM   16  O   UNL     1      -8.160   9.450  71.132  1.00  0.00    -0.322 OA 
ENDBRANCH   3   4
ENDBRANCH   2   3
TORSDOF 2
ENDMDL
MODEL      155
REMARK 921   NORMALIZED FREE ENERGY PREDICTED BY IDOCK:   -2.92 KCAL/MOL
REMARK 922        TOTAL FREE ENERGY PREDICTED BY IDOCK:   -3.38 KCAL/MOL
REMARK 923 INTER-LIGAND FREE ENERGY PREDICTED BY IDOCK:   -3.37 KCAL/MOL
REMARK 924 INTRA-LIGAND FREE ENERGY PREDICTED BY IDOCK:   -0.01 KCAL/MOL
REMARK 927      BINDING AFFINITY PREDICTED BY RF-SCORE:    0.00 PKD
ROOT
HETATM    1  C   UNL     1     -10.620  16.350  68.908  1.00  0.00    -0.307 C  
HETATM    2  C   UNL     1     -11.536  15.478  68.063  1.00  0.00    -0.313 C  
ENDROOT
BRANCH   2   3
HETATM    3  C   UNL     1     -10.862  15.077  66.751  1.00  0.00    -0.318 C  
BRANCH   3   4
HETATM    4  N   UNL     1      -9.849  14.046  66.943  1.00  0.00    -0.259 N  
HETATM    5  C   UNL     1     -10.195  12.735  67.194  1.00  0.00    -0.233 A  
HETATM    6  C   UNL     1      -9.250  11.770  67.370  1.00  0.00    -0.174 A  
HETATM    7  N   UNL     1      -9.941  10.615  67.583  1.00  0.00    -0.166 NA 
HETATM    8  C   UNL     1      -7.858  12.025  67.316  1.00  0.00    -0.170 C  
HETATM    9  N   UNL     1      -7.583  13.352  67.077  1.00  0.00    -0.357 N  
HETATM   10  O   UNL     1      -6.988  11.176  67.462  1.00  0.00    -0.080 OA 
HETATM   11  C   UNL     1     -11.272  10.940  67.526  1.00  0.00    -0.293 A  
HETATM   12  H   UNL     1      -9.546   9.689  67.752  1.00  0.00     0.000 HD 
HETATM   13  H   UNL     1      -6.597  13.609  67.026  1.00  0.00     0.000 HD 
HETATM   14  C   UNL     1      -8.495  14.380  66.898  1.00  0.00    -0.127 C  
HETATM   15  N   UNL     1     -11.454  12.226  67.292  1.00  0.00    -0.337 NA 
HETATM   16  O   UNL     1      -8.076  15.521  66.707  1.00  0.00    -0.232 OA 
ENDBRANCH   3   4
ENDBRANCH   2   3
TORSDOF 2
ENDMDL
MODEL      156
REMARK 921   NORMALIZED FREE ENERGY PREDICTED BY IDOCK:   -2.91 KCAL/MOL
REMARK 922        TOTAL FREE ENERGY PREDICTED BY IDOCK:   -3.38 KCAL/MOL
REMARK 923 INTER-LIGAND FREE ENERGY PREDICTED BY IDOCK:   -3.27 KCAL/MOL
REMARK 924 INTRA-LIGAND FREE ENERGY PREDICTED BY IDOCK:   -0.11 KCAL/MOL
REMARK 927      BINDING AFFINITY PREDICTED BY RF-SCORE:    0.00 PKD
ROOT
HETATM    1  C   UNL     1     -11.747  14.704  68.958  1.00  0.00    -0.339 C  
HETATM    2  C   UNL     1     -11.804  13.510  69.897  1.00  0.00    -0.386 C  
ENDROOT
BRANCH   2   3
HETATM    3  C   UNL     1     -12.108  12.220  69.135  1.00  0.00    -0.161 C  
BRANCH   3   4
HETATM    4  N   UNL     1     -10.934  11.367  69.001  1.00  0.00    -0.223 N  
HETATM    5  C   UNL     1     -10.647  10.386  69.928  1.00  0.00    -0.251 A  
HETATM    6  C   UNL     1      -9.552   9.586  69.802  1.00  0.00    -0.216 A  
HETATM    7  N   UNL     1      -9.592   8.741  70.871  1.00  0.00    -0.201 NA 
HETATM    8  C   UNL     1      -8.629   9.692  68.733  1.00  0.00    -0.125 C  
HETATM    9  N   UNL     1      -8.965  10.697  67.856  1.00  0.00    -0.136 N  
HETATM   10  O   UNL     1      -7.643   8.981  68.592  1.00  0.00    -0.089 OA 
HETATM   11  C   UNL     1     -10.710   9.075  71.591  1.00  0.00    -0.371 A  
HETATM   12  H   UNL     1      -8.921   8.004  71.093  1.00  0.00     0.000 HD 
HETATM   13  H   UNL     1      -8.342  10.831  67.059  1.00  0.00     0.000 HD 
HETATM   14  C   UNL     1     -10.056  11.548  67.932  1.00  0.00    -0.189 C  
HETATM   15  N   UNL     1     -11.370  10.075  71.039  1.00  0.00    -0.365 NA 
HETATM   16  O   UNL     1     -10.202  12.408  67.063  1.00  0.00    -0.219 OA 
ENDBRANCH   3   4
ENDBRANCH   2   3
TORSDOF 2
ENDMDL
MODEL      157
REMARK 921   NORMALIZED FREE ENERGY PREDICTED BY IDOCK:   -2.91 KCAL/MOL
REMARK 922        TOTAL FREE ENERGY PREDICTED BY IDOCK:   -3.37 KCAL/MOL
REMARK 923 INTER-LIGAND FREE ENERGY PREDICTED BY IDOCK:   -3.21 KCAL/MOL
REMARK 924 INTRA-LIGAND FREE ENERGY PREDICTED BY IDOCK:   -0.16 KCAL/MOL
REMARK 927      BINDING AFFINITY PREDICTED BY RF-SCORE:    0.00 PKD
ROOT
HETATM    1  C   UNL     1     -10.233   9.457  67.030  1.00  0.00    -0.322 C  
HETATM    2  C   UNL     1     -10.997  10.746  67.286  1.00  0.00    -0.359 C  
ENDROOT
BRANCH   2   3
HETATM    3  C   UNL     1     -10.479  11.458  68.536  1.00  0.00    -0.203 C  
BRANCH   3   4
HETATM    4  N   UNL     1     -10.128  12.848  68.274  1.00  0.00    -0.239 N  
HETATM    5  C   UNL     1      -8.844  13.213  67.929  1.00  0.00    -0.196 A  
HETATM    6  C   UNL     1      -8.515  14.512  67.680  1.00  0.00    -0.182 A  
HETATM    7  N   UNL     1      -7.189  14.500  67.364  1.00  0.00    -0.226 NA 
HETATM    8  C   UNL     1      -9.444  15.578  67.758  1.00  0.00    -0.204 C  
HETATM    9  N   UNL     1     -10.699  15.147  68.121  1.00  0.00    -0.248 N  
HETATM   10  O   UNL     1      -9.177  16.752  67.532  1.00  0.00    -0.213 OA 
HETATM   11  C   UNL     1      -6.782  13.193  67.439  1.00  0.00    -0.096 A  
HETATM   12  H   UNL     1      -6.612  15.306  67.120  1.00  0.00     0.000 HD 
HETATM   13  H   UNL     1     -11.420  15.865  68.197  1.00  0.00     0.000 HD 
HETATM   14  C   UNL     1     -11.094  13.848  68.394  1.00  0.00    -0.255 C  
HETATM   15  N   UNL     1      -7.770  12.389  67.782  1.00  0.00    -0.126 NA 
HETATM   16  O   UNL     1     -12.262  13.637  68.720  1.00  0.00    -0.339 OA 
ENDBRANCH   3   4
ENDBRANCH   2   3
TORSDOF 2
ENDMDL
MODEL      158
REMARK 921   NORMALIZED FREE ENERGY PREDICTED BY IDOCK:   -2.88 KCAL/MOL
REMARK 922        TOTAL FREE ENERGY PREDICTED BY IDOCK:   -3.34 KCAL/MOL
REMARK 923 INTER-LIGAND FREE ENERGY PREDICTED BY IDOCK:   -3.28 KCAL/MOL
REMARK 924 INTRA-LIGAND FREE ENERGY PREDICTED BY IDOCK:   -0.06 KCAL/MOL
REMARK 927      BINDING AFFINITY PREDICTED BY RF-SCORE:    0.00 PKD
ROOT
HETATM    1  C   UNL     1      -7.223   6.491  68.986  1.00  0.00    -0.091 C  
HETATM    2  C   UNL     1      -7.958   6.079  70.252  1.00  0.00    -0.107 C  
ENDROOT
BRANCH   2   3
HETATM    3  C   UNL     1      -8.008   7.226  71.261  1.00  0.00    -0.098 C  
BRANCH   3   4
HETATM    4  N   UNL     1      -9.139   8.116  71.031  1.00  0.00    -0.147 N  
HETATM    5  C   UNL     1     -10.430   7.726  71.317  1.00  0.00    -0.206 A  
HETATM    6  C   UNL     1     -11.489   8.558  71.106  1.00  0.00    -0.276 A  
HETATM    7  N   UNL     1     -12.589   7.859  71.504  1.00  0.00    -0.318 NA 
HETATM    8  C   UNL     1     -11.356   9.867  70.581  1.00  0.00    -0.339 C  
HETATM    9  N   UNL     1     -10.046  10.186  70.305  1.00  0.00    -0.413 N  
HETATM   10  O   UNL     1     -12.288  10.638  70.390  1.00  0.00    -0.302 OA 
HETATM   11  C   UNL     1     -12.140   6.638  71.934  1.00  0.00    -0.340 A  
HETATM   12  H   UNL     1     -13.557   8.182  71.484  1.00  0.00     0.000 HD 
HETATM   13  H   UNL     1      -9.877  11.116  69.923  1.00  0.00     0.000 HD 
HETATM   14  C   UNL     1      -8.931   9.384  70.488  1.00  0.00    -0.253 C  
HETATM   15  N   UNL     1     -10.830   6.530  71.830  1.00  0.00    -0.232 NA 
HETATM   16  O   UNL     1      -7.825   9.823  70.173  1.00  0.00    -0.159 OA 
ENDBRANCH   3   4
ENDBRANCH   2   3
TORSDOF 2
ENDMDL
MODEL      159
REMARK 921   NORMALIZED FREE ENERGY PREDICTED BY IDOCK:   -2.86 KCAL/MOL
REMARK 922        TOTAL FREE ENERGY PREDICTED BY IDOCK:   -3.32 KCAL/MOL
REMARK 923 INTER-LIGAND FREE ENERGY PREDICTED BY IDOCK:   -3.15 KCAL/MOL
REMARK 924 INTRA-LIGAND FREE ENERGY PREDICTED BY IDOCK:   -0.17 KCAL/MOL
REMARK 927      BINDING AFFINITY PREDICTED BY RF-SCORE:    0.00 PKD
ROOT
HETATM    1  C   UNL     1      -6.203  13.932  70.310  1.00  0.00    -0.110 C  
HETATM    2  C   UNL     1      -6.919  14.695  69.207  1.00  0.00    -0.147 C  
ENDROOT
BRANCH   2   3
HETATM    3  C   UNL     1      -6.970  13.882  67.914  1.00  0.00    -0.160 C  
BRANCH   3   4
HETATM    4  N   UNL     1      -8.325  13.464  67.577  1.00  0.00    -0.178 N  
HETATM    5  C   UNL     1      -8.844  12.271  68.036  1.00  0.00    -0.182 A  
HETATM    6  C   UNL     1     -10.112  11.880  67.726  1.00  0.00    -0.191 A  
HETATM    7  N   UNL     1     -10.288  10.680  68.348  1.00  0.00    -0.167 NA 
HETATM    8  C   UNL     1     -10.987  12.646  66.918  1.00  0.00    -0.262 C  
HETATM    9  N   UNL     1     -10.402  13.813  66.482  1.00  0.00    -0.281 N  
HETATM   10  O   UNL     1     -12.132  12.323  66.631  1.00  0.00    -0.612 OA 
HETATM   11  C   UNL     1      -9.115  10.405  69.003  1.00  0.00    -0.187 A  
HETATM   12  H   UNL     1     -11.127  10.099  68.330  1.00  0.00     0.000 HD 
HETATM   13  H   UNL     1     -10.977  14.416  65.893  1.00  0.00     0.000 HD 
HETATM   14  C   UNL     1      -9.120  14.262  66.755  1.00  0.00    -0.249 C  
HETATM   15  N   UNL     1      -8.219  11.357  68.828  1.00  0.00    -0.138 NA 
HETATM   16  O   UNL     1      -8.748  15.331  66.270  1.00  0.00    -0.283 OA 
ENDBRANCH   3   4
ENDBRANCH   2   3
TORSDOF 2
ENDMDL
MODEL      160
REMARK 921   NORMALIZED FREE ENERGY PREDICTED BY IDOCK:   -2.83 KCAL/MOL
REMARK 922        TOTAL FREE ENERGY PREDICTED BY IDOCK:   -3.29 KCAL/MOL
REMARK 923 INTER-LIGAND FREE ENERGY PREDICTED BY IDOCK:   -3.16 KCAL/MOL
REMARK 924 INTRA-LIGAND FREE ENERGY PREDICTED BY IDOCK:   -0.13 KCAL/MOL
REMARK 927      BINDING AFFINITY PREDICTED BY RF-SCORE:    0.00 PKD
ROOT
HETATM    1  C   UNL     1      -9.520   3.448  74.268  1.00  0.00    -0.116 C  
HETATM    2  C   UNL     1      -9.961   4.759  73.636  1.00  0.00    -0.187 C  
ENDROOT
BRANCH   2   3
HETATM    3  C   UNL     1     -10.394   4.556  72.184  1.00  0.00    -0.162 C  
BRANCH   3   4
HETATM    4  N   UNL     1     -10.313   5.786  71.406  1.00  0.00    -0.215 N  
HETATM    5  C   UNL     1     -11.382   6.652  71.316  1.00  0.00    -0.299 A  
HETATM    6  C   UNL     1     -11.307   7.804  70.592  1.00  0.00    -0.264 A  
HETATM    7  N   UNL     1     -12.522   8.405  70.734  1.00  0.00    -0.489 NA 
HETATM    8  C   UNL     1     -10.149   8.201  69.881  1.00  0.00    -0.195 C  
HETATM    9  N   UNL     1      -9.127   7.287  70.001  1.00  0.00    -0.149 N  
HETATM   10  O   UNL     1     -10.052   9.234  69.230  1.00  0.00    -0.186 OA 
HETATM   11  C   UNL     1     -13.272   7.585  71.536  1.00  0.00    -0.354 A  
HETATM   12  H   UNL     1     -12.816   9.292  70.323  1.00  0.00     0.000 HD 
HETATM   13  H   UNL     1      -8.260   7.510  69.511  1.00  0.00     0.000 HD 
HETATM   14  C   UNL     1      -9.144   6.098  70.712  1.00  0.00    -0.150 C  
HETATM   15  N   UNL     1     -12.603   6.509  71.903  1.00  0.00    -0.291 NA 
HETATM   16  O   UNL     1      -8.141   5.385  70.702  1.00  0.00    -0.104 OA 
ENDBRANCH   3   4
ENDBRANCH   2   3
TORSDOF 2
ENDMDL
MODEL      161
REMARK 921   NORMALIZED FREE ENERGY PREDICTED BY IDOCK:   -2.83 KCAL/MOL
REMARK 922        TOTAL FREE ENERGY PREDICTED BY IDOCK:   -3.29 KCAL/MOL
REMARK 923 INTER-LIGAND FREE ENERGY PREDICTED BY IDOCK:   -3.12 KCAL/MOL
REMARK 924 INTRA-LIGAND FREE ENERGY PREDICTED BY IDOCK:   -0.17 KCAL/MOL
REMARK 927      BINDING AFFINITY PREDICTED BY RF-SCORE:    0.00 PKD
ROOT
HETATM    1  C   UNL     1     -11.927  14.533  69.126  1.00  0.00    -0.344 C  
HETATM    2  C   UNL     1     -11.912  13.460  70.204  1.00  0.00    -0.396 C  
ENDROOT
BRANCH   2   3
HETATM    3  C   UNL     1     -12.657  12.206  69.747  1.00  0.00     0.280 C  
BRANCH   3   4
HETATM    4  N   UNL     1     -11.834  11.007  69.847  1.00  0.00    -0.321 N  
HETATM    5  C   UNL     1     -11.021  10.604  68.808  1.00  0.00    -0.246 A  
HETATM    6  C   UNL     1     -10.247   9.486  68.901  1.00  0.00    -0.199 A  
HETATM    7  N   UNL     1      -9.580   9.402  67.716  1.00  0.00    -0.132 NA 
HETATM    8  C   UNL     1     -10.217   8.655  70.047  1.00  0.00    -0.194 C  
HETATM    9  N   UNL     1     -11.060   9.105  71.038  1.00  0.00    -0.278 N  
HETATM   10  O   UNL     1      -9.525   7.651  70.161  1.00  0.00    -0.161 OA 
HETATM   11  C   UNL     1      -9.985  10.475  66.964  1.00  0.00    -0.201 A  
HETATM   12  H   UNL     1      -8.910   8.683  67.441  1.00  0.00     0.000 HD 
HETATM   13  H   UNL     1     -11.088   8.552  71.895  1.00  0.00     0.000 HD 
HETATM   14  C   UNL     1     -11.874  10.225  71.001  1.00  0.00    -0.377 C  
HETATM   15  N   UNL     1     -10.863  11.222  67.605  1.00  0.00    -0.221 NA 
HETATM   16  O   UNL     1     -12.582  10.478  71.976  1.00  0.00    -0.326 OA 
ENDBRANCH   3   4
ENDBRANCH   2   3
TORSDOF 2
ENDMDL
MODEL      162
REMARK 921   NORMALIZED FREE ENERGY PREDICTED BY IDOCK:   -2.82 KCAL/MOL
REMARK 922        TOTAL FREE ENERGY PREDICTED BY IDOCK:   -3.28 KCAL/MOL
REMARK 923 INTER-LIGAND FREE ENERGY PREDICTED BY IDOCK:   -3.17 KCAL/MOL
REMARK 924 INTRA-LIGAND FREE ENERGY PREDICTED BY IDOCK:   -0.11 KCAL/MOL
REMARK 927      BINDING AFFINITY PREDICTED BY RF-SCORE:    0.00 PKD
ROOT
HETATM    1  C   UNL     1      -8.020  10.912  67.800  1.00  0.00    -0.111 C  
HETATM    2  C   UNL     1      -8.645  12.288  67.964  1.00  0.00    -0.176 C  
ENDROOT
BRANCH   2   3
HETATM    3  C   UNL     1      -7.845  13.353  67.213  1.00  0.00    -0.095 C  
BRANCH   3   4
HETATM    4  N   UNL     1      -8.407  14.687  67.381  1.00  0.00    -0.192 N  
HETATM    5  C   UNL     1      -9.290  15.216  66.462  1.00  0.00    -0.280 A  
HETATM    6  C   UNL     1      -9.820  16.461  66.619  1.00  0.00    -0.261 A  
HETATM    7  N   UNL     1     -10.644  16.646  65.548  1.00  0.00    -0.515 NA 
HETATM    8  C   UNL     1      -9.513  17.305  67.714  1.00  0.00    -0.255 C  
HETATM    9  N   UNL     1      -8.618  16.724  68.582  1.00  0.00    -0.254 N  
HETATM   10  O   UNL     1      -9.981  18.424  67.883  1.00  0.00    -0.318 OA 
HETATM   11  C   UNL     1     -10.569  15.502  64.797  1.00  0.00    -0.217 A  
HETATM   12  H   UNL     1     -11.206  17.473  65.346  1.00  0.00     0.000 HD 
HETATM   13  H   UNL     1      -8.351  17.278  69.396  1.00  0.00     0.000 HD 
HETATM   14  C   UNL     1      -8.038  15.470  68.475  1.00  0.00    -0.146 C  
HETATM   15  N   UNL     1      -9.751  14.615  65.330  1.00  0.00    -0.183 NA 
HETATM   16  O   UNL     1      -7.241  15.107  69.339  1.00  0.00    -0.168 OA 
ENDBRANCH   3   4
ENDBRANCH   2   3
TORSDOF 2
ENDMDL
MODEL      163
REMARK 921   NORMALIZED FREE ENERGY PREDICTED BY IDOCK:   -2.82 KCAL/MOL
REMARK 922        TOTAL FREE ENERGY PREDICTED BY IDOCK:   -3.27 KCAL/MOL
REMARK 923 INTER-LIGAND FREE ENERGY PREDICTED BY IDOCK:   -3.18 KCAL/MOL
REMARK 924 INTRA-LIGAND FREE ENERGY PREDICTED BY IDOCK:   -0.09 KCAL/MOL
REMARK 927      BINDING AFFINITY PREDICTED BY RF-SCORE:    0.00 PKD
ROOT
HETATM    1  C   UNL     1     -12.863  10.686  71.660  1.00  0.00    -0.570 C  
HETATM    2  C   UNL     1     -11.674  10.403  70.754  1.00  0.00    -0.464 C  
ENDROOT
BRANCH   2   3
HETATM    3  C   UNL     1     -11.982  10.777  69.304  1.00  0.00    -0.263 C  
BRANCH   3   4
HETATM    4  N   UNL     1     -10.776  10.883  68.493  1.00  0.00    -0.189 N  
HETATM    5  C   UNL     1     -10.174   9.767  67.951  1.00  0.00    -0.194 A  
HETATM    6  C   UNL     1      -9.048   9.864  67.189  1.00  0.00    -0.138 A  
HETATM    7  N   UNL     1      -8.745   8.588  66.819  1.00  0.00    -0.119 NA 
HETATM    8  C   UNL     1      -8.410  11.094  66.898  1.00  0.00    -0.147 C  
HETATM    9  N   UNL     1      -9.052  12.163  67.480  1.00  0.00    -0.174 N  
HETATM   10  O   UNL     1      -7.404  11.211  66.210  1.00  0.00    -0.127 OA 
HETATM   11  C   UNL     1      -9.702   7.782  67.378  1.00  0.00    -0.163 A  
HETATM   12  H   UNL     1      -7.958   8.290  66.240  1.00  0.00     0.000 HD 
HETATM   13  H   UNL     1      -8.645  13.083  67.312  1.00  0.00     0.000 HD 
HETATM   14  C   UNL     1     -10.191  12.129  68.269  1.00  0.00    -0.208 C  
HETATM   15  N   UNL     1     -10.584   8.474  68.074  1.00  0.00    -0.180 NA 
HETATM   16  O   UNL     1     -10.630  13.185  68.726  1.00  0.00    -0.248 OA 
ENDBRANCH   3   4
ENDBRANCH   2   3
TORSDOF 2
ENDMDL
MODEL      164
REMARK 921   NORMALIZED FREE ENERGY PREDICTED BY IDOCK:   -2.81 KCAL/MOL
REMARK 922        TOTAL FREE ENERGY PREDICTED BY IDOCK:   -3.27 KCAL/MOL
REMARK 923 INTER-LIGAND FREE ENERGY PREDICTED BY IDOCK:   -3.12 KCAL/MOL
REMARK 924 INTRA-LIGAND FREE ENERGY PREDICTED BY IDOCK:   -0.15 KCAL/MOL
REMARK 927      BINDING AFFINITY PREDICTED BY RF-SCORE:    0.00 PKD
ROOT
HETATM    1  C   UNL     1      -9.217   7.009  73.558  1.00  0.00    -0.195 C  
HETATM    2  C   UNL     1      -9.372   8.235  72.672  1.00  0.00    -0.350 C  
ENDROOT
BRANCH   2   3
HETATM    3  C   UNL     1      -8.472   8.146  71.440  1.00  0.00    -0.126 C  
BRANCH   3   4
HETATM    4  N   UNL     1      -9.211   7.765  70.243  1.00  0.00    -0.156 N  
HETATM    5  C   UNL     1      -9.915   8.695  69.506  1.00  0.00    -0.196 A  
HETATM    6  C   UNL     1     -10.602   8.342  68.384  1.00  0.00    -0.099 A  
HETATM    7  N   UNL     1     -11.158   9.495  67.917  1.00  0.00    -0.515 NA 
HETATM    8  C   UNL     1     -10.657   7.016  67.890  1.00  0.00    -0.218 C  
HETATM    9  N   UNL     1      -9.947   6.139  68.678  1.00  0.00    -0.140 N  
HETATM   10  O   UNL     1     -11.259   6.673  66.881  1.00  0.00    -0.391 OA 
HETATM   11  C   UNL     1     -10.778  10.489  68.781  1.00  0.00    -0.216 A  
HETATM   12  H   UNL     1     -11.742   9.599  67.086  1.00  0.00     0.000 HD 
HETATM   13  H   UNL     1      -9.943   5.163  68.381  1.00  0.00     0.000 HD 
HETATM   14  C   UNL     1      -9.236   6.433  69.831  1.00  0.00    -0.152 C  
HETATM   15  N   UNL     1     -10.022  10.028  69.759  1.00  0.00    -0.237 NA 
HETATM   16  O   UNL     1      -8.665   5.520  70.427  1.00  0.00    -0.126 OA 
ENDBRANCH   3   4
ENDBRANCH   2   3
TORSDOF 2
ENDMDL
MODEL      165
REMARK 921   NORMALIZED FREE ENERGY PREDICTED BY IDOCK:   -2.80 KCAL/MOL
REMARK 922        TOTAL FREE ENERGY PREDICTED BY IDOCK:   -3.25 KCAL/MOL
REMARK 923 INTER-LIGAND FREE ENERGY PREDICTED BY IDOCK:   -3.08 KCAL/MOL
REMARK 924 INTRA-LIGAND FREE ENERGY PREDICTED BY IDOCK:   -0.17 KCAL/MOL
REMARK 927      BINDING AFFINITY PREDICTED BY RF-SCORE:    0.00 PKD
ROOT
HETATM    1  C   UNL     1     -10.800   6.120  68.317  1.00  0.00    -0.387 C  
HETATM    2  C   UNL     1     -11.197   6.310  69.772  1.00  0.00    -0.499 C  
ENDROOT
BRANCH   2   3
HETATM    3  C   UNL     1     -11.069   7.773  70.195  1.00  0.00    -0.209 C  
BRANCH   3   4
HETATM    4  N   UNL     1     -10.107   7.954  71.275  1.00  0.00    -0.179 N  
HETATM    5  C   UNL     1      -8.772   8.188  71.018  1.00  0.00    -0.139 A  
HETATM    6  C   UNL     1      -7.872   8.362  72.026  1.00  0.00    -0.127 A  
HETATM    7  N   UNL     1      -6.674   8.578  71.414  1.00  0.00    -0.063 NA 
HETATM    8  C   UNL     1      -8.222   8.313  73.398  1.00  0.00    -0.178 C  
HETATM    9  N   UNL     1      -9.562   8.062  73.583  1.00  0.00    -0.248 N  
HETATM   10  O   UNL     1      -7.436   8.474  74.323  1.00  0.00    -0.297 OA 
HETATM   11  C   UNL     1      -6.910   8.523  70.065  1.00  0.00    -0.042 A  
HETATM   12  H   UNL     1      -5.777   8.747  71.871  1.00  0.00     0.000 HD 
HETATM   13  H   UNL     1      -9.885   8.013  74.550  1.00  0.00     0.000 HD 
HETATM   14  C   UNL     1     -10.523   7.869  72.604  1.00  0.00    -0.320 C  
HETATM   15  N   UNL     1      -8.179   8.285  69.796  1.00  0.00    -0.118 NA 
HETATM   16  O   UNL     1     -11.683   7.639  72.946  1.00  0.00    -0.280 OA 
ENDBRANCH   3   4
ENDBRANCH   2   3
TORSDOF 2
ENDMDL
MODEL      166
REMARK 921   NORMALIZED FREE ENERGY PREDICTED BY IDOCK:   -2.80 KCAL/MOL
REMARK 922        TOTAL FREE ENERGY PREDICTED BY IDOCK:   -3.25 KCAL/MOL
REMARK 923 INTER-LIGAND FREE ENERGY PREDICTED BY IDOCK:   -3.34 KCAL/MOL
REMARK 924 INTRA-LIGAND FREE ENERGY PREDICTED BY IDOCK:    0.09 KCAL/MOL
REMARK 927      BINDING AFFINITY PREDICTED BY RF-SCORE:    0.00 PKD
ROOT
HETATM    1  C   UNL     1     -11.109   5.876  70.499  1.00  0.00    -0.347 C  
HETATM    2  C   UNL     1     -11.854   6.832  71.417  1.00  0.00    -0.385 C  
ENDROOT
BRANCH   2   3
HETATM    3  C   UNL     1     -10.889   7.779  72.130  1.00  0.00    -0.257 C  
BRANCH   3   4
HETATM    4  N   UNL     1     -10.164   8.634  71.198  1.00  0.00    -0.212 N  
HETATM    5  C   UNL     1     -10.765   9.725  70.607  1.00  0.00    -0.326 A  
HETATM    6  C   UNL     1     -10.089  10.528  69.739  1.00  0.00    -0.081 A  
HETATM    7  N   UNL     1     -10.975  11.494  69.366  1.00  0.00    -0.386 NA 
HETATM    8  C   UNL     1      -8.738  10.312  69.372  1.00  0.00    -0.156 C  
HETATM    9  N   UNL     1      -8.204   9.202  69.985  1.00  0.00    -0.126 N  
HETATM   10  O   UNL     1      -8.104  11.022  68.602  1.00  0.00    -0.134 OA 
HETATM   11  C   UNL     1     -12.145  11.226  70.028  1.00  0.00    -0.348 A  
HETATM   12  H   UNL     1     -10.802  12.266  68.721  1.00  0.00     0.000 HD 
HETATM   13  H   UNL     1      -7.231   8.987  69.766  1.00  0.00     0.000 HD 
HETATM   14  C   UNL     1      -8.840   8.344  70.868  1.00  0.00    -0.159 C  
HETATM   15  N   UNL     1     -12.045  10.153  70.789  1.00  0.00    -0.318 NA 
HETATM   16  O   UNL     1      -8.216   7.383  71.317  1.00  0.00    -0.104 OA 
ENDBRANCH   3   4
ENDBRANCH   2   3
TORSDOF 2
ENDMDL
MODEL      167
REMARK 921   NORMALIZED FREE ENERGY PREDICTED BY IDOCK:   -2.79 KCAL/MOL
REMARK 922        TOTAL FREE ENERGY PREDICTED BY IDOCK:   -3.25 KCAL/MOL
REMARK 923 INTER-LIGAND FREE ENERGY PREDICTED BY IDOCK:   -3.15 KCAL/MOL
REMARK 924 INTRA-LIGAND FREE ENERGY PREDICTED BY IDOCK:   -0.10 KCAL/MOL
REMARK 927      BINDING AFFINITY PREDICTED BY RF-SCORE:    0.00 PKD
ROOT
HETATM    1  C   UNL     1     -10.805  11.851  66.790  1.00  0.00    -0.307 C  
HETATM    2  C   UNL     1      -9.466  11.471  67.404  1.00  0.00    -0.171 C  
ENDROOT
BRANCH   2   3
HETATM    3  C   UNL     1      -9.513  11.555  68.929  1.00  0.00    -0.013 C  
BRANCH   3   4
HETATM    4  N   UNL     1      -9.858  10.278  69.542  1.00  0.00    -0.231 N  
HETATM    5  C   UNL     1     -11.118  10.041  70.050  1.00  0.00    -0.295 A  
HETATM    6  C   UNL     1     -11.444   8.848  70.619  1.00  0.00    -0.242 A  
HETATM    7  N   UNL     1     -12.750   8.964  70.992  1.00  0.00    -0.497 NA 
HETATM    8  C   UNL     1     -10.533   7.770  70.742  1.00  0.00    -0.210 C  
HETATM    9  N   UNL     1      -9.293   8.078  70.231  1.00  0.00    -0.159 N  
HETATM   10  O   UNL     1     -10.802   6.685  71.242  1.00  0.00    -0.226 OA 
HETATM   11  C   UNL     1     -13.148  10.224  70.629  1.00  0.00    -0.226 A  
HETATM   12  H   UNL     1     -13.320   8.252  71.451  1.00  0.00     0.000 HD 
HETATM   13  H   UNL     1      -8.585   7.345  70.286  1.00  0.00     0.000 HD 
HETATM   14  C   UNL     1      -8.898   9.271  69.648  1.00  0.00    -0.155 C  
HETATM   15  N   UNL     1     -12.173  10.902  70.055  1.00  0.00    -0.337 NA 
HETATM   16  O   UNL     1      -7.738   9.385  69.253  1.00  0.00    -0.077 OA 
ENDBRANCH   3   4
ENDBRANCH   2   3
TORSDOF 2
ENDMDL
MODEL      168
REMARK 921   NORMALIZED FREE ENERGY PREDICTED BY IDOCK:   -2.79 KCAL/MOL
REMARK 922        TOTAL FREE ENERGY PREDICTED BY IDOCK:   -3.24 KCAL/MOL
REMARK 923 INTER-LIGAND FREE ENERGY PREDICTED BY IDOCK:   -3.23 KCAL/MOL
REMARK 924 INTRA-LIGAND FREE ENERGY PREDICTED BY IDOCK:   -0.02 KCAL/MOL
REMARK 927      BINDING AFFINITY PREDICTED BY RF-SCORE:    0.00 PKD
ROOT
HETATM    1  C   UNL     1     -12.379  10.386  70.984  1.00  0.00    -0.490 C  
HETATM    2  C   UNL     1     -10.981  10.083  70.467  1.00  0.00    -0.392 C  
ENDROOT
BRANCH   2   3
HETATM    3  C   UNL     1     -10.946  10.070  68.939  1.00  0.00    -0.207 C  
BRANCH   3   4
HETATM    4  N   UNL     1     -10.223  11.212  68.394  1.00  0.00    -0.181 N  
HETATM    5  C   UNL     1      -8.855  11.327  68.528  1.00  0.00    -0.159 A  
HETATM    6  C   UNL     1      -8.176  12.392  68.015  1.00  0.00    -0.168 A  
HETATM    7  N   UNL     1      -6.866  12.173  68.321  1.00  0.00    -0.063 NA 
HETATM    8  C   UNL     1      -8.805  13.452  67.318  1.00  0.00    -0.220 C  
HETATM    9  N   UNL     1     -10.168  13.281  67.233  1.00  0.00    -0.239 N  
HETATM   10  O   UNL     1      -8.219  14.415  66.840  1.00  0.00    -0.161 OA 
HETATM   11  C   UNL     1      -6.819  10.986  69.005  1.00  0.00    -0.084 A  
HETATM   12  H   UNL     1      -6.075  12.774  68.087  1.00  0.00     0.000 HD 
HETATM   13  H   UNL     1     -10.686  14.010  66.742  1.00  0.00     0.000 HD 
HETATM   14  C   UNL     1     -10.915  12.230  67.738  1.00  0.00    -0.232 C  
HETATM   15  N   UNL     1      -8.016  10.451  69.147  1.00  0.00    -0.130 NA 
HETATM   16  O   UNL     1     -12.136  12.240  67.585  1.00  0.00    -0.502 OA 
ENDBRANCH   3   4
ENDBRANCH   2   3
TORSDOF 2
ENDMDL
MODEL      169
REMARK 921   NORMALIZED FREE ENERGY PREDICTED BY IDOCK:   -2.79 KCAL/MOL
REMARK 922        TOTAL FREE ENERGY PREDICTED BY IDOCK:   -3.24 KCAL/MOL
REMARK 923 INTER-LIGAND FREE ENERGY PREDICTED BY IDOCK:   -3.13 KCAL/MOL
REMARK 924 INTRA-LIGAND FREE ENERGY PREDICTED BY IDOCK:   -0.11 KCAL/MOL
REMARK 927      BINDING AFFINITY PREDICTED BY RF-SCORE:    0.00 PKD
ROOT
HETATM    1  C   UNL     1      -6.184   7.808  63.949  1.00  0.00    -0.057 C  
HETATM    2  C   UNL     1      -7.497   8.423  64.405  1.00  0.00    -0.104 C  
ENDROOT
BRANCH   2   3
HETATM    3  C   UNL     1      -7.274   9.794  65.044  1.00  0.00    -0.127 C  
BRANCH   3   4
HETATM    4  N   UNL     1      -8.489  10.326  65.649  1.00  0.00    -0.153 N  
HETATM    5  C   UNL     1      -9.402  11.050  64.911  1.00  0.00    -0.214 A  
HETATM    6  C   UNL     1     -10.540  11.544  65.473  1.00  0.00    -0.281 A  
HETATM    7  N   UNL     1     -11.199  12.184  64.465  1.00  0.00    -0.318 NA 
HETATM    8  C   UNL     1     -10.875  11.366  66.837  1.00  0.00    -0.285 C  
HETATM    9  N   UNL     1      -9.917  10.649  67.517  1.00  0.00    -0.168 N  
HETATM   10  O   UNL     1     -11.894  11.792  67.366  1.00  0.00    -0.590 OA 
HETATM   11  C   UNL     1     -10.424  12.044  63.343  1.00  0.00    -0.433 A  
HETATM   12  H   UNL     1     -12.093  12.671  64.532  1.00  0.00     0.000 HD 
HETATM   13  H   UNL     1     -10.093  10.483  68.508  1.00  0.00     0.000 HD 
HETATM   14  C   UNL     1      -8.739  10.128  67.007  1.00  0.00    -0.132 C  
HETATM   15  N   UNL     1      -9.323  11.359  63.587  1.00  0.00    -0.169 NA 
HETATM   16  O   UNL     1      -7.981   9.520  67.762  1.00  0.00    -0.098 OA 
ENDBRANCH   3   4
ENDBRANCH   2   3
TORSDOF 2
ENDMDL
MODEL      170
REMARK 921   NORMALIZED FREE ENERGY PREDICTED BY IDOCK:   -2.79 KCAL/MOL
REMARK 922        TOTAL FREE ENERGY PREDICTED BY IDOCK:   -3.24 KCAL/MOL
REMARK 923 INTER-LIGAND FREE ENERGY PREDICTED BY IDOCK:   -3.09 KCAL/MOL
REMARK 924 INTRA-LIGAND FREE ENERGY PREDICTED BY IDOCK:   -0.16 KCAL/MOL
REMARK 927      BINDING AFFINITY PREDICTED BY RF-SCORE:    0.00 PKD
ROOT
HETATM    1  C   UNL     1      -5.860  10.333  64.838  1.00  0.00    -0.135 C  
HETATM    2  C   UNL     1      -7.175   9.655  65.190  1.00  0.00    -0.115 C  
ENDROOT
BRANCH   2   3
HETATM    3  C   UNL     1      -7.355   9.549  66.705  1.00  0.00    -0.090 C  
BRANCH   3   4
HETATM    4  N   UNL     1      -8.673   9.997  67.137  1.00  0.00    -0.128 N  
HETATM    5  C   UNL     1      -8.931  11.327  67.395  1.00  0.00    -0.144 A  
HETATM    6  C   UNL     1     -10.163  11.749  67.795  1.00  0.00    -0.191 A  
HETATM    7  N   UNL     1     -10.058  13.100  67.943  1.00  0.00    -0.226 NA 
HETATM    8  C   UNL     1     -11.262  10.875  67.982  1.00  0.00    -0.314 C  
HETATM    9  N   UNL     1     -10.932   9.564  67.722  1.00  0.00    -0.495 N  
HETATM   10  O   UNL     1     -12.381  11.228  68.332  1.00  0.00    -0.545 OA 
HETATM   11  C   UNL     1      -8.766  13.427  67.626  1.00  0.00    -0.198 A  
HETATM   12  H   UNL     1     -10.797  13.742  68.234  1.00  0.00     0.000 HD 
HETATM   13  H   UNL     1     -11.678   8.877  67.837  1.00  0.00     0.000 HD 
HETATM   14  C   UNL     1      -9.700   9.072  67.321  1.00  0.00    -0.179 C  
HETATM   15  N   UNL     1      -8.057  12.366  67.290  1.00  0.00    -0.177 NA 
HETATM   16  O   UNL     1      -9.572   7.861  67.145  1.00  0.00    -0.150 OA 
ENDBRANCH   3   4
ENDBRANCH   2   3
TORSDOF 2
ENDMDL
MODEL      171
REMARK 921   NORMALIZED FREE ENERGY PREDICTED BY IDOCK:   -2.78 KCAL/MOL
REMARK 922        TOTAL FREE ENERGY PREDICTED BY IDOCK:   -3.23 KCAL/MOL
REMARK 923 INTER-LIGAND FREE ENERGY PREDICTED BY IDOCK:   -3.22 KCAL/MOL
REMARK 924 INTRA-LIGAND FREE ENERGY PREDICTED BY IDOCK:   -0.01 KCAL/MOL
REMARK 927      BINDING AFFINITY PREDICTED BY RF-SCORE:    0.00 PKD
ROOT
HETATM    1  C   UNL     1      -9.387  17.955  67.651  1.00  0.00    -0.258 C  
HETATM    2  C   UNL     1     -10.765  17.320  67.761  1.00  0.00    -0.333 C  
ENDROOT
BRANCH   2   3
HETATM    3  C   UNL     1     -10.763  16.161  68.757  1.00  0.00    -0.294 C  
BRANCH   3   4
HETATM    4  N   UNL     1     -10.254  14.928  68.170  1.00  0.00    -0.223 N  
HETATM    5  C   UNL     1      -8.956  14.512  68.385  1.00  0.00    -0.186 A  
HETATM    6  C   UNL     1      -8.479  13.357  67.841  1.00  0.00    -0.173 A  
HETATM    7  N   UNL     1      -7.188  13.258  68.265  1.00  0.00    -0.096 NA 
HETATM    8  C   UNL     1      -9.257  12.505  67.019  1.00  0.00    -0.214 C  
HETATM    9  N   UNL     1     -10.533  12.986  66.834  1.00  0.00    -0.253 N  
HETATM   10  O   UNL     1      -8.857  11.459  66.525  1.00  0.00    -0.176 OA 
HETATM   11  C   UNL     1      -6.948  14.360  69.045  1.00  0.00    -0.114 A  
HETATM   12  H   UNL     1      -6.528  12.511  68.045  1.00  0.00     0.000 HD 
HETATM   13  H   UNL     1     -11.150  12.421  66.251  1.00  0.00     0.000 HD 
HETATM   14  C   UNL     1     -11.074  14.152  67.352  1.00  0.00    -0.306 C  
HETATM   15  N   UNL     1      -8.008  15.140  69.133  1.00  0.00    -0.191 NA 
HETATM   16  O   UNL     1     -12.237  14.443  67.073  1.00  0.00    -0.400 OA 
ENDBRANCH   3   4
ENDBRANCH   2   3
TORSDOF 2
ENDMDL
MODEL      172
REMARK 921   NORMALIZED FREE ENERGY PREDICTED BY IDOCK:   -2.78 KCAL/MOL
REMARK 922        TOTAL FREE ENERGY PREDICTED BY IDOCK:   -3.23 KCAL/MOL
REMARK 923 INTER-LIGAND FREE ENERGY PREDICTED BY IDOCK:   -3.19 KCAL/MOL
REMARK 924 INTRA-LIGAND FREE ENERGY PREDICTED BY IDOCK:   -0.04 KCAL/MOL
REMARK 927      BINDING AFFINITY PREDICTED BY RF-SCORE:    0.00 PKD
ROOT
HETATM    1  C   UNL     1     -12.972  14.295  65.693  1.00  0.00    -0.210 C  
HETATM    2  C   UNL     1     -12.213  13.981  64.414  1.00  0.00    -0.457 C  
ENDROOT
BRANCH   2   3
HETATM    3  C   UNL     1     -10.741  14.375  64.533  1.00  0.00    -0.214 C  
BRANCH   3   4
HETATM    4  N   UNL     1      -9.957  13.377  65.250  1.00  0.00    -0.223 N  
HETATM    5  C   UNL     1      -9.489  13.611  66.526  1.00  0.00    -0.259 A  
HETATM    6  C   UNL     1      -8.760  12.677  67.200  1.00  0.00    -0.201 A  
HETATM    7  N   UNL     1      -8.482  13.234  68.412  1.00  0.00    -0.249 NA 
HETATM    8  C   UNL     1      -8.423  11.414  66.656  1.00  0.00    -0.171 C  
HETATM    9  N   UNL     1      -8.907  11.252  65.379  1.00  0.00    -0.368 N  
HETATM   10  O   UNL     1      -7.777  10.554  67.242  1.00  0.00    -0.104 OA 
HETATM   11  C   UNL     1      -9.057  14.479  68.410  1.00  0.00    -0.191 A  
HETATM   12  H   UNL     1      -7.950  12.809  69.172  1.00  0.00     0.000 HD 
HETATM   13  H   UNL     1      -8.700  10.362  64.925  1.00  0.00     0.000 HD 
HETATM   14  C   UNL     1      -9.645  12.162  64.639  1.00  0.00     0.066 C  
HETATM   15  N   UNL     1      -9.675  14.734  67.273  1.00  0.00    -0.227 NA 
HETATM   16  O   UNL     1      -9.989  11.861  63.496  1.00  0.00    -0.380 OA 
ENDBRANCH   3   4
ENDBRANCH   2   3
TORSDOF 2
ENDMDL
MODEL      173
REMARK 921   NORMALIZED FREE ENERGY PREDICTED BY IDOCK:   -2.78 KCAL/MOL
REMARK 922        TOTAL FREE ENERGY PREDICTED BY IDOCK:   -3.23 KCAL/MOL
REMARK 923 INTER-LIGAND FREE ENERGY PREDICTED BY IDOCK:   -3.17 KCAL/MOL
REMARK 924 INTRA-LIGAND FREE ENERGY PREDICTED BY IDOCK:   -0.05 KCAL/MOL
REMARK 927      BINDING AFFINITY PREDICTED BY RF-SCORE:    0.00 PKD
ROOT
HETATM    1  C   UNL     1      -7.925   6.993  71.777  1.00  0.00    -0.099 C  
HETATM    2  C   UNL     1      -8.127   8.407  71.257  1.00  0.00    -0.152 C  
ENDROOT
BRANCH   2   3
HETATM    3  C   UNL     1      -8.137   8.439  69.729  1.00  0.00    -0.117 C  
BRANCH   3   4
HETATM    4  N   UNL     1      -9.184   9.306  69.201  1.00  0.00    -0.146 N  
HETATM    5  C   UNL     1      -8.893  10.551  68.683  1.00  0.00    -0.147 A  
HETATM    6  C   UNL     1      -9.869  11.360  68.186  1.00  0.00    -0.191 A  
HETATM    7  N   UNL     1      -9.229  12.485  67.757  1.00  0.00    -0.190 NA 
HETATM    8  C   UNL     1     -11.240  11.003  68.163  1.00  0.00    -0.302 C  
HETATM    9  N   UNL     1     -11.461   9.759  68.707  1.00  0.00    -0.477 N  
HETATM   10  O   UNL     1     -12.135  11.708  67.715  1.00  0.00    -0.613 OA 
HETATM   11  C   UNL     1      -7.897  12.298  68.018  1.00  0.00    -0.147 A  
HETATM   12  H   UNL     1      -9.658  13.305  67.326  1.00  0.00     0.000 HD 
HETATM   13  H   UNL     1     -12.429   9.437  68.723  1.00  0.00     0.000 HD 
HETATM   14  C   UNL     1     -10.516   8.894  69.234  1.00  0.00    -0.224 C  
HETATM   15  N   UNL     1      -7.665  11.129  68.584  1.00  0.00    -0.127 NA 
HETATM   16  O   UNL     1     -10.889   7.815  69.697  1.00  0.00    -0.244 OA 
ENDBRANCH   3   4
ENDBRANCH   2   3
TORSDOF 2
ENDMDL
MODEL      174
REMARK 921   NORMALIZED FREE ENERGY PREDICTED BY IDOCK:   -2.77 KCAL/MOL
REMARK 922        TOTAL FREE ENERGY PREDICTED BY IDOCK:   -3.22 KCAL/MOL
REMARK 923 INTER-LIGAND FREE ENERGY PREDICTED BY IDOCK:   -3.27 KCAL/MOL
REMARK 924 INTRA-LIGAND FREE ENERGY PREDICTED BY IDOCK:    0.04 KCAL/MOL
REMARK 927      BINDING AFFINITY PREDICTED BY RF-SCORE:    0.00 PKD
ROOT
HETATM    1  C   UNL     1      -6.109   9.609  67.963  1.00  0.00    -0.051 C  
HETATM    2  C   UNL     1      -6.958   9.104  69.119  1.00  0.00    -0.058 C  
ENDROOT
BRANCH   2   3
HETATM    3  C   UNL     1      -8.125  10.048  69.402  1.00  0.00    -0.149 C  
BRANCH   3   4
HETATM    4  N   UNL     1      -9.270   9.354  69.979  1.00  0.00    -0.202 N  
HETATM    5  C   UNL     1      -9.229   8.841  71.259  1.00  0.00    -0.241 A  
HETATM    6  C   UNL     1     -10.299   8.195  71.802  1.00  0.00    -0.230 A  
HETATM    7  N   UNL     1      -9.913   7.840  73.060  1.00  0.00    -0.269 NA 
HETATM    8  C   UNL     1     -11.519   7.995  71.111  1.00  0.00    -0.276 C  
HETATM    9  N   UNL     1     -11.487   8.517  69.839  1.00  0.00    -0.448 N  
HETATM   10  O   UNL     1     -12.498   7.426  71.578  1.00  0.00    -0.328 OA 
HETATM   11  C   UNL     1      -8.627   8.289  73.214  1.00  0.00    -0.203 A  
HETATM   12  H   UNL     1     -10.471   7.338  73.752  1.00  0.00     0.000 HD 
HETATM   13  H   UNL     1     -12.335   8.408  69.282  1.00  0.00     0.000 HD 
HETATM   14  C   UNL     1     -10.431   9.175  69.228  1.00  0.00    -0.221 C  
HETATM   15  N   UNL     1      -8.186   8.900  72.132  1.00  0.00    -0.368 NA 
HETATM   16  O   UNL     1     -10.566   9.569  68.070  1.00  0.00    -0.222 OA 
ENDBRANCH   3   4
ENDBRANCH   2   3
TORSDOF 2
ENDMDL
MODEL      175
REMARK 921   NORMALIZED FREE ENERGY PREDICTED BY IDOCK:   -2.77 KCAL/MOL
REMARK 922        TOTAL FREE ENERGY PREDICTED BY IDOCK:   -3.21 KCAL/MOL
REMARK 923 INTER-LIGAND FREE ENERGY PREDICTED BY IDOCK:   -3.14 KCAL/MOL
REMARK 924 INTRA-LIGAND FREE ENERGY PREDICTED BY IDOCK:   -0.07 KCAL/MOL
REMARK 927      BINDING AFFINITY PREDICTED BY RF-SCORE:    0.00 PKD
ROOT
HETATM    1  C   UNL     1      -5.934  14.231  70.044  1.00  0.00    -0.141 C  
HETATM    2  C   UNL     1      -6.589  15.346  69.245  1.00  0.00    -0.143 C  
ENDROOT
BRANCH   2   3
HETATM    3  C   UNL     1      -6.425  15.122  67.742  1.00  0.00    -0.161 C  
BRANCH   3   4
HETATM    4  N   UNL     1      -7.701  15.137  67.038  1.00  0.00    -0.183 N  
HETATM    5  C   UNL     1      -8.572  14.070  67.105  1.00  0.00    -0.205 A  
HETATM    6  C   UNL     1      -9.767  14.084  66.452  1.00  0.00    -0.296 A  
HETATM    7  N   UNL     1     -10.360  12.892  66.746  1.00  0.00    -0.243 NA 
HETATM    8  C   UNL     1     -10.207  15.171  65.658  1.00  0.00    -0.361 C  
HETATM    9  N   UNL     1      -9.287  16.193  65.623  1.00  0.00    -0.164 N  
HETATM   10  O   UNL     1     -11.279  15.213  65.068  1.00  0.00    -0.376 OA 
HETATM   11  C   UNL     1      -9.491  12.216  67.564  1.00  0.00    -0.180 A  
HETATM   12  H   UNL     1     -11.271  12.566  66.422  1.00  0.00     0.000 HD 
HETATM   13  H   UNL     1      -9.539  17.011  65.068  1.00  0.00     0.000 HD 
HETATM   14  C   UNL     1      -8.056  16.237  66.256  1.00  0.00    -0.232 C  
HETATM   15  N   UNL     1      -8.394  12.910  67.797  1.00  0.00    -0.164 NA 
HETATM   16  O   UNL     1      -7.344  17.230  66.106  1.00  0.00    -0.295 OA 
ENDBRANCH   3   4
ENDBRANCH   2   3
TORSDOF 2
ENDMDL
MODEL      176
REMARK 921   NORMALIZED FREE ENERGY PREDICTED BY IDOCK:   -2.76 KCAL/MOL
REMARK 922        TOTAL FREE ENERGY PREDICTED BY IDOCK:   -3.21 KCAL/MOL
REMARK 923 INTER-LIGAND FREE ENERGY PREDICTED BY IDOCK:   -3.07 KCAL/MOL
REMARK 924 INTRA-LIGAND FREE ENERGY PREDICTED BY IDOCK:   -0.14 KCAL/MOL
REMARK 927      BINDING AFFINITY PREDICTED BY RF-SCORE:    0.00 PKD
ROOT
HETATM    1  C   UNL     1     -10.731   6.060  68.395  1.00  0.00    -0.351 C  
HETATM    2  C   UNL     1     -11.051   6.155  69.879  1.00  0.00    -0.481 C  
ENDROOT
BRANCH   2   3
HETATM    3  C   UNL     1     -10.953   7.598  70.375  1.00  0.00    -0.247 C  
BRANCH   3   4
HETATM    4  N   UNL     1      -9.766   7.822  71.191  1.00  0.00    -0.159 N  
HETATM    5  C   UNL     1      -9.730   7.460  72.522  1.00  0.00    -0.160 A  
HETATM    6  C   UNL     1      -8.621   7.664  73.286  1.00  0.00    -0.177 A  
HETATM    7  N   UNL     1      -8.934   7.184  74.522  1.00  0.00    -0.339 NA 
HETATM    8  C   UNL     1      -7.434   8.259  72.791  1.00  0.00    -0.108 C  
HETATM    9  N   UNL     1      -7.543   8.608  71.464  1.00  0.00    -0.108 N  
HETATM   10  O   UNL     1      -6.421   8.446  73.453  1.00  0.00    -0.107 OA 
HETATM   11  C   UNL     1     -10.219   6.714  74.444  1.00  0.00    -0.262 A  
HETATM   12  H   UNL     1      -8.331   7.177  75.346  1.00  0.00     0.000 HD 
HETATM   13  H   UNL     1      -6.723   9.043  71.041  1.00  0.00     0.000 HD 
HETATM   14  C   UNL     1      -8.642   8.435  70.638  1.00  0.00    -0.141 C  
HETATM   15  N   UNL     1     -10.728   6.871  73.237  1.00  0.00    -0.308 NA 
HETATM   16  O   UNL     1      -8.575   8.820  69.471  1.00  0.00    -0.125 OA 
ENDBRANCH   3   4
ENDBRANCH   2   3
TORSDOF 2
ENDMDL
MODEL      177
REMARK 921   NORMALIZED FREE ENERGY PREDICTED BY IDOCK:   -2.76 KCAL/MOL
REMARK 922        TOTAL FREE ENERGY PREDICTED BY IDOCK:   -3.21 KCAL/MOL
REMARK 923 INTER-LIGAND FREE ENERGY PREDICTED BY IDOCK:   -3.04 KCAL/MOL
REMARK 924 INTRA-LIGAND FREE ENERGY PREDICTED BY IDOCK:   -0.17 KCAL/MOL
REMARK 927      BINDING AFFINITY PREDICTED BY RF-SCORE:    0.00 PKD
ROOT
HETATM    1  C   UNL     1      -8.900   3.264  67.477  1.00  0.00    -0.156 C  
HETATM    2  C   UNL     1      -9.292   3.130  68.940  1.00  0.00    -0.231 C  
ENDROOT
BRANCH   2   3
HETATM    3  C   UNL     1      -8.694   4.259  69.779  1.00  0.00    -0.073 C  
BRANCH   3   4
HETATM    4  N   UNL     1      -9.713   5.167  70.289  1.00  0.00    -0.186 N  
HETATM    5  C   UNL     1     -10.040   6.329  69.621  1.00  0.00    -0.174 A  
HETATM    6  C   UNL     1     -10.995   7.178  70.094  1.00  0.00    -0.267 A  
HETATM    7  N   UNL     1     -11.060   8.196  69.191  1.00  0.00    -0.424 NA 
HETATM    8  C   UNL     1     -11.717   6.947  71.291  1.00  0.00    -0.328 C  
HETATM    9  N   UNL     1     -11.332   5.782  71.913  1.00  0.00    -0.243 N  
HETATM   10  O   UNL     1     -12.585   7.688  71.734  1.00  0.00    -0.314 OA 
HETATM   11  C   UNL     1     -10.139   7.912  68.216  1.00  0.00    -0.194 A  
HETATM   12  H   UNL     1     -11.674   9.011  69.232  1.00  0.00     0.000 HD 
HETATM   13  H   UNL     1     -11.812   5.552  72.784  1.00  0.00     0.000 HD 
HETATM   14  C   UNL     1     -10.366   4.884  71.489  1.00  0.00    -0.158 C  
HETATM   15  N   UNL     1      -9.503   6.782  68.455  1.00  0.00    -0.127 NA 
HETATM   16  O   UNL     1     -10.134   3.890  72.177  1.00  0.00    -0.168 OA 
ENDBRANCH   3   4
ENDBRANCH   2   3
TORSDOF 2
ENDMDL
MODEL      178
REMARK 921   NORMALIZED FREE ENERGY PREDICTED BY IDOCK:   -2.74 KCAL/MOL
REMARK 922        TOTAL FREE ENERGY PREDICTED BY IDOCK:   -3.19 KCAL/MOL
REMARK 923 INTER-LIGAND FREE ENERGY PREDICTED BY IDOCK:   -3.13 KCAL/MOL
REMARK 924 INTRA-LIGAND FREE ENERGY PREDICTED BY IDOCK:   -0.06 KCAL/MOL
REMARK 927      BINDING AFFINITY PREDICTED BY RF-SCORE:    0.00 PKD
ROOT
HETATM    1  C   UNL     1      -8.528   8.485  65.891  1.00  0.00    -0.164 C  
HETATM    2  C   UNL     1      -9.386   9.643  66.376  1.00  0.00    -0.224 C  
ENDROOT
BRANCH   2   3
HETATM    3  C   UNL     1      -8.940  10.963  65.748  1.00  0.00    -0.193 C  
BRANCH   3   4
HETATM    4  N   UNL     1      -9.532  12.118  66.412  1.00  0.00    -0.230 N  
HETATM    5  C   UNL     1      -8.833  12.840  67.358  1.00  0.00    -0.190 A  
HETATM    6  C   UNL     1      -9.382  13.922  67.977  1.00  0.00    -0.204 A  
HETATM    7  N   UNL     1      -8.422  14.386  68.825  1.00  0.00    -0.243 NA 
HETATM    8  C   UNL     1     -10.693  14.388  67.712  1.00  0.00    -0.248 C  
HETATM    9  N   UNL     1     -11.338  13.616  66.772  1.00  0.00    -0.318 N  
HETATM   10  O   UNL     1     -11.208  15.362  68.246  1.00  0.00    -0.293 OA 
HETATM   11  C   UNL     1      -7.339  13.558  68.677  1.00  0.00    -0.112 A  
HETATM   12  H   UNL     1      -8.494  15.191  69.449  1.00  0.00     0.000 HD 
HETATM   13  H   UNL     1     -12.289  13.895  66.532  1.00  0.00     0.000 HD 
HETATM   14  C   UNL     1     -10.839  12.503  66.115  1.00  0.00    -0.272 C  
HETATM   15  N   UNL     1      -7.563  12.607  67.791  1.00  0.00    -0.127 NA 
HETATM   16  O   UNL     1     -11.559  11.916  65.307  1.00  0.00    -0.306 OA 
ENDBRANCH   3   4
ENDBRANCH   2   3
TORSDOF 2
ENDMDL
MODEL      179
REMARK 921   NORMALIZED FREE ENERGY PREDICTED BY IDOCK:   -2.70 KCAL/MOL
REMARK 922        TOTAL FREE ENERGY PREDICTED BY IDOCK:   -3.14 KCAL/MOL
REMARK 923 INTER-LIGAND FREE ENERGY PREDICTED BY IDOCK:   -2.98 KCAL/MOL
REMARK 924 INTRA-LIGAND FREE ENERGY PREDICTED BY IDOCK:   -0.16 KCAL/MOL
REMARK 927      BINDING AFFINITY PREDICTED BY RF-SCORE:    0.00 PKD
ROOT
HETATM    1  C   UNL     1      -6.913   9.665  66.307  1.00  0.00    -0.092 C  
HETATM    2  C   UNL     1      -7.234   9.410  67.771  1.00  0.00    -0.083 C  
ENDROOT
BRANCH   2   3
HETATM    3  C   UNL     1      -8.661   9.842  68.109  1.00  0.00    -0.119 C  
BRANCH   3   4
HETATM    4  N   UNL     1      -9.375   8.834  68.882  1.00  0.00    -0.144 N  
HETATM    5  C   UNL     1     -10.117   7.847  68.266  1.00  0.00    -0.194 A  
HETATM    6  C   UNL     1     -10.782   6.902  68.987  1.00  0.00    -0.230 A  
HETATM    7  N   UNL     1     -11.388   6.098  68.067  1.00  0.00    -0.431 NA 
HETATM    8  C   UNL     1     -10.774   6.854  70.402  1.00  0.00    -0.246 C  
HETATM    9  N   UNL     1     -10.029   7.872  70.952  1.00  0.00    -0.182 N  
HETATM   10  O   UNL     1     -11.355   6.011  71.074  1.00  0.00    -0.295 OA 
HETATM   11  C   UNL     1     -11.058   6.601  66.835  1.00  0.00    -0.249 A  
HETATM   12  H   UNL     1     -11.972   5.283  68.258  1.00  0.00     0.000 HD 
HETATM   13  H   UNL     1      -9.979   7.898  71.970  1.00  0.00     0.000 HD 
HETATM   14  C   UNL     1      -9.338   8.865  70.277  1.00  0.00    -0.185 C  
HETATM   15  N   UNL     1     -10.287   7.666  66.928  1.00  0.00    -0.314 NA 
HETATM   16  O   UNL     1      -8.729   9.714  70.927  1.00  0.00    -0.220 OA 
ENDBRANCH   3   4
ENDBRANCH   2   3
TORSDOF 2
ENDMDL
MODEL      180
REMARK 921   NORMALIZED FREE ENERGY PREDICTED BY IDOCK:   -2.70 KCAL/MOL
REMARK 922        TOTAL FREE ENERGY PREDICTED BY IDOCK:   -3.14 KCAL/MOL
REMARK 923 INTER-LIGAND FREE ENERGY PREDICTED BY IDOCK:   -3.07 KCAL/MOL
REMARK 924 INTRA-LIGAND FREE ENERGY PREDICTED BY IDOCK:   -0.07 KCAL/MOL
REMARK 927      BINDING AFFINITY PREDICTED BY RF-SCORE:    0.00 PKD
ROOT
HETATM    1  C   UNL     1     -11.065   6.098  66.736  1.00  0.00    -0.230 C  
HETATM    2  C   UNL     1     -10.566   6.806  67.985  1.00  0.00    -0.283 C  
ENDROOT
BRANCH   2   3
HETATM    3  C   UNL     1     -11.404   6.429  69.207  1.00  0.00    -0.338 C  
BRANCH   3   4
HETATM    4  N   UNL     1     -10.789   6.867  70.454  1.00  0.00    -0.248 N  
HETATM    5  C   UNL     1     -10.070   5.995  71.246  1.00  0.00    -0.192 A  
HETATM    6  C   UNL     1      -9.492   6.403  72.410  1.00  0.00    -0.143 A  
HETATM    7  N   UNL     1      -8.865   5.302  72.913  1.00  0.00    -0.121 NA 
HETATM    8  C   UNL     1      -9.581   7.728  72.901  1.00  0.00    -0.242 C  
HETATM    9  N   UNL     1     -10.323   8.539  72.072  1.00  0.00    -0.309 N  
HETATM   10  O   UNL     1      -9.065   8.123  73.938  1.00  0.00    -0.213 OA 
HETATM   11  C   UNL     1      -9.098   4.282  72.027  1.00  0.00    -0.121 A  
HETATM   12  H   UNL     1      -8.329   5.247  73.780  1.00  0.00     0.000 HD 
HETATM   13  H   UNL     1     -10.429   9.511  72.366  1.00  0.00     0.000 HD 
HETATM   14  C   UNL     1     -10.941   8.185  70.884  1.00  0.00    -0.242 C  
HETATM   15  N   UNL     1      -9.831   4.677  71.003  1.00  0.00    -0.187 NA 
HETATM   16  O   UNL     1     -11.583   9.037  70.270  1.00  0.00    -0.195 OA 
ENDBRANCH   3   4
ENDBRANCH   2   3
TORSDOF 2
ENDMDL
MODEL      181
REMARK 921   NORMALIZED FREE ENERGY PREDICTED BY IDOCK:   -2.67 KCAL/MOL
REMARK 922        TOTAL FREE ENERGY PREDICTED BY IDOCK:   -3.11 KCAL/MOL
REMARK 923 INTER-LIGAND FREE ENERGY PREDICTED BY IDOCK:   -2.95 KCAL/MOL
REMARK 924 INTRA-LIGAND FREE ENERGY PREDICTED BY IDOCK:   -0.16 KCAL/MOL
REMARK 927      BINDING AFFINITY PREDICTED BY RF-SCORE:    0.00 PKD
ROOT
HETATM    1  C   UNL     1      -8.970   5.748  72.855  1.00  0.00    -0.123 C  
HETATM    2  C   UNL     1      -8.967   5.028  71.516  1.00  0.00    -0.157 C  
ENDROOT
BRANCH   2   3
HETATM    3  C   UNL     1     -10.335   5.113  70.839  1.00  0.00    -0.212 C  
BRANCH   3   4
HETATM    4  N   UNL     1     -10.341   6.051  69.723  1.00  0.00    -0.206 N  
HETATM    5  C   UNL     1     -10.705   7.370  69.895  1.00  0.00    -0.243 A  
HETATM    6  C   UNL     1     -10.708   8.250  68.854  1.00  0.00    -0.062 A  
HETATM    7  N   UNL     1     -11.103   9.442  69.383  1.00  0.00    -0.416 NA 
HETATM    8  C   UNL     1     -10.350   7.891  67.531  1.00  0.00    -0.259 C  
HETATM    9  N   UNL     1     -10.013   6.560  67.428  1.00  0.00    -0.133 N  
HETATM   10  O   UNL     1     -10.336   8.662  66.580  1.00  0.00    -0.289 OA 
HETATM   11  C   UNL     1     -11.319   9.223  70.719  1.00  0.00    -0.287 A  
HETATM   12  H   UNL     1     -11.215  10.325  68.883  1.00  0.00     0.000 HD 
HETATM   13  H   UNL     1      -9.744   6.232  66.500  1.00  0.00     0.000 HD 
HETATM   14  C   UNL     1      -9.998   5.617  68.442  1.00  0.00    -0.156 C  
HETATM   15  N   UNL     1     -11.087   7.970  71.056  1.00  0.00    -0.249 NA 
HETATM   16  O   UNL     1      -9.683   4.458  68.173  1.00  0.00    -0.159 OA 
ENDBRANCH   3   4
ENDBRANCH   2   3
TORSDOF 2
ENDMDL
MODEL      182
REMARK 921   NORMALIZED FREE ENERGY PREDICTED BY IDOCK:   -2.67 KCAL/MOL
REMARK 922        TOTAL FREE ENERGY PREDICTED BY IDOCK:   -3.10 KCAL/MOL
REMARK 923 INTER-LIGAND FREE ENERGY PREDICTED BY IDOCK:   -3.08 KCAL/MOL
REMARK 924 INTRA-LIGAND FREE ENERGY PREDICTED BY IDOCK:   -0.02 KCAL/MOL
REMARK 927      BINDING AFFINITY PREDICTED BY RF-SCORE:    0.00 PKD
ROOT
HETATM    1  C   UNL     1      -5.993  10.533  67.039  1.00  0.00    -0.053 C  
HETATM    2  C   UNL     1      -6.704  10.166  68.333  1.00  0.00    -0.054 C  
ENDROOT
BRANCH   2   3
HETATM    3  C   UNL     1      -7.339  11.394  68.984  1.00  0.00    -0.108 C  
BRANCH   3   4
HETATM    4  N   UNL     1      -8.618  11.741  68.378  1.00  0.00    -0.164 N  
HETATM    5  C   UNL     1      -9.732  10.944  68.542  1.00  0.00    -0.183 A  
HETATM    6  C   UNL     1     -10.930  11.269  67.980  1.00  0.00    -0.247 A  
HETATM    7  N   UNL     1     -11.790  10.280  68.354  1.00  0.00    -0.717 NA 
HETATM    8  C   UNL     1     -11.129  12.427  67.191  1.00  0.00    -0.280 C  
HETATM    9  N   UNL     1      -9.978  13.168  67.055  1.00  0.00    -0.239 N  
HETATM   10  O   UNL     1     -12.196  12.747  66.681  1.00  0.00    -0.481 OA 
HETATM   11  C   UNL     1     -11.067   9.405  69.123  1.00  0.00    -0.013 A  
HETATM   12  H   UNL     1     -12.778  10.204  68.109  1.00  0.00     0.000 HD 
HETATM   13  H   UNL     1     -10.049  14.019  66.497  1.00  0.00     0.000 HD 
HETATM   14  C   UNL     1      -8.732  12.888  67.593  1.00  0.00    -0.185 C  
HETATM   15  N   UNL     1      -9.811   9.785  69.253  1.00  0.00    -0.188 NA 
HETATM   16  O   UNL     1      -7.798  13.655  67.360  1.00  0.00    -0.166 OA 
ENDBRANCH   3   4
ENDBRANCH   2   3
TORSDOF 2
ENDMDL
MODEL      183
REMARK 921   NORMALIZED FREE ENERGY PREDICTED BY IDOCK:   -2.65 KCAL/MOL
REMARK 922        TOTAL FREE ENERGY PREDICTED BY IDOCK:   -3.08 KCAL/MOL
REMARK 923 INTER-LIGAND FREE ENERGY PREDICTED BY IDOCK:   -3.08 KCAL/MOL
REMARK 924 INTRA-LIGAND FREE ENERGY PREDICTED BY IDOCK:   -0.01 KCAL/MOL
REMARK 927      BINDING AFFINITY PREDICTED BY RF-SCORE:    0.00 PKD
ROOT
HETATM    1  C   UNL     1     -11.431  12.762  69.079  1.00  0.00    -0.360 C  
HETATM    2  C   UNL     1     -11.742  12.213  67.695  1.00  0.00    -0.386 C  
ENDROOT
BRANCH   2   3
HETATM    3  C   UNL     1     -10.875  12.880  66.627  1.00  0.00    -0.267 C  
BRANCH   3   4
HETATM    4  N   UNL     1      -9.495  12.412  66.664  1.00  0.00    -0.227 N  
HETATM    5  C   UNL     1      -9.161  11.128  66.287  1.00  0.00    -0.194 A  
HETATM    6  C   UNL     1      -7.871  10.690  66.316  1.00  0.00    -0.150 A  
HETATM    7  N   UNL     1      -7.911   9.401  65.874  1.00  0.00    -0.105 NA 
HETATM    8  C   UNL     1      -6.785  11.497  66.735  1.00  0.00    -0.121 C  
HETATM    9  N   UNL     1      -7.189  12.758  67.111  1.00  0.00    -0.356 N  
HETATM   10  O   UNL     1      -5.616  11.132  66.763  1.00  0.00    -0.071 OA 
HETATM   11  C   UNL     1      -9.226   9.125  65.600  1.00  0.00    -0.234 A  
HETATM   12  H   UNL     1      -7.119   8.767  65.769  1.00  0.00     0.000 HD 
HETATM   13  H   UNL     1      -6.456  13.394  67.424  1.00  0.00     0.000 HD 
HETATM   14  C   UNL     1      -8.480  13.259  67.111  1.00  0.00    -0.176 C  
HETATM   15  N   UNL     1     -10.008  10.159  65.844  1.00  0.00    -0.257 NA 
HETATM   16  O   UNL     1      -8.671  14.413  67.495  1.00  0.00    -0.175 OA 
ENDBRANCH   3   4
ENDBRANCH   2   3
TORSDOF 2
ENDMDL
MODEL      184
REMARK 921   NORMALIZED FREE ENERGY PREDICTED BY IDOCK:   -2.64 KCAL/MOL
REMARK 922        TOTAL FREE ENERGY PREDICTED BY IDOCK:   -3.08 KCAL/MOL
REMARK 923 INTER-LIGAND FREE ENERGY PREDICTED BY IDOCK:   -3.67 KCAL/MOL
REMARK 924 INTRA-LIGAND FREE ENERGY PREDICTED BY IDOCK:    0.60 KCAL/MOL
REMARK 927      BINDING AFFINITY PREDICTED BY RF-SCORE:    0.00 PKD
ROOT
HETATM    1  C   UNL     1     -11.356  15.313  71.564  1.00  0.00    -0.432 C  
HETATM    2  C   UNL     1     -11.280  15.823  70.133  1.00  0.00    -0.357 C  
ENDROOT
BRANCH   2   3
HETATM    3  C   UNL     1      -9.885  15.615  69.544  1.00  0.00    -0.289 C  
BRANCH   3   4
HETATM    4  N   UNL     1      -9.548  16.628  68.552  1.00  0.00    -0.233 N  
HETATM    5  C   UNL     1      -8.297  17.209  68.515  1.00  0.00    -0.262 A  
HETATM    6  C   UNL     1      -7.978  18.154  67.587  1.00  0.00    -0.233 A  
HETATM    7  N   UNL     1      -6.681  18.490  67.838  1.00  0.00    -0.212 NA 
HETATM    8  C   UNL     1      -8.886  18.615  66.602  1.00  0.00    -0.302 C  
HETATM    9  N   UNL     1     -10.116  18.006  66.705  1.00  0.00    -0.353 N  
HETATM   10  O   UNL     1      -8.623  19.455  65.752  1.00  0.00    -0.405 OA 
HETATM   11  C   UNL     1      -6.282  17.732  68.907  1.00  0.00    -0.209 A  
HETATM   12  H   UNL     1      -6.118  19.173  67.329  1.00  0.00     0.000 HD 
HETATM   13  H   UNL     1     -10.821  18.291  66.025  1.00  0.00     0.000 HD 
HETATM   14  C   UNL     1     -10.504  17.048  67.628  1.00  0.00    -0.343 C  
HETATM   15  N   UNL     1      -7.247  16.945  69.341  1.00  0.00    -0.170 NA 
HETATM   16  O   UNL     1     -11.656  16.615  67.588  1.00  0.00     0.124 OA 
ENDBRANCH   3   4
ENDBRANCH   2   3
TORSDOF 2
ENDMDL
MODEL      185
REMARK 921   NORMALIZED FREE ENERGY PREDICTED BY IDOCK:   -2.61 KCAL/MOL
REMARK 922        TOTAL FREE ENERGY PREDICTED BY IDOCK:   -3.04 KCAL/MOL
REMARK 923 INTER-LIGAND FREE ENERGY PREDICTED BY IDOCK:   -2.87 KCAL/MOL
REMARK 924 INTRA-LIGAND FREE ENERGY PREDICTED BY IDOCK:   -0.17 KCAL/MOL
REMARK 927      BINDING AFFINITY PREDICTED BY RF-SCORE:    0.00 PKD
ROOT
HETATM    1  C   UNL     1     -10.401   5.145  67.831  1.00  0.00    -0.148 C  
HETATM    2  C   UNL     1      -9.226   5.042  68.790  1.00  0.00    -0.160 C  
ENDROOT
BRANCH   2   3
HETATM    3  C   UNL     1      -9.689   4.647  70.192  1.00  0.00    -0.215 C  
BRANCH   3   4
HETATM    4  N   UNL     1      -9.417   5.687  71.177  1.00  0.00    -0.156 N  
HETATM    5  C   UNL     1     -10.342   6.670  71.459  1.00  0.00    -0.209 A  
HETATM    6  C   UNL     1     -10.092   7.640  72.382  1.00  0.00    -0.211 A  
HETATM    7  N   UNL     1     -11.210   8.419  72.407  1.00  0.00    -0.371 NA 
HETATM    8  C   UNL     1      -8.882   7.724  73.113  1.00  0.00    -0.204 C  
HETATM    9  N   UNL     1      -8.000   6.724  72.774  1.00  0.00    -0.099 N  
HETATM   10  O   UNL     1      -8.635   8.579  73.954  1.00  0.00    -0.279 OA 
HETATM   11  C   UNL     1     -12.081   7.881  71.496  1.00  0.00    -0.306 A  
HETATM   12  H   UNL     1     -11.368   9.242  72.990  1.00  0.00     0.000 HD 
HETATM   13  H   UNL     1      -7.105   6.724  73.264  1.00  0.00     0.000 HD 
HETATM   14  C   UNL     1      -8.191   5.717  71.842  1.00  0.00    -0.119 C  
HETATM   15  N   UNL     1     -11.577   6.816  70.903  1.00  0.00    -0.333 NA 
HETATM   16  O   UNL     1      -7.286   4.905  71.649  1.00  0.00    -0.061 OA 
ENDBRANCH   3   4
ENDBRANCH   2   3
TORSDOF 2
ENDMDL
MODEL      186
REMARK 921   NORMALIZED FREE ENERGY PREDICTED BY IDOCK:   -2.58 KCAL/MOL
REMARK 922        TOTAL FREE ENERGY PREDICTED BY IDOCK:   -3.00 KCAL/MOL
REMARK 923 INTER-LIGAND FREE ENERGY PREDICTED BY IDOCK:   -2.88 KCAL/MOL
REMARK 924 INTRA-LIGAND FREE ENERGY PREDICTED BY IDOCK:   -0.12 KCAL/MOL
REMARK 927      BINDING AFFINITY PREDICTED BY RF-SCORE:    0.00 PKD
ROOT
HETATM    1  C   UNL     1      -8.397   3.750  66.301  1.00  0.00    -0.105 C  
HETATM    2  C   UNL     1      -9.503   4.119  67.278  1.00  0.00    -0.220 C  
ENDROOT
BRANCH   2   3
HETATM    3  C   UNL     1     -10.388   5.232  66.717  1.00  0.00    -0.273 C  
BRANCH   3   4
HETATM    4  N   UNL     1     -10.128   6.518  67.351  1.00  0.00    -0.146 N  
HETATM    5  C   UNL     1     -10.630   6.818  68.600  1.00  0.00    -0.227 A  
HETATM    6  C   UNL     1     -10.384   8.018  69.197  1.00  0.00    -0.220 A  
HETATM    7  N   UNL     1     -11.015   7.962  70.405  1.00  0.00    -0.249 NA 
HETATM    8  C   UNL     1      -9.612   9.042  68.596  1.00  0.00    -0.153 C  
HETATM    9  N   UNL     1      -9.156   8.684  67.349  1.00  0.00    -0.132 N  
HETATM   10  O   UNL     1      -9.369  10.125  69.114  1.00  0.00    -0.174 OA 
HETATM   11  C   UNL     1     -11.611   6.730  70.476  1.00  0.00    -0.372 A  
HETATM   12  H   UNL     1     -11.038   8.694  71.116  1.00  0.00     0.000 HD 
HETATM   13  H   UNL     1      -8.591   9.376  66.857  1.00  0.00     0.000 HD 
HETATM   14  C   UNL     1      -9.377   7.487  66.686  1.00  0.00    -0.174 C  
HETATM   15  N   UNL     1     -11.394   6.014  69.390  1.00  0.00    -0.348 NA 
HETATM   16  O   UNL     1      -8.903   7.334  65.560  1.00  0.00    -0.087 OA 
ENDBRANCH   3   4
ENDBRANCH   2   3
TORSDOF 2
ENDMDL
MODEL      187
REMARK 921   NORMALIZED FREE ENERGY PREDICTED BY IDOCK:   -2.57 KCAL/MOL
REMARK 922        TOTAL FREE ENERGY PREDICTED BY IDOCK:   -3.00 KCAL/MOL
REMARK 923 INTER-LIGAND FREE ENERGY PREDICTED BY IDOCK:   -2.86 KCAL/MOL
REMARK 924 INTRA-LIGAND FREE ENERGY PREDICTED BY IDOCK:   -0.14 KCAL/MOL
REMARK 927      BINDING AFFINITY PREDICTED BY RF-SCORE:    0.00 PKD
ROOT
HETATM    1  C   UNL     1      -5.770   8.570  71.706  1.00  0.00    -0.045 C  
HETATM    2  C   UNL     1      -6.831   8.528  70.617  1.00  0.00    -0.041 C  
ENDROOT
BRANCH   2   3
HETATM    3  C   UNL     1      -8.151   9.121  71.108  1.00  0.00    -0.085 C  
BRANCH   3   4
HETATM    4  N   UNL     1      -9.074   8.097  71.582  1.00  0.00    -0.149 N  
HETATM    5  C   UNL     1      -9.834   7.352  70.704  1.00  0.00    -0.179 A  
HETATM    6  C   UNL     1     -10.694   6.391  71.145  1.00  0.00    -0.244 A  
HETATM    7  N   UNL     1     -11.256   5.861  70.023  1.00  0.00    -0.346 NA 
HETATM    8  C   UNL     1     -10.882   6.086  72.515  1.00  0.00    -0.247 C  
HETATM    9  N   UNL     1     -10.107   6.874  73.334  1.00  0.00    -0.228 N  
HETATM   10  O   UNL     1     -11.642   5.223  72.937  1.00  0.00    -0.310 OA 
HETATM   11  C   UNL     1     -10.708   6.528  68.959  1.00  0.00    -0.278 A  
HETATM   12  H   UNL     1     -11.950   5.113  69.982  1.00  0.00     0.000 HD 
HETATM   13  H   UNL     1     -10.193   6.707  74.337  1.00  0.00     0.000 HD 
HETATM   14  C   UNL     1      -9.223   7.869  72.950  1.00  0.00    -0.235 C  
HETATM   15  N   UNL     1      -9.840   7.443  69.346  1.00  0.00    -0.166 NA 
HETATM   16  O   UNL     1      -8.615   8.493  73.819  1.00  0.00    -0.307 OA 
ENDBRANCH   3   4
ENDBRANCH   2   3
TORSDOF 2
ENDMDL
MODEL      188
REMARK 921   NORMALIZED FREE ENERGY PREDICTED BY IDOCK:   -2.57 KCAL/MOL
REMARK 922        TOTAL FREE ENERGY PREDICTED BY IDOCK:   -2.99 KCAL/MOL
REMARK 923 INTER-LIGAND FREE ENERGY PREDICTED BY IDOCK:   -3.94 KCAL/MOL
REMARK 924 INTRA-LIGAND FREE ENERGY PREDICTED BY IDOCK:    0.94 KCAL/MOL
REMARK 927      BINDING AFFINITY PREDICTED BY RF-SCORE:    0.00 PKD
ROOT
HETATM    1  C   UNL     1     -12.204  10.820  69.825  1.00  0.00    -0.359 C  
HETATM    2  C   UNL     1     -10.813  11.212  69.351  1.00  0.00    -0.264 C  
ENDROOT
BRANCH   2   3
HETATM    3  C   UNL     1     -10.205  10.126  68.463  1.00  0.00    -0.174 C  
BRANCH   3   4
HETATM    4  N   UNL     1     -10.140  10.529  67.064  1.00  0.00    -0.204 N  
HETATM    5  C   UNL     1     -10.230  11.855  66.692  1.00  0.00    -0.208 A  
HETATM    6  C   UNL     1     -10.165  12.234  65.385  1.00  0.00    -0.270 A  
HETATM    7  N   UNL     1     -10.275  13.593  65.393  1.00  0.00    -0.369 NA 
HETATM    8  C   UNL     1     -10.007  11.318  64.317  1.00  0.00    -0.297 C  
HETATM    9  N   UNL     1      -9.939  10.016  64.755  1.00  0.00    -0.385 N  
HETATM   10  O   UNL     1      -9.937  11.633  63.135  1.00  0.00    -0.390 OA 
HETATM   11  C   UNL     1     -10.403  13.966  66.705  1.00  0.00    -0.272 A  
HETATM   12  H   UNL     1     -10.265  14.210  64.580  1.00  0.00     0.000 HD 
HETATM   13  H   UNL     1      -9.825   9.301  64.036  1.00  0.00     0.000 HD 
HETATM   14  C   UNL     1     -10.006   9.566  66.064  1.00  0.00    -0.278 C  
HETATM   15  N   UNL     1     -10.380  12.927  67.517  1.00  0.00    -0.222 NA 
HETATM   16  O   UNL     1      -9.942   8.356  66.281  1.00  0.00    -0.245 OA 
ENDBRANCH   3   4
ENDBRANCH   2   3
TORSDOF 2
ENDMDL
MODEL      189
REMARK 921   NORMALIZED FREE ENERGY PREDICTED BY IDOCK:   -2.57 KCAL/MOL
REMARK 922        TOTAL FREE ENERGY PREDICTED BY IDOCK:   -2.99 KCAL/MOL
REMARK 923 INTER-LIGAND FREE ENERGY PREDICTED BY IDOCK:   -2.87 KCAL/MOL
REMARK 924 INTRA-LIGAND FREE ENERGY PREDICTED BY IDOCK:   -0.12 KCAL/MOL
REMARK 927      BINDING AFFINITY PREDICTED BY RF-SCORE:    0.00 PKD
ROOT
HETATM    1  C   UNL     1     -11.210   1.961  73.290  1.00  0.00    -0.269 C  
HETATM    2  C   UNL     1     -10.549   3.257  72.845  1.00  0.00    -0.209 C  
ENDROOT
BRANCH   2   3
HETATM    3  C   UNL     1     -10.905   4.410  73.782  1.00  0.00    -0.287 C  
BRANCH   3   4
HETATM    4  N   UNL     1     -10.414   5.692  73.292  1.00  0.00    -0.214 N  
HETATM    5  C   UNL     1      -9.177   6.178  73.663  1.00  0.00    -0.128 A  
HETATM    6  C   UNL     1      -8.714   7.373  73.203  1.00  0.00    -0.144 A  
HETATM    7  N   UNL     1      -7.478   7.525  73.757  1.00  0.00    -0.100 NA 
HETATM    8  C   UNL     1      -9.450   8.207  72.326  1.00  0.00    -0.245 C  
HETATM    9  N   UNL     1     -10.676   7.671  72.008  1.00  0.00    -0.218 N  
HETATM   10  O   UNL     1      -9.054   9.281  71.891  1.00  0.00    -0.290 OA 
HETATM   11  C   UNL     1      -7.256   6.412  74.526  1.00  0.00    -0.100 A  
HETATM   12  H   UNL     1      -6.842   8.313  73.626  1.00  0.00     0.000 HD 
HETATM   13  H   UNL     1     -11.261   8.220  71.378  1.00  0.00     0.000 HD 
HETATM   14  C   UNL     1     -11.207   6.469  72.447  1.00  0.00    -0.275 C  
HETATM   15  N   UNL     1      -8.276   5.576  74.488  1.00  0.00    -0.106 NA 
HETATM   16  O   UNL     1     -12.334   6.144  72.074  1.00  0.00    -0.290 OA 
ENDBRANCH   3   4
ENDBRANCH   2   3
TORSDOF 2
ENDMDL
MODEL      190
REMARK 921   NORMALIZED FREE ENERGY PREDICTED BY IDOCK:   -2.56 KCAL/MOL
REMARK 922        TOTAL FREE ENERGY PREDICTED BY IDOCK:   -2.99 KCAL/MOL
REMARK 923 INTER-LIGAND FREE ENERGY PREDICTED BY IDOCK:   -2.91 KCAL/MOL
REMARK 924 INTRA-LIGAND FREE ENERGY PREDICTED BY IDOCK:   -0.08 KCAL/MOL
REMARK 927      BINDING AFFINITY PREDICTED BY RF-SCORE:    0.00 PKD
ROOT
HETATM    1  C   UNL     1      -5.789   6.535  66.837  1.00  0.00    -0.014 C  
HETATM    2  C   UNL     1      -7.068   6.220  67.597  1.00  0.00    -0.081 C  
ENDROOT
BRANCH   2   3
HETATM    3  C   UNL     1      -8.155   7.253  67.303  1.00  0.00    -0.112 C  
BRANCH   3   4
HETATM    4  N   UNL     1      -9.261   7.177  68.250  1.00  0.00    -0.133 N  
HETATM    5  C   UNL     1      -9.176   7.749  69.502  1.00  0.00    -0.149 A  
HETATM    6  C   UNL     1     -10.210   7.682  70.387  1.00  0.00    -0.203 A  
HETATM    7  N   UNL     1      -9.787   8.353  71.496  1.00  0.00    -0.189 NA 
HETATM    8  C   UNL     1     -11.434   7.027  70.105  1.00  0.00    -0.256 C  
HETATM    9  N   UNL     1     -11.445   6.467  68.848  1.00  0.00    -0.608 N  
HETATM   10  O   UNL     1     -12.381   6.960  70.878  1.00  0.00    -0.386 OA 
HETATM   11  C   UNL     1      -8.517   8.791  71.225  1.00  0.00    -0.186 A  
HETATM   12  H   UNL     1     -10.312   8.499  72.358  1.00  0.00     0.000 HD 
HETATM   13  H   UNL     1     -12.299   5.978  68.578  1.00  0.00     0.000 HD 
HETATM   14  C   UNL     1     -10.428   6.493  67.908  1.00  0.00    -0.222 C  
HETATM   15  N   UNL     1      -8.120   8.436  70.018  1.00  0.00    -0.112 NA 
HETATM   16  O   UNL     1     -10.600   5.925  66.830  1.00  0.00    -0.259 OA 
ENDBRANCH   3   4
ENDBRANCH   2   3
TORSDOF 2
ENDMDL
MODEL      191
REMARK 921   NORMALIZED FREE ENERGY PREDICTED BY IDOCK:   -2.56 KCAL/MOL
REMARK 922        TOTAL FREE ENERGY PREDICTED BY IDOCK:   -2.98 KCAL/MOL
REMARK 923 INTER-LIGAND FREE ENERGY PREDICTED BY IDOCK:   -2.92 KCAL/MOL
REMARK 924 INTRA-LIGAND FREE ENERGY PREDICTED BY IDOCK:   -0.05 KCAL/MOL
REMARK 927      BINDING AFFINITY PREDICTED BY RF-SCORE:    0.00 PKD
ROOT
HETATM    1  C   UNL     1     -11.612  12.851  69.183  1.00  0.00    -0.375 C  
HETATM    2  C   UNL     1     -11.799  12.720  67.679  1.00  0.00    -0.396 C  
ENDROOT
BRANCH   2   3
HETATM    3  C   UNL     1     -10.737  13.514  66.919  1.00  0.00    -0.274 C  
BRANCH   3   4
HETATM    4  N   UNL     1      -9.508  12.754  66.730  1.00  0.00    -0.237 N  
HETATM    5  C   UNL     1      -8.359  13.059  67.430  1.00  0.00    -0.194 A  
HETATM    6  C   UNL     1      -7.210  12.347  67.258  1.00  0.00    -0.125 A  
HETATM    7  N   UNL     1      -6.301  12.909  68.103  1.00  0.00    -0.084 NA 
HETATM    8  C   UNL     1      -7.098  11.258  66.360  1.00  0.00    -0.053 C  
HETATM    9  N   UNL     1      -8.273  11.018  65.685  1.00  0.00    -0.336 N  
HETATM   10  O   UNL     1      -6.081  10.596  66.192  1.00  0.00    -0.097 OA 
HETATM   11  C   UNL     1      -6.946  13.935  68.743  1.00  0.00    -0.108 A  
HETATM   12  H   UNL     1      -5.330  12.624  68.233  1.00  0.00     0.000 HD 
HETATM   13  H   UNL     1      -8.263  10.244  65.019  1.00  0.00     0.000 HD 
HETATM   14  C   UNL     1      -9.468  11.707  65.808  1.00  0.00    -0.226 C  
HETATM   15  N   UNL     1      -8.200  14.049  68.351  1.00  0.00    -0.147 NA 
HETATM   16  O   UNL     1     -10.425  11.368  65.114  1.00  0.00    -0.273 OA 
ENDBRANCH   3   4
ENDBRANCH   2   3
TORSDOF 2
ENDMDL
MODEL      192
REMARK 921   NORMALIZED FREE ENERGY PREDICTED BY IDOCK:   -2.55 KCAL/MOL
REMARK 922        TOTAL FREE ENERGY PREDICTED BY IDOCK:   -2.97 KCAL/MOL
REMARK 923 INTER-LIGAND FREE ENERGY PREDICTED BY IDOCK:   -2.87 KCAL/MOL
REMARK 924 INTRA-LIGAND FREE ENERGY PREDICTED BY IDOCK:   -0.11 KCAL/MOL
REMARK 927      BINDING AFFINITY PREDICTED BY RF-SCORE:    0.00 PKD
ROOT
HETATM    1  C   UNL     1      -7.595   5.231  71.567  1.00  0.00    -0.102 C  
HETATM    2  C   UNL     1      -8.174   6.613  71.304  1.00  0.00    -0.120 C  
ENDROOT
BRANCH   2   3
HETATM    3  C   UNL     1      -7.629   7.202  70.003  1.00  0.00    -0.091 C  
BRANCH   3   4
HETATM    4  N   UNL     1      -8.603   8.053  69.331  1.00  0.00    -0.135 N  
HETATM    5  C   UNL     1      -9.397   7.571  68.312  1.00  0.00    -0.141 A  
HETATM    6  C   UNL     1     -10.312   8.364  67.685  1.00  0.00    -0.252 A  
HETATM    7  N   UNL     1     -10.912   7.568  66.756  1.00  0.00    -0.475 NA 
HETATM    8  C   UNL     1     -10.518   9.726  68.017  1.00  0.00    -0.226 C  
HETATM    9  N   UNL     1      -9.685  10.145  69.030  1.00  0.00    -0.195 N  
HETATM   10  O   UNL     1     -11.337  10.457  67.477  1.00  0.00    -0.374 OA 
HETATM   11  C   UNL     1     -10.328   6.332  66.867  1.00  0.00    -0.244 A  
HETATM   12  H   UNL     1     -11.650   7.838  66.105  1.00  0.00     0.000 HD 
HETATM   13  H   UNL     1      -9.779  11.118  69.321  1.00  0.00     0.000 HD 
HETATM   14  C   UNL     1      -8.733   9.393  69.699  1.00  0.00    -0.167 C  
HETATM   15  N   UNL     1      -9.402   6.307  67.805  1.00  0.00    -0.115 NA 
HETATM   16  O   UNL     1      -8.058   9.931  70.576  1.00  0.00    -0.230 OA 
ENDBRANCH   3   4
ENDBRANCH   2   3
TORSDOF 2
ENDMDL
MODEL      193
REMARK 921   NORMALIZED FREE ENERGY PREDICTED BY IDOCK:   -2.53 KCAL/MOL
REMARK 922        TOTAL FREE ENERGY PREDICTED BY IDOCK:   -2.95 KCAL/MOL
REMARK 923 INTER-LIGAND FREE ENERGY PREDICTED BY IDOCK:   -2.87 KCAL/MOL
REMARK 924 INTRA-LIGAND FREE ENERGY PREDICTED BY IDOCK:   -0.08 KCAL/MOL
REMARK 927      BINDING AFFINITY PREDICTED BY RF-SCORE:    0.00 PKD
ROOT
HETATM    1  C   UNL     1      -8.229  11.896  68.417  1.00  0.00    -0.160 C  
HETATM    2  C   UNL     1      -8.471  10.527  69.035  1.00  0.00    -0.159 C  
ENDROOT
BRANCH   2   3
HETATM    3  C   UNL     1      -9.816   9.951  68.593  1.00  0.00    -0.158 C  
BRANCH   3   4
HETATM    4  N   UNL     1     -10.051   8.619  69.136  1.00  0.00    -0.193 N  
HETATM    5  C   UNL     1     -10.799   8.429  70.279  1.00  0.00    -0.239 A  
HETATM    6  C   UNL     1     -11.023   7.185  70.786  1.00  0.00    -0.252 A  
HETATM    7  N   UNL     1     -11.795   7.373  71.894  1.00  0.00    -0.287 NA 
HETATM    8  C   UNL     1     -10.514   6.002  70.196  1.00  0.00    -0.246 C  
HETATM    9  N   UNL     1      -9.768   6.263  69.070  1.00  0.00    -0.129 N  
HETATM   10  O   UNL     1     -10.708   4.871  70.625  1.00  0.00    -0.093 OA 
HETATM   11  C   UNL     1     -11.998   8.725  72.002  1.00  0.00    -0.376 A  
HETATM   12  H   UNL     1     -12.152   6.651  72.520  1.00  0.00     0.000 HD 
HETATM   13  H   UNL     1      -9.369   5.454  68.593  1.00  0.00     0.000 HD 
HETATM   14  C   UNL     1      -9.497   7.501  68.511  1.00  0.00    -0.146 C  
HETATM   15  N   UNL     1     -11.401   9.391  71.033  1.00  0.00    -0.306 NA 
HETATM   16  O   UNL     1      -8.794   7.558  67.502  1.00  0.00    -0.127 OA 
ENDBRANCH   3   4
ENDBRANCH   2   3
TORSDOF 2
ENDMDL
MODEL      194
REMARK 921   NORMALIZED FREE ENERGY PREDICTED BY IDOCK:   -2.52 KCAL/MOL
REMARK 922        TOTAL FREE ENERGY PREDICTED BY IDOCK:   -2.94 KCAL/MOL
REMARK 923 INTER-LIGAND FREE ENERGY PREDICTED BY IDOCK:   -2.78 KCAL/MOL
REMARK 924 INTRA-LIGAND FREE ENERGY PREDICTED BY IDOCK:   -0.16 KCAL/MOL
REMARK 927      BINDING AFFINITY PREDICTED BY RF-SCORE:    0.00 PKD
ROOT
HETATM    1  C   UNL     1      -9.309   8.507  66.325  1.00  0.00    -0.287 C  
HETATM    2  C   UNL     1     -10.292   7.810  67.252  1.00  0.00    -0.371 C  
ENDROOT
BRANCH   2   3
HETATM    3  C   UNL     1     -10.697   8.718  68.413  1.00  0.00    -0.062 C  
BRANCH   3   4
HETATM    4  N   UNL     1     -10.128   8.280  69.682  1.00  0.00    -0.194 N  
HETATM    5  C   UNL     1      -8.929   8.780  70.143  1.00  0.00    -0.166 A  
HETATM    6  C   UNL     1      -8.398   8.375  71.331  1.00  0.00    -0.145 A  
HETATM    7  N   UNL     1      -7.235   9.073  71.469  1.00  0.00    -0.277 NA 
HETATM    8  C   UNL     1      -9.016   7.420  72.174  1.00  0.00    -0.131 C  
HETATM    9  N   UNL     1     -10.199   6.952  71.648  1.00  0.00    -0.191 N  
HETATM   10  O   UNL     1      -8.565   7.045  73.249  1.00  0.00    -0.121 OA 
HETATM   11  C   UNL     1      -7.121   9.865  70.356  1.00  0.00    -0.139 A  
HETATM   12  H   UNL     1      -6.577   9.017  72.248  1.00  0.00     0.000 HD 
HETATM   13  H   UNL     1     -10.699   6.259  72.205  1.00  0.00     0.000 HD 
HETATM   14  C   UNL     1     -10.786   7.317  70.448  1.00  0.00    -0.236 C  
HETATM   15  N   UNL     1      -8.138   9.705  69.532  1.00  0.00    -0.114 NA 
HETATM   16  O   UNL     1     -11.847   6.786  70.119  1.00  0.00    -0.349 OA 
ENDBRANCH   3   4
ENDBRANCH   2   3
TORSDOF 2
ENDMDL
MODEL      195
REMARK 921   NORMALIZED FREE ENERGY PREDICTED BY IDOCK:   -2.51 KCAL/MOL
REMARK 922        TOTAL FREE ENERGY PREDICTED BY IDOCK:   -2.93 KCAL/MOL
REMARK 923 INTER-LIGAND FREE ENERGY PREDICTED BY IDOCK:   -3.46 KCAL/MOL
REMARK 924 INTRA-LIGAND FREE ENERGY PREDICTED BY IDOCK:    0.53 KCAL/MOL
REMARK 927      BINDING AFFINITY PREDICTED BY RF-SCORE:    0.00 PKD
ROOT
HETATM    1  C   UNL     1      -7.859   9.353  67.374  1.00  0.00    -0.102 C  
HETATM    2  C   UNL     1      -8.112  10.669  66.655  1.00  0.00    -0.136 C  
ENDROOT
BRANCH   2   3
HETATM    3  C   UNL     1      -8.888  11.643  67.540  1.00  0.00    -0.158 C  
BRANCH   3   4
HETATM    4  N   UNL     1      -9.465  12.744  66.777  1.00  0.00    -0.237 N  
HETATM    5  C   UNL     1      -9.429  14.040  67.247  1.00  0.00    -0.231 A  
HETATM    6  C   UNL     1      -9.963  15.071  66.534  1.00  0.00    -0.263 A  
HETATM    7  N   UNL     1      -9.742  16.188  67.283  1.00  0.00    -0.231 NA 
HETATM    8  C   UNL     1     -10.593  14.902  65.277  1.00  0.00    -0.401 C  
HETATM    9  N   UNL     1     -10.607  13.586  64.875  1.00  0.00    -0.373 N  
HETATM   10  O   UNL     1     -11.073  15.811  64.612  1.00  0.00    -0.445 OA 
HETATM   11  C   UNL     1      -9.085  15.775  68.413  1.00  0.00    -0.188 A  
HETATM   12  H   UNL     1     -10.012  17.144  67.049  1.00  0.00     0.000 HD 
HETATM   13  H   UNL     1     -11.047  13.392  63.975  1.00  0.00     0.000 HD 
HETATM   14  C   UNL     1     -10.090  12.496  65.555  1.00  0.00    -0.265 C  
HETATM   15  N   UNL     1      -8.883  14.472  68.417  1.00  0.00    -0.175 NA 
HETATM   16  O   UNL     1     -10.200  11.376  65.056  1.00  0.00    -0.251 OA 
ENDBRANCH   3   4
ENDBRANCH   2   3
TORSDOF 2
ENDMDL
MODEL      196
REMARK 921   NORMALIZED FREE ENERGY PREDICTED BY IDOCK:   -2.51 KCAL/MOL
REMARK 922        TOTAL FREE ENERGY PREDICTED BY IDOCK:   -2.93 KCAL/MOL
REMARK 923 INTER-LIGAND FREE ENERGY PREDICTED BY IDOCK:   -3.25 KCAL/MOL
REMARK 924 INTRA-LIGAND FREE ENERGY PREDICTED BY IDOCK:    0.32 KCAL/MOL
REMARK 927      BINDING AFFINITY PREDICTED BY RF-SCORE:    0.00 PKD
ROOT
HETATM    1  C   UNL     1      -9.667   8.615  66.777  1.00  0.00    -0.298 C  
HETATM    2  C   UNL     1     -10.724   8.586  67.870  1.00  0.00    -0.148 C  
ENDROOT
BRANCH   2   3
HETATM    3  C   UNL     1     -10.426   9.619  68.956  1.00  0.00    -0.213 C  
BRANCH   3   4
HETATM    4  N   UNL     1      -9.752  10.798  68.427  1.00  0.00    -0.168 N  
HETATM    5  C   UNL     1     -10.415  11.708  67.631  1.00  0.00    -0.191 A  
HETATM    6  C   UNL     1      -9.788  12.814  67.139  1.00  0.00    -0.216 A  
HETATM    7  N   UNL     1     -10.733  13.480  66.417  1.00  0.00    -0.286 NA 
HETATM    8  C   UNL     1      -8.428  13.114  67.393  1.00  0.00    -0.201 C  
HETATM    9  N   UNL     1      -7.824  12.160  68.180  1.00  0.00    -0.138 N  
HETATM   10  O   UNL     1      -7.843  14.104  66.971  1.00  0.00    -0.102 OA 
HETATM   11  C   UNL     1     -11.885  12.743  66.509  1.00  0.00    -0.405 A  
HETATM   12  H   UNL     1     -10.608  14.356  65.908  1.00  0.00     0.000 HD 
HETATM   13  H   UNL     1      -6.840  12.313  68.403  1.00  0.00     0.000 HD 
HETATM   14  C   UNL     1      -8.402  11.015  68.703  1.00  0.00    -0.153 C  
HETATM   15  N   UNL     1     -11.718  11.658  67.240  1.00  0.00    -0.611 NA 
HETATM   16  O   UNL     1      -7.710  10.255  69.380  1.00  0.00    -0.117 OA 
ENDBRANCH   3   4
ENDBRANCH   2   3
TORSDOF 2
ENDMDL
MODEL      197
REMARK 921   NORMALIZED FREE ENERGY PREDICTED BY IDOCK:   -2.51 KCAL/MOL
REMARK 922        TOTAL FREE ENERGY PREDICTED BY IDOCK:   -2.93 KCAL/MOL
REMARK 923 INTER-LIGAND FREE ENERGY PREDICTED BY IDOCK:   -2.93 KCAL/MOL
REMARK 924 INTRA-LIGAND FREE ENERGY PREDICTED BY IDOCK:    0.01 KCAL/MOL
REMARK 927      BINDING AFFINITY PREDICTED BY RF-SCORE:    0.00 PKD
ROOT
HETATM    1  C   UNL     1      -7.389  17.031  66.761  1.00  0.00    -0.266 C  
HETATM    2  C   UNL     1      -7.059  15.791  67.577  1.00  0.00    -0.215 C  
ENDROOT
BRANCH   2   3
HETATM    3  C   UNL     1      -8.087  15.567  68.685  1.00  0.00    -0.159 C  
BRANCH   3   4
HETATM    4  N   UNL     1      -8.708  14.251  68.606  1.00  0.00    -0.175 N  
HETATM    5  C   UNL     1     -10.026  14.100  68.228  1.00  0.00    -0.241 A  
HETATM    6  C   UNL     1     -10.608  12.870  68.149  1.00  0.00    -0.237 A  
HETATM    7  N   UNL     1     -11.889  13.097  67.743  1.00  0.00    -0.355 NA 
HETATM    8  C   UNL     1      -9.925  11.666  68.446  1.00  0.00    -0.201 C  
HETATM    9  N   UNL     1      -8.622  11.890  68.829  1.00  0.00    -0.360 N  
HETATM   10  O   UNL     1     -10.420  10.549  68.375  1.00  0.00    -0.168 OA 
HETATM   11  C   UNL     1     -12.018  14.454  67.598  1.00  0.00    -0.343 A  
HETATM   12  H   UNL     1     -12.611  12.394  67.579  1.00  0.00     0.000 HD 
HETATM   13  H   UNL     1      -8.069  11.064  69.059  1.00  0.00     0.000 HD 
HETATM   14  C   UNL     1      -7.976  13.111  68.937  1.00  0.00     0.159 C  
HETATM   15  N   UNL     1     -10.899  15.088  67.889  1.00  0.00    -0.272 NA 
HETATM   16  O   UNL     1      -6.803  13.133  69.309  1.00  0.00    -0.098 OA 
ENDBRANCH   3   4
ENDBRANCH   2   3
TORSDOF 2
ENDMDL
MODEL      198
REMARK 921   NORMALIZED FREE ENERGY PREDICTED BY IDOCK:   -2.50 KCAL/MOL
REMARK 922        TOTAL FREE ENERGY PREDICTED BY IDOCK:   -2.92 KCAL/MOL
REMARK 923 INTER-LIGAND FREE ENERGY PREDICTED BY IDOCK:   -2.90 KCAL/MOL
REMARK 924 INTRA-LIGAND FREE ENERGY PREDICTED BY IDOCK:   -0.03 KCAL/MOL
REMARK 927      BINDING AFFINITY PREDICTED BY RF-SCORE:    0.00 PKD
ROOT
HETATM    1  C   UNL     1     -10.809  13.390  64.518  1.00  0.00    -0.419 C  
HETATM    2  C   UNL     1     -10.700  12.690  65.863  1.00  0.00    -0.293 C  
ENDROOT
BRANCH   2   3
HETATM    3  C   UNL     1      -9.849  11.425  65.761  1.00  0.00    -0.232 C  
BRANCH   3   4
HETATM    4  N   UNL     1      -9.395  10.957  67.065  1.00  0.00    -0.163 N  
HETATM    5  C   UNL     1      -8.390  11.606  67.752  1.00  0.00    -0.143 A  
HETATM    6  C   UNL     1      -7.968  11.173  68.973  1.00  0.00    -0.086 A  
HETATM    7  N   UNL     1      -6.990  12.044  69.352  1.00  0.00    -0.306 NA 
HETATM    8  C   UNL     1      -8.510  10.040  69.627  1.00  0.00    -0.180 C  
HETATM    9  N   UNL     1      -9.495   9.433  68.882  1.00  0.00    -0.152 N  
HETATM   10  O   UNL     1      -8.155   9.635  70.727  1.00  0.00    -0.279 OA 
HETATM   11  C   UNL     1      -6.869  12.959  68.339  1.00  0.00    -0.096 A  
HETATM   12  H   UNL     1      -6.452  12.019  70.219  1.00  0.00     0.000 HD 
HETATM   13  H   UNL     1      -9.931   8.607  69.294  1.00  0.00     0.000 HD 
HETATM   14  C   UNL     1      -9.962   9.818  67.636  1.00  0.00    -0.174 C  
HETATM   15  N   UNL     1      -7.709  12.715  67.352  1.00  0.00    -0.161 NA 
HETATM   16  O   UNL     1     -10.846   9.149  67.099  1.00  0.00    -0.212 OA 
ENDBRANCH   3   4
ENDBRANCH   2   3
TORSDOF 2
ENDMDL
MODEL      199
REMARK 921   NORMALIZED FREE ENERGY PREDICTED BY IDOCK:   -2.49 KCAL/MOL
REMARK 922        TOTAL FREE ENERGY PREDICTED BY IDOCK:   -2.91 KCAL/MOL
REMARK 923 INTER-LIGAND FREE ENERGY PREDICTED BY IDOCK:   -2.76 KCAL/MOL
REMARK 924 INTRA-LIGAND FREE ENERGY PREDICTED BY IDOCK:   -0.15 KCAL/MOL
REMARK 927      BINDING AFFINITY PREDICTED BY RF-SCORE:    0.00 PKD
ROOT
HETATM    1  C   UNL     1      -7.912   6.138  71.456  1.00  0.00    -0.110 C  
HETATM    2  C   UNL     1      -8.466   6.115  70.040  1.00  0.00    -0.129 C  
ENDROOT
BRANCH   2   3
HETATM    3  C   UNL     1      -9.729   6.968  69.927  1.00  0.00    -0.163 C  
BRANCH   3   4
HETATM    4  N   UNL     1      -9.760   7.749  68.696  1.00  0.00    -0.154 N  
HETATM    5  C   UNL     1      -9.227   9.020  68.637  1.00  0.00    -0.136 A  
HETATM    6  C   UNL     1      -9.252   9.749  67.487  1.00  0.00    -0.130 A  
HETATM    7  N   UNL     1      -8.639  10.929  67.788  1.00  0.00    -0.127 NA 
HETATM    8  C   UNL     1      -9.819   9.278  66.278  1.00  0.00    -0.291 C  
HETATM    9  N   UNL     1     -10.344   8.013  66.410  1.00  0.00    -0.441 N  
HETATM   10  O   UNL     1      -9.847   9.909  65.229  1.00  0.00    -0.302 OA 
HETATM   11  C   UNL     1      -8.276  10.853  69.108  1.00  0.00    -0.084 A  
HETATM   12  H   UNL     1      -8.482  11.715  67.156  1.00  0.00     0.000 HD 
HETATM   13  H   UNL     1     -10.771   7.609  65.576  1.00  0.00     0.000 HD 
HETATM   14  C   UNL     1     -10.358   7.225  67.550  1.00  0.00    -0.242 C  
HETATM   15  N   UNL     1      -8.624   9.702  69.649  1.00  0.00    -0.170 NA 
HETATM   16  O   UNL     1     -10.885   6.113  67.499  1.00  0.00    -0.279 OA 
ENDBRANCH   3   4
ENDBRANCH   2   3
TORSDOF 2
ENDMDL
MODEL      200
REMARK 921   NORMALIZED FREE ENERGY PREDICTED BY IDOCK:   -2.48 KCAL/MOL
REMARK 922        TOTAL FREE ENERGY PREDICTED BY IDOCK:   -2.90 KCAL/MOL
REMARK 923 INTER-LIGAND FREE ENERGY PREDICTED BY IDOCK:   -2.89 KCAL/MOL
REMARK 924 INTRA-LIGAND FREE ENERGY PREDICTED BY IDOCK:   -0.01 KCAL/MOL
REMARK 927      BINDING AFFINITY PREDICTED BY RF-SCORE:    0.00 PKD
ROOT
HETATM    1  C   UNL     1      -9.954   8.639  66.163  1.00  0.00    -0.204 C  
HETATM    2  C   UNL     1     -10.296   7.939  67.468  1.00  0.00    -0.329 C  
ENDROOT
BRANCH   2   3
HETATM    3  C   UNL     1     -11.147   6.693  67.222  1.00  0.00    -0.345 C  
BRANCH   3   4
HETATM    4  N   UNL     1     -10.464   5.470  67.622  1.00  0.00    -0.208 N  
HETATM    5  C   UNL     1     -10.003   4.566  66.688  1.00  0.00    -0.230 A  
HETATM    6  C   UNL     1      -9.360   3.423  67.060  1.00  0.00    -0.184 A  
HETATM    7  N   UNL     1      -9.042   2.787  65.897  1.00  0.00    -0.199 NA 
HETATM    8  C   UNL     1      -9.121   3.070  68.410  1.00  0.00    -0.161 C  
HETATM    9  N   UNL     1      -9.619   4.005  69.288  1.00  0.00    -0.189 N  
HETATM   10  O   UNL     1      -8.539   2.054  68.771  1.00  0.00    -0.056 OA 
HETATM   11  C   UNL     1      -9.509   3.578  64.880  1.00  0.00    -0.158 A  
HETATM   12  H   UNL     1      -8.552   1.897  65.802  1.00  0.00     0.000 HD 
HETATM   13  H   UNL     1      -9.481   3.814  70.280  1.00  0.00     0.000 HD 
HETATM   14  C   UNL     1     -10.285   5.178  68.974  1.00  0.00    -0.171 C  
HETATM   15  N   UNL     1     -10.100   4.666  65.334  1.00  0.00    -0.176 NA 
HETATM   16  O   UNL     1     -10.680   5.901  69.889  1.00  0.00    -0.274 OA 
ENDBRANCH   3   4
ENDBRANCH   2   3
TORSDOF 2
ENDMDL
MODEL      201
REMARK 921   NORMALIZED FREE ENERGY PREDICTED BY IDOCK:   -2.47 KCAL/MOL
REMARK 922        TOTAL FREE ENERGY PREDICTED BY IDOCK:   -2.88 KCAL/MOL
REMARK 923 INTER-LIGAND FREE ENERGY PREDICTED BY IDOCK:   -3.11 KCAL/MOL
REMARK 924 INTRA-LIGAND FREE ENERGY PREDICTED BY IDOCK:    0.23 KCAL/MOL
REMARK 927      BINDING AFFINITY PREDICTED BY RF-SCORE:    0.00 PKD
ROOT
HETATM    1  C   UNL     1      -6.457   9.976  66.564  1.00  0.00    -0.073 C  
HETATM    2  C   UNL     1      -6.611  10.135  65.059  1.00  0.00    -0.128 C  
ENDROOT
BRANCH   2   3
HETATM    3  C   UNL     1      -8.081  10.080  64.644  1.00  0.00    -0.155 C  
BRANCH   3   4
HETATM    4  N   UNL     1      -8.828   9.074  65.389  1.00  0.00    -0.189 N  
HETATM    5  C   UNL     1      -9.722   9.427  66.378  1.00  0.00    -0.250 A  
HETATM    6  C   UNL     1     -10.424   8.488  67.072  1.00  0.00    -0.292 A  
HETATM    7  N   UNL     1     -11.204   9.186  67.946  1.00  0.00    -0.389 NA 
HETATM    8  C   UNL     1     -10.296   7.096  66.846  1.00  0.00    -0.279 C  
HETATM    9  N   UNL     1      -9.380   6.813  65.858  1.00  0.00    -0.389 N  
HETATM   10  O   UNL     1     -10.920   6.232  67.448  1.00  0.00    -0.325 OA 
HETATM   11  C   UNL     1     -10.933  10.513  67.736  1.00  0.00    -0.313 A  
HETATM   12  H   UNL     1     -11.861   8.797  68.623  1.00  0.00     0.000 HD 
HETATM   13  H   UNL     1      -9.236   5.826  65.642  1.00  0.00     0.000 HD 
HETATM   14  C   UNL     1      -8.631   7.718  65.124  1.00  0.00     0.001 C  
HETATM   15  N   UNL     1     -10.032  10.688  66.788  1.00  0.00    -0.201 NA 
HETATM   16  O   UNL     1      -7.841   7.292  64.282  1.00  0.00    -0.124 OA 
ENDBRANCH   3   4
ENDBRANCH   2   3
TORSDOF 2
ENDMDL
MODEL      202
REMARK 921   NORMALIZED FREE ENERGY PREDICTED BY IDOCK:   -2.45 KCAL/MOL
REMARK 922        TOTAL FREE ENERGY PREDICTED BY IDOCK:   -2.87 KCAL/MOL
REMARK 923 INTER-LIGAND FREE ENERGY PREDICTED BY IDOCK:   -2.75 KCAL/MOL
REMARK 924 INTRA-LIGAND FREE ENERGY PREDICTED BY IDOCK:   -0.12 KCAL/MOL
REMARK 927      BINDING AFFINITY PREDICTED BY RF-SCORE:    0.00 PKD
ROOT
HETATM    1  C   UNL     1      -9.511   3.414  64.767  1.00  0.00    -0.155 C  
HETATM    2  C   UNL     1      -9.961   4.839  65.049  1.00  0.00     0.044 C  
ENDROOT
BRANCH   2   3
HETATM    3  C   UNL     1      -9.151   5.461  66.186  1.00  0.00    -0.151 C  
BRANCH   3   4
HETATM    4  N   UNL     1      -9.636   6.787  66.549  1.00  0.00    -0.165 N  
HETATM    5  C   UNL     1      -9.112   7.926  65.975  1.00  0.00    -0.132 A  
HETATM    6  C   UNL     1      -9.567   9.166  66.310  1.00  0.00    -0.255 A  
HETATM    7  N   UNL     1      -8.843  10.039  65.552  1.00  0.00    -0.156 NA 
HETATM    8  C   UNL     1     -10.592   9.388  67.261  1.00  0.00    -0.244 C  
HETATM    9  N   UNL     1     -11.059   8.213  67.804  1.00  0.00    -0.402 N  
HETATM   10  O   UNL     1     -11.025  10.490  67.573  1.00  0.00    -0.284 OA 
HETATM   11  C   UNL     1      -7.985   9.281  64.798  1.00  0.00    -0.123 A  
HETATM   12  H   UNL     1      -8.923  11.056  65.548  1.00  0.00     0.000 HD 
HETATM   13  H   UNL     1     -11.801   8.299  68.499  1.00  0.00     0.000 HD 
HETATM   14  C   UNL     1     -10.635   6.927  67.513  1.00  0.00    -0.281 C  
HETATM   15  N   UNL     1      -8.127   7.992  65.037  1.00  0.00    -0.139 NA 
HETATM   16  O   UNL     1     -11.153   5.981  68.105  1.00  0.00    -0.306 OA 
ENDBRANCH   3   4
ENDBRANCH   2   3
TORSDOF 2
ENDMDL
MODEL      203
REMARK 921   NORMALIZED FREE ENERGY PREDICTED BY IDOCK:   -2.45 KCAL/MOL
REMARK 922        TOTAL FREE ENERGY PREDICTED BY IDOCK:   -2.86 KCAL/MOL
REMARK 923 INTER-LIGAND FREE ENERGY PREDICTED BY IDOCK:   -3.02 KCAL/MOL
REMARK 924 INTRA-LIGAND FREE ENERGY PREDICTED BY IDOCK:    0.16 KCAL/MOL
REMARK 927      BINDING AFFINITY PREDICTED BY RF-SCORE:    0.00 PKD
ROOT
HETATM    1  C   UNL     1      -7.942  16.920  67.245  1.00  0.00    -0.198 C  
HETATM    2  C   UNL     1      -7.171  15.611  67.313  1.00  0.00    -0.252 C  
ENDROOT
BRANCH   2   3
HETATM    3  C   UNL     1      -7.921  14.570  68.145  1.00  0.00    -0.133 C  
BRANCH   3   4
HETATM    4  N   UNL     1      -8.222  13.366  67.381  1.00  0.00    -0.181 N  
HETATM    5  C   UNL     1      -9.522  12.958  67.165  1.00  0.00    -0.229 A  
HETATM    6  C   UNL     1      -9.806  11.835  66.449  1.00  0.00    -0.214 A  
HETATM    7  N   UNL     1     -11.166  11.747  66.429  1.00  0.00    -0.327 NA 
HETATM    8  C   UNL     1      -8.811  11.003  65.879  1.00  0.00    -0.195 C  
HETATM    9  N   UNL     1      -7.540  11.458  66.145  1.00  0.00    -0.367 N  
HETATM   10  O   UNL     1      -9.039   9.994  65.224  1.00  0.00    -0.171 OA 
HETATM   11  C   UNL     1     -11.636  12.823  67.136  1.00  0.00    -0.364 A  
HETATM   12  H   UNL     1     -11.725  11.022  65.976  1.00  0.00     0.000 HD 
HETATM   13  H   UNL     1      -6.772  10.905  65.764  1.00  0.00     0.000 HD 
HETATM   14  C   UNL     1      -7.186  12.584  66.871  1.00  0.00     0.152 C  
HETATM   15  N   UNL     1     -10.656  13.575  67.597  1.00  0.00    -0.239 NA 
HETATM   16  O   UNL     1      -5.992  12.841  67.026  1.00  0.00    -0.307 OA 
ENDBRANCH   3   4
ENDBRANCH   2   3
TORSDOF 2
ENDMDL
MODEL      204
REMARK 921   NORMALIZED FREE ENERGY PREDICTED BY IDOCK:   -2.43 KCAL/MOL
REMARK 922        TOTAL FREE ENERGY PREDICTED BY IDOCK:   -2.84 KCAL/MOL
REMARK 923 INTER-LIGAND FREE ENERGY PREDICTED BY IDOCK:   -3.15 KCAL/MOL
REMARK 924 INTRA-LIGAND FREE ENERGY PREDICTED BY IDOCK:    0.30 KCAL/MOL
REMARK 927      BINDING AFFINITY PREDICTED BY RF-SCORE:    0.00 PKD
ROOT
HETATM    1  C   UNL     1     -10.530  17.832  66.857  1.00  0.00    -0.308 C  
HETATM    2  C   UNL     1     -10.581  16.643  65.910  1.00  0.00    -0.257 C  
ENDROOT
BRANCH   2   3
HETATM    3  C   UNL     1      -9.194  16.031  65.714  1.00  0.00    -0.180 C  
BRANCH   3   4
HETATM    4  N   UNL     1      -8.302  16.315  66.831  1.00  0.00    -0.207 N  
HETATM    5  C   UNL     1      -7.384  17.344  66.776  1.00  0.00    -0.215 A  
HETATM    6  C   UNL     1      -6.553  17.613  67.821  1.00  0.00    -0.181 A  
HETATM    7  N   UNL     1      -5.804  18.682  67.426  1.00  0.00    -0.158 NA 
HETATM    8  C   UNL     1      -6.555  16.873  69.028  1.00  0.00    -0.209 C  
HETATM    9  N   UNL     1      -7.481  15.855  69.011  1.00  0.00    -0.180 N  
HETATM   10  O   UNL     1      -5.825  17.099  69.984  1.00  0.00    -0.232 OA 
HETATM   11  C   UNL     1      -6.220  19.004  66.161  1.00  0.00    -0.184 A  
HETATM   12  H   UNL     1      -5.075  19.150  67.967  1.00  0.00     0.000 HD 
HETATM   13  H   UNL     1      -7.537  15.279  69.851  1.00  0.00     0.000 HD 
HETATM   14  C   UNL     1      -8.347  15.526  67.981  1.00  0.00    -0.142 C  
HETATM   15  N   UNL     1      -7.181  18.204  65.740  1.00  0.00    -0.513 NA 
HETATM   16  O   UNL     1      -9.108  14.569  68.126  1.00  0.00    -0.178 OA 
ENDBRANCH   3   4
ENDBRANCH   2   3
TORSDOF 2
ENDMDL
MODEL      205
REMARK 921   NORMALIZED FREE ENERGY PREDICTED BY IDOCK:   -2.43 KCAL/MOL
REMARK 922        TOTAL FREE ENERGY PREDICTED BY IDOCK:   -2.84 KCAL/MOL
REMARK 923 INTER-LIGAND FREE ENERGY PREDICTED BY IDOCK:   -2.86 KCAL/MOL
REMARK 924 INTRA-LIGAND FREE ENERGY PREDICTED BY IDOCK:    0.01 KCAL/MOL
REMARK 927      BINDING AFFINITY PREDICTED BY RF-SCORE:    0.00 PKD
ROOT
HETATM    1  C   UNL     1      -6.846   6.946  65.377  1.00  0.00    -0.052 C  
HETATM    2  C   UNL     1      -7.724   8.156  65.657  1.00  0.00    -0.090 C  
ENDROOT
BRANCH   2   3
HETATM    3  C   UNL     1      -9.172   7.741  65.920  1.00  0.00    -0.019 C  
BRANCH   3   4
HETATM    4  N   UNL     1      -9.889   8.719  66.728  1.00  0.00    -0.223 N  
HETATM    5  C   UNL     1     -10.222   8.460  68.041  1.00  0.00    -0.212 A  
HETATM    6  C   UNL     1     -10.889   9.374  68.801  1.00  0.00    -0.114 A  
HETATM    7  N   UNL     1     -11.037   8.794  70.026  1.00  0.00    -0.373 NA 
HETATM    8  C   UNL     1     -11.293  10.641  68.315  1.00  0.00    -0.289 C  
HETATM    9  N   UNL     1     -10.942  10.828  66.998  1.00  0.00    -0.259 N  
HETATM   10  O   UNL     1     -11.885  11.484  68.978  1.00  0.00    -0.304 OA 
HETATM   11  C   UNL     1     -10.453   7.557  69.945  1.00  0.00    -0.229 A  
HETATM   12  H   UNL     1     -11.494   9.201  70.843  1.00  0.00     0.000 HD 
HETATM   13  H   UNL     1     -11.204  11.723  66.582  1.00  0.00     0.000 HD 
HETATM   14  C   UNL     1     -10.274   9.939  66.173  1.00  0.00    -0.207 C  
HETATM   15  N   UNL     1      -9.950   7.327  68.747  1.00  0.00    -0.162 NA 
HETATM   16  O   UNL     1     -10.051  10.262  65.006  1.00  0.00    -0.323 OA 
ENDBRANCH   3   4
ENDBRANCH   2   3
TORSDOF 2
ENDMDL
MODEL      206
REMARK 921   NORMALIZED FREE ENERGY PREDICTED BY IDOCK:   -2.43 KCAL/MOL
REMARK 922        TOTAL FREE ENERGY PREDICTED BY IDOCK:   -2.84 KCAL/MOL
REMARK 923 INTER-LIGAND FREE ENERGY PREDICTED BY IDOCK:   -2.77 KCAL/MOL
REMARK 924 INTRA-LIGAND FREE ENERGY PREDICTED BY IDOCK:   -0.06 KCAL/MOL
REMARK 927      BINDING AFFINITY PREDICTED BY RF-SCORE:    0.00 PKD
ROOT
HETATM    1  C   UNL     1     -12.022   9.856  71.552  1.00  0.00    -0.473 C  
HETATM    2  C   UNL     1     -11.318   9.662  70.218  1.00  0.00    -0.311 C  
ENDROOT
BRANCH   2   3
HETATM    3  C   UNL     1      -9.929   9.052  70.409  1.00  0.00    -0.203 C  
BRANCH   3   4
HETATM    4  N   UNL     1      -9.899   7.632  70.080  1.00  0.00    -0.184 N  
HETATM    5  C   UNL     1      -9.812   6.669  71.063  1.00  0.00    -0.182 A  
HETATM    6  C   UNL     1      -9.788   5.341  70.759  1.00  0.00    -0.196 A  
HETATM    7  N   UNL     1      -9.710   4.692  71.955  1.00  0.00    -0.161 NA 
HETATM    8  C   UNL     1      -9.844   4.846  69.433  1.00  0.00    -0.211 C  
HETATM    9  N   UNL     1      -9.915   5.858  68.504  1.00  0.00    -0.138 N  
HETATM   10  O   UNL     1      -9.833   3.659  69.132  1.00  0.00    -0.082 OA 
HETATM   11  C   UNL     1      -9.690   5.662  72.924  1.00  0.00    -0.155 A  
HETATM   12  H   UNL     1      -9.674   3.682  72.101  1.00  0.00     0.000 HD 
HETATM   13  H   UNL     1      -9.958   5.573  67.525  1.00  0.00     0.000 HD 
HETATM   14  C   UNL     1      -9.935   7.222  68.748  1.00  0.00    -0.166 C  
HETATM   15  N   UNL     1      -9.749   6.874  72.408  1.00  0.00    -0.154 NA 
HETATM   16  O   UNL     1      -9.987   7.997  67.793  1.00  0.00    -0.157 OA 
ENDBRANCH   3   4
ENDBRANCH   2   3
TORSDOF 2
ENDMDL
MODEL      207
REMARK 921   NORMALIZED FREE ENERGY PREDICTED BY IDOCK:   -2.40 KCAL/MOL
REMARK 922        TOTAL FREE ENERGY PREDICTED BY IDOCK:   -2.81 KCAL/MOL
REMARK 923 INTER-LIGAND FREE ENERGY PREDICTED BY IDOCK:   -2.83 KCAL/MOL
REMARK 924 INTRA-LIGAND FREE ENERGY PREDICTED BY IDOCK:    0.02 KCAL/MOL
REMARK 927      BINDING AFFINITY PREDICTED BY RF-SCORE:    0.00 PKD
ROOT
HETATM    1  C   UNL     1      -9.416   7.480  70.732  1.00  0.00    -0.163 C  
HETATM    2  C   UNL     1     -10.303   6.245  70.687  1.00  0.00    -0.254 C  
ENDROOT
BRANCH   2   3
HETATM    3  C   UNL     1     -11.143   6.213  69.411  1.00  0.00    -0.409 C  
BRANCH   3   4
HETATM    4  N   UNL     1     -10.324   6.091  68.212  1.00  0.00    -0.185 N  
HETATM    5  C   UNL     1     -10.139   7.156  67.355  1.00  0.00    -0.202 A  
HETATM    6  C   UNL     1      -9.370   7.045  66.236  1.00  0.00    -0.098 A  
HETATM    7  N   UNL     1      -9.402   8.274  65.646  1.00  0.00    -0.429 NA 
HETATM    8  C   UNL     1      -8.711   5.849  65.861  1.00  0.00    -0.150 C  
HETATM    9  N   UNL     1      -8.948   4.825  66.749  1.00  0.00    -0.110 N  
HETATM   10  O   UNL     1      -8.008   5.725  64.866  1.00  0.00    -0.109 OA 
HETATM   11  C   UNL     1     -10.192   9.066  66.438  1.00  0.00    -0.227 A  
HETATM   12  H   UNL     1      -8.932   8.550  64.783  1.00  0.00     0.000 HD 
HETATM   13  H   UNL     1      -8.503   3.931  66.539  1.00  0.00     0.000 HD 
HETATM   14  C   UNL     1      -9.724   4.872  67.895  1.00  0.00    -0.155 C  
HETATM   15  N   UNL     1     -10.655   8.410  67.485  1.00  0.00    -0.246 NA 
HETATM   16  O   UNL     1      -9.844   3.853  68.575  1.00  0.00    -0.090 OA 
ENDBRANCH   3   4
ENDBRANCH   2   3
TORSDOF 2
ENDMDL
MODEL      208
REMARK 921   NORMALIZED FREE ENERGY PREDICTED BY IDOCK:   -2.40 KCAL/MOL
REMARK 922        TOTAL FREE ENERGY PREDICTED BY IDOCK:   -2.80 KCAL/MOL
REMARK 923 INTER-LIGAND FREE ENERGY PREDICTED BY IDOCK:   -2.66 KCAL/MOL
REMARK 924 INTRA-LIGAND FREE ENERGY PREDICTED BY IDOCK:   -0.15 KCAL/MOL
REMARK 927      BINDING AFFINITY PREDICTED BY RF-SCORE:    0.00 PKD
ROOT
HETATM    1  C   UNL     1      -6.712  10.512  66.181  1.00  0.00    -0.127 C  
HETATM    2  C   UNL     1      -7.092   9.866  67.504  1.00  0.00    -0.088 C  
ENDROOT
BRANCH   2   3
HETATM    3  C   UNL     1      -7.519  10.916  68.530  1.00  0.00    -0.103 C  
BRANCH   3   4
HETATM    4  N   UNL     1      -8.892  10.723  68.978  1.00  0.00    -0.154 N  
HETATM    5  C   UNL     1      -9.206   9.809  69.962  1.00  0.00    -0.229 A  
HETATM    6  C   UNL     1     -10.489   9.631  70.386  1.00  0.00    -0.293 A  
HETATM    7  N   UNL     1     -10.424   8.676  71.356  1.00  0.00    -0.234 NA 
HETATM    8  C   UNL     1     -11.589  10.350  69.859  1.00  0.00    -0.284 C  
HETATM    9  N   UNL     1     -11.208  11.232  68.874  1.00  0.00    -0.229 N  
HETATM   10  O   UNL     1     -12.749  10.216  70.227  1.00  0.00    -0.186 OA 
HETATM   11  C   UNL     1      -9.104   8.324  71.470  1.00  0.00    -0.177 A  
HETATM   12  H   UNL     1     -11.206   8.297  71.893  1.00  0.00     0.000 HD 
HETATM   13  H   UNL     1     -11.953  11.785  68.448  1.00  0.00     0.000 HD 
HETATM   14  C   UNL     1      -9.928  11.454  68.394  1.00  0.00    -0.204 C  
HETATM   15  N   UNL     1      -8.341   8.998  70.631  1.00  0.00    -0.167 NA 
HETATM   16  O   UNL     1      -9.763  12.275  67.492  1.00  0.00    -0.185 OA 
ENDBRANCH   3   4
ENDBRANCH   2   3
TORSDOF 2
ENDMDL
MODEL      209
REMARK 921   NORMALIZED FREE ENERGY PREDICTED BY IDOCK:   -2.38 KCAL/MOL
REMARK 922        TOTAL FREE ENERGY PREDICTED BY IDOCK:   -2.79 KCAL/MOL
REMARK 923 INTER-LIGAND FREE ENERGY PREDICTED BY IDOCK:   -2.75 KCAL/MOL
REMARK 924 INTRA-LIGAND FREE ENERGY PREDICTED BY IDOCK:   -0.04 KCAL/MOL
REMARK 927      BINDING AFFINITY PREDICTED BY RF-SCORE:    0.00 PKD
ROOT
HETATM    1  C   UNL     1      -9.406   6.771  73.465  1.00  0.00    -0.179 C  
HETATM    2  C   UNL     1      -9.094   8.133  72.867  1.00  0.00    -0.337 C  
ENDROOT
BRANCH   2   3
HETATM    3  C   UNL     1      -8.236   8.002  71.608  1.00  0.00    -0.119 C  
BRANCH   3   4
HETATM    4  N   UNL     1      -9.019   7.605  70.445  1.00  0.00    -0.151 N  
HETATM    5  C   UNL     1      -8.940   6.329  69.927  1.00  0.00    -0.141 A  
HETATM    6  C   UNL     1      -9.674   5.954  68.842  1.00  0.00    -0.135 A  
HETATM    7  N   UNL     1      -9.358   4.647  68.619  1.00  0.00    -0.129 NA 
HETATM    8  C   UNL     1     -10.560   6.826  68.163  1.00  0.00    -0.230 C  
HETATM    9  N   UNL     1     -10.580   8.084  68.722  1.00  0.00    -0.351 N  
HETATM   10  O   UNL     1     -11.237   6.513  67.192  1.00  0.00    -0.388 OA 
HETATM   11  C   UNL     1      -8.447   4.297  69.581  1.00  0.00    -0.068 A  
HETATM   12  H   UNL     1      -9.727   4.047  67.881  1.00  0.00     0.000 HD 
HETATM   13  H   UNL     1     -11.198   8.766  68.282  1.00  0.00     0.000 HD 
HETATM   14  C   UNL     1      -9.854   8.528  69.815  1.00  0.00    -0.186 C  
HETATM   15  N   UNL     1      -8.173   5.303  70.389  1.00  0.00    -0.101 NA 
HETATM   16  O   UNL     1      -9.980   9.697  70.178  1.00  0.00    -0.230 OA 
ENDBRANCH   3   4
ENDBRANCH   2   3
TORSDOF 2
ENDMDL
MODEL      210
REMARK 921   NORMALIZED FREE ENERGY PREDICTED BY IDOCK:   -2.36 KCAL/MOL
REMARK 922        TOTAL FREE ENERGY PREDICTED BY IDOCK:   -2.77 KCAL/MOL
REMARK 923 INTER-LIGAND FREE ENERGY PREDICTED BY IDOCK:   -2.64 KCAL/MOL
REMARK 924 INTRA-LIGAND FREE ENERGY PREDICTED BY IDOCK:   -0.12 KCAL/MOL
REMARK 927      BINDING AFFINITY PREDICTED BY RF-SCORE:    0.00 PKD
ROOT
HETATM    1  C   UNL     1     -11.190  14.986  70.522  1.00  0.00    -0.286 C  
HETATM    2  C   UNL     1     -11.470  15.490  69.116  1.00  0.00    -0.356 C  
ENDROOT
BRANCH   2   3
HETATM    3  C   UNL     1     -10.197  16.011  68.450  1.00  0.00    -0.236 C  
BRANCH   3   4
HETATM    4  N   UNL     1     -10.471  17.067  67.483  1.00  0.00    -0.333 N  
HETATM    5  C   UNL     1     -10.478  18.396  67.853  1.00  0.00    -0.391 A  
HETATM    6  C   UNL     1     -10.729  19.385  66.950  1.00  0.00    -0.465 A  
HETATM    7  N   UNL     1     -10.645  20.551  67.651  1.00  0.00     0.049 NA 
HETATM    8  C   UNL     1     -11.005  19.138  65.583  1.00  0.00     0.029 C  
HETATM    9  N   UNL     1     -10.997  17.795  65.286  1.00  0.00     0.055 N  
HETATM   10  O   UNL     1     -11.226  20.008  64.750  1.00  0.00     0.014 OA 
HETATM   11  C   UNL     1     -10.348  20.207  68.945  1.00  0.00    -0.075 A  
HETATM   12  H   UNL     1     -10.778  21.494  67.286  1.00  0.00     0.000 HD 
HETATM   13  H   UNL     1     -11.188  17.544  64.316  1.00  0.00     0.000 HD 
HETATM   14  C   UNL     1     -10.757  16.744  66.157  1.00  0.00    -0.116 C  
HETATM   15  N   UNL     1     -10.242  18.901  69.095  1.00  0.00    -0.201 NA 
HETATM   16  O   UNL     1     -10.802  15.592  65.726  1.00  0.00    -0.332 OA 
ENDBRANCH   3   4
ENDBRANCH   2   3
TORSDOF 2
ENDMDL
MODEL      211
REMARK 921   NORMALIZED FREE ENERGY PREDICTED BY IDOCK:   -2.36 KCAL/MOL
REMARK 922        TOTAL FREE ENERGY PREDICTED BY IDOCK:   -2.76 KCAL/MOL
REMARK 923 INTER-LIGAND FREE ENERGY PREDICTED BY IDOCK:   -2.65 KCAL/MOL
REMARK 924 INTRA-LIGAND FREE ENERGY PREDICTED BY IDOCK:   -0.11 KCAL/MOL
REMARK 927      BINDING AFFINITY PREDICTED BY RF-SCORE:    0.00 PKD
ROOT
HETATM    1  C   UNL     1     -11.592  10.188  70.020  1.00  0.00    -0.323 C  
HETATM    2  C   UNL     1     -10.205  10.659  69.614  1.00  0.00    -0.156 C  
ENDROOT
BRANCH   2   3
HETATM    3  C   UNL     1     -10.220  11.290  68.222  1.00  0.00    -0.186 C  
BRANCH   3   4
HETATM    4  N   UNL     1      -9.309  12.424  68.120  1.00  0.00    -0.206 N  
HETATM    5  C   UNL     1      -9.757  13.721  68.266  1.00  0.00    -0.231 A  
HETATM    6  C   UNL     1      -8.907  14.782  68.175  1.00  0.00    -0.170 A  
HETATM    7  N   UNL     1      -9.678  15.887  68.378  1.00  0.00    -0.211 NA 
HETATM    8  C   UNL     1      -7.520  14.648  67.923  1.00  0.00    -0.148 C  
HETATM    9  N   UNL     1      -7.144  13.333  67.774  1.00  0.00    -0.132 N  
HETATM   10  O   UNL     1      -6.733  15.583  67.846  1.00  0.00    -0.127 OA 
HETATM   11  C   UNL     1     -10.957  15.438  68.581  1.00  0.00    -0.273 A  
HETATM   12  H   UNL     1      -9.365  16.859  68.379  1.00  0.00     0.000 HD 
HETATM   13  H   UNL     1      -6.155  13.162  67.590  1.00  0.00     0.000 HD 
HETATM   14  C   UNL     1      -7.958  12.214  67.847  1.00  0.00    -0.150 C  
HETATM   15  N   UNL     1     -11.033  14.123  68.516  1.00  0.00    -0.245 NA 
HETATM   16  O   UNL     1      -7.458  11.102  67.674  1.00  0.00    -0.094 OA 
ENDBRANCH   3   4
ENDBRANCH   2   3
TORSDOF 2
ENDMDL
MODEL      212
REMARK 921   NORMALIZED FREE ENERGY PREDICTED BY IDOCK:   -2.30 KCAL/MOL
REMARK 922        TOTAL FREE ENERGY PREDICTED BY IDOCK:   -2.69 KCAL/MOL
REMARK 923 INTER-LIGAND FREE ENERGY PREDICTED BY IDOCK:   -2.59 KCAL/MOL
REMARK 924 INTRA-LIGAND FREE ENERGY PREDICTED BY IDOCK:   -0.11 KCAL/MOL
REMARK 927      BINDING AFFINITY PREDICTED BY RF-SCORE:    0.00 PKD
ROOT
HETATM    1  C   UNL     1      -7.475  14.221  67.446  1.00  0.00    -0.172 C  
HETATM    2  C   UNL     1      -7.735  13.072  68.408  1.00  0.00    -0.137 C  
ENDROOT
BRANCH   2   3
HETATM    3  C   UNL     1      -8.602  11.993  67.760  1.00  0.00    -0.157 C  
BRANCH   3   4
HETATM    4  N   UNL     1      -9.233  11.126  68.747  1.00  0.00    -0.172 N  
HETATM    5  C   UNL     1     -10.497  11.389  69.232  1.00  0.00    -0.067 A  
HETATM    6  C   UNL     1     -11.091  10.577  70.151  1.00  0.00    -0.298 A  
HETATM    7  N   UNL     1     -12.316  11.126  70.388  1.00  0.00    -0.339 NA 
HETATM    8  C   UNL     1     -10.472   9.419  70.681  1.00  0.00    -0.290 C  
HETATM    9  N   UNL     1      -9.210   9.224  70.167  1.00  0.00    -0.206 N  
HETATM   10  O   UNL     1     -10.985   8.668  71.500  1.00  0.00    -0.249 OA 
HETATM   11  C   UNL     1     -12.401  12.245  69.600  1.00  0.00     0.012 A  
HETATM   12  H   UNL     1     -13.030  10.775  71.027  1.00  0.00     0.000 HD 
HETATM   13  H   UNL     1      -8.704   8.405  70.506  1.00  0.00     0.000 HD 
HETATM   14  C   UNL     1      -8.550  10.014  69.240  1.00  0.00    -0.168 C  
HETATM   15  N   UNL     1     -11.306  12.429  68.887  1.00  0.00    -0.273 NA 
HETATM   16  O   UNL     1      -7.411   9.701  68.895  1.00  0.00    -0.071 OA 
ENDBRANCH   3   4
ENDBRANCH   2   3
TORSDOF 2
ENDMDL
MODEL      213
REMARK 921   NORMALIZED FREE ENERGY PREDICTED BY IDOCK:   -2.30 KCAL/MOL
REMARK 922        TOTAL FREE ENERGY PREDICTED BY IDOCK:   -2.69 KCAL/MOL
REMARK 923 INTER-LIGAND FREE ENERGY PREDICTED BY IDOCK:   -2.58 KCAL/MOL
REMARK 924 INTRA-LIGAND FREE ENERGY PREDICTED BY IDOCK:   -0.11 KCAL/MOL
REMARK 927      BINDING AFFINITY PREDICTED BY RF-SCORE:    0.00 PKD
ROOT
HETATM    1  C   UNL     1      -6.111   6.864  68.156  1.00  0.00    -0.033 C  
HETATM    2  C   UNL     1      -7.567   6.732  67.736  1.00  0.00    -0.107 C  
ENDROOT
BRANCH   2   3
HETATM    3  C   UNL     1      -8.072   5.303  67.930  1.00  0.00    -0.099 C  
BRANCH   3   4
HETATM    4  N   UNL     1      -8.931   4.867  66.836  1.00  0.00    -0.109 N  
HETATM    5  C   UNL     1      -8.432   4.139  65.776  1.00  0.00    -0.109 A  
HETATM    6  C   UNL     1      -9.234   3.727  64.754  1.00  0.00    -0.146 A  
HETATM    7  N   UNL     1      -8.420   3.038  63.905  1.00  0.00    -0.089 NA 
HETATM    8  C   UNL     1     -10.620   4.010  64.691  1.00  0.00    -0.168 C  
HETATM    9  N   UNL     1     -11.048   4.750  65.769  1.00  0.00    -0.876 N  
HETATM   10  O   UNL     1     -11.364   3.645  63.790  1.00  0.00    -0.207 OA 
HETATM   11  C   UNL     1      -7.166   3.068  64.457  1.00  0.00    -0.061 A  
HETATM   12  H   UNL     1      -8.691   2.587  63.030  1.00  0.00     0.000 HD 
HETATM   13  H   UNL     1     -12.039   4.991  65.789  1.00  0.00     0.000 HD 
HETATM   14  C   UNL     1     -10.284   5.204  66.832  1.00  0.00    -0.239 C  
HETATM   15  N   UNL     1      -7.144   3.734  65.595  1.00  0.00    -0.065 NA 
HETATM   16  O   UNL     1     -10.827   5.871  67.713  1.00  0.00    -0.273 OA 
ENDBRANCH   3   4
ENDBRANCH   2   3
TORSDOF 2
ENDMDL
MODEL      214
REMARK 921   NORMALIZED FREE ENERGY PREDICTED BY IDOCK:   -2.29 KCAL/MOL
REMARK 922        TOTAL FREE ENERGY PREDICTED BY IDOCK:   -2.68 KCAL/MOL
REMARK 923 INTER-LIGAND FREE ENERGY PREDICTED BY IDOCK:   -2.57 KCAL/MOL
REMARK 924 INTRA-LIGAND FREE ENERGY PREDICTED BY IDOCK:   -0.11 KCAL/MOL
REMARK 927      BINDING AFFINITY PREDICTED BY RF-SCORE:    0.00 PKD
ROOT
HETATM    1  C   UNL     1      -6.067   7.972  73.703  1.00  0.00    -0.081 C  
HETATM    2  C   UNL     1      -7.286   8.736  73.208  1.00  0.00     0.152 C  
ENDROOT
BRANCH   2   3
HETATM    3  C   UNL     1      -7.984   7.989  72.072  1.00  0.00    -0.118 C  
BRANCH   3   4
HETATM    4  N   UNL     1      -8.992   8.807  71.410  1.00  0.00    -0.220 N  
HETATM    5  C   UNL     1      -8.657   9.676  70.392  1.00  0.00    -0.157 A  
HETATM    6  C   UNL     1      -9.598  10.439  69.769  1.00  0.00    -0.026 A  
HETATM    7  N   UNL     1      -8.923  11.155  68.825  1.00  0.00    -0.269 NA 
HETATM    8  C   UNL     1     -10.972  10.410  70.109  1.00  0.00    -0.300 C  
HETATM    9  N   UNL     1     -11.234   9.536  71.138  1.00  0.00    -0.346 N  
HETATM   10  O   UNL     1     -11.839  11.079  69.559  1.00  0.00    -0.281 OA 
HETATM   11  C   UNL     1      -7.606  10.789  68.927  1.00  0.00    -0.121 A  
HETATM   12  H   UNL     1      -9.320  11.831  68.172  1.00  0.00     0.000 HD 
HETATM   13  H   UNL     1     -12.208   9.465  71.436  1.00  0.00     0.000 HD 
HETATM   14  C   UNL     1     -10.325   8.741  71.816  1.00  0.00    -0.343 C  
HETATM   15  N   UNL     1      -7.416   9.891  69.874  1.00  0.00    -0.136 NA 
HETATM   16  O   UNL     1     -10.728   8.021  72.729  1.00  0.00    -0.331 OA 
ENDBRANCH   3   4
ENDBRANCH   2   3
TORSDOF 2
ENDMDL
MODEL      215
REMARK 921   NORMALIZED FREE ENERGY PREDICTED BY IDOCK:   -2.28 KCAL/MOL
REMARK 922        TOTAL FREE ENERGY PREDICTED BY IDOCK:   -2.68 KCAL/MOL
REMARK 923 INTER-LIGAND FREE ENERGY PREDICTED BY IDOCK:   -2.71 KCAL/MOL
REMARK 924 INTRA-LIGAND FREE ENERGY PREDICTED BY IDOCK:    0.03 KCAL/MOL
REMARK 927      BINDING AFFINITY PREDICTED BY RF-SCORE:    0.00 PKD
ROOT
HETATM    1  C   UNL     1      -8.850   7.575  70.451  1.00  0.00    -0.145 C  
HETATM    2  C   UNL     1      -9.727   6.383  70.802  1.00  0.00    -0.197 C  
ENDROOT
BRANCH   2   3
HETATM    3  C   UNL     1     -10.831   6.183  69.764  1.00  0.00    -0.353 C  
BRANCH   3   4
HETATM    4  N   UNL     1     -10.299   5.829  68.454  1.00  0.00    -0.196 N  
HETATM    5  C   UNL     1      -9.720   4.598  68.221  1.00  0.00    -0.131 A  
HETATM    6  C   UNL     1      -9.227   4.263  66.997  1.00  0.00    -0.149 A  
HETATM    7  N   UNL     1      -8.750   2.993  67.129  1.00  0.00    -0.115 NA 
HETATM    8  C   UNL     1      -9.259   5.134  65.880  1.00  0.00    -0.158 C  
HETATM    9  N   UNL     1      -9.835   6.346  66.184  1.00  0.00    -0.395 N  
HETATM   10  O   UNL     1      -8.831   4.855  64.767  1.00  0.00    -0.152 OA 
HETATM   11  C   UNL     1      -8.979   2.624  68.429  1.00  0.00    -0.143 A  
HETATM   12  H   UNL     1      -8.309   2.427  66.403  1.00  0.00     0.000 HD 
HETATM   13  H   UNL     1      -9.891   7.024  65.424  1.00  0.00     0.000 HD 
HETATM   14  C   UNL     1     -10.346   6.749  67.407  1.00  0.00    -0.223 C  
HETATM   15  N   UNL     1      -9.567   3.584  69.117  1.00  0.00    -0.144 NA 
HETATM   16  O   UNL     1     -10.816   7.882  67.511  1.00  0.00    -0.205 OA 
ENDBRANCH   3   4
ENDBRANCH   2   3
TORSDOF 2
ENDMDL
MODEL      216
REMARK 921   NORMALIZED FREE ENERGY PREDICTED BY IDOCK:   -2.25 KCAL/MOL
REMARK 922        TOTAL FREE ENERGY PREDICTED BY IDOCK:   -2.64 KCAL/MOL
REMARK 923 INTER-LIGAND FREE ENERGY PREDICTED BY IDOCK:   -2.75 KCAL/MOL
REMARK 924 INTRA-LIGAND FREE ENERGY PREDICTED BY IDOCK:    0.11 KCAL/MOL
REMARK 927      BINDING AFFINITY PREDICTED BY RF-SCORE:    0.00 PKD
ROOT
HETATM    1  C   UNL     1     -10.607  12.343  67.633  1.00  0.00    -0.236 C  
HETATM    2  C   UNL     1     -10.359  10.843  67.666  1.00  0.00    -0.232 C  
ENDROOT
BRANCH   2   3
HETATM    3  C   UNL     1     -11.281  10.152  68.671  1.00  0.00    -0.168 C  
BRANCH   3   4
HETATM    4  N   UNL     1     -10.670   8.964  69.255  1.00  0.00    -0.202 N  
HETATM    5  C   UNL     1     -10.370   7.859  68.486  1.00  0.00    -0.200 A  
HETATM    6  C   UNL     1      -9.796   6.749  69.028  1.00  0.00    -0.149 A  
HETATM    7  N   UNL     1      -9.636   5.877  67.993  1.00  0.00    -0.114 NA 
HETATM    8  C   UNL     1      -9.469   6.635  70.401  1.00  0.00    -0.166 C  
HETATM    9  N   UNL     1      -9.807   7.764  71.111  1.00  0.00    -0.169 N  
HETATM   10  O   UNL     1      -8.945   5.653  70.913  1.00  0.00    -0.137 OA 
HETATM   11  C   UNL     1     -10.123   6.504  66.876  1.00  0.00    -0.192 A  
HETATM   12  H   UNL     1      -9.232   4.940  68.041  1.00  0.00     0.000 HD 
HETATM   13  H   UNL     1      -9.599   7.751  72.110  1.00  0.00     0.000 HD 
HETATM   14  C   UNL     1     -10.398   8.917  70.622  1.00  0.00    -0.215 C  
HETATM   15  N   UNL     1     -10.578   7.711  67.148  1.00  0.00    -0.340 NA 
HETATM   16  O   UNL     1     -10.648   9.836  71.403  1.00  0.00    -0.233 OA 
ENDBRANCH   3   4
ENDBRANCH   2   3
TORSDOF 2
ENDMDL
MODEL      217
REMARK 921   NORMALIZED FREE ENERGY PREDICTED BY IDOCK:   -2.24 KCAL/MOL
REMARK 922        TOTAL FREE ENERGY PREDICTED BY IDOCK:   -2.63 KCAL/MOL
REMARK 923 INTER-LIGAND FREE ENERGY PREDICTED BY IDOCK:   -2.80 KCAL/MOL
REMARK 924 INTRA-LIGAND FREE ENERGY PREDICTED BY IDOCK:    0.17 KCAL/MOL
REMARK 927      BINDING AFFINITY PREDICTED BY RF-SCORE:    0.00 PKD
ROOT
HETATM    1  C   UNL     1      -5.680   8.610  71.788  1.00  0.00    -0.050 C  
HETATM    2  C   UNL     1      -6.484   8.295  70.536  1.00  0.00    -0.036 C  
ENDROOT
BRANCH   2   3
HETATM    3  C   UNL     1      -7.874   8.928  70.597  1.00  0.00    -0.115 C  
BRANCH   3   4
HETATM    4  N   UNL     1      -8.794   8.335  69.634  1.00  0.00    -0.138 N  
HETATM    5  C   UNL     1      -9.914   7.640  70.043  1.00  0.00    -0.190 A  
HETATM    6  C   UNL     1     -10.777   7.089  69.144  1.00  0.00    -0.218 A  
HETATM    7  N   UNL     1     -11.755   6.500  69.890  1.00  0.00    -0.617 NA 
HETATM    8  C   UNL     1     -10.600   7.175  67.742  1.00  0.00    -0.225 C  
HETATM    9  N   UNL     1      -9.459   7.867  67.404  1.00  0.00    -0.140 N  
HETATM   10  O   UNL     1     -11.364   6.696  66.913  1.00  0.00    -0.333 OA 
HETATM   11  C   UNL     1     -11.432   6.725  71.203  1.00  0.00    -0.314 A  
HETATM   12  H   UNL     1     -12.567   5.992  69.539  1.00  0.00     0.000 HD 
HETATM   13  H   UNL     1      -9.269   7.967  66.407  1.00  0.00     0.000 HD 
HETATM   14  C   UNL     1      -8.540   8.442  68.267  1.00  0.00    -0.139 C  
HETATM   15  N   UNL     1     -10.315   7.415  71.324  1.00  0.00    -0.194 NA 
HETATM   16  O   UNL     1      -7.560   9.017  67.794  1.00  0.00    -0.091 OA 
ENDBRANCH   3   4
ENDBRANCH   2   3
TORSDOF 2
ENDMDL
MODEL      218
REMARK 921   NORMALIZED FREE ENERGY PREDICTED BY IDOCK:   -2.24 KCAL/MOL
REMARK 922        TOTAL FREE ENERGY PREDICTED BY IDOCK:   -2.63 KCAL/MOL
REMARK 923 INTER-LIGAND FREE ENERGY PREDICTED BY IDOCK:   -2.68 KCAL/MOL
REMARK 924 INTRA-LIGAND FREE ENERGY PREDICTED BY IDOCK:    0.06 KCAL/MOL
REMARK 927      BINDING AFFINITY PREDICTED BY RF-SCORE:    0.00 PKD
ROOT
HETATM    1  C   UNL     1     -10.732  11.714  64.484  1.00  0.00    -0.378 C  
HETATM    2  C   UNL     1     -10.533  11.011  65.817  1.00  0.00    -0.290 C  
ENDROOT
BRANCH   2   3
HETATM    3  C   UNL     1      -9.838   9.662  65.633  1.00  0.00    -0.299 C  
BRANCH   3   4
HETATM    4  N   UNL     1      -9.228   9.182  66.867  1.00  0.00    -0.143 N  
HETATM    5  C   UNL     1      -9.738   8.094  67.545  1.00  0.00    -0.161 A  
HETATM    6  C   UNL     1      -9.167   7.641  68.696  1.00  0.00    -0.141 A  
HETATM    7  N   UNL     1      -9.913   6.566  69.077  1.00  0.00    -0.142 NA 
HETATM    8  C   UNL     1      -8.027   8.239  69.287  1.00  0.00    -0.114 C  
HETATM    9  N   UNL     1      -7.579   9.325  68.569  1.00  0.00    -0.084 N  
HETATM   10  O   UNL     1      -7.489   7.848  70.315  1.00  0.00    -0.074 OA 
HETATM   11  C   UNL     1     -10.900   6.424  68.136  1.00  0.00    -0.308 A  
HETATM   12  H   UNL     1      -9.766   5.982  69.901  1.00  0.00     0.000 HD 
HETATM   13  H   UNL     1      -6.759   9.805  68.938  1.00  0.00     0.000 HD 
HETATM   14  C   UNL     1      -8.119   9.838  67.400  1.00  0.00    -0.114 C  
HETATM   15  N   UNL     1     -10.817   7.342  67.193  1.00  0.00    -0.323 NA 
HETATM   16  O   UNL     1      -7.600  10.831  66.891  1.00  0.00    -0.111 OA 
ENDBRANCH   3   4
ENDBRANCH   2   3
TORSDOF 2
ENDMDL
MODEL      219
REMARK 921   NORMALIZED FREE ENERGY PREDICTED BY IDOCK:   -2.23 KCAL/MOL
REMARK 922        TOTAL FREE ENERGY PREDICTED BY IDOCK:   -2.62 KCAL/MOL
REMARK 923 INTER-LIGAND FREE ENERGY PREDICTED BY IDOCK:   -2.47 KCAL/MOL
REMARK 924 INTRA-LIGAND FREE ENERGY PREDICTED BY IDOCK:   -0.15 KCAL/MOL
REMARK 927      BINDING AFFINITY PREDICTED BY RF-SCORE:    0.00 PKD
ROOT
HETATM    1  C   UNL     1      -8.030   7.923  74.564  1.00  0.00    -0.280 C  
HETATM    2  C   UNL     1      -7.369   7.291  73.349  1.00  0.00    -0.083 C  
ENDROOT
BRANCH   2   3
HETATM    3  C   UNL     1      -8.001   5.940  73.014  1.00  0.00    -0.106 C  
BRANCH   3   4
HETATM    4  N   UNL     1      -8.889   6.017  71.860  1.00  0.00    -0.138 N  
HETATM    5  C   UNL     1      -8.397   5.987  70.572  1.00  0.00    -0.128 A  
HETATM    6  C   UNL     1      -9.225   6.054  69.492  1.00  0.00    -0.136 A  
HETATM    7  N   UNL     1      -8.411   5.988  68.401  1.00  0.00    -0.113 NA 
HETATM    8  C   UNL     1     -10.633   6.163  69.597  1.00  0.00    -0.284 C  
HETATM    9  N   UNL     1     -11.055   6.202  70.907  1.00  0.00    -0.301 N  
HETATM   10  O   UNL     1     -11.401   6.216  68.644  1.00  0.00    -0.319 OA 
HETATM   11  C   UNL     1      -7.129   5.886  68.877  1.00  0.00    -0.073 A  
HETATM   12  H   UNL     1      -8.698   6.011  67.422  1.00  0.00     0.000 HD 
HETATM   13  H   UNL     1     -12.061   6.280  71.057  1.00  0.00     0.000 HD 
HETATM   14  C   UNL     1     -10.266   6.146  72.044  1.00  0.00    -0.194 C  
HETATM   15  N   UNL     1      -7.093   5.884  70.196  1.00  0.00    -0.068 NA 
HETATM   16  O   UNL     1     -10.807   6.208  73.148  1.00  0.00    -0.246 OA 
ENDBRANCH   3   4
ENDBRANCH   2   3
TORSDOF 2
ENDMDL
MODEL      220
REMARK 921   NORMALIZED FREE ENERGY PREDICTED BY IDOCK:   -2.22 KCAL/MOL
REMARK 922        TOTAL FREE ENERGY PREDICTED BY IDOCK:   -2.61 KCAL/MOL
REMARK 923 INTER-LIGAND FREE ENERGY PREDICTED BY IDOCK:   -3.07 KCAL/MOL
REMARK 924 INTRA-LIGAND FREE ENERGY PREDICTED BY IDOCK:    0.46 KCAL/MOL
REMARK 927      BINDING AFFINITY PREDICTED BY RF-SCORE:    0.00 PKD
ROOT
HETATM    1  C   UNL     1      -6.324   9.648  67.214  1.00  0.00    -0.068 C  
HETATM    2  C   UNL     1      -7.285  10.769  67.579  1.00  0.00    -0.090 C  
ENDROOT
BRANCH   2   3
HETATM    3  C   UNL     1      -7.985  11.323  66.339  1.00  0.00    -0.125 C  
BRANCH   3   4
HETATM    4  N   UNL     1      -8.874  12.433  66.656  1.00  0.00    -0.191 N  
HETATM    5  C   UNL     1     -10.150  12.504  66.136  1.00  0.00    -0.251 A  
HETATM    6  C   UNL     1     -10.985  13.538  66.435  1.00  0.00    -0.293 A  
HETATM    7  N   UNL     1     -12.144  13.278  65.766  1.00  0.00    -0.416 NA 
HETATM    8  C   UNL     1     -10.621  14.611  67.284  1.00  0.00    -0.284 C  
HETATM    9  N   UNL     1      -9.334  14.486  67.755  1.00  0.00    -0.195 N  
HETATM   10  O   UNL     1     -11.354  15.548  67.575  1.00  0.00    -0.314 OA 
HETATM   11  C   UNL     1     -11.951  12.098  65.096  1.00  0.00    -0.262 A  
HETATM   12  H   UNL     1     -12.990  13.849  65.765  1.00  0.00     0.000 HD 
HETATM   13  H   UNL     1      -9.004  15.227  68.375  1.00  0.00     0.000 HD 
HETATM   14  C   UNL     1      -8.436  13.467  67.483  1.00  0.00    -0.192 C  
HETATM   15  N   UNL     1     -10.745  11.606  65.302  1.00  0.00    -0.286 NA 
HETATM   16  O   UNL     1      -7.310  13.517  67.980  1.00  0.00    -0.102 OA 
ENDBRANCH   3   4
ENDBRANCH   2   3
TORSDOF 2
ENDMDL
MODEL      221
REMARK 921   NORMALIZED FREE ENERGY PREDICTED BY IDOCK:   -2.21 KCAL/MOL
REMARK 922        TOTAL FREE ENERGY PREDICTED BY IDOCK:   -2.59 KCAL/MOL
REMARK 923 INTER-LIGAND FREE ENERGY PREDICTED BY IDOCK:   -2.62 KCAL/MOL
REMARK 924 INTRA-LIGAND FREE ENERGY PREDICTED BY IDOCK:    0.03 KCAL/MOL
REMARK 927      BINDING AFFINITY PREDICTED BY RF-SCORE:    0.00 PKD
ROOT
HETATM    1  C   UNL     1     -10.951   6.219  68.479  1.00  0.00    -0.421 C  
HETATM    2  C   UNL     1     -10.843   6.459  66.981  1.00  0.00    -0.464 C  
ENDROOT
BRANCH   2   3
HETATM    3  C   UNL     1      -9.402   6.757  66.570  1.00  0.00    -0.161 C  
BRANCH   3   4
HETATM    4  N   UNL     1      -8.864   7.929  67.249  1.00  0.00    -0.126 N  
HETATM    5  C   UNL     1      -9.287   9.202  66.928  1.00  0.00    -0.156 A  
HETATM    6  C   UNL     1      -8.789  10.299  67.565  1.00  0.00    -0.128 A  
HETATM    7  N   UNL     1      -9.430  11.367  67.010  1.00  0.00    -0.172 NA 
HETATM    8  C   UNL     1      -7.811  10.229  68.586  1.00  0.00    -0.101 C  
HETATM    9  N   UNL     1      -7.424   8.934  68.845  1.00  0.00    -0.081 N  
HETATM   10  O   UNL     1      -7.353  11.197  69.179  1.00  0.00    -0.113 OA 
HETATM   11  C   UNL     1     -10.283  10.861  66.064  1.00  0.00    -0.254 A  
HETATM   12  H   UNL     1      -9.300  12.350  67.250  1.00  0.00     0.000 HD 
HETATM   13  H   UNL     1      -6.719   8.809  69.572  1.00  0.00     0.000 HD 
HETATM   14  C   UNL     1      -7.884   7.781  68.230  1.00  0.00    -0.121 C  
HETATM   15  N   UNL     1     -10.215   9.545  65.992  1.00  0.00    -0.237 NA 
HETATM   16  O   UNL     1      -7.418   6.696  68.575  1.00  0.00    -0.088 OA 
ENDBRANCH   3   4
ENDBRANCH   2   3
TORSDOF 2
ENDMDL
MODEL      222
REMARK 921   NORMALIZED FREE ENERGY PREDICTED BY IDOCK:   -2.15 KCAL/MOL
REMARK 922        TOTAL FREE ENERGY PREDICTED BY IDOCK:   -2.52 KCAL/MOL
REMARK 923 INTER-LIGAND FREE ENERGY PREDICTED BY IDOCK:   -2.42 KCAL/MOL
REMARK 924 INTRA-LIGAND FREE ENERGY PREDICTED BY IDOCK:   -0.10 KCAL/MOL
REMARK 927      BINDING AFFINITY PREDICTED BY RF-SCORE:    0.00 PKD
ROOT
HETATM    1  C   UNL     1      -6.493  20.316  65.604  1.00  0.00    -0.270 C  
HETATM    2  C   UNL     1      -6.130  19.157  66.519  1.00  0.00    -0.179 C  
ENDROOT
BRANCH   2   3
HETATM    3  C   UNL     1      -7.198  18.941  67.590  1.00  0.00    -0.219 C  
BRANCH   3   4
HETATM    4  N   UNL     1      -7.364  17.533  67.929  1.00  0.00    -0.198 N  
HETATM    5  C   UNL     1      -6.744  16.981  69.031  1.00  0.00    -0.221 A  
HETATM    6  C   UNL     1      -6.901  15.667  69.353  1.00  0.00    -0.186 A  
HETATM    7  N   UNL     1      -6.167  15.477  70.486  1.00  0.00     0.021 NA 
HETATM    8  C   UNL     1      -7.694  14.770  68.596  1.00  0.00    -0.130 C  
HETATM    9  N   UNL     1      -8.270  15.380  67.505  1.00  0.00    -0.156 N  
HETATM   10  O   UNL     1      -7.858  13.587  68.867  1.00  0.00    -0.067 OA 
HETATM   11  C   UNL     1      -5.603  16.687  70.792  1.00  0.00     0.018 A  
HETATM   12  H   UNL     1      -6.059  14.604  71.005  1.00  0.00     0.000 HD 
HETATM   13  H   UNL     1      -8.856  14.791  66.913  1.00  0.00     0.000 HD 
HETATM   14  C   UNL     1      -8.143  16.705  67.121  1.00  0.00    -0.182 C  
HETATM   15  N   UNL     1      -5.936  17.621  69.922  1.00  0.00    -0.245 NA 
HETATM   16  O   UNL     1      -8.719  17.087  66.102  1.00  0.00    -0.406 OA 
ENDBRANCH   3   4
ENDBRANCH   2   3
TORSDOF 2
ENDMDL
MODEL      223
REMARK 921   NORMALIZED FREE ENERGY PREDICTED BY IDOCK:   -2.14 KCAL/MOL
REMARK 922        TOTAL FREE ENERGY PREDICTED BY IDOCK:   -2.51 KCAL/MOL
REMARK 923 INTER-LIGAND FREE ENERGY PREDICTED BY IDOCK:   -3.61 KCAL/MOL
REMARK 924 INTRA-LIGAND FREE ENERGY PREDICTED BY IDOCK:    1.09 KCAL/MOL
REMARK 927      BINDING AFFINITY PREDICTED BY RF-SCORE:    0.00 PKD
ROOT
HETATM    1  C   UNL     1      -8.571  12.220  67.377  1.00  0.00    -0.178 C  
HETATM    2  C   UNL     1      -9.280  13.534  67.665  1.00  0.00    -0.214 C  
ENDROOT
BRANCH   2   3
HETATM    3  C   UNL     1      -8.514  14.717  67.073  1.00  0.00    -0.222 C  
BRANCH   3   4
HETATM    4  N   UNL     1      -8.975  15.994  67.603  1.00  0.00    -0.189 N  
HETATM    5  C   UNL     1      -9.941  16.059  68.585  1.00  0.00    -0.220 A  
HETATM    6  C   UNL     1     -10.371  17.251  69.085  1.00  0.00    -0.290 A  
HETATM    7  N   UNL     1     -11.303  16.939  70.028  1.00  0.00    -0.214 NA 
HETATM    8  C   UNL     1      -9.875  18.503  68.644  1.00  0.00    -0.385 C  
HETATM    9  N   UNL     1      -8.927  18.367  67.656  1.00  0.00    -0.271 N  
HETATM   10  O   UNL     1     -10.237  19.588  69.081  1.00  0.00    -0.375 OA 
HETATM   11  C   UNL     1     -11.392  15.571  70.051  1.00  0.00    -0.321 A  
HETATM   12  H   UNL     1     -11.832  17.594  70.605  1.00  0.00     0.000 HD 
HETATM   13  H   UNL     1      -8.527  19.231  67.290  1.00  0.00     0.000 HD 
HETATM   14  C   UNL     1      -8.456  17.188  67.101  1.00  0.00    -0.200 C  
HETATM   15  N   UNL     1     -10.574  15.010  69.180  1.00  0.00    -0.243 NA 
HETATM   16  O   UNL     1      -7.610  17.247  66.209  1.00  0.00    -0.283 OA 
ENDBRANCH   3   4
ENDBRANCH   2   3
TORSDOF 2
ENDMDL
MODEL      224
REMARK 921   NORMALIZED FREE ENERGY PREDICTED BY IDOCK:   -2.11 KCAL/MOL
REMARK 922        TOTAL FREE ENERGY PREDICTED BY IDOCK:   -2.48 KCAL/MOL
REMARK 923 INTER-LIGAND FREE ENERGY PREDICTED BY IDOCK:   -2.32 KCAL/MOL
REMARK 924 INTRA-LIGAND FREE ENERGY PREDICTED BY IDOCK:   -0.16 KCAL/MOL
REMARK 927      BINDING AFFINITY PREDICTED BY RF-SCORE:    0.00 PKD
ROOT
HETATM    1  C   UNL     1     -10.498  19.814  67.353  1.00  0.00    -0.577 C  
HETATM    2  C   UNL     1     -10.330  18.426  67.951  1.00  0.00    -0.425 C  
ENDROOT
BRANCH   2   3
HETATM    3  C   UNL     1      -9.197  17.661  67.266  1.00  0.00    -0.241 C  
BRANCH   3   4
HETATM    4  N   UNL     1      -8.256  17.094  68.223  1.00  0.00    -0.222 N  
HETATM    5  C   UNL     1      -8.410  15.813  68.711  1.00  0.00    -0.195 A  
HETATM    6  C   UNL     1      -7.529  15.279  69.602  1.00  0.00    -0.181 A  
HETATM    7  N   UNL     1      -7.979  14.016  69.851  1.00  0.00     0.224 NA 
HETATM    8  C   UNL     1      -6.404  15.981  70.100  1.00  0.00    -0.008 C  
HETATM    9  N   UNL     1      -6.319  17.255  69.586  1.00  0.00    -0.239 N  
HETATM   10  O   UNL     1      -5.593  15.523  70.894  1.00  0.00    -0.108 OA 
HETATM   11  C   UNL     1      -9.111  13.851  69.096  1.00  0.00     0.362 A  
HETATM   12  H   UNL     1      -7.556  13.329  70.476  1.00  0.00     0.000 HD 
HETATM   13  H   UNL     1      -5.530  17.819  69.902  1.00  0.00     0.000 HD 
HETATM   14  C   UNL     1      -7.183  17.857  68.686  1.00  0.00    -0.272 C  
HETATM   15  N   UNL     1      -9.397  14.930  68.394  1.00  0.00    -0.191 NA 
HETATM   16  O   UNL     1      -6.966  19.017  68.337  1.00  0.00    -0.244 OA 
ENDBRANCH   3   4
ENDBRANCH   2   3
TORSDOF 2
ENDMDL
MODEL      225
REMARK 921   NORMALIZED FREE ENERGY PREDICTED BY IDOCK:   -2.10 KCAL/MOL
REMARK 922        TOTAL FREE ENERGY PREDICTED BY IDOCK:   -2.47 KCAL/MOL
REMARK 923 INTER-LIGAND FREE ENERGY PREDICTED BY IDOCK:   -2.33 KCAL/MOL
REMARK 924 INTRA-LIGAND FREE ENERGY PREDICTED BY IDOCK:   -0.14 KCAL/MOL
REMARK 927      BINDING AFFINITY PREDICTED BY RF-SCORE:    0.00 PKD
ROOT
HETATM    1  C   UNL     1      -5.787   7.171  68.101  1.00  0.00    -0.022 C  
HETATM    2  C   UNL     1      -6.473   8.201  67.217  1.00  0.00    -0.057 C  
ENDROOT
BRANCH   2   3
HETATM    3  C   UNL     1      -7.995   8.090  67.317  1.00  0.00    -0.121 C  
BRANCH   3   4
HETATM    4  N   UNL     1      -8.650   9.389  67.229  1.00  0.00    -0.128 N  
HETATM    5  C   UNL     1      -9.040   9.916  66.016  1.00  0.00    -0.158 A  
HETATM    6  C   UNL     1      -9.657  11.128  65.931  1.00  0.00    -0.218 A  
HETATM    7  N   UNL     1      -9.904  11.322  64.605  1.00  0.00    -0.253 NA 
HETATM    8  C   UNL     1      -9.940  11.937  67.059  1.00  0.00    -0.202 C  
HETATM    9  N   UNL     1      -9.513  11.359  68.233  1.00  0.00    -0.181 N  
HETATM   10  O   UNL     1     -10.500  13.025  67.012  1.00  0.00    -0.245 OA 
HETATM   11  C   UNL     1      -9.423  10.216  63.953  1.00  0.00    -0.275 A  
HETATM   12  H   UNL     1     -10.358  12.132  64.180  1.00  0.00     0.000 HD 
HETATM   13  H   UNL     1      -9.685  11.889  69.088  1.00  0.00     0.000 HD 
HETATM   14  C   UNL     1      -8.875  10.139  68.384  1.00  0.00    -0.123 C  
HETATM   15  N   UNL     1      -8.890   9.346  64.789  1.00  0.00    -0.201 NA 
HETATM   16  O   UNL     1      -8.545   9.775  69.512  1.00  0.00    -0.148 OA 
ENDBRANCH   3   4
ENDBRANCH   2   3
TORSDOF 2
ENDMDL
MODEL      226
REMARK 921   NORMALIZED FREE ENERGY PREDICTED BY IDOCK:   -2.06 KCAL/MOL
REMARK 922        TOTAL FREE ENERGY PREDICTED BY IDOCK:   -2.42 KCAL/MOL
REMARK 923 INTER-LIGAND FREE ENERGY PREDICTED BY IDOCK:   -2.30 KCAL/MOL
REMARK 924 INTRA-LIGAND FREE ENERGY PREDICTED BY IDOCK:   -0.12 KCAL/MOL
REMARK 927      BINDING AFFINITY PREDICTED BY RF-SCORE:    0.00 PKD
ROOT
HETATM    1  C   UNL     1      -6.456   9.979  67.818  1.00  0.00    -0.066 C  
HETATM    2  C   UNL     1      -6.844   8.873  66.849  1.00  0.00    -0.077 C  
ENDROOT
BRANCH   2   3
HETATM    3  C   UNL     1      -6.998   7.534  67.570  1.00  0.00    -0.080 C  
BRANCH   3   4
HETATM    4  N   UNL     1      -7.737   6.560  66.776  1.00  0.00    -0.098 N  
HETATM    5  C   UNL     1      -9.113   6.481  66.834  1.00  0.00    -0.138 A  
HETATM    6  C   UNL     1      -9.806   5.575  66.089  1.00  0.00    -0.107 A  
HETATM    7  N   UNL     1     -11.120   5.786  66.385  1.00  0.00    -0.767 NA 
HETATM    8  C   UNL     1      -9.186   4.651  65.213  1.00  0.00    -0.156 C  
HETATM    9  N   UNL     1      -7.816   4.775  65.214  1.00  0.00    -0.089 N  
HETATM   10  O   UNL     1      -9.785   3.833  64.526  1.00  0.00    -0.159 OA 
HETATM   11  C   UNL     1     -11.155   6.809  67.296  1.00  0.00    -0.324 A  
HETATM   12  H   UNL     1     -11.921   5.280  66.004  1.00  0.00     0.000 HD 
HETATM   13  H   UNL     1      -7.303   4.138  64.603  1.00  0.00     0.000 HD 
HETATM   14  C   UNL     1      -7.054   5.667  65.951  1.00  0.00    -0.067 C  
HETATM   15  N   UNL     1      -9.946   7.250  67.588  1.00  0.00    -0.152 NA 
HETATM   16  O   UNL     1      -5.828   5.633  65.844  1.00  0.00    -0.020 OA 
ENDBRANCH   3   4
ENDBRANCH   2   3
TORSDOF 2
ENDMDL
MODEL      227
REMARK 921   NORMALIZED FREE ENERGY PREDICTED BY IDOCK:   -2.05 KCAL/MOL
REMARK 922        TOTAL FREE ENERGY PREDICTED BY IDOCK:   -2.41 KCAL/MOL
REMARK 923 INTER-LIGAND FREE ENERGY PREDICTED BY IDOCK:   -2.65 KCAL/MOL
REMARK 924 INTRA-LIGAND FREE ENERGY PREDICTED BY IDOCK:    0.24 KCAL/MOL
REMARK 927      BINDING AFFINITY PREDICTED BY RF-SCORE:    0.00 PKD
ROOT
HETATM    1  C   UNL     1     -11.065   6.085  68.974  1.00  0.00    -0.377 C  
HETATM    2  C   UNL     1      -9.817   6.701  68.360  1.00  0.00    -0.138 C  
ENDROOT
BRANCH   2   3
HETATM    3  C   UNL     1      -8.956   7.382  69.423  1.00  0.00    -0.139 C  
BRANCH   3   4
HETATM    4  N   UNL     1      -8.883   6.608  70.655  1.00  0.00    -0.147 N  
HETATM    5  C   UNL     1      -9.685   6.903  71.739  1.00  0.00    -0.159 A  
HETATM    6  C   UNL     1      -9.621   6.177  72.890  1.00  0.00    -0.154 A  
HETATM    7  N   UNL     1     -10.544   6.733  73.725  1.00  0.00    -0.462 NA 
HETATM    8  C   UNL     1      -8.741   5.083  73.072  1.00  0.00    -0.113 C  
HETATM    9  N   UNL     1      -7.962   4.853  71.962  1.00  0.00    -0.107 N  
HETATM   10  O   UNL     1      -8.670   4.409  74.093  1.00  0.00    -0.103 OA 
HETATM   11  C   UNL     1     -11.119   7.769  73.035  1.00  0.00    -0.359 A  
HETATM   12  H   UNL     1     -10.764   6.437  74.677  1.00  0.00     0.000 HD 
HETATM   13  H   UNL     1      -7.303   4.076  72.023  1.00  0.00     0.000 HD 
HETATM   14  C   UNL     1      -7.973   5.556  70.768  1.00  0.00    -0.111 C  
HETATM   15  N   UNL     1     -10.613   7.895  71.824  1.00  0.00    -0.219 NA 
HETATM   16  O   UNL     1      -7.195   5.224  69.874  1.00  0.00    -0.060 OA 
ENDBRANCH   3   4
ENDBRANCH   2   3
TORSDOF 2
ENDMDL
MODEL      228
REMARK 921   NORMALIZED FREE ENERGY PREDICTED BY IDOCK:   -2.05 KCAL/MOL
REMARK 922        TOTAL FREE ENERGY PREDICTED BY IDOCK:   -2.41 KCAL/MOL
REMARK 923 INTER-LIGAND FREE ENERGY PREDICTED BY IDOCK:   -2.29 KCAL/MOL
REMARK 924 INTRA-LIGAND FREE ENERGY PREDICTED BY IDOCK:   -0.12 KCAL/MOL
REMARK 927      BINDING AFFINITY PREDICTED BY RF-SCORE:    0.00 PKD
ROOT
HETATM    1  C   UNL     1     -11.109   6.190  68.587  1.00  0.00    -0.378 C  
HETATM    2  C   UNL     1     -10.614   6.746  67.261  1.00  0.00    -0.390 C  
ENDROOT
BRANCH   2   3
HETATM    3  C   UNL     1      -9.112   7.028  67.304  1.00  0.00    -0.125 C  
BRANCH   3   4
HETATM    4  N   UNL     1      -8.672   7.852  66.185  1.00  0.00    -0.151 N  
HETATM    5  C   UNL     1      -8.283   7.289  64.987  1.00  0.00    -0.098 A  
HETATM    6  C   UNL     1      -7.875   8.058  63.939  1.00  0.00    -0.142 A  
HETATM    7  N   UNL     1      -7.583   7.183  62.935  1.00  0.00    -0.100 NA 
HETATM    8  C   UNL     1      -7.811   9.472  63.989  1.00  0.00    -0.130 C  
HETATM    9  N   UNL     1      -8.198   9.965  65.214  1.00  0.00    -0.138 N  
HETATM   10  O   UNL     1      -7.457  10.186  63.060  1.00  0.00    -0.140 OA 
HETATM   11  C   UNL     1      -7.829   5.928  63.429  1.00  0.00    -0.100 A  
HETATM   12  H   UNL     1      -7.247   7.416  62.000  1.00  0.00     0.000 HD 
HETATM   13  H   UNL     1      -8.176  10.980  65.321  1.00  0.00     0.000 HD 
HETATM   14  C   UNL     1      -8.614   9.239  66.318  1.00  0.00    -0.128 C  
HETATM   15  N   UNL     1      -8.254   5.964  64.677  1.00  0.00    -0.134 NA 
HETATM   16  O   UNL     1      -8.913   9.842  67.349  1.00  0.00    -0.134 OA 
ENDBRANCH   3   4
ENDBRANCH   2   3
TORSDOF 2
ENDMDL
MODEL      229
REMARK 921   NORMALIZED FREE ENERGY PREDICTED BY IDOCK:   -2.02 KCAL/MOL
REMARK 922        TOTAL FREE ENERGY PREDICTED BY IDOCK:   -2.38 KCAL/MOL
REMARK 923 INTER-LIGAND FREE ENERGY PREDICTED BY IDOCK:   -2.57 KCAL/MOL
REMARK 924 INTRA-LIGAND FREE ENERGY PREDICTED BY IDOCK:    0.19 KCAL/MOL
REMARK 927      BINDING AFFINITY PREDICTED BY RF-SCORE:    0.00 PKD
ROOT
HETATM    1  C   UNL     1     -10.976   6.000  68.861  1.00  0.00    -0.395 C  
HETATM    2  C   UNL     1     -10.700   6.249  67.386  1.00  0.00    -0.409 C  
ENDROOT
BRANCH   2   3
HETATM    3  C   UNL     1      -9.198   6.283  67.103  1.00  0.00    -0.122 C  
BRANCH   3   4
HETATM    4  N   UNL     1      -8.840   7.324  66.148  1.00  0.00    -0.161 N  
HETATM    5  C   UNL     1      -9.145   8.649  66.381  1.00  0.00    -0.174 A  
HETATM    6  C   UNL     1      -8.807   9.624  65.492  1.00  0.00    -0.172 A  
HETATM    7  N   UNL     1      -9.246  10.791  66.043  1.00  0.00    -0.180 NA 
HETATM    8  C   UNL     1      -8.132   9.367  64.273  1.00  0.00    -0.140 C  
HETATM    9  N   UNL     1      -7.872   8.027  64.098  1.00  0.00    -0.136 N  
HETATM   10  O   UNL     1      -7.810  10.225  63.461  1.00  0.00    -0.156 OA 
HETATM   11  C   UNL     1      -9.829  10.461  67.239  1.00  0.00    -0.178 A  
HETATM   12  H   UNL     1      -9.159  11.726  65.644  1.00  0.00     0.000 HD 
HETATM   13  H   UNL     1      -7.387   7.769  63.238  1.00  0.00     0.000 HD 
HETATM   14  C   UNL     1      -8.195   6.989  64.957  1.00  0.00    -0.090 C  
HETATM   15  N   UNL     1      -9.782   9.163  67.469  1.00  0.00    -0.153 NA 
HETATM   16  O   UNL     1      -7.900   5.838  64.637  1.00  0.00    -0.101 OA 
ENDBRANCH   3   4
ENDBRANCH   2   3
TORSDOF 2
ENDMDL
MODEL      230
REMARK 921   NORMALIZED FREE ENERGY PREDICTED BY IDOCK:   -2.02 KCAL/MOL
REMARK 922        TOTAL FREE ENERGY PREDICTED BY IDOCK:   -2.38 KCAL/MOL
REMARK 923 INTER-LIGAND FREE ENERGY PREDICTED BY IDOCK:   -2.27 KCAL/MOL
REMARK 924 INTRA-LIGAND FREE ENERGY PREDICTED BY IDOCK:   -0.11 KCAL/MOL
REMARK 927      BINDING AFFINITY PREDICTED BY RF-SCORE:    0.00 PKD
ROOT
HETATM    1  C   UNL     1      -8.367   5.558  70.377  1.00  0.00    -0.111 C  
HETATM    2  C   UNL     1      -7.816   6.078  69.058  1.00  0.00    -0.096 C  
ENDROOT
BRANCH   2   3
HETATM    3  C   UNL     1      -7.320   4.934  68.175  1.00  0.00    -0.070 C  
BRANCH   3   4
HETATM    4  N   UNL     1      -8.219   4.665  67.060  1.00  0.00    -0.106 N  
HETATM    5  C   UNL     1      -8.048   5.274  65.835  1.00  0.00    -0.110 A  
HETATM    6  C   UNL     1      -8.885   5.021  64.790  1.00  0.00    -0.128 A  
HETATM    7  N   UNL     1      -8.417   5.774  63.755  1.00  0.00    -0.320 NA 
HETATM    8  C   UNL     1      -9.985   4.133  64.873  1.00  0.00    -0.199 C  
HETATM    9  N   UNL     1     -10.107   3.573  66.124  1.00  0.00    -0.355 N  
HETATM   10  O   UNL     1     -10.747   3.881  63.948  1.00  0.00    -0.262 OA 
HETATM   11  C   UNL     1      -7.319   6.446  64.227  1.00  0.00    -0.075 A  
HETATM   12  H   UNL     1      -8.807   5.828  62.813  1.00  0.00     0.000 HD 
HETATM   13  H   UNL     1     -10.881   2.921  66.255  1.00  0.00     0.000 HD 
HETATM   14  C   UNL     1      -9.296   3.794  67.225  1.00  0.00    -0.197 C  
HETATM   15  N   UNL     1      -7.073   6.161  65.491  1.00  0.00    -0.067 NA 
HETATM   16  O   UNL     1      -9.557   3.217  68.281  1.00  0.00    -0.172 OA 
ENDBRANCH   3   4
ENDBRANCH   2   3
TORSDOF 2
ENDMDL
MODEL      231
REMARK 921   NORMALIZED FREE ENERGY PREDICTED BY IDOCK:   -2.01 KCAL/MOL
REMARK 922        TOTAL FREE ENERGY PREDICTED BY IDOCK:   -2.37 KCAL/MOL
REMARK 923 INTER-LIGAND FREE ENERGY PREDICTED BY IDOCK:   -2.74 KCAL/MOL
REMARK 924 INTRA-LIGAND FREE ENERGY PREDICTED BY IDOCK:    0.37 KCAL/MOL
REMARK 927      BINDING AFFINITY PREDICTED BY RF-SCORE:    0.00 PKD
ROOT
HETATM    1  C   UNL     1      -9.143   3.027  69.052  1.00  0.00    -0.205 C  
HETATM    2  C   UNL     1      -9.461   3.772  70.339  1.00  0.00    -0.254 C  
ENDROOT
BRANCH   2   3
HETATM    3  C   UNL     1      -8.632   5.050  70.458  1.00  0.00    -0.109 C  
BRANCH   3   4
HETATM    4  N   UNL     1      -9.399   6.157  71.015  1.00  0.00    -0.163 N  
HETATM    5  C   UNL     1      -8.928   6.895  72.081  1.00  0.00    -0.132 A  
HETATM    6  C   UNL     1      -9.641   7.932  72.600  1.00  0.00    -0.227 A  
HETATM    7  N   UNL     1      -8.880   8.429  73.616  1.00  0.00    -0.249 NA 
HETATM    8  C   UNL     1     -10.906   8.332  72.104  1.00  0.00    -0.320 C  
HETATM    9  N   UNL     1     -11.323   7.547  71.053  1.00  0.00    -0.268 N  
HETATM   10  O   UNL     1     -11.564   9.265  72.546  1.00  0.00     0.038 OA 
HETATM   11  C   UNL     1      -7.743   7.664  73.660  1.00  0.00    -0.131 A  
HETATM   12  H   UNL     1      -9.111   9.215  74.225  1.00  0.00     0.000 HD 
HETATM   13  H   UNL     1     -12.229   7.779  70.646  1.00  0.00     0.000 HD 
HETATM   14  C   UNL     1     -10.650   6.477  70.486  1.00  0.00    -0.234 C  
HETATM   15  N   UNL     1      -7.747   6.722  72.737  1.00  0.00    -0.095 NA 
HETATM   16  O   UNL     1     -11.176   5.870  69.554  1.00  0.00    -0.389 OA 
ENDBRANCH   3   4
ENDBRANCH   2   3
TORSDOF 2
ENDMDL
MODEL      232
REMARK 921   NORMALIZED FREE ENERGY PREDICTED BY IDOCK:   -2.01 KCAL/MOL
REMARK 922        TOTAL FREE ENERGY PREDICTED BY IDOCK:   -2.37 KCAL/MOL
REMARK 923 INTER-LIGAND FREE ENERGY PREDICTED BY IDOCK:   -2.26 KCAL/MOL
REMARK 924 INTRA-LIGAND FREE ENERGY PREDICTED BY IDOCK:   -0.11 KCAL/MOL
REMARK 927      BINDING AFFINITY PREDICTED BY RF-SCORE:    0.00 PKD
ROOT
HETATM    1  C   UNL     1     -11.056   2.315  63.182  1.00  0.00    -0.223 C  
HETATM    2  C   UNL     1     -10.459   3.681  63.483  1.00  0.00    -0.255 C  
ENDROOT
BRANCH   2   3
HETATM    3  C   UNL     1      -9.452   3.604  64.630  1.00  0.00    -0.159 C  
BRANCH   3   4
HETATM    4  N   UNL     1      -8.967   4.920  65.028  1.00  0.00    -0.154 N  
HETATM    5  C   UNL     1      -9.620   5.667  65.987  1.00  0.00    -0.080 A  
HETATM    6  C   UNL     1      -9.166   6.895  66.364  1.00  0.00    -0.152 A  
HETATM    7  N   UNL     1     -10.035   7.329  67.321  1.00  0.00    -0.174 NA 
HETATM    8  C   UNL     1      -8.012   7.501  65.811  1.00  0.00    -0.117 C  
HETATM    9  N   UNL     1      -7.419   6.711  64.853  1.00  0.00    -0.087 N  
HETATM   10  O   UNL     1      -7.578   8.599  66.137  1.00  0.00    -0.091 OA 
HETATM   11  C   UNL     1     -10.972   6.340  67.473  1.00  0.00    -0.350 A  
HETATM   12  H   UNL     1      -9.996   8.216  67.824  1.00  0.00     0.000 HD 
HETATM   13  H   UNL     1      -6.579   7.086  64.412  1.00  0.00     0.000 HD 
HETATM   14  C   UNL     1      -7.834   5.461  64.421  1.00  0.00    -0.103 C  
HETATM   15  N   UNL     1     -10.744   5.317  66.672  1.00  0.00    -0.265 NA 
HETATM   16  O   UNL     1      -7.191   4.893  63.539  1.00  0.00    -0.047 OA 
ENDBRANCH   3   4
ENDBRANCH   2   3
TORSDOF 2
ENDMDL
MODEL      233
REMARK 921   NORMALIZED FREE ENERGY PREDICTED BY IDOCK:   -1.99 KCAL/MOL
REMARK 922        TOTAL FREE ENERGY PREDICTED BY IDOCK:   -2.35 KCAL/MOL
REMARK 923 INTER-LIGAND FREE ENERGY PREDICTED BY IDOCK:   -2.21 KCAL/MOL
REMARK 924 INTRA-LIGAND FREE ENERGY PREDICTED BY IDOCK:   -0.13 KCAL/MOL
REMARK 927      BINDING AFFINITY PREDICTED BY RF-SCORE:    0.00 PKD
ROOT
HETATM    1  C   UNL     1      -6.121  13.510  69.732  1.00  0.00    -0.127 C  
HETATM    2  C   UNL     1      -5.701  12.885  68.411  1.00  0.00    -0.068 C  
ENDROOT
BRANCH   2   3
HETATM    3  C   UNL     1      -6.031  11.393  68.374  1.00  0.00    -0.045 C  
BRANCH   3   4
HETATM    4  N   UNL     1      -7.012  11.069  67.345  1.00  0.00    -0.082 N  
HETATM    5  C   UNL     1      -8.347  10.907  67.650  1.00  0.00    -0.116 A  
HETATM    6  C   UNL     1      -9.266  10.608  66.689  1.00  0.00    -0.164 A  
HETATM    7  N   UNL     1     -10.463  10.534  67.337  1.00  0.00    -0.227 NA 
HETATM    8  C   UNL     1      -8.934  10.436  65.323  1.00  0.00    -0.187 C  
HETATM    9  N   UNL     1      -7.587  10.597  65.091  1.00  0.00    -0.336 N  
HETATM   10  O   UNL     1      -9.740  10.176  64.439  1.00  0.00    -0.308 OA 
HETATM   11  C   UNL     1     -10.207  10.792  68.659  1.00  0.00    -0.185 A  
HETATM   12  H   UNL     1     -11.371  10.328  66.920  1.00  0.00     0.000 HD 
HETATM   13  H   UNL     1      -7.277  10.486  64.126  1.00  0.00     0.000 HD 
HETATM   14  C   UNL     1      -6.605  10.892  66.023  1.00  0.00    -0.080 C  
HETATM   15  N   UNL     1      -8.926  11.020  68.877  1.00  0.00    -0.151 NA 
HETATM   16  O   UNL     1      -5.437  10.988  65.646  1.00  0.00    -0.139 OA 
ENDBRANCH   3   4
ENDBRANCH   2   3
TORSDOF 2
ENDMDL
MODEL      234
REMARK 921   NORMALIZED FREE ENERGY PREDICTED BY IDOCK:   -1.98 KCAL/MOL
REMARK 922        TOTAL FREE ENERGY PREDICTED BY IDOCK:   -2.34 KCAL/MOL
REMARK 923 INTER-LIGAND FREE ENERGY PREDICTED BY IDOCK:   -2.24 KCAL/MOL
REMARK 924 INTRA-LIGAND FREE ENERGY PREDICTED BY IDOCK:   -0.09 KCAL/MOL
REMARK 927      BINDING AFFINITY PREDICTED BY RF-SCORE:    0.00 PKD
ROOT
HETATM    1  C   UNL     1      -5.625   6.611  68.366  1.00  0.00    -0.016 C  
HETATM    2  C   UNL     1      -6.598   7.194  67.352  1.00  0.00    -0.059 C  
ENDROOT
BRANCH   2   3
HETATM    3  C   UNL     1      -7.884   6.371  67.282  1.00  0.00    -0.105 C  
BRANCH   3   4
HETATM    4  N   UNL     1      -8.903   6.859  68.202  1.00  0.00    -0.125 N  
HETATM    5  C   UNL     1      -9.186   6.196  69.379  1.00  0.00    -0.133 A  
HETATM    6  C   UNL     1     -10.135   6.652  70.243  1.00  0.00    -0.179 A  
HETATM    7  N   UNL     1     -10.137   5.772  71.283  1.00  0.00    -0.194 NA 
HETATM    8  C   UNL     1     -10.902   7.820  70.010  1.00  0.00    -0.241 C  
HETATM    9  N   UNL     1     -10.580   8.422  68.815  1.00  0.00    -0.365 N  
HETATM   10  O   UNL     1     -11.754   8.257  70.773  1.00  0.00    -0.277 OA 
HETATM   11  C   UNL     1      -9.188   4.825  70.995  1.00  0.00    -0.141 A  
HETATM   12  H   UNL     1     -10.729   5.809  72.114  1.00  0.00     0.000 HD 
HETATM   13  H   UNL     1     -11.096   9.272  68.583  1.00  0.00     0.000 HD 
HETATM   14  C   UNL     1      -9.634   8.006  67.893  1.00  0.00    -0.155 C  
HETATM   15  N   UNL     1      -8.595   5.059  69.840  1.00  0.00    -0.097 NA 
HETATM   16  O   UNL     1      -9.482   8.658  66.860  1.00  0.00    -0.157 OA 
ENDBRANCH   3   4
ENDBRANCH   2   3
TORSDOF 2
ENDMDL
MODEL      235
REMARK 921   NORMALIZED FREE ENERGY PREDICTED BY IDOCK:   -1.98 KCAL/MOL
REMARK 922        TOTAL FREE ENERGY PREDICTED BY IDOCK:   -2.33 KCAL/MOL
REMARK 923 INTER-LIGAND FREE ENERGY PREDICTED BY IDOCK:   -2.21 KCAL/MOL
REMARK 924 INTRA-LIGAND FREE ENERGY PREDICTED BY IDOCK:   -0.12 KCAL/MOL
REMARK 927      BINDING AFFINITY PREDICTED BY RF-SCORE:    0.00 PKD
ROOT
HETATM    1  C   UNL     1      -5.654   8.543  71.717  1.00  0.00    -0.042 C  
HETATM    2  C   UNL     1      -6.441   8.207  70.460  1.00  0.00    -0.036 C  
ENDROOT
BRANCH   2   3
HETATM    3  C   UNL     1      -7.883   8.703  70.560  1.00  0.00    -0.096 C  
BRANCH   3   4
HETATM    4  N   UNL     1      -8.746   8.101  69.551  1.00  0.00    -0.141 N  
HETATM    5  C   UNL     1      -8.890   8.665  68.300  1.00  0.00    -0.142 A  
HETATM    6  C   UNL     1      -9.692   8.102  67.354  1.00  0.00    -0.170 A  
HETATM    7  N   UNL     1      -9.586   8.906  66.258  1.00  0.00    -0.240 NA 
HETATM    8  C   UNL     1     -10.437   6.917  67.570  1.00  0.00    -0.247 C  
HETATM    9  N   UNL     1     -10.260   6.417  68.840  1.00  0.00    -0.171 N  
HETATM   10  O   UNL     1     -11.159   6.386  66.735  1.00  0.00    -0.358 OA 
HETATM   11  C   UNL     1      -8.723   9.916  66.598  1.00  0.00    -0.128 A  
HETATM   12  H   UNL     1     -10.056   8.781  65.361  1.00  0.00     0.000 HD 
HETATM   13  H   UNL     1     -10.769   5.562  69.066  1.00  0.00     0.000 HD 
HETATM   14  C   UNL     1      -9.468   6.945  69.847  1.00  0.00    -0.156 C  
HETATM   15  N   UNL     1      -8.286   9.794  67.837  1.00  0.00    -0.113 NA 
HETATM   16  O   UNL     1      -9.433   6.375  70.937  1.00  0.00    -0.173 OA 
ENDBRANCH   3   4
ENDBRANCH   2   3
TORSDOF 2
ENDMDL
MODEL      236
REMARK 921   NORMALIZED FREE ENERGY PREDICTED BY IDOCK:   -1.96 KCAL/MOL
REMARK 922        TOTAL FREE ENERGY PREDICTED BY IDOCK:   -2.31 KCAL/MOL
REMARK 923 INTER-LIGAND FREE ENERGY PREDICTED BY IDOCK:   -2.14 KCAL/MOL
REMARK 924 INTRA-LIGAND FREE ENERGY PREDICTED BY IDOCK:   -0.17 KCAL/MOL
REMARK 927      BINDING AFFINITY PREDICTED BY RF-SCORE:    0.00 PKD
ROOT
HETATM    1  C   UNL     1      -8.934   9.820  65.339  1.00  0.00    -0.229 C  
HETATM    2  C   UNL     1      -9.460   9.780  66.765  1.00  0.00    -0.209 C  
ENDROOT
BRANCH   2   3
HETATM    3  C   UNL     1     -10.741   8.951  66.861  1.00  0.00    -0.083 C  
BRANCH   3   4
HETATM    4  N   UNL     1     -10.583   7.788  67.725  1.00  0.00    -0.212 N  
HETATM    5  C   UNL     1     -10.231   6.555  67.215  1.00  0.00    -0.188 A  
HETATM    6  C   UNL     1     -10.078   5.468  68.021  1.00  0.00    -0.175 A  
HETATM    7  N   UNL     1      -9.723   4.445  67.194  1.00  0.00    -0.197 NA 
HETATM    8  C   UNL     1     -10.270   5.507  69.424  1.00  0.00    -0.259 C  
HETATM    9  N   UNL     1     -10.633   6.759  69.864  1.00  0.00    -0.211 N  
HETATM   10  O   UNL     1     -10.131   4.548  70.172  1.00  0.00    -0.229 OA 
HETATM   11  C   UNL     1      -9.680   4.966  65.927  1.00  0.00    -0.184 A  
HETATM   12  H   UNL     1      -9.528   3.480  67.464  1.00  0.00     0.000 HD 
HETATM   13  H   UNL     1     -10.788   6.860  70.867  1.00  0.00     0.000 HD 
HETATM   14  C   UNL     1     -10.811   7.899  69.096  1.00  0.00    -0.038 C  
HETATM   15  N   UNL     1      -9.986   6.249  65.911  1.00  0.00     0.244 NA 
HETATM   16  O   UNL     1     -11.154   8.943  69.652  1.00  0.00    -0.175 OA 
ENDBRANCH   3   4
ENDBRANCH   2   3
TORSDOF 2
ENDMDL
MODEL      237
REMARK 921   NORMALIZED FREE ENERGY PREDICTED BY IDOCK:   -1.96 KCAL/MOL
REMARK 922        TOTAL FREE ENERGY PREDICTED BY IDOCK:   -2.31 KCAL/MOL
REMARK 923 INTER-LIGAND FREE ENERGY PREDICTED BY IDOCK:   -3.59 KCAL/MOL
REMARK 924 INTRA-LIGAND FREE ENERGY PREDICTED BY IDOCK:    1.28 KCAL/MOL
REMARK 927      BINDING AFFINITY PREDICTED BY RF-SCORE:    0.00 PKD
ROOT
HETATM    1  C   UNL     1      -6.133  21.137  67.766  1.00  0.00    -0.423 C  
HETATM    2  C   UNL     1      -6.091  20.245  68.997  1.00  0.00    -0.365 C  
ENDROOT
BRANCH   2   3
HETATM    3  C   UNL     1      -7.473  19.676  69.316  1.00  0.00    -0.215 C  
BRANCH   3   4
HETATM    4  N   UNL     1      -7.894  18.671  68.348  1.00  0.00    -0.309 N  
HETATM    5  C   UNL     1      -6.975  17.939  67.626  1.00  0.00    -0.198 A  
HETATM    6  C   UNL     1      -7.366  16.996  66.723  1.00  0.00    -0.230 A  
HETATM    7  N   UNL     1      -6.214  16.474  66.216  1.00  0.00     0.024 NA 
HETATM    8  C   UNL     1      -8.723  16.696  66.451  1.00  0.00    -0.310 C  
HETATM    9  N   UNL     1      -9.585  17.471  67.192  1.00  0.00    -0.256 N  
HETATM   10  O   UNL     1      -9.102  15.848  65.652  1.00  0.00    -0.311 OA 
HETATM   11  C   UNL     1      -5.182  17.130  66.837  1.00  0.00    -0.160 A  
HETATM   12  H   UNL     1      -6.134  15.740  65.511  1.00  0.00     0.000 HD 
HETATM   13  H   UNL     1     -10.581  17.307  67.046  1.00  0.00     0.000 HD 
HETATM   14  C   UNL     1      -9.252  18.447  68.116  1.00  0.00    -0.312 C  
HETATM   15  N   UNL     1      -5.618  18.028  67.699  1.00  0.00    -0.144 NA 
HETATM   16  O   UNL     1     -10.154  19.061  68.686  1.00  0.00    -0.381 OA 
ENDBRANCH   3   4
ENDBRANCH   2   3
TORSDOF 2
ENDMDL
MODEL      238
REMARK 921   NORMALIZED FREE ENERGY PREDICTED BY IDOCK:   -1.92 KCAL/MOL
REMARK 922        TOTAL FREE ENERGY PREDICTED BY IDOCK:   -2.27 KCAL/MOL
REMARK 923 INTER-LIGAND FREE ENERGY PREDICTED BY IDOCK:   -2.65 KCAL/MOL
REMARK 924 INTRA-LIGAND FREE ENERGY PREDICTED BY IDOCK:    0.38 KCAL/MOL
REMARK 927      BINDING AFFINITY PREDICTED BY RF-SCORE:    0.00 PKD
ROOT
HETATM    1  C   UNL     1     -10.245   9.451  67.032  1.00  0.00    -0.322 C  
HETATM    2  C   UNL     1     -11.074  10.699  67.290  1.00  0.00    -0.313 C  
ENDROOT
BRANCH   2   3
HETATM    3  C   UNL     1     -10.632  11.401  68.574  1.00  0.00    -0.198 C  
BRANCH   3   4
HETATM    4  N   UNL     1      -9.477  10.757  69.186  1.00  0.00    -0.173 N  
HETATM    5  C   UNL     1      -9.624   9.803  70.172  1.00  0.00    -0.237 A  
HETATM    6  C   UNL     1      -8.546   9.196  70.743  1.00  0.00    -0.219 A  
HETATM    7  N   UNL     1      -9.059   8.318  71.651  1.00  0.00    -0.166 NA 
HETATM    8  C   UNL     1      -7.208   9.491  70.385  1.00  0.00    -0.127 C  
HETATM    9  N   UNL     1      -7.132  10.458  69.410  1.00  0.00    -0.088 N  
HETATM   10  O   UNL     1      -6.222   8.955  70.876  1.00  0.00    -0.037 OA 
HETATM   11  C   UNL     1     -10.422   8.439  71.584  1.00  0.00    -0.252 A  
HETATM   12  H   UNL     1      -8.531   7.693  72.262  1.00  0.00     0.000 HD 
HETATM   13  H   UNL     1      -6.195  10.721  69.103  1.00  0.00     0.000 HD 
HETATM   14  C   UNL     1      -8.186  11.117  68.797  1.00  0.00    -0.135 C  
HETATM   15  N   UNL     1     -10.793   9.338  70.692  1.00  0.00    -0.255 NA 
HETATM   16  O   UNL     1      -7.940  11.973  67.947  1.00  0.00    -0.128 OA 
ENDBRANCH   3   4
ENDBRANCH   2   3
TORSDOF 2
ENDMDL
MODEL      239
REMARK 921   NORMALIZED FREE ENERGY PREDICTED BY IDOCK:   -1.89 KCAL/MOL
REMARK 922        TOTAL FREE ENERGY PREDICTED BY IDOCK:   -2.23 KCAL/MOL
REMARK 923 INTER-LIGAND FREE ENERGY PREDICTED BY IDOCK:   -2.21 KCAL/MOL
REMARK 924 INTRA-LIGAND FREE ENERGY PREDICTED BY IDOCK:   -0.02 KCAL/MOL
REMARK 927      BINDING AFFINITY PREDICTED BY RF-SCORE:    0.00 PKD
ROOT
HETATM    1  C   UNL     1      -5.499   6.612  68.421  1.00  0.00    -0.016 C  
HETATM    2  C   UNL     1      -6.789   7.366  68.140  1.00  0.00    -0.063 C  
ENDROOT
BRANCH   2   3
HETATM    3  C   UNL     1      -8.013   6.504  68.450  1.00  0.00    -0.110 C  
BRANCH   3   4
HETATM    4  N   UNL     1      -8.613   6.838  69.735  1.00  0.00    -0.139 N  
HETATM    5  C   UNL     1      -9.270   8.035  69.933  1.00  0.00    -0.152 A  
HETATM    6  C   UNL     1      -9.835   8.348  71.132  1.00  0.00    -0.192 A  
HETATM    7  N   UNL     1     -10.396   9.578  70.963  1.00  0.00    -0.302 NA 
HETATM    8  C   UNL     1      -9.793   7.491  72.259  1.00  0.00    -0.169 C  
HETATM    9  N   UNL     1      -9.112   6.324  71.998  1.00  0.00    -0.142 N  
HETATM   10  O   UNL     1     -10.299   7.743  73.345  1.00  0.00    -0.332 OA 
HETATM   11  C   UNL     1     -10.141   9.948  69.668  1.00  0.00    -0.230 A  
HETATM   12  H   UNL     1     -10.906  10.118  71.663  1.00  0.00     0.000 HD 
HETATM   13  H   UNL     1      -9.042   5.658  72.768  1.00  0.00     0.000 HD 
HETATM   14  C   UNL     1      -8.510   5.951  70.807  1.00  0.00    -0.129 C  
HETATM   15  N   UNL     1      -9.455   9.027  69.019  1.00  0.00    -0.154 NA 
HETATM   16  O   UNL     1      -7.925   4.870  70.748  1.00  0.00    -0.079 OA 
ENDBRANCH   3   4
ENDBRANCH   2   3
TORSDOF 2
ENDMDL
MODEL      240
REMARK 921   NORMALIZED FREE ENERGY PREDICTED BY IDOCK:   -1.86 KCAL/MOL
REMARK 922        TOTAL FREE ENERGY PREDICTED BY IDOCK:   -2.21 KCAL/MOL
REMARK 923 INTER-LIGAND FREE ENERGY PREDICTED BY IDOCK:   -2.05 KCAL/MOL
REMARK 924 INTRA-LIGAND FREE ENERGY PREDICTED BY IDOCK:   -0.15 KCAL/MOL
REMARK 927      BINDING AFFINITY PREDICTED BY RF-SCORE:    0.00 PKD
ROOT
HETATM    1  C   UNL     1      -7.670   4.633  71.156  1.00  0.00    -0.081 C  
HETATM    2  C   UNL     1      -7.063   5.551  70.107  1.00  0.00    -0.066 C  
ENDROOT
BRANCH   2   3
HETATM    3  C   UNL     1      -7.305   5.016  68.696  1.00  0.00    -0.062 C  
BRANCH   3   4
HETATM    4  N   UNL     1      -7.717   6.064  67.770  1.00  0.00    -0.099 N  
HETATM    5  C   UNL     1      -9.044   6.402  67.611  1.00  0.00    -0.114 A  
HETATM    6  C   UNL     1      -9.431   7.384  66.750  1.00  0.00    -0.176 A  
HETATM    7  N   UNL     1     -10.788   7.453  66.858  1.00  0.00    -0.557 NA 
HETATM    8  C   UNL     1      -8.522   8.124  65.955  1.00  0.00    -0.141 C  
HETATM    9  N   UNL     1      -7.219   7.727  66.151  1.00  0.00    -0.072 N  
HETATM   10  O   UNL     1      -8.841   9.016  65.180  1.00  0.00    -0.188 OA 
HETATM   11  C   UNL     1     -11.154   6.507  67.780  1.00  0.00    -0.270 A  
HETATM   12  H   UNL     1     -11.410   8.084  66.352  1.00  0.00     0.000 HD 
HETATM   13  H   UNL     1      -6.509   8.219  65.609  1.00  0.00     0.000 HD 
HETATM   14  C   UNL     1      -6.763   6.734  67.003  1.00  0.00    -0.059 C  
HETATM   15  N   UNL     1     -10.112   5.851  68.253  1.00  0.00    -0.153 NA 
HETATM   16  O   UNL     1      -5.557   6.495  67.047  1.00  0.00    -0.012 OA 
ENDBRANCH   3   4
ENDBRANCH   2   3
TORSDOF 2
ENDMDL
MODEL      241
REMARK 921   NORMALIZED FREE ENERGY PREDICTED BY IDOCK:   -1.83 KCAL/MOL
REMARK 922        TOTAL FREE ENERGY PREDICTED BY IDOCK:   -2.16 KCAL/MOL
REMARK 923 INTER-LIGAND FREE ENERGY PREDICTED BY IDOCK:   -2.08 KCAL/MOL
REMARK 924 INTRA-LIGAND FREE ENERGY PREDICTED BY IDOCK:   -0.08 KCAL/MOL
REMARK 927      BINDING AFFINITY PREDICTED BY RF-SCORE:    0.00 PKD
ROOT
HETATM    1  C   UNL     1      -9.412  17.089  68.076  1.00  0.00    -0.256 C  
HETATM    2  C   UNL     1      -9.457  15.720  67.417  1.00  0.00    -0.213 C  
ENDROOT
BRANCH   2   3
HETATM    3  C   UNL     1      -8.049  15.193  67.140  1.00  0.00    -0.214 C  
BRANCH   3   4
HETATM    4  N   UNL     1      -7.838  13.861  67.693  1.00  0.00    -0.164 N  
HETATM    5  C   UNL     1      -7.130  13.672  68.862  1.00  0.00    -0.102 A  
HETATM    6  C   UNL     1      -6.936  12.428  69.383  1.00  0.00     0.084 A  
HETATM    7  N   UNL     1      -6.218  12.618  70.526  1.00  0.00    -0.495 NA 
HETATM    8  C   UNL     1      -7.429  11.246  68.780  1.00  0.00    -0.123 C  
HETATM    9  N   UNL     1      -8.111  11.504  67.613  1.00  0.00    -0.124 N  
HETATM   10  O   UNL     1      -7.276  10.118  69.231  1.00  0.00    -0.068 OA 
HETATM   11  C   UNL     1      -6.013  13.969  70.638  1.00  0.00    -0.186 A  
HETATM   12  H   UNL     1      -5.895  11.897  71.172  1.00  0.00     0.000 HD 
HETATM   13  H   UNL     1      -8.495  10.695  67.124  1.00  0.00     0.000 HD 
HETATM   14  C   UNL     1      -8.336  12.740  67.028  1.00  0.00    -0.120 C  
HETATM   15  N   UNL     1      -6.557  14.634  69.636  1.00  0.00    -0.145 NA 
HETATM   16  O   UNL     1      -8.958  12.792  65.968  1.00  0.00     0.044 OA 
ENDBRANCH   3   4
ENDBRANCH   2   3
TORSDOF 2
ENDMDL
MODEL      242
REMARK 921   NORMALIZED FREE ENERGY PREDICTED BY IDOCK:   -1.82 KCAL/MOL
REMARK 922        TOTAL FREE ENERGY PREDICTED BY IDOCK:   -2.16 KCAL/MOL
REMARK 923 INTER-LIGAND FREE ENERGY PREDICTED BY IDOCK:   -3.09 KCAL/MOL
REMARK 924 INTRA-LIGAND FREE ENERGY PREDICTED BY IDOCK:    0.93 KCAL/MOL
REMARK 927      BINDING AFFINITY PREDICTED BY RF-SCORE:    0.00 PKD
ROOT
HETATM    1  C   UNL     1      -7.675   5.086  68.737  1.00  0.00    -0.078 C  
HETATM    2  C   UNL     1      -8.385   6.378  69.111  1.00  0.00    -0.122 C  
ENDROOT
BRANCH   2   3
HETATM    3  C   UNL     1      -9.017   7.036  67.885  1.00  0.00    -0.122 C  
BRANCH   3   4
HETATM    4  N   UNL     1      -9.843   8.184  68.238  1.00  0.00    -0.166 N  
HETATM    5  C   UNL     1     -10.093   9.195  67.334  1.00  0.00    -0.230 A  
HETATM    6  C   UNL     1     -10.868  10.267  67.661  1.00  0.00    -0.307 A  
HETATM    7  N   UNL     1     -10.907  11.046  66.542  1.00  0.00    -0.243 NA 
HETATM    8  C   UNL     1     -11.467  10.435  68.933  1.00  0.00    -0.186 C  
HETATM    9  N   UNL     1     -11.165   9.401  69.789  1.00  0.00    -0.398 N  
HETATM   10  O   UNL     1     -12.174  11.383  69.250  1.00  0.00    -0.305 OA 
HETATM   11  C   UNL     1     -10.152  10.404  65.595  1.00  0.00    -0.269 A  
HETATM   12  H   UNL     1     -11.401  11.932  66.432  1.00  0.00     0.000 HD 
HETATM   13  H   UNL     1     -11.565   9.457  70.726  1.00  0.00     0.000 HD 
HETATM   14  C   UNL     1     -10.380   8.291  69.521  1.00  0.00    -0.219 C  
HETATM   15  N   UNL     1      -9.643   9.276  66.051  1.00  0.00    -0.251 NA 
HETATM   16  O   UNL     1     -10.199   7.461  70.411  1.00  0.00    -0.196 OA 
ENDBRANCH   3   4
ENDBRANCH   2   3
TORSDOF 2
ENDMDL
MODEL      243
REMARK 921   NORMALIZED FREE ENERGY PREDICTED BY IDOCK:   -1.80 KCAL/MOL
REMARK 922        TOTAL FREE ENERGY PREDICTED BY IDOCK:   -2.13 KCAL/MOL
REMARK 923 INTER-LIGAND FREE ENERGY PREDICTED BY IDOCK:   -2.01 KCAL/MOL
REMARK 924 INTRA-LIGAND FREE ENERGY PREDICTED BY IDOCK:   -0.12 KCAL/MOL
REMARK 927      BINDING AFFINITY PREDICTED BY RF-SCORE:    0.00 PKD
ROOT
HETATM    1  C   UNL     1     -10.318   8.554  68.020  1.00  0.00    -0.272 C  
HETATM    2  C   UNL     1     -10.417   7.126  67.507  1.00  0.00    -0.331 C  
ENDROOT
BRANCH   2   3
HETATM    3  C   UNL     1      -9.045   6.451  67.478  1.00  0.00    -0.114 C  
BRANCH   3   4
HETATM    4  N   UNL     1      -8.730   5.896  66.168  1.00  0.00    -0.136 N  
HETATM    5  C   UNL     1      -8.283   6.695  65.137  1.00  0.00    -0.118 A  
HETATM    6  C   UNL     1      -7.984   6.177  63.913  1.00  0.00    -0.103 A  
HETATM    7  N   UNL     1      -7.570   7.235  63.159  1.00  0.00    -0.106 NA 
HETATM    8  C   UNL     1      -8.108   4.802  63.599  1.00  0.00    -0.101 C  
HETATM    9  N   UNL     1      -8.571   4.066  64.665  1.00  0.00    -0.113 N  
HETATM   10  O   UNL     1      -7.838   4.310  62.511  1.00  0.00    -0.062 OA 
HETATM   11  C   UNL     1      -7.642   8.341  63.966  1.00  0.00    -0.128 A  
HETATM   12  H   UNL     1      -7.268   7.210  62.184  1.00  0.00     0.000 HD 
HETATM   13  H   UNL     1      -8.685   3.064  64.509  1.00  0.00     0.000 HD 
HETATM   14  C   UNL     1      -8.899   4.532  65.927  1.00  0.00    -0.121 C  
HETATM   15  N   UNL     1      -8.075   8.040  65.175  1.00  0.00    -0.137 NA 
HETATM   16  O   UNL     1      -9.316   3.734  66.767  1.00  0.00    -0.166 OA 
ENDBRANCH   3   4
ENDBRANCH   2   3
TORSDOF 2
ENDMDL
MODEL      244
REMARK 921   NORMALIZED FREE ENERGY PREDICTED BY IDOCK:   -1.76 KCAL/MOL
REMARK 922        TOTAL FREE ENERGY PREDICTED BY IDOCK:   -2.09 KCAL/MOL
REMARK 923 INTER-LIGAND FREE ENERGY PREDICTED BY IDOCK:   -2.27 KCAL/MOL
REMARK 924 INTRA-LIGAND FREE ENERGY PREDICTED BY IDOCK:    0.18 KCAL/MOL
REMARK 927      BINDING AFFINITY PREDICTED BY RF-SCORE:    0.00 PKD
ROOT
HETATM    1  C   UNL     1      -8.277   4.897  70.372  1.00  0.00    -0.088 C  
HETATM    2  C   UNL     1      -7.064   5.717  69.961  1.00  0.00    -0.067 C  
ENDROOT
BRANCH   2   3
HETATM    3  C   UNL     1      -7.321   6.467  68.654  1.00  0.00    -0.087 C  
BRANCH   3   4
HETATM    4  N   UNL     1      -7.945   5.621  67.644  1.00  0.00    -0.101 N  
HETATM    5  C   UNL     1      -9.267   5.787  67.285  1.00  0.00    -0.110 A  
HETATM    6  C   UNL     1      -9.851   5.000  66.339  1.00  0.00    -0.201 A  
HETATM    7  N   UNL     1     -11.135   5.445  66.234  1.00  0.00    -0.743 NA 
HETATM    8  C   UNL     1      -9.168   3.961  65.660  1.00  0.00    -0.152 C  
HETATM    9  N   UNL     1      -7.862   3.841  66.076  1.00  0.00    -0.089 N  
HETATM   10  O   UNL     1      -9.666   3.246  64.801  1.00  0.00    -0.162 OA 
HETATM   11  C   UNL     1     -11.262   6.480  67.124  1.00  0.00    -0.235 A  
HETATM   12  H   UNL     1     -11.860   5.080  65.614  1.00  0.00     0.000 HD 
HETATM   13  H   UNL     1      -7.308   3.110  65.628  1.00  0.00     0.000 HD 
HETATM   14  C   UNL     1      -7.213   4.602  67.035  1.00  0.00    -0.076 C  
HETATM   15  N   UNL     1     -10.140   6.708  67.778  1.00  0.00    -0.139 NA 
HETATM   16  O   UNL     1      -6.037   4.351  67.299  1.00  0.00    -0.026 OA 
ENDBRANCH   3   4
ENDBRANCH   2   3
TORSDOF 2
ENDMDL
MODEL      245
REMARK 921   NORMALIZED FREE ENERGY PREDICTED BY IDOCK:   -1.70 KCAL/MOL
REMARK 922        TOTAL FREE ENERGY PREDICTED BY IDOCK:   -2.02 KCAL/MOL
REMARK 923 INTER-LIGAND FREE ENERGY PREDICTED BY IDOCK:   -1.90 KCAL/MOL
REMARK 924 INTRA-LIGAND FREE ENERGY PREDICTED BY IDOCK:   -0.12 KCAL/MOL
REMARK 927      BINDING AFFINITY PREDICTED BY RF-SCORE:    0.00 PKD
ROOT
HETATM    1  C   UNL     1     -11.281   1.924  62.790  1.00  0.00    -0.253 C  
HETATM    2  C   UNL     1     -10.457   3.196  62.908  1.00  0.00    -0.177 C  
ENDROOT
BRANCH   2   3
HETATM    3  C   UNL     1      -9.438   3.093  64.042  1.00  0.00    -0.134 C  
BRANCH   3   4
HETATM    4  N   UNL     1      -8.994   4.402  64.506  1.00  0.00    -0.147 N  
HETATM    5  C   UNL     1      -7.855   4.995  64.002  1.00  0.00    -0.095 A  
HETATM    6  C   UNL     1      -7.440   6.220  64.431  1.00  0.00    -0.088 A  
HETATM    7  N   UNL     1      -6.309   6.493  63.721  1.00  0.00    -0.033 NA 
HETATM    8  C   UNL     1      -8.125   6.971  65.417  1.00  0.00    -0.133 C  
HETATM    9  N   UNL     1      -9.240   6.316  65.887  1.00  0.00    -0.335 N  
HETATM   10  O   UNL     1      -7.779   8.077  65.814  1.00  0.00    -0.086 OA 
HETATM   11  C   UNL     1      -6.097   5.418  62.898  1.00  0.00    -0.021 A  
HETATM   12  H   UNL     1      -5.733   7.333  63.789  1.00  0.00     0.000 HD 
HETATM   13  H   UNL     1      -9.783   6.802  66.602  1.00  0.00     0.000 HD 
HETATM   14  C   UNL     1      -9.709   5.072  65.499  1.00  0.00    -0.063 C  
HETATM   15  N   UNL     1      -7.023   4.491  63.050  1.00  0.00    -0.038 NA 
HETATM   16  O   UNL     1     -10.722   4.624  66.035  1.00  0.00    -0.295 OA 
ENDBRANCH   3   4
ENDBRANCH   2   3
TORSDOF 2
ENDMDL
MODEL      246
REMARK 921   NORMALIZED FREE ENERGY PREDICTED BY IDOCK:   -1.63 KCAL/MOL
REMARK 922        TOTAL FREE ENERGY PREDICTED BY IDOCK:   -1.94 KCAL/MOL
REMARK 923 INTER-LIGAND FREE ENERGY PREDICTED BY IDOCK:   -1.83 KCAL/MOL
REMARK 924 INTRA-LIGAND FREE ENERGY PREDICTED BY IDOCK:   -0.11 KCAL/MOL
REMARK 927      BINDING AFFINITY PREDICTED BY RF-SCORE:    0.00 PKD
ROOT
HETATM    1  C   UNL     1     -10.647   3.503  63.838  1.00  0.00    -0.269 C  
HETATM    2  C   UNL     1      -9.728   4.332  64.721  1.00  0.00    -0.170 C  
ENDROOT
BRANCH   2   3
HETATM    3  C   UNL     1      -9.489   3.648  66.067  1.00  0.00    -0.160 C  
BRANCH   3   4
HETATM    4  N   UNL     1      -8.779   4.508  67.005  1.00  0.00    -0.104 N  
HETATM    5  C   UNL     1      -9.454   5.379  67.835  1.00  0.00    -0.120 A  
HETATM    6  C   UNL     1      -8.792   6.181  68.716  1.00  0.00    -0.121 A  
HETATM    7  N   UNL     1      -9.760   6.887  69.366  1.00  0.00    -0.157 NA 
HETATM    8  C   UNL     1      -7.382   6.193  68.849  1.00  0.00    -0.085 C  
HETATM    9  N   UNL     1      -6.772   5.314  67.984  1.00  0.00    -0.053 N  
HETATM   10  O   UNL     1      -6.763   6.897  69.637  1.00  0.00    -0.047 OA 
HETATM   11  C   UNL     1     -10.959   6.477  68.845  1.00  0.00    -0.314 A  
HETATM   12  H   UNL     1      -9.619   7.585  70.098  1.00  0.00     0.000 HD 
HETATM   13  H   UNL     1      -5.753   5.271  68.025  1.00  0.00     0.000 HD 
HETATM   14  C   UNL     1      -7.385   4.480  67.063  1.00  0.00    -0.080 C  
HETATM   15  N   UNL     1     -10.801   5.560  67.910  1.00  0.00    -0.100 NA 
HETATM   16  O   UNL     1      -6.684   3.761  66.351  1.00  0.00    -0.047 OA 
ENDBRANCH   3   4
ENDBRANCH   2   3
TORSDOF 2
ENDMDL
MODEL      247
REMARK 921   NORMALIZED FREE ENERGY PREDICTED BY IDOCK:   -1.62 KCAL/MOL
REMARK 922        TOTAL FREE ENERGY PREDICTED BY IDOCK:   -1.93 KCAL/MOL
REMARK 923 INTER-LIGAND FREE ENERGY PREDICTED BY IDOCK:   -1.76 KCAL/MOL
REMARK 924 INTRA-LIGAND FREE ENERGY PREDICTED BY IDOCK:   -0.17 KCAL/MOL
REMARK 927      BINDING AFFINITY PREDICTED BY RF-SCORE:    0.00 PKD
ROOT
HETATM    1  C   UNL     1     -11.102   6.184  68.588  1.00  0.00    -0.378 C  
HETATM    2  C   UNL     1     -10.544   6.725  67.280  1.00  0.00    -0.390 C  
ENDROOT
BRANCH   2   3
HETATM    3  C   UNL     1      -9.039   6.976  67.383  1.00  0.00    -0.123 C  
BRANCH   3   4
HETATM    4  N   UNL     1      -8.284   6.222  66.390  1.00  0.00    -0.111 N  
HETATM    5  C   UNL     1      -7.833   4.945  66.648  1.00  0.00    -0.099 A  
HETATM    6  C   UNL     1      -7.131   4.236  65.720  1.00  0.00    -0.067 A  
HETATM    7  N   UNL     1      -6.864   3.033  66.302  1.00  0.00    -0.051 NA 
HETATM    8  C   UNL     1      -6.805   4.743  64.438  1.00  0.00    -0.049 C  
HETATM    9  N   UNL     1      -7.271   6.024  64.253  1.00  0.00    -0.053 N  
HETATM   10  O   UNL     1      -6.183   4.125  63.583  1.00  0.00    -0.017 OA 
HETATM   11  C   UNL     1      -7.418   3.075  67.555  1.00  0.00    -0.061 A  
HETATM   12  H   UNL     1      -6.351   2.254  65.887  1.00  0.00     0.000 HD 
HETATM   13  H   UNL     1      -7.071   6.453  63.348  1.00  0.00     0.000 HD 
HETATM   14  C   UNL     1      -7.981   6.798  65.156  1.00  0.00    -0.128 C  
HETATM   15  N   UNL     1      -8.013   4.228  67.792  1.00  0.00    -0.087 NA 
HETATM   16  O   UNL     1      -8.312   7.939  64.832  1.00  0.00    -0.142 OA 
ENDBRANCH   3   4
ENDBRANCH   2   3
TORSDOF 2
ENDMDL
MODEL      248
REMARK 921   NORMALIZED FREE ENERGY PREDICTED BY IDOCK:   -1.61 KCAL/MOL
REMARK 922        TOTAL FREE ENERGY PREDICTED BY IDOCK:   -1.92 KCAL/MOL
REMARK 923 INTER-LIGAND FREE ENERGY PREDICTED BY IDOCK:   -1.96 KCAL/MOL
REMARK 924 INTRA-LIGAND FREE ENERGY PREDICTED BY IDOCK:    0.04 KCAL/MOL
REMARK 927      BINDING AFFINITY PREDICTED BY RF-SCORE:    0.00 PKD
ROOT
HETATM    1  C   UNL     1     -11.022   6.322  68.628  1.00  0.00    -0.423 C  
HETATM    2  C   UNL     1     -10.981   6.397  67.110  1.00  0.00    -0.476 C  
ENDROOT
BRANCH   2   3
HETATM    3  C   UNL     1      -9.542   6.422  66.595  1.00  0.00    -0.157 C  
BRANCH   3   4
HETATM    4  N   UNL     1      -8.792   5.237  66.993  1.00  0.00    -0.110 N  
HETATM    5  C   UNL     1      -7.794   5.303  67.943  1.00  0.00    -0.092 A  
HETATM    6  C   UNL     1      -7.095   4.196  68.319  1.00  0.00    -0.055 A  
HETATM    7  N   UNL     1      -6.214   4.623  69.268  1.00  0.00    -0.029 NA 
HETATM    8  C   UNL     1      -7.323   2.909  67.773  1.00  0.00    -0.053 C  
HETATM    9  N   UNL     1      -8.318   2.918  66.823  1.00  0.00    -0.090 N  
HETATM   10  O   UNL     1      -6.716   1.897  68.099  1.00  0.00    -0.032 OA 
HETATM   11  C   UNL     1      -6.426   5.969  69.417  1.00  0.00    -0.042 A  
HETATM   12  H   UNL     1      -5.531   4.053  69.768  1.00  0.00     0.000 HD 
HETATM   13  H   UNL     1      -8.536   2.021  66.386  1.00  0.00     0.000 HD 
HETATM   14  C   UNL     1      -9.058   4.007  66.392  1.00  0.00    -0.138 C  
HETATM   15  N   UNL     1      -7.381   6.409  68.621  1.00  0.00    -0.085 NA 
HETATM   16  O   UNL     1      -9.908   3.841  65.517  1.00  0.00    -0.172 OA 
ENDBRANCH   3   4
ENDBRANCH   2   3
TORSDOF 2
ENDMDL
MODEL      249
REMARK 921   NORMALIZED FREE ENERGY PREDICTED BY IDOCK:   -1.59 KCAL/MOL
REMARK 922        TOTAL FREE ENERGY PREDICTED BY IDOCK:   -1.90 KCAL/MOL
REMARK 923 INTER-LIGAND FREE ENERGY PREDICTED BY IDOCK:   -2.18 KCAL/MOL
REMARK 924 INTRA-LIGAND FREE ENERGY PREDICTED BY IDOCK:    0.27 KCAL/MOL
REMARK 927      BINDING AFFINITY PREDICTED BY RF-SCORE:    0.00 PKD
ROOT
HETATM    1  C   UNL     1      -6.359   9.737  66.900  1.00  0.00    -0.065 C  
HETATM    2  C   UNL     1      -6.657  10.066  65.446  1.00  0.00    -0.110 C  
ENDROOT
BRANCH   2   3
HETATM    3  C   UNL     1      -8.158  10.007  65.162  1.00  0.00    -0.144 C  
BRANCH   3   4
HETATM    4  N   UNL     1      -8.839   9.020  65.989  1.00  0.00    -0.163 N  
HETATM    5  C   UNL     1      -8.693   7.667  65.761  1.00  0.00    -0.125 A  
HETATM    6  C   UNL     1      -9.326   6.742  66.536  1.00  0.00    -0.161 A  
HETATM    7  N   UNL     1      -8.950   5.529  66.039  1.00  0.00    -0.149 NA 
HETATM    8  C   UNL     1     -10.174   7.082  67.617  1.00  0.00    -0.193 C  
HETATM    9  N   UNL     1     -10.287   8.444  67.779  1.00  0.00    -0.230 N  
HETATM   10  O   UNL     1     -10.748   6.272  68.334  1.00  0.00    -0.230 OA 
HETATM   11  C   UNL     1      -8.109   5.783  64.986  1.00  0.00    -0.131 A  
HETATM   12  H   UNL     1      -9.238   4.612  66.382  1.00  0.00     0.000 HD 
HETATM   13  H   UNL     1     -10.886   8.761  68.543  1.00  0.00     0.000 HD 
HETATM   14  C   UNL     1      -9.679   9.433  67.023  1.00  0.00    -0.178 C  
HETATM   15  N   UNL     1      -7.937   7.077  64.794  1.00  0.00    -0.126 NA 
HETATM   16  O   UNL     1      -9.900  10.612  67.297  1.00  0.00    -0.169 OA 
ENDBRANCH   3   4
ENDBRANCH   2   3
TORSDOF 2
ENDMDL
MODEL      250
REMARK 921   NORMALIZED FREE ENERGY PREDICTED BY IDOCK:   -1.59 KCAL/MOL
REMARK 922        TOTAL FREE ENERGY PREDICTED BY IDOCK:   -1.90 KCAL/MOL
REMARK 923 INTER-LIGAND FREE ENERGY PREDICTED BY IDOCK:   -1.88 KCAL/MOL
REMARK 924 INTRA-LIGAND FREE ENERGY PREDICTED BY IDOCK:   -0.02 KCAL/MOL
REMARK 927      BINDING AFFINITY PREDICTED BY RF-SCORE:    0.00 PKD
ROOT
HETATM    1  C   UNL     1     -10.331   5.971  66.893  1.00  0.00    -0.303 C  
HETATM    2  C   UNL     1      -9.058   5.546  67.607  1.00  0.00    -0.107 C  
ENDROOT
BRANCH   2   3
HETATM    3  C   UNL     1      -9.373   4.777  68.890  1.00  0.00    -0.135 C  
BRANCH   3   4
HETATM    4  N   UNL     1      -9.144   5.579  70.085  1.00  0.00    -0.135 N  
HETATM    5  C   UNL     1      -7.870   5.917  70.491  1.00  0.00    -0.101 A  
HETATM    6  C   UNL     1      -7.653   6.670  71.605  1.00  0.00    -0.093 A  
HETATM    7  N   UNL     1      -6.300   6.814  71.693  1.00  0.00    -0.042 NA 
HETATM    8  C   UNL     1      -8.697   7.157  72.430  1.00  0.00    -0.123 C  
HETATM    9  N   UNL     1      -9.938   6.772  71.977  1.00  0.00    -0.172 N  
HETATM   10  O   UNL     1      -8.531   7.843  73.431  1.00  0.00    -0.170 OA 
HETATM   11  C   UNL     1      -5.767   6.139  70.626  1.00  0.00    -0.018 A  
HETATM   12  H   UNL     1      -5.786   7.324  72.412  1.00  0.00     0.000 HD 
HETATM   13  H   UNL     1     -10.738   7.089  72.525  1.00  0.00     0.000 HD 
HETATM   14  C   UNL     1     -10.223   6.004  70.861  1.00  0.00    -0.206 C  
HETATM   15  N   UNL     1      -6.700   5.582  69.879  1.00  0.00    -0.049 NA 
HETATM   16  O   UNL     1     -11.397   5.738  70.605  1.00  0.00    -0.222 OA 
ENDBRANCH   3   4
ENDBRANCH   2   3
TORSDOF 2
ENDMDL
MODEL      251
REMARK 921   NORMALIZED FREE ENERGY PREDICTED BY IDOCK:   -1.58 KCAL/MOL
REMARK 922        TOTAL FREE ENERGY PREDICTED BY IDOCK:   -1.88 KCAL/MOL
REMARK 923 INTER-LIGAND FREE ENERGY PREDICTED BY IDOCK:   -1.95 KCAL/MOL
REMARK 924 INTRA-LIGAND FREE ENERGY PREDICTED BY IDOCK:    0.07 KCAL/MOL
REMARK 927      BINDING AFFINITY PREDICTED BY RF-SCORE:    0.00 PKD
ROOT
HETATM    1  C   UNL     1     -11.048   6.289  68.833  1.00  0.00    -0.434 C  
HETATM    2  C   UNL     1     -11.254   6.792  67.413  1.00  0.00    -0.262 C  
ENDROOT
BRANCH   2   3
HETATM    3  C   UNL     1      -9.933   6.841  66.646  1.00  0.00    -0.142 C  
BRANCH   3   4
HETATM    4  N   UNL     1      -9.281   5.539  66.584  1.00  0.00    -0.131 N  
HETATM    5  C   UNL     1      -9.768   4.528  65.782  1.00  0.00    -0.203 A  
HETATM    6  C   UNL     1      -9.158   3.311  65.720  1.00  0.00    -0.153 A  
HETATM    7  N   UNL     1      -9.892   2.578  64.836  1.00  0.00    -0.356 NA 
HETATM    8  C   UNL     1      -7.997   2.985  66.462  1.00  0.00    -0.077 C  
HETATM    9  N   UNL     1      -7.574   4.030  67.250  1.00  0.00    -0.072 N  
HETATM   10  O   UNL     1      -7.425   1.903  66.419  1.00  0.00    -0.059 OA 
HETATM   11  C   UNL     1     -10.911   3.389  64.409  1.00  0.00     0.261 A  
HETATM   12  H   UNL     1      -9.718   1.614  64.549  1.00  0.00     0.000 HD 
HETATM   13  H   UNL     1      -6.740   3.864  67.814  1.00  0.00     0.000 HD 
HETATM   14  C   UNL     1      -8.152   5.284  67.364  1.00  0.00    -0.100 C  
HETATM   15  N   UNL     1     -10.860   4.582  64.971  1.00  0.00    -0.130 NA 
HETATM   16  O   UNL     1      -7.650   6.104  68.132  1.00  0.00    -0.094 OA 
ENDBRANCH   3   4
ENDBRANCH   2   3
TORSDOF 2
ENDMDL
MODEL      252
REMARK 921   NORMALIZED FREE ENERGY PREDICTED BY IDOCK:   -1.56 KCAL/MOL
REMARK 922        TOTAL FREE ENERGY PREDICTED BY IDOCK:   -1.86 KCAL/MOL
REMARK 923 INTER-LIGAND FREE ENERGY PREDICTED BY IDOCK:   -1.81 KCAL/MOL
REMARK 924 INTRA-LIGAND FREE ENERGY PREDICTED BY IDOCK:   -0.06 KCAL/MOL
REMARK 927      BINDING AFFINITY PREDICTED BY RF-SCORE:    0.00 PKD
ROOT
HETATM    1  C   UNL     1     -10.478  12.402  67.597  1.00  0.00    -0.229 C  
HETATM    2  C   UNL     1      -9.709  11.138  67.247  1.00  0.00    -0.186 C  
ENDROOT
BRANCH   2   3
HETATM    3  C   UNL     1     -10.135   9.967  68.132  1.00  0.00    -0.159 C  
BRANCH   3   4
HETATM    4  N   UNL     1      -9.052   9.017  68.350  1.00  0.00    -0.133 N  
HETATM    5  C   UNL     1      -9.022   7.799  67.702  1.00  0.00    -0.127 A  
HETATM    6  C   UNL     1      -8.009   6.911  67.902  1.00  0.00    -0.114 A  
HETATM    7  N   UNL     1      -8.296   5.843  67.105  1.00  0.00    -0.105 NA 
HETATM    8  C   UNL     1      -6.923   7.154  68.779  1.00  0.00    -0.082 C  
HETATM    9  N   UNL     1      -7.023   8.376  69.402  1.00  0.00    -0.049 N  
HETATM   10  O   UNL     1      -5.996   6.377  68.970  1.00  0.00    -0.019 OA 
HETATM   11  C   UNL     1      -9.470   6.139  66.464  1.00  0.00    -0.153 A  
HETATM   12  H   UNL     1      -7.745   4.989  67.006  1.00  0.00     0.000 HD 
HETATM   13  H   UNL     1      -6.273   8.617  70.050  1.00  0.00     0.000 HD 
HETATM   14  C   UNL     1      -8.028   9.317  69.248  1.00  0.00    -0.098 C  
HETATM   15  N   UNL     1      -9.935   7.324  66.811  1.00  0.00    -0.221 NA 
HETATM   16  O   UNL     1      -7.970  10.361  69.898  1.00  0.00    -0.132 OA 
ENDBRANCH   3   4
ENDBRANCH   2   3
TORSDOF 2
ENDMDL
MODEL      253
REMARK 921   NORMALIZED FREE ENERGY PREDICTED BY IDOCK:   -1.55 KCAL/MOL
REMARK 922        TOTAL FREE ENERGY PREDICTED BY IDOCK:   -1.86 KCAL/MOL
REMARK 923 INTER-LIGAND FREE ENERGY PREDICTED BY IDOCK:   -1.76 KCAL/MOL
REMARK 924 INTRA-LIGAND FREE ENERGY PREDICTED BY IDOCK:   -0.09 KCAL/MOL
REMARK 927      BINDING AFFINITY PREDICTED BY RF-SCORE:    0.00 PKD
ROOT
HETATM    1  C   UNL     1     -10.630   2.928  63.710  1.00  0.00    -0.164 C  
HETATM    2  C   UNL     1     -10.226   4.286  64.264  1.00  0.00    -0.050 C  
ENDROOT
BRANCH   2   3
HETATM    3  C   UNL     1     -10.093   4.245  65.786  1.00  0.00    -0.212 C  
BRANCH   3   4
HETATM    4  N   UNL     1      -9.407   5.419  66.312  1.00  0.00    -0.151 N  
HETATM    5  C   UNL     1      -8.031   5.505  66.316  1.00  0.00    -0.105 A  
HETATM    6  C   UNL     1      -7.388   6.603  66.804  1.00  0.00    -0.078 A  
HETATM    7  N   UNL     1      -6.058   6.351  66.641  1.00  0.00    -0.031 NA 
HETATM    8  C   UNL     1      -8.063   7.725  67.342  1.00  0.00    -0.123 C  
HETATM    9  N   UNL     1      -9.430   7.568  67.320  1.00  0.00    -0.144 N  
HETATM   10  O   UNL     1      -7.511   8.727  67.778  1.00  0.00    -0.091 OA 
HETATM   11  C   UNL     1      -5.964   5.111  66.064  1.00  0.00    -0.022 A  
HETATM   12  H   UNL     1      -5.284   6.964  66.899  1.00  0.00     0.000 HD 
HETATM   13  H   UNL     1      -9.982   8.340  67.694  1.00  0.00     0.000 HD 
HETATM   14  C   UNL     1     -10.142   6.477  66.848  1.00  0.00    -0.192 C  
HETATM   15  N   UNL     1      -7.151   4.573  65.857  1.00  0.00    -0.070 NA 
HETATM   16  O   UNL     1     -11.371   6.493  66.917  1.00  0.00    -0.330 OA 
ENDBRANCH   3   4
ENDBRANCH   2   3
TORSDOF 2
ENDMDL
MODEL      254
REMARK 921   NORMALIZED FREE ENERGY PREDICTED BY IDOCK:   -1.53 KCAL/MOL
REMARK 922        TOTAL FREE ENERGY PREDICTED BY IDOCK:   -1.84 KCAL/MOL
REMARK 923 INTER-LIGAND FREE ENERGY PREDICTED BY IDOCK:   -1.66 KCAL/MOL
REMARK 924 INTRA-LIGAND FREE ENERGY PREDICTED BY IDOCK:   -0.18 KCAL/MOL
REMARK 927      BINDING AFFINITY PREDICTED BY RF-SCORE:    0.00 PKD
ROOT
HETATM    1  C   UNL     1     -10.790   6.849  67.267  1.00  0.00    -0.426 C  
HETATM    2  C   UNL     1      -9.942   6.002  66.331  1.00  0.00    -0.145 C  
ENDROOT
BRANCH   2   3
HETATM    3  C   UNL     1     -10.263   4.516  66.485  1.00  0.00    -0.191 C  
BRANCH   3   4
HETATM    4  N   UNL     1      -9.148   3.765  67.049  1.00  0.00    -0.148 N  
HETATM    5  C   UNL     1      -8.170   3.219  66.246  1.00  0.00    -0.097 A  
HETATM    6  C   UNL     1      -7.124   2.520  66.771  1.00  0.00    -0.049 A  
HETATM    7  N   UNL     1      -6.362   2.145  65.705  1.00  0.00    -0.023 NA 
HETATM    8  C   UNL     1      -6.959   2.295  68.159  1.00  0.00    -0.047 C  
HETATM    9  N   UNL     1      -7.975   2.853  68.900  1.00  0.00    -0.056 N  
HETATM   10  O   UNL     1      -6.026   1.679  68.658  1.00  0.00    -0.022 OA 
HETATM   11  C   UNL     1      -6.986   2.635  64.587  1.00  0.00    -0.048 A  
HETATM   12  H   UNL     1      -5.497   1.604  65.733  1.00  0.00     0.000 HD 
HETATM   13  H   UNL     1      -7.920   2.729  69.911  1.00  0.00     0.000 HD 
HETATM   14  C   UNL     1      -9.066   3.565  68.427  1.00  0.00    -0.149 C  
HETATM   15  N   UNL     1      -8.090   3.291  64.888  1.00  0.00    -0.089 NA 
HETATM   16  O   UNL     1      -9.896   3.986  69.232  1.00  0.00    -0.166 OA 
ENDBRANCH   3   4
ENDBRANCH   2   3
TORSDOF 2
ENDMDL
MODEL      255
REMARK 921   NORMALIZED FREE ENERGY PREDICTED BY IDOCK:   -1.52 KCAL/MOL
REMARK 922        TOTAL FREE ENERGY PREDICTED BY IDOCK:   -1.82 KCAL/MOL
REMARK 923 INTER-LIGAND FREE ENERGY PREDICTED BY IDOCK:   -2.00 KCAL/MOL
REMARK 924 INTRA-LIGAND FREE ENERGY PREDICTED BY IDOCK:    0.18 KCAL/MOL
REMARK 927      BINDING AFFINITY PREDICTED BY RF-SCORE:    0.00 PKD
ROOT
HETATM    1  C   UNL     1      -6.904   4.803  69.904  1.00  0.00    -0.048 C  
HETATM    2  C   UNL     1      -6.005   5.444  68.859  1.00  0.00    -0.024 C  
ENDROOT
BRANCH   2   3
HETATM    3  C   UNL     1      -6.820   5.995  67.689  1.00  0.00    -0.060 C  
BRANCH   3   4
HETATM    4  N   UNL     1      -7.627   7.147  68.073  1.00  0.00    -0.109 N  
HETATM    5  C   UNL     1      -8.995   7.160  67.890  1.00  0.00    -0.122 A  
HETATM    6  C   UNL     1      -9.751   8.234  68.252  1.00  0.00    -0.158 A  
HETATM    7  N   UNL     1     -11.035   7.898  67.942  1.00  0.00    -0.478 NA 
HETATM    8  C   UNL     1      -9.209   9.408  68.829  1.00  0.00    -0.132 C  
HETATM    9  N   UNL     1      -7.842   9.334  68.969  1.00  0.00    -0.081 N  
HETATM   10  O   UNL     1      -9.867  10.383  69.170  1.00  0.00    -0.203 OA 
HETATM   11  C   UNL     1     -10.990   6.636  67.407  1.00  0.00    -0.360 A  
HETATM   12  H   UNL     1     -11.868   8.472  68.081  1.00  0.00     0.000 HD 
HETATM   13  H   UNL     1      -7.384  10.148  69.380  1.00  0.00     0.000 HD 
HETATM   14  C   UNL     1      -7.018   8.278  68.615  1.00  0.00    -0.068 C  
HETATM   15  N   UNL     1      -9.759   6.164  67.363  1.00  0.00    -0.116 NA 
HETATM   16  O   UNL     1      -5.805   8.383  68.797  1.00  0.00    -0.041 OA 
ENDBRANCH   3   4
ENDBRANCH   2   3
TORSDOF 2
ENDMDL
MODEL      256
REMARK 921   NORMALIZED FREE ENERGY PREDICTED BY IDOCK:   -1.50 KCAL/MOL
REMARK 922        TOTAL FREE ENERGY PREDICTED BY IDOCK:   -1.81 KCAL/MOL
REMARK 923 INTER-LIGAND FREE ENERGY PREDICTED BY IDOCK:   -1.65 KCAL/MOL
REMARK 924 INTRA-LIGAND FREE ENERGY PREDICTED BY IDOCK:   -0.16 KCAL/MOL
REMARK 927      BINDING AFFINITY PREDICTED BY RF-SCORE:    0.00 PKD
ROOT
HETATM    1  C   UNL     1      -5.807  10.385  67.150  1.00  0.00    -0.050 C  
HETATM    2  C   UNL     1      -5.595   8.880  67.125  1.00  0.00    -0.041 C  
ENDROOT
BRANCH   2   3
HETATM    3  C   UNL     1      -5.746   8.277  68.522  1.00  0.00    -0.037 C  
BRANCH   3   4
HETATM    4  N   UNL     1      -7.013   7.576  68.687  1.00  0.00    -0.076 N  
HETATM    5  C   UNL     1      -8.115   8.201  69.232  1.00  0.00    -0.117 A  
HETATM    6  C   UNL     1      -9.301   7.549  69.384  1.00  0.00    -0.152 A  
HETATM    7  N   UNL     1     -10.153   8.461  69.933  1.00  0.00    -0.191 NA 
HETATM    8  C   UNL     1      -9.500   6.198  69.008  1.00  0.00    -0.127 C  
HETATM    9  N   UNL     1      -8.360   5.631  68.487  1.00  0.00    -0.106 N  
HETATM   10  O   UNL     1     -10.557   5.591  69.125  1.00  0.00    -0.255 OA 
HETATM   11  C   UNL     1      -9.437   9.620  70.086  1.00  0.00    -0.253 A  
HETATM   12  H   UNL     1     -11.132   8.311  70.181  1.00  0.00     0.000 HD 
HETATM   13  H   UNL     1      -8.431   4.656  68.194  1.00  0.00     0.000 HD 
HETATM   14  C   UNL     1      -7.125   6.236  68.314  1.00  0.00    -0.083 C  
HETATM   15  N   UNL     1      -8.193   9.489  69.669  1.00  0.00    -0.125 NA 
HETATM   16  O   UNL     1      -6.200   5.576  67.843  1.00  0.00    -0.034 OA 
ENDBRANCH   3   4
ENDBRANCH   2   3
TORSDOF 2
ENDMDL
MODEL      257
REMARK 921   NORMALIZED FREE ENERGY PREDICTED BY IDOCK:   -1.48 KCAL/MOL
REMARK 922        TOTAL FREE ENERGY PREDICTED BY IDOCK:   -1.78 KCAL/MOL
REMARK 923 INTER-LIGAND FREE ENERGY PREDICTED BY IDOCK:   -1.65 KCAL/MOL
REMARK 924 INTRA-LIGAND FREE ENERGY PREDICTED BY IDOCK:   -0.13 KCAL/MOL
REMARK 927      BINDING AFFINITY PREDICTED BY RF-SCORE:    0.00 PKD
ROOT
HETATM    1  C   UNL     1     -10.451   6.810  67.291  1.00  0.00    -0.352 C  
HETATM    2  C   UNL     1      -9.672   5.912  66.343  1.00  0.00    -0.168 C  
ENDROOT
BRANCH   2   3
HETATM    3  C   UNL     1     -10.034   4.442  66.550  1.00  0.00    -0.223 C  
BRANCH   3   4
HETATM    4  N   UNL     1      -8.915   3.664  67.067  1.00  0.00    -0.132 N  
HETATM    5  C   UNL     1      -8.792   3.388  68.413  1.00  0.00    -0.119 A  
HETATM    6  C   UNL     1      -7.748   2.659  68.898  1.00  0.00    -0.046 A  
HETATM    7  N   UNL     1      -7.953   2.576  70.243  1.00  0.00    -0.042 NA 
HETATM    8  C   UNL     1      -6.718   2.136  68.079  1.00  0.00    -0.035 C  
HETATM    9  N   UNL     1      -6.894   2.459  66.753  1.00  0.00    -0.043 N  
HETATM   10  O   UNL     1      -5.775   1.470  68.487  1.00  0.00    -0.017 OA 
HETATM   11  C   UNL     1      -9.111   3.262  70.504  1.00  0.00    -0.122 A  
HETATM   12  H   UNL     1      -7.360   2.098  70.923  1.00  0.00     0.000 HD 
HETATM   13  H   UNL     1      -6.186   2.114  66.104  1.00  0.00     0.000 HD 
HETATM   14  C   UNL     1      -7.925   3.202  66.200  1.00  0.00    -0.085 C  
HETATM   15  N   UNL     1      -9.641   3.768  69.408  1.00  0.00    -0.184 NA 
HETATM   16  O   UNL     1      -7.923   3.412  64.987  1.00  0.00    -0.085 OA 
ENDBRANCH   3   4
ENDBRANCH   2   3
TORSDOF 2
ENDMDL
MODEL      258
REMARK 921   NORMALIZED FREE ENERGY PREDICTED BY IDOCK:   -1.47 KCAL/MOL
REMARK 922        TOTAL FREE ENERGY PREDICTED BY IDOCK:   -1.77 KCAL/MOL
REMARK 923 INTER-LIGAND FREE ENERGY PREDICTED BY IDOCK:   -1.81 KCAL/MOL
REMARK 924 INTRA-LIGAND FREE ENERGY PREDICTED BY IDOCK:    0.04 KCAL/MOL
REMARK 927      BINDING AFFINITY PREDICTED BY RF-SCORE:    0.00 PKD
ROOT
HETATM    1  C   UNL     1      -6.230   8.606  71.123  1.00  0.00    -0.046 C  
HETATM    2  C   UNL     1      -6.382   8.495  69.614  1.00  0.00    -0.039 C  
ENDROOT
BRANCH   2   3
HETATM    3  C   UNL     1      -7.795   8.055  69.231  1.00  0.00    -0.114 C  
BRANCH   3   4
HETATM    4  N   UNL     1      -8.104   8.342  67.836  1.00  0.00    -0.121 N  
HETATM    5  C   UNL     1      -9.010   9.323  67.488  1.00  0.00    -0.118 A  
HETATM    6  C   UNL     1      -9.297   9.597  66.184  1.00  0.00    -0.194 A  
HETATM    7  N   UNL     1     -10.207  10.611  66.215  1.00  0.00    -0.240 NA 
HETATM    8  C   UNL     1      -8.708   8.907  65.097  1.00  0.00    -0.178 C  
HETATM    9  N   UNL     1      -7.828   7.935  65.514  1.00  0.00    -0.105 N  
HETATM   10  O   UNL     1      -8.942   9.138  63.917  1.00  0.00    -0.143 OA 
HETATM   11  C   UNL     1     -10.424  10.900  67.537  1.00  0.00    -0.215 A  
HETATM   12  H   UNL     1     -10.641  11.067  65.411  1.00  0.00     0.000 HD 
HETATM   13  H   UNL     1      -7.365   7.397  64.781  1.00  0.00     0.000 HD 
HETATM   14  C   UNL     1      -7.500   7.604  66.819  1.00  0.00    -0.093 C  
HETATM   15  N   UNL     1      -9.709  10.129  68.334  1.00  0.00    -0.144 NA 
HETATM   16  O   UNL     1      -6.698   6.691  67.018  1.00  0.00    -0.056 OA 
ENDBRANCH   3   4
ENDBRANCH   2   3
TORSDOF 2
ENDMDL
MODEL      259
REMARK 921   NORMALIZED FREE ENERGY PREDICTED BY IDOCK:   -1.42 KCAL/MOL
REMARK 922        TOTAL FREE ENERGY PREDICTED BY IDOCK:   -1.71 KCAL/MOL
REMARK 923 INTER-LIGAND FREE ENERGY PREDICTED BY IDOCK:   -2.09 KCAL/MOL
REMARK 924 INTRA-LIGAND FREE ENERGY PREDICTED BY IDOCK:    0.39 KCAL/MOL
REMARK 927      BINDING AFFINITY PREDICTED BY RF-SCORE:    0.00 PKD
ROOT
HETATM    1  C   UNL     1      -6.862   7.498  65.995  1.00  0.00    -0.057 C  
HETATM    2  C   UNL     1      -6.149   8.840  65.923  1.00  0.00    -0.052 C  
ENDROOT
BRANCH   2   3
HETATM    3  C   UNL     1      -6.461   9.699  67.148  1.00  0.00    -0.070 C  
BRANCH   3   4
HETATM    4  N   UNL     1      -7.614   9.205  67.891  1.00  0.00    -0.085 N  
HETATM    5  C   UNL     1      -8.895   9.618  67.588  1.00  0.00    -0.125 A  
HETATM    6  C   UNL     1      -9.974   9.155  68.278  1.00  0.00    -0.175 A  
HETATM    7  N   UNL     1     -11.058   9.756  67.710  1.00  0.00    -0.486 NA 
HETATM    8  C   UNL     1      -9.876   8.232  69.347  1.00  0.00    -0.185 C  
HETATM    9  N   UNL     1      -8.573   7.873  69.606  1.00  0.00    -0.132 N  
HETATM   10  O   UNL     1     -10.830   7.793  69.978  1.00  0.00    -0.247 OA 
HETATM   11  C   UNL     1     -10.578  10.555  66.705  1.00  0.00    -0.198 A  
HETATM   12  H   UNL     1     -12.035   9.636  67.980  1.00  0.00     0.000 HD 
HETATM   13  H   UNL     1      -8.428   7.209  70.366  1.00  0.00     0.000 HD 
HETATM   14  C   UNL     1      -7.435   8.313  68.948  1.00  0.00    -0.092 C  
HETATM   15  N   UNL     1      -9.264  10.491  66.610  1.00  0.00    -0.155 NA 
HETATM   16  O   UNL     1      -6.337   7.901  69.319  1.00  0.00    -0.034 OA 
ENDBRANCH   3   4
ENDBRANCH   2   3
TORSDOF 2
ENDMDL
MODEL      260
REMARK 921   NORMALIZED FREE ENERGY PREDICTED BY IDOCK:   -1.35 KCAL/MOL
REMARK 922        TOTAL FREE ENERGY PREDICTED BY IDOCK:   -1.63 KCAL/MOL
REMARK 923 INTER-LIGAND FREE ENERGY PREDICTED BY IDOCK:   -1.85 KCAL/MOL
REMARK 924 INTRA-LIGAND FREE ENERGY PREDICTED BY IDOCK:    0.22 KCAL/MOL
REMARK 927      BINDING AFFINITY PREDICTED BY RF-SCORE:    0.00 PKD
ROOT
HETATM    1  C   UNL     1      -8.003   5.636  70.843  1.00  0.00    -0.110 C  
HETATM    2  C   UNL     1      -6.951   6.065  69.833  1.00  0.00    -0.070 C  
ENDROOT
BRANCH   2   3
HETATM    3  C   UNL     1      -6.610   4.926  68.872  1.00  0.00    -0.045 C  
BRANCH   3   4
HETATM    4  N   UNL     1      -7.626   4.749  67.842  1.00  0.00    -0.081 N  
HETATM    5  C   UNL     1      -8.229   3.526  67.630  1.00  0.00    -0.085 A  
HETATM    6  C   UNL     1      -9.182   3.359  66.672  1.00  0.00    -0.169 A  
HETATM    7  N   UNL     1      -9.556   2.050  66.751  1.00  0.00    -0.351 NA 
HETATM    8  C   UNL     1      -9.624   4.404  65.824  1.00  0.00    -0.188 C  
HETATM    9  N   UNL     1      -8.973   5.589  66.078  1.00  0.00    -0.149 N  
HETATM   10  O   UNL     1     -10.484   4.283  64.961  1.00  0.00    -0.243 OA 
HETATM   11  C   UNL     1      -8.808   1.492  67.754  1.00  0.00    -0.111 A  
HETATM   12  H   UNL     1     -10.255   1.579  66.176  1.00  0.00     0.000 HD 
HETATM   13  H   UNL     1      -9.243   6.387  65.502  1.00  0.00     0.000 HD 
HETATM   14  C   UNL     1      -7.993   5.821  67.029  1.00  0.00    -0.102 C  
HETATM   15  N   UNL     1      -7.990   2.368  68.306  1.00  0.00    -0.057 NA 
HETATM   16  O   UNL     1      -7.502   6.946  67.116  1.00  0.00    -0.090 OA 
ENDBRANCH   3   4
ENDBRANCH   2   3
TORSDOF 2
ENDMDL
MODEL      261
REMARK 921   NORMALIZED FREE ENERGY PREDICTED BY IDOCK:   -0.92 KCAL/MOL
REMARK 922        TOTAL FREE ENERGY PREDICTED BY IDOCK:   -1.15 KCAL/MOL
REMARK 923 INTER-LIGAND FREE ENERGY PREDICTED BY IDOCK:   -1.26 KCAL/MOL
REMARK 924 INTRA-LIGAND FREE ENERGY PREDICTED BY IDOCK:    0.11 KCAL/MOL
REMARK 927      BINDING AFFINITY PREDICTED BY RF-SCORE:    0.00 PKD
ROOT
HETATM    1  C   UNL     1      -6.911  11.376  67.338  1.00  0.00    -0.101 C  
HETATM    2  C   UNL     1      -7.201   9.902  67.100  1.00  0.00    -0.086 C  
ENDROOT
BRANCH   2   3
HETATM    3  C   UNL     1      -8.306   9.399  68.029  1.00  0.00    -0.119 C  
BRANCH   3   4
HETATM    4  N   UNL     1      -7.923   8.183  68.735  1.00  0.00    -0.113 N  
HETATM    5  C   UNL     1      -8.601   6.997  68.543  1.00  0.00    -0.123 A  
HETATM    6  C   UNL     1      -8.242   5.857  69.198  1.00  0.00    -0.106 A  
HETATM    7  N   UNL     1      -9.106   4.897  68.764  1.00  0.00    -0.107 NA 
HETATM    8  C   UNL     1      -7.168   5.796  70.119  1.00  0.00    -0.072 C  
HETATM    9  N   UNL     1      -6.546   7.014  70.275  1.00  0.00    -0.046 N  
HETATM   10  O   UNL     1      -6.819   4.784  70.715  1.00  0.00    -0.034 OA 
HETATM   11  C   UNL     1      -9.946   5.505  67.867  1.00  0.00    -0.149 A  
HETATM   12  H   UNL     1      -9.125   3.918  69.051  1.00  0.00     0.000 HD 
HETATM   13  H   UNL     1      -5.761   7.042  70.926  1.00  0.00     0.000 HD 
HETATM   14  C   UNL     1      -6.867   8.206  69.646  1.00  0.00    -0.041 C  
HETATM   15  N   UNL     1      -9.661   6.784  67.715  1.00  0.00    -0.124 NA 
HETATM   16  O   UNL     1      -6.213   9.214  69.911  1.00  0.00    -0.037 OA 
ENDBRANCH   3   4
ENDBRANCH   2   3
TORSDOF 2
ENDMDL
MODEL      262
REMARK 921   NORMALIZED FREE ENERGY PREDICTED BY IDOCK:   -0.28 KCAL/MOL
REMARK 922        TOTAL FREE ENERGY PREDICTED BY IDOCK:   -0.44 KCAL/MOL
REMARK 923 INTER-LIGAND FREE ENERGY PREDICTED BY IDOCK:   -1.37 KCAL/MOL
REMARK 924 INTRA-LIGAND FREE ENERGY PREDICTED BY IDOCK:    0.93 KCAL/MOL
REMARK 927      BINDING AFFINITY PREDICTED BY RF-SCORE:    0.00 PKD
ROOT
HETATM    1  C   UNL     1      -7.708  12.703  67.543  1.00  0.00    -0.161 C  
HETATM    2  C   UNL     1      -7.925  11.427  66.746  1.00  0.00    -0.160 C  
ENDROOT
BRANCH   2   3
HETATM    3  C   UNL     1      -8.089  10.219  67.668  1.00  0.00    -0.106 C  
BRANCH   3   4
HETATM    4  N   UNL     1      -7.658   8.979  67.034  1.00  0.00    -0.090 N  
HETATM    5  C   UNL     1      -8.096   7.751  67.486  1.00  0.00    -0.124 A  
HETATM    6  C   UNL     1      -7.698   6.591  66.893  1.00  0.00    -0.100 A  
HETATM    7  N   UNL     1      -8.324   5.595  67.581  1.00  0.00    -0.101 NA 
HETATM    8  C   UNL     1      -6.814   6.546  65.788  1.00  0.00    -0.053 C  
HETATM    9  N   UNL     1      -6.405   7.801  65.399  1.00  0.00    -0.041 N  
HETATM   10  O   UNL     1      -6.447   5.518  65.231  1.00  0.00    -0.037 OA 
HETATM   11  C   UNL     1      -9.070   6.204  68.557  1.00  0.00    -0.117 A  
HETATM   12  H   UNL     1      -8.252   4.592  67.405  1.00  0.00     0.000 HD 
HETATM   13  H   UNL     1      -5.764   7.843  64.606  1.00  0.00     0.000 HD 
HETATM   14  C   UNL     1      -6.766   9.013  65.963  1.00  0.00    -0.076 C  
HETATM   15  N   UNL     1      -8.947   7.517  68.522  1.00  0.00    -0.129 NA 
HETATM   16  O   UNL     1      -6.293  10.050  65.497  1.00  0.00    -0.079 OA 
ENDBRANCH   3   4
ENDBRANCH   2   3
TORSDOF 2
ENDMDL
MODEL      263
REMARK 921   NORMALIZED FREE ENERGY PREDICTED BY IDOCK:   39.19 KCAL/MOL
REMARK 922        TOTAL FREE ENERGY PREDICTED BY IDOCK:   43.65 KCAL/MOL
REMARK 923 INTER-LIGAND FREE ENERGY PREDICTED BY IDOCK:   41.16 KCAL/MOL
REMARK 924 INTRA-LIGAND FREE ENERGY PREDICTED BY IDOCK:    2.50 KCAL/MOL
REMARK 927      BINDING AFFINITY PREDICTED BY RF-SCORE:    0.00 PKD
ROOT
HETATM    1  C   UNL     1      -9.482  17.492  69.302  1.00  0.00     0.102 C  
HETATM    2  C   UNL     1      -9.686  16.102  68.720  1.00  0.00    -0.233 C  
ENDROOT
BRANCH   2   3
HETATM    3  C   UNL     1      -9.401  16.084  67.218  1.00  0.00    -0.210 C  
BRANCH   3   4
HETATM    4  N   UNL     1     -10.041  17.193  66.521  1.00  0.00    -0.299 N  
HETATM    5  C   UNL     1      -9.510  17.713  65.359  1.00  0.00     1.074 A  
HETATM    6  C   UNL     1     -10.109  18.747  64.703  1.00  0.00     4.122 A  
HETATM    7  N   UNL     1      -9.330  18.988  63.611  1.00  0.00    11.318 NA 
HETATM    8  C   UNL     1     -11.301  19.366  65.152  1.00  0.00     1.427 C  
HETATM    9  N   UNL     1     -11.767  18.809  66.321  1.00  0.00     1.892 N  
HETATM   10  O   UNL     1     -11.864  20.290  64.578  1.00  0.00     1.405 OA 
HETATM   11  C   UNL     1      -8.298  18.087  63.662  1.00  0.00    15.708 A  
HETATM   12  H   UNL     1      -9.485  19.699  62.895  1.00  0.00     0.000 HD 
HETATM   13  H   UNL     1     -12.625  19.208  66.702  1.00  0.00     0.000 HD 
HETATM   14  C   UNL     1     -11.202  17.767  67.037  1.00  0.00     0.511 C  
HETATM   15  N   UNL     1      -8.382  17.301  64.717  1.00  0.00     3.789 NA 
HETATM   16  O   UNL     1     -11.745  17.398  68.079  1.00  0.00     0.549 OA 
ENDBRANCH   3   4
ENDBRANCH   2   3
TORSDOF 2
ENDMDL
