MODEL        1
REMARK 921   NORMALIZED FREE ENERGY PREDICTED BY IDOCK:   -7.61 KCAL/MOL
REMARK 922        TOTAL FREE ENERGY PREDICTED BY IDOCK:   -8.20 KCAL/MOL
REMARK 923 INTER-LIGAND FREE ENERGY PREDICTED BY IDOCK:   -8.06 KCAL/MOL
REMARK 924 INTRA-LIGAND FREE ENERGY PREDICTED BY IDOCK:   -0.14 KCAL/MOL
REMARK 927      BINDING AFFINITY PREDICTED BY RF-SCORE:    0.00 PKD
ROOT
HETATM    1  O   UNL     1     -10.395  12.430  63.128  1.00  0.00    -0.302 OA 
HETATM    2  S   UNL     1     -11.904  12.639  63.660  1.00  0.00    -0.560 S  
HETATM    3  O   UNL     1     -12.657  11.471  63.261  1.00  0.00    -0.365 OA 
HETATM    4  O   UNL     1     -12.295  13.966  63.234  1.00  0.00    -0.749 OA 
HETATM    5  C   UNL     1     -11.755  12.624  65.427  1.00  0.00    -0.387 A  
HETATM    6  C   UNL     1     -12.173  13.743  66.162  1.00  0.00    -0.499 A  
HETATM    7  C   UNL     1     -12.004  13.663  67.546  1.00  0.00    -0.358 A  
HETATM    8  C   UNL     1     -11.467  12.558  68.193  1.00  0.00    -0.319 A  
HETATM    9  C   UNL     1     -11.065  11.446  67.436  1.00  0.00    -0.349 A  
HETATM   10  N   UNL     1     -11.424  12.763  69.548  1.00  0.00    -0.426 NA 
HETATM   11  C   UNL     1     -11.212  11.490  66.043  1.00  0.00    -0.240 A  
HETATM   12  C   UNL     1     -11.927  13.968  69.762  1.00  0.00    -0.334 A  
HETATM   13  H   UNL     1     -11.072  12.114  70.253  1.00  0.00     0.000 HD 
HETATM   14  N   UNL     1     -12.285  14.540  68.561  1.00  0.00    -0.201 NA 
ENDROOT
BRANCH  12  15
HETATM   15  C   UNL     1     -12.106  14.611  71.071  1.00  0.00    -0.393 A  
HETATM   16  C   UNL     1     -12.807  13.931  72.079  1.00  0.00    -0.393 A  
HETATM   17  C   UNL     1     -13.027  14.518  73.328  1.00  0.00    -0.500 A  
HETATM   18  C   UNL     1     -12.545  15.798  73.589  1.00  0.00    -0.712 A  
HETATM   19  C   UNL     1     -11.837  16.484  72.607  1.00  0.00    -0.445 A  
HETATM   20  C   UNL     1     -11.617  15.896  71.357  1.00  0.00    -0.529 A  
ENDBRANCH  12  15
TORSDOF 1
ENDMDL
MODEL        2
REMARK 921   NORMALIZED FREE ENERGY PREDICTED BY IDOCK:   -7.23 KCAL/MOL
REMARK 922        TOTAL FREE ENERGY PREDICTED BY IDOCK:   -7.79 KCAL/MOL
REMARK 923 INTER-LIGAND FREE ENERGY PREDICTED BY IDOCK:   -7.64 KCAL/MOL
REMARK 924 INTRA-LIGAND FREE ENERGY PREDICTED BY IDOCK:   -0.15 KCAL/MOL
REMARK 927      BINDING AFFINITY PREDICTED BY RF-SCORE:    0.00 PKD
ROOT
HETATM    1  O   UNL     1     -12.291  13.701  62.834  1.00  0.00    -0.549 OA 
HETATM    2  S   UNL     1     -11.473  12.764  63.861  1.00  0.00    -0.477 S  
HETATM    3  O   UNL     1     -10.134  12.626  63.332  1.00  0.00    -0.367 OA 
HETATM    4  O   UNL     1     -12.310  11.606  64.096  1.00  0.00    -0.190 OA 
HETATM    5  C   UNL     1     -11.382  13.718  65.353  1.00  0.00    -0.308 A  
HETATM    6  C   UNL     1     -11.929  13.200  66.536  1.00  0.00    -0.459 A  
HETATM    7  C   UNL     1     -11.836  14.020  67.663  1.00  0.00    -0.395 A  
HETATM    8  C   UNL     1     -11.240  15.274  67.655  1.00  0.00    -0.320 A  
HETATM    9  C   UNL     1     -10.692  15.767  66.461  1.00  0.00    -0.283 A  
HETATM   10  N   UNL     1     -11.296  15.845  68.900  1.00  0.00    -0.354 NA 
HETATM   11  C   UNL     1     -10.770  14.977  65.306  1.00  0.00    -0.406 A  
HETATM   12  C   UNL     1     -11.908  14.974  69.686  1.00  0.00    -0.324 A  
HETATM   13  H   UNL     1     -10.937  16.762  69.168  1.00  0.00     0.000 HD 
HETATM   14  N   UNL     1     -12.250  13.855  68.959  1.00  0.00    -0.318 NA 
ENDROOT
BRANCH  12  15
HETATM   15  C   UNL     1     -12.173  15.141  71.122  1.00  0.00    -0.392 A  
HETATM   16  C   UNL     1     -12.955  14.187  71.791  1.00  0.00    -0.427 A  
HETATM   17  C   UNL     1     -13.258  14.324  73.148  1.00  0.00    -0.353 A  
HETATM   18  C   UNL     1     -12.778  15.420  73.860  1.00  0.00    -0.698 A  
HETATM   19  C   UNL     1     -11.991  16.371  73.217  1.00  0.00    -0.501 A  
HETATM   20  C   UNL     1     -11.689  16.233  71.859  1.00  0.00    -0.518 A  
ENDBRANCH  12  15
TORSDOF 1
ENDMDL
MODEL        3
REMARK 921   NORMALIZED FREE ENERGY PREDICTED BY IDOCK:   -6.96 KCAL/MOL
REMARK 922        TOTAL FREE ENERGY PREDICTED BY IDOCK:   -7.51 KCAL/MOL
REMARK 923 INTER-LIGAND FREE ENERGY PREDICTED BY IDOCK:   -7.36 KCAL/MOL
REMARK 924 INTRA-LIGAND FREE ENERGY PREDICTED BY IDOCK:   -0.15 KCAL/MOL
REMARK 927      BINDING AFFINITY PREDICTED BY RF-SCORE:    0.00 PKD
ROOT
HETATM    1  O   UNL     1      -8.344  19.356  65.850  1.00  0.00    -0.431 OA 
HETATM    2  S   UNL     1      -9.838  19.507  66.441  1.00  0.00    -0.449 S  
HETATM    3  O   UNL     1     -10.669  19.998  65.364  1.00  0.00    -0.388 OA 
HETATM    4  O   UNL     1      -9.703  20.242  67.681  1.00  0.00    -0.391 OA 
HETATM    5  C   UNL     1     -10.337  17.845  66.810  1.00  0.00    -0.355 A  
HETATM    6  C   UNL     1     -10.691  17.510  68.125  1.00  0.00    -0.330 A  
HETATM    7  C   UNL     1     -11.052  16.177  68.339  1.00  0.00    -0.359 A  
HETATM    8  C   UNL     1     -11.079  15.217  67.337  1.00  0.00    -0.325 A  
HETATM    9  C   UNL     1     -10.729  15.580  66.027  1.00  0.00    -0.331 A  
HETATM   10  N   UNL     1     -11.470  14.002  67.840  1.00  0.00    -0.298 NA 
HETATM   11  C   UNL     1     -10.355  16.906  65.772  1.00  0.00    -0.298 A  
HETATM   12  C   UNL     1     -11.694  14.185  69.132  1.00  0.00    -0.327 A  
HETATM   13  H   UNL     1     -11.569  13.130  67.321  1.00  0.00     0.000 HD 
HETATM   14  N   UNL     1     -11.444  15.499  69.463  1.00  0.00    -0.307 NA 
ENDROOT
BRANCH  12  15
HETATM   15  C   UNL     1     -12.158  13.165  70.082  1.00  0.00    -0.392 A  
HETATM   16  C   UNL     1     -11.883  11.812  69.825  1.00  0.00    -0.420 A  
HETATM   17  C   UNL     1     -12.334  10.808  70.686  1.00  0.00    -0.465 A  
HETATM   18  C   UNL     1     -13.065  11.143  71.822  1.00  0.00    -0.536 A  
HETATM   19  C   UNL     1     -13.337  12.479  72.101  1.00  0.00    -0.540 A  
HETATM   20  C   UNL     1     -12.887  13.483  71.239  1.00  0.00    -0.420 A  
ENDBRANCH  12  15
TORSDOF 1
ENDMDL
MODEL        4
REMARK 921   NORMALIZED FREE ENERGY PREDICTED BY IDOCK:   -6.96 KCAL/MOL
REMARK 922        TOTAL FREE ENERGY PREDICTED BY IDOCK:   -7.50 KCAL/MOL
REMARK 923 INTER-LIGAND FREE ENERGY PREDICTED BY IDOCK:   -7.37 KCAL/MOL
REMARK 924 INTRA-LIGAND FREE ENERGY PREDICTED BY IDOCK:   -0.14 KCAL/MOL
REMARK 927      BINDING AFFINITY PREDICTED BY RF-SCORE:    0.00 PKD
ROOT
HETATM    1  O   UNL     1     -12.854  15.205  64.328  1.00  0.00    -0.529 OA 
HETATM    2  S   UNL     1     -11.456  14.441  64.584  1.00  0.00    -0.371 S  
HETATM    3  O   UNL     1     -10.412  15.438  64.509  1.00  0.00    -0.218 OA 
HETATM    4  O   UNL     1     -11.463  13.293  63.702  1.00  0.00    -0.367 OA 
HETATM    5  C   UNL     1     -11.563  13.877  66.262  1.00  0.00    -0.365 A  
HETATM    6  C   UNL     1     -11.464  12.504  66.533  1.00  0.00    -0.418 A  
HETATM    7  C   UNL     1     -11.578  12.138  67.876  1.00  0.00    -0.347 A  
HETATM    8  C   UNL     1     -11.769  13.046  68.908  1.00  0.00    -0.328 A  
HETATM    9  C   UNL     1     -11.855  14.416  68.612  1.00  0.00    -0.366 A  
HETATM   10  N   UNL     1     -11.844  12.400  70.116  1.00  0.00    -0.502 NA 
HETATM   11  C   UNL     1     -11.751  14.824  67.275  1.00  0.00    -0.366 A  
HETATM   12  C   UNL     1     -11.698  11.110  69.861  1.00  0.00    -0.355 A  
HETATM   13  H   UNL     1     -11.985  12.830  71.030  1.00  0.00     0.000 HD 
HETATM   14  N   UNL     1     -11.537  10.921  68.506  1.00  0.00    -0.381 NA 
ENDROOT
BRANCH  12  15
HETATM   15  C   UNL     1     -11.683  10.028  70.855  1.00  0.00    -0.462 A  
HETATM   16  C   UNL     1     -10.483   9.346  71.109  1.00  0.00    -0.392 A  
HETATM   17  C   UNL     1     -10.432   8.290  72.023  1.00  0.00    -0.350 A  
HETATM   18  C   UNL     1     -11.584   7.902  72.702  1.00  0.00    -0.435 A  
HETATM   19  C   UNL     1     -12.781   8.574  72.473  1.00  0.00    -0.329 A  
HETATM   20  C   UNL     1     -12.832   9.630  71.558  1.00  0.00    -0.485 A  
ENDBRANCH  12  15
TORSDOF 1
ENDMDL
MODEL        5
REMARK 921   NORMALIZED FREE ENERGY PREDICTED BY IDOCK:   -6.91 KCAL/MOL
REMARK 922        TOTAL FREE ENERGY PREDICTED BY IDOCK:   -7.45 KCAL/MOL
REMARK 923 INTER-LIGAND FREE ENERGY PREDICTED BY IDOCK:   -7.32 KCAL/MOL
REMARK 924 INTRA-LIGAND FREE ENERGY PREDICTED BY IDOCK:   -0.14 KCAL/MOL
REMARK 927      BINDING AFFINITY PREDICTED BY RF-SCORE:    0.00 PKD
ROOT
HETATM    1  O   UNL     1     -11.927  15.135  73.763  1.00  0.00    -0.476 OA 
HETATM    2  S   UNL     1     -13.188  14.913  72.782  1.00  0.00    -0.500 S  
HETATM    3  O   UNL     1     -14.031  16.081  72.907  1.00  0.00    -0.560 OA 
HETATM    4  O   UNL     1     -13.693  13.588  73.077  1.00  0.00    -0.513 OA 
HETATM    5  C   UNL     1     -12.486  14.909  71.153  1.00  0.00    -0.327 A  
HETATM    6  C   UNL     1     -12.647  13.780  70.337  1.00  0.00    -0.325 A  
HETATM    7  C   UNL     1     -12.047  13.847  69.077  1.00  0.00    -0.329 A  
HETATM    8  C   UNL     1     -11.335  14.947  68.622  1.00  0.00    -0.292 A  
HETATM    9  C   UNL     1     -11.196  16.069  69.453  1.00  0.00    -0.349 A  
HETATM   10  N   UNL     1     -10.863  14.728  67.353  1.00  0.00    -0.292 NA 
HETATM   11  C   UNL     1     -11.778  16.039  70.728  1.00  0.00    -0.410 A  
HETATM   12  C   UNL     1     -11.270  13.518  67.004  1.00  0.00    -0.312 A  
HETATM   13  H   UNL     1     -10.307  15.371  66.789  1.00  0.00     0.000 HD 
HETATM   14  N   UNL     1     -11.990  12.958  68.036  1.00  0.00    -0.328 NA 
ENDROOT
BRANCH  12  15
HETATM   15  C   UNL     1     -11.023  12.861  65.714  1.00  0.00    -0.303 A  
HETATM   16  C   UNL     1     -11.745  13.275  64.584  1.00  0.00    -0.403 A  
HETATM   17  C   UNL     1     -11.564  12.655  63.344  1.00  0.00    -0.536 A  
HETATM   18  C   UNL     1     -10.653  11.611  63.215  1.00  0.00    -0.420 A  
HETATM   19  C   UNL     1      -9.918  11.194  64.321  1.00  0.00    -0.359 A  
HETATM   20  C   UNL     1     -10.100  11.814  65.561  1.00  0.00    -0.285 A  
ENDBRANCH  12  15
TORSDOF 1
ENDMDL
MODEL        6
REMARK 921   NORMALIZED FREE ENERGY PREDICTED BY IDOCK:   -6.90 KCAL/MOL
REMARK 922        TOTAL FREE ENERGY PREDICTED BY IDOCK:   -7.44 KCAL/MOL
REMARK 923 INTER-LIGAND FREE ENERGY PREDICTED BY IDOCK:   -7.30 KCAL/MOL
REMARK 924 INTRA-LIGAND FREE ENERGY PREDICTED BY IDOCK:   -0.15 KCAL/MOL
REMARK 927      BINDING AFFINITY PREDICTED BY RF-SCORE:    0.00 PKD
ROOT
HETATM    1  O   UNL     1      -8.705  17.577  65.712  1.00  0.00    -0.514 OA 
HETATM    2  S   UNL     1     -10.277  17.401  66.032  1.00  0.00    -0.237 S  
HETATM    3  O   UNL     1     -10.982  17.551  64.778  1.00  0.00    -0.950 OA 
HETATM    4  O   UNL     1     -10.553  18.269  67.157  1.00  0.00    -0.395 OA 
HETATM    5  C   UNL     1     -10.435  15.715  66.557  1.00  0.00    -0.302 A  
HETATM    6  C   UNL     1     -10.942  15.436  67.834  1.00  0.00    -0.310 A  
HETATM    7  C   UNL     1     -11.016  14.085  68.181  1.00  0.00    -0.252 A  
HETATM    8  C   UNL     1     -10.628  13.052  67.339  1.00  0.00    -0.234 A  
HETATM    9  C   UNL     1     -10.133  13.356  66.061  1.00  0.00    -0.308 A  
HETATM   10  N   UNL     1     -10.813  11.836  67.945  1.00  0.00    -0.201 NA 
HETATM   11  C   UNL     1     -10.038  14.700  65.677  1.00  0.00    -0.389 A  
HETATM   12  C   UNL     1     -11.312  12.087  69.145  1.00  0.00    -0.281 A  
HETATM   13  H   UNL     1     -10.606  10.919  67.550  1.00  0.00     0.000 HD 
HETATM   14  N   UNL     1     -11.443  13.448  69.316  1.00  0.00    -0.281 NA 
ENDROOT
BRANCH  12  15
HETATM   15  C   UNL     1     -11.696  11.085  70.149  1.00  0.00    -0.442 A  
HETATM   16  C   UNL     1     -10.977   9.882  70.227  1.00  0.00    -0.366 A  
HETATM   17  C   UNL     1     -11.329   8.889  71.146  1.00  0.00    -0.357 A  
HETATM   18  C   UNL     1     -12.406   9.087  72.005  1.00  0.00    -0.455 A  
HETATM   19  C   UNL     1     -13.124  10.279  71.952  1.00  0.00    -0.568 A  
HETATM   20  C   UNL     1     -12.772  11.271  71.032  1.00  0.00    -0.457 A  
ENDBRANCH  12  15
TORSDOF 1
ENDMDL
MODEL        7
REMARK 921   NORMALIZED FREE ENERGY PREDICTED BY IDOCK:   -6.88 KCAL/MOL
REMARK 922        TOTAL FREE ENERGY PREDICTED BY IDOCK:   -7.43 KCAL/MOL
REMARK 923 INTER-LIGAND FREE ENERGY PREDICTED BY IDOCK:   -7.29 KCAL/MOL
REMARK 924 INTRA-LIGAND FREE ENERGY PREDICTED BY IDOCK:   -0.14 KCAL/MOL
REMARK 927      BINDING AFFINITY PREDICTED BY RF-SCORE:    0.00 PKD
ROOT
HETATM    1  O   UNL     1     -13.009  14.570  64.382  1.00  0.00    -0.510 OA 
HETATM    2  S   UNL     1     -11.516  14.042  64.689  1.00  0.00    -0.384 S  
HETATM    3  O   UNL     1     -10.642  15.193  64.634  1.00  0.00    -0.339 OA 
HETATM    4  O   UNL     1     -11.311  12.902  63.821  1.00  0.00    -0.414 OA 
HETATM    5  C   UNL     1     -11.584  13.479  66.369  1.00  0.00    -0.350 A  
HETATM    6  C   UNL     1     -11.276  12.142  66.660  1.00  0.00    -0.375 A  
HETATM    7  C   UNL     1     -11.373  11.770  68.003  1.00  0.00    -0.288 A  
HETATM    8  C   UNL     1     -11.740  12.644  69.018  1.00  0.00    -0.318 A  
HETATM    9  C   UNL     1     -12.033  13.980  68.704  1.00  0.00    -0.389 A  
HETATM   10  N   UNL     1     -11.748  12.002  70.230  1.00  0.00    -0.530 NA 
HETATM   11  C   UNL     1     -11.954  14.390  67.366  1.00  0.00    -0.407 A  
HETATM   12  C   UNL     1     -11.390  10.750  69.995  1.00  0.00    -0.319 A  
HETATM   13  H   UNL     1     -11.985  12.410  71.135  1.00  0.00     0.000 HD 
HETATM   14  N   UNL     1     -11.158  10.581  68.647  1.00  0.00    -0.252 NA 
ENDROOT
BRANCH  12  15
HETATM   15  C   UNL     1     -11.234   9.691  71.002  1.00  0.00    -0.445 A  
HETATM   16  C   UNL     1     -12.379   9.135  71.594  1.00  0.00    -0.434 A  
HETATM   17  C   UNL     1     -12.275   8.148  72.578  1.00  0.00    -0.335 A  
HETATM   18  C   UNL     1     -11.021   7.699  72.983  1.00  0.00    -0.457 A  
HETATM   19  C   UNL     1      -9.874   8.229  72.398  1.00  0.00    -0.375 A  
HETATM   20  C   UNL     1      -9.979   9.217  71.414  1.00  0.00    -0.373 A  
ENDBRANCH  12  15
TORSDOF 1
ENDMDL
MODEL        8
REMARK 921   NORMALIZED FREE ENERGY PREDICTED BY IDOCK:   -6.76 KCAL/MOL
REMARK 922        TOTAL FREE ENERGY PREDICTED BY IDOCK:   -7.30 KCAL/MOL
REMARK 923 INTER-LIGAND FREE ENERGY PREDICTED BY IDOCK:   -7.15 KCAL/MOL
REMARK 924 INTRA-LIGAND FREE ENERGY PREDICTED BY IDOCK:   -0.15 KCAL/MOL
REMARK 927      BINDING AFFINITY PREDICTED BY RF-SCORE:    0.00 PKD
ROOT
HETATM    1  O   UNL     1     -11.181  12.003  63.440  1.00  0.00    -0.413 OA 
HETATM    2  S   UNL     1     -12.063  13.150  64.156  1.00  0.00    -0.435 S  
HETATM    3  O   UNL     1     -13.017  12.478  65.009  1.00  0.00    -0.779 OA 
HETATM    4  O   UNL     1     -12.496  14.036  63.096  1.00  0.00    -0.733 OA 
HETATM    5  C   UNL     1     -10.908  14.013  65.188  1.00  0.00    -0.369 A  
HETATM    6  C   UNL     1     -10.703  15.387  64.992  1.00  0.00    -0.460 A  
HETATM    7  C   UNL     1      -9.763  15.990  65.832  1.00  0.00    -0.343 A  
HETATM    8  C   UNL     1      -9.062  15.308  66.816  1.00  0.00    -0.256 A  
HETATM    9  C   UNL     1      -9.292  13.936  67.000  1.00  0.00    -0.255 A  
HETATM   10  N   UNL     1      -8.212  16.155  67.481  1.00  0.00    -0.146 NA 
HETATM   11  C   UNL     1     -10.223  13.292  66.173  1.00  0.00    -0.296 A  
HETATM   12  C   UNL     1      -8.372  17.351  66.937  1.00  0.00    -0.235 A  
HETATM   13  H   UNL     1      -7.580  15.911  68.244  1.00  0.00     0.000 HD 
HETATM   14  N   UNL     1      -9.308  17.279  65.929  1.00  0.00    -0.524 NA 
ENDROOT
BRANCH  12  15
HETATM   15  C   UNL     1      -7.685  18.585  67.343  1.00  0.00    -0.233 A  
HETATM   16  C   UNL     1      -7.401  19.561  66.376  1.00  0.00    -0.265 A  
HETATM   17  C   UNL     1      -6.722  20.735  66.713  1.00  0.00    -0.351 A  
HETATM   18  C   UNL     1      -6.319  20.952  68.027  1.00  0.00    -0.381 A  
HETATM   19  C   UNL     1      -6.601  20.001  69.003  1.00  0.00    -0.346 A  
HETATM   20  C   UNL     1      -7.281  18.826  68.665  1.00  0.00    -0.330 A  
ENDBRANCH  12  15
TORSDOF 1
ENDMDL
MODEL        9
REMARK 921   NORMALIZED FREE ENERGY PREDICTED BY IDOCK:   -6.58 KCAL/MOL
REMARK 922        TOTAL FREE ENERGY PREDICTED BY IDOCK:   -7.11 KCAL/MOL
REMARK 923 INTER-LIGAND FREE ENERGY PREDICTED BY IDOCK:   -6.97 KCAL/MOL
REMARK 924 INTRA-LIGAND FREE ENERGY PREDICTED BY IDOCK:   -0.14 KCAL/MOL
REMARK 927      BINDING AFFINITY PREDICTED BY RF-SCORE:    0.00 PKD
ROOT
HETATM    1  O   UNL     1     -14.390  14.739  72.951  1.00  0.00    -0.235 OA 
HETATM    2  S   UNL     1     -12.813  14.873  72.638  1.00  0.00    -0.426 S  
HETATM    3  O   UNL     1     -12.110  14.471  73.835  1.00  0.00    -0.330 OA 
HETATM    4  O   UNL     1     -12.632  16.190  72.066  1.00  0.00    -0.446 OA 
HETATM    5  C   UNL     1     -12.509  13.656  71.383  1.00  0.00    -0.285 A  
HETATM    6  C   UNL     1     -11.994  14.061  70.143  1.00  0.00    -0.399 A  
HETATM    7  C   UNL     1     -11.802  13.047  69.202  1.00  0.00    -0.310 A  
HETATM    8  C   UNL     1     -12.082  11.709  69.443  1.00  0.00    -0.263 A  
HETATM    9  C   UNL     1     -12.587  11.328  70.696  1.00  0.00    -0.377 A  
HETATM   10  N   UNL     1     -11.795  10.946  68.340  1.00  0.00    -0.705 NA 
HETATM   11  C   UNL     1     -12.801  12.316  71.666  1.00  0.00    -0.378 A  
HETATM   12  C   UNL     1     -11.335  11.777  67.418  1.00  0.00    -0.311 A  
HETATM   13  H   UNL     1     -11.912   9.937  68.249  1.00  0.00     0.000 HD 
HETATM   14  N   UNL     1     -11.332  13.062  67.915  1.00  0.00    -0.270 NA 
ENDROOT
BRANCH  12  15
HETATM   15  C   UNL     1     -10.874  11.407  66.073  1.00  0.00    -0.306 A  
HETATM   16  C   UNL     1     -11.334  12.137  64.966  1.00  0.00    -0.379 A  
HETATM   17  C   UNL     1     -10.945  11.799  63.667  1.00  0.00    -0.513 A  
HETATM   18  C   UNL     1     -10.085  10.725  63.456  1.00  0.00    -0.364 A  
HETATM   19  C   UNL     1      -9.608   9.997  64.542  1.00  0.00    -0.346 A  
HETATM   20  C   UNL     1      -9.998  10.335  65.841  1.00  0.00    -0.321 A  
ENDBRANCH  12  15
TORSDOF 1
ENDMDL
MODEL       10
REMARK 921   NORMALIZED FREE ENERGY PREDICTED BY IDOCK:   -6.36 KCAL/MOL
REMARK 922        TOTAL FREE ENERGY PREDICTED BY IDOCK:   -6.87 KCAL/MOL
REMARK 923 INTER-LIGAND FREE ENERGY PREDICTED BY IDOCK:   -6.73 KCAL/MOL
REMARK 924 INTRA-LIGAND FREE ENERGY PREDICTED BY IDOCK:   -0.14 KCAL/MOL
REMARK 927      BINDING AFFINITY PREDICTED BY RF-SCORE:    0.00 PKD
ROOT
HETATM    1  O   UNL     1      -6.569  18.065  65.647  1.00  0.00    -0.264 OA 
HETATM    2  S   UNL     1      -7.674  18.945  66.427  1.00  0.00    -0.278 S  
HETATM    3  O   UNL     1      -8.258  19.844  65.457  1.00  0.00    -0.315 OA 
HETATM    4  O   UNL     1      -7.016  19.446  67.615  1.00  0.00    -0.218 OA 
HETATM    5  C   UNL     1      -8.913  17.771  66.909  1.00  0.00    -0.255 A  
HETATM    6  C   UNL     1      -9.216  17.610  68.269  1.00  0.00    -0.283 A  
HETATM    7  C   UNL     1     -10.187  16.652  68.570  1.00  0.00    -0.282 A  
HETATM    8  C   UNL     1     -10.841  15.892  67.609  1.00  0.00    -0.312 A  
HETATM    9  C   UNL     1     -10.527  16.078  66.254  1.00  0.00    -0.326 A  
HETATM   10  N   UNL     1     -11.739  15.037  68.196  1.00  0.00    -0.415 NA 
HETATM   11  C   UNL     1      -9.553  17.026  65.912  1.00  0.00    -0.143 A  
HETATM   12  C   UNL     1     -11.665  15.252  69.500  1.00  0.00    -0.339 A  
HETATM   13  H   UNL     1     -12.344  14.368  67.721  1.00  0.00     0.000 HD 
HETATM   14  N   UNL     1     -10.726  16.228  69.755  1.00  0.00    -0.339 NA 
ENDROOT
BRANCH  12  15
HETATM   15  C   UNL     1     -12.465  14.581  70.534  1.00  0.00    -0.408 A  
HETATM   16  C   UNL     1     -13.367  15.336  71.300  1.00  0.00    -0.586 A  
HETATM   17  C   UNL     1     -14.124  14.744  72.314  1.00  0.00    -0.587 A  
HETATM   18  C   UNL     1     -13.993  13.383  72.575  1.00  0.00    -0.519 A  
HETATM   19  C   UNL     1     -13.113  12.615  71.818  1.00  0.00    -0.461 A  
HETATM   20  C   UNL     1     -12.356  13.208  70.804  1.00  0.00    -0.404 A  
ENDBRANCH  12  15
TORSDOF 1
ENDMDL
MODEL       11
REMARK 921   NORMALIZED FREE ENERGY PREDICTED BY IDOCK:   -6.30 KCAL/MOL
REMARK 922        TOTAL FREE ENERGY PREDICTED BY IDOCK:   -6.81 KCAL/MOL
REMARK 923 INTER-LIGAND FREE ENERGY PREDICTED BY IDOCK:   -6.66 KCAL/MOL
REMARK 924 INTRA-LIGAND FREE ENERGY PREDICTED BY IDOCK:   -0.15 KCAL/MOL
REMARK 927      BINDING AFFINITY PREDICTED BY RF-SCORE:    0.00 PKD
ROOT
HETATM    1  O   UNL     1     -13.534   9.974  70.339  1.00  0.00    -0.073 OA 
HETATM    2  S   UNL     1     -12.480  10.833  71.207  1.00  0.00    -0.392 S  
HETATM    3  O   UNL     1     -11.417   9.932  71.591  1.00  0.00    -0.329 OA 
HETATM    4  O   UNL     1     -13.263  11.537  72.201  1.00  0.00    -0.505 OA 
HETATM    5  C   UNL     1     -11.819  12.011  70.058  1.00  0.00    -0.314 A  
HETATM    6  C   UNL     1     -11.960  13.381  70.319  1.00  0.00    -0.378 A  
HETATM    7  C   UNL     1     -11.431  14.245  69.357  1.00  0.00    -0.292 A  
HETATM    8  C   UNL     1     -10.791  13.812  68.204  1.00  0.00    -0.246 A  
HETATM    9  C   UNL     1     -10.652  12.435  67.970  1.00  0.00    -0.238 A  
HETATM   10  N   UNL     1     -10.377  14.880  67.449  1.00  0.00    -0.242 NA 
HETATM   11  C   UNL     1     -11.175  11.536  68.909  1.00  0.00    -0.308 A  
HETATM   12  C   UNL     1     -10.740  15.968  68.108  1.00  0.00    -0.311 A  
HETATM   13  H   UNL     1      -9.887  14.841  66.555  1.00  0.00     0.000 HD 
HETATM   14  N   UNL     1     -11.386  15.612  69.271  1.00  0.00    -0.319 NA 
ENDROOT
BRANCH  12  15
HETATM   15  C   UNL     1     -10.485  17.355  67.694  1.00  0.00    -0.368 A  
HETATM   16  C   UNL     1     -10.208  18.323  68.672  1.00  0.00    -0.377 A  
HETATM   17  C   UNL     1      -9.991  19.659  68.324  1.00  0.00    -0.543 A  
HETATM   18  C   UNL     1     -10.045  20.047  66.989  1.00  0.00    -0.594 A  
HETATM   19  C   UNL     1     -10.307  19.100  66.003  1.00  0.00    -0.538 A  
HETATM   20  C   UNL     1     -10.524  17.764  66.351  1.00  0.00    -0.297 A  
ENDBRANCH  12  15
TORSDOF 1
ENDMDL
MODEL       12
REMARK 921   NORMALIZED FREE ENERGY PREDICTED BY IDOCK:   -6.27 KCAL/MOL
REMARK 922        TOTAL FREE ENERGY PREDICTED BY IDOCK:   -6.78 KCAL/MOL
REMARK 923 INTER-LIGAND FREE ENERGY PREDICTED BY IDOCK:   -6.64 KCAL/MOL
REMARK 924 INTRA-LIGAND FREE ENERGY PREDICTED BY IDOCK:   -0.14 KCAL/MOL
REMARK 927      BINDING AFFINITY PREDICTED BY RF-SCORE:    0.00 PKD
ROOT
HETATM    1  O   UNL     1     -12.170  15.078  73.728  1.00  0.00    -0.503 OA 
HETATM    2  S   UNL     1     -13.295  14.847  72.595  1.00  0.00    -0.488 S  
HETATM    3  O   UNL     1     -14.046  16.078  72.489  1.00  0.00    -0.404 OA 
HETATM    4  O   UNL     1     -13.946  13.597  72.930  1.00  0.00    -0.630 OA 
HETATM    5  C   UNL     1     -12.373  14.629  71.096  1.00  0.00    -0.335 A  
HETATM    6  C   UNL     1     -12.511  13.437  70.370  1.00  0.00    -0.322 A  
HETATM    7  C   UNL     1     -11.737  13.334  69.212  1.00  0.00    -0.326 A  
HETATM    8  C   UNL     1     -10.877  14.330  68.770  1.00  0.00    -0.253 A  
HETATM    9  C   UNL     1     -10.763  15.518  69.509  1.00  0.00    -0.272 A  
HETATM   10  N   UNL     1     -10.251  13.951  67.610  1.00  0.00    -0.239 NA 
HETATM   11  C   UNL     1     -11.520  15.658  70.680  1.00  0.00    -0.400 A  
HETATM   12  C   UNL     1     -10.705  12.744  67.315  1.00  0.00    -0.237 A  
HETATM   13  H   UNL     1      -9.569  14.494  67.079  1.00  0.00     0.000 HD 
HETATM   14  N   UNL     1     -11.608  12.343  68.275  1.00  0.00    -0.312 NA 
ENDROOT
BRANCH  12  15
HETATM   15  C   UNL     1     -10.335  11.944  66.140  1.00  0.00    -0.261 A  
HETATM   16  C   UNL     1      -9.673  10.719  66.325  1.00  0.00    -0.248 A  
HETATM   17  C   UNL     1      -9.275   9.942  65.234  1.00  0.00    -0.280 A  
HETATM   18  C   UNL     1      -9.537  10.377  63.938  1.00  0.00    -0.370 A  
HETATM   19  C   UNL     1     -10.203  11.583  63.734  1.00  0.00    -0.429 A  
HETATM   20  C   UNL     1     -10.600  12.360  64.826  1.00  0.00    -0.331 A  
ENDBRANCH  12  15
TORSDOF 1
ENDMDL
MODEL       13
REMARK 921   NORMALIZED FREE ENERGY PREDICTED BY IDOCK:   -6.25 KCAL/MOL
REMARK 922        TOTAL FREE ENERGY PREDICTED BY IDOCK:   -6.76 KCAL/MOL
REMARK 923 INTER-LIGAND FREE ENERGY PREDICTED BY IDOCK:   -6.62 KCAL/MOL
REMARK 924 INTRA-LIGAND FREE ENERGY PREDICTED BY IDOCK:   -0.14 KCAL/MOL
REMARK 927      BINDING AFFINITY PREDICTED BY RF-SCORE:    0.00 PKD
ROOT
HETATM    1  O   UNL     1     -10.968  14.158  64.340  1.00  0.00    -0.347 OA 
HETATM    2  S   UNL     1     -12.197  13.214  64.789  1.00  0.00    -0.436 S  
HETATM    3  O   UNL     1     -12.665  12.536  63.601  1.00  0.00    -0.712 OA 
HETATM    4  O   UNL     1     -13.079  14.056  65.570  1.00  0.00    -0.713 OA 
HETATM    5  C   UNL     1     -11.459  12.009  65.860  1.00  0.00    -0.333 A  
HETATM    6  C   UNL     1     -11.909  11.896  67.184  1.00  0.00    -0.216 A  
HETATM    7  C   UNL     1     -11.264  10.938  67.969  1.00  0.00    -0.314 A  
HETATM    8  C   UNL     1     -10.242  10.123  67.503  1.00  0.00    -0.211 A  
HETATM    9  C   UNL     1      -9.815  10.247  66.172  1.00  0.00    -0.284 A  
HETATM   10  N   UNL     1      -9.802   9.282  68.494  1.00  0.00    -0.154 NA 
HETATM   11  C   UNL     1     -10.434  11.201  65.352  1.00  0.00    -0.321 A  
HETATM   12  C   UNL     1     -10.531   9.551  69.565  1.00  0.00    -0.220 A  
HETATM   13  H   UNL     1      -9.059   8.587  68.419  1.00  0.00     0.000 HD 
HETATM   14  N   UNL     1     -11.426  10.557  69.275  1.00  0.00    -0.261 NA 
ENDROOT
BRANCH  12  15
HETATM   15  C   UNL     1     -10.434   8.879  70.868  1.00  0.00    -0.299 A  
HETATM   16  C   UNL     1      -9.190   8.817  71.517  1.00  0.00    -0.332 A  
HETATM   17  C   UNL     1      -9.047   8.161  72.742  1.00  0.00    -0.328 A  
HETATM   18  C   UNL     1     -10.149   7.557  73.340  1.00  0.00    -0.393 A  
HETATM   19  C   UNL     1     -11.394   7.617  72.718  1.00  0.00    -0.419 A  
HETATM   20  C   UNL     1     -11.536   8.274  71.492  1.00  0.00    -0.325 A  
ENDBRANCH  12  15
TORSDOF 1
ENDMDL
MODEL       14
REMARK 921   NORMALIZED FREE ENERGY PREDICTED BY IDOCK:   -6.20 KCAL/MOL
REMARK 922        TOTAL FREE ENERGY PREDICTED BY IDOCK:   -6.70 KCAL/MOL
REMARK 923 INTER-LIGAND FREE ENERGY PREDICTED BY IDOCK:   -6.56 KCAL/MOL
REMARK 924 INTRA-LIGAND FREE ENERGY PREDICTED BY IDOCK:   -0.15 KCAL/MOL
REMARK 927      BINDING AFFINITY PREDICTED BY RF-SCORE:    0.00 PKD
ROOT
HETATM    1  O   UNL     1     -11.694   7.978  72.836  1.00  0.00    -0.369 OA 
HETATM    2  S   UNL     1     -12.343   8.116  71.364  1.00  0.00    -0.277 S  
HETATM    3  O   UNL     1     -13.715   7.673  71.465  1.00  0.00    -0.373 OA 
HETATM    4  O   UNL     1     -11.411   7.478  70.459  1.00  0.00    -0.280 OA 
HETATM    5  C   UNL     1     -12.347   9.861  71.046  1.00  0.00    -0.357 A  
HETATM    6  C   UNL     1     -11.652  10.359  69.934  1.00  0.00    -0.358 A  
HETATM    7  C   UNL     1     -11.686  11.745  69.764  1.00  0.00    -0.335 A  
HETATM    8  C   UNL     1     -12.361  12.609  70.615  1.00  0.00    -0.290 A  
HETATM    9  C   UNL     1     -13.057  12.085  71.716  1.00  0.00    -0.460 A  
HETATM   10  N   UNL     1     -12.220  13.908  70.200  1.00  0.00    -0.345 NA 
HETATM   11  C   UNL     1     -13.042  10.700  71.926  1.00  0.00    -0.563 A  
HETATM   12  C   UNL     1     -11.477  13.874  69.106  1.00  0.00    -0.299 A  
HETATM   13  H   UNL     1     -12.610  14.738  70.648  1.00  0.00     0.000 HD 
HETATM   14  N   UNL     1     -11.136  12.571  68.819  1.00  0.00    -0.257 NA 
ENDROOT
BRANCH  12  15
HETATM   15  C   UNL     1     -11.081  15.032  68.292  1.00  0.00    -0.292 A  
HETATM   16  C   UNL     1     -10.823  14.853  66.924  1.00  0.00    -0.319 A  
HETATM   17  C   UNL     1     -10.414  15.921  66.120  1.00  0.00    -0.336 A  
HETATM   18  C   UNL     1     -10.261  17.188  66.675  1.00  0.00    -0.319 A  
HETATM   19  C   UNL     1     -10.524  17.389  68.027  1.00  0.00    -0.383 A  
HETATM   20  C   UNL     1     -10.932  16.320  68.830  1.00  0.00    -0.343 A  
ENDBRANCH  12  15
TORSDOF 1
ENDMDL
MODEL       15
REMARK 921   NORMALIZED FREE ENERGY PREDICTED BY IDOCK:   -6.19 KCAL/MOL
REMARK 922        TOTAL FREE ENERGY PREDICTED BY IDOCK:   -6.70 KCAL/MOL
REMARK 923 INTER-LIGAND FREE ENERGY PREDICTED BY IDOCK:   -6.55 KCAL/MOL
REMARK 924 INTRA-LIGAND FREE ENERGY PREDICTED BY IDOCK:   -0.15 KCAL/MOL
REMARK 927      BINDING AFFINITY PREDICTED BY RF-SCORE:    0.00 PKD
ROOT
HETATM    1  O   UNL     1      -9.231   5.177  71.396  1.00  0.00    -0.141 OA 
HETATM    2  S   UNL     1      -9.730   5.881  70.033  1.00  0.00    -0.173 S  
HETATM    3  O   UNL     1     -10.521   4.904  69.319  1.00  0.00    -0.145 OA 
HETATM    4  O   UNL     1      -8.551   6.474  69.437  1.00  0.00    -0.132 OA 
HETATM    5  C   UNL     1     -10.811   7.178  70.577  1.00  0.00    -0.246 A  
HETATM    6  C   UNL     1     -10.518   8.506  70.236  1.00  0.00    -0.233 A  
HETATM    7  C   UNL     1     -11.406   9.471  70.719  1.00  0.00    -0.321 A  
HETATM    8  C   UNL     1     -12.524   9.172  71.486  1.00  0.00    -0.346 A  
HETATM    9  C   UNL     1     -12.801   7.834  71.806  1.00  0.00    -0.352 A  
HETATM   10  N   UNL     1     -13.206  10.316  71.815  1.00  0.00    -0.430 NA 
HETATM   11  C   UNL     1     -11.931   6.837  71.345  1.00  0.00    -0.403 A  
HETATM   12  C   UNL     1     -12.541  11.320  71.266  1.00  0.00    -0.382 A  
HETATM   13  H   UNL     1     -14.057  10.380  72.373  1.00  0.00     0.000 HD 
HETATM   14  N   UNL     1     -11.440  10.835  70.596  1.00  0.00    -0.298 NA 
ENDROOT
BRANCH  12  15
HETATM   15  C   UNL     1     -12.913  12.741  71.329  1.00  0.00    -0.310 A  
HETATM   16  C   UNL     1     -12.274  13.655  70.478  1.00  0.00    -0.438 A  
HETATM   17  C   UNL     1     -12.575  15.019  70.527  1.00  0.00    -0.420 A  
HETATM   18  C   UNL     1     -13.525  15.489  71.428  1.00  0.00    -0.583 A  
HETATM   19  C   UNL     1     -14.180  14.596  72.272  1.00  0.00    -0.555 A  
HETATM   20  C   UNL     1     -13.878  13.232  72.223  1.00  0.00    -0.637 A  
ENDBRANCH  12  15
TORSDOF 1
ENDMDL
MODEL       16
REMARK 921   NORMALIZED FREE ENERGY PREDICTED BY IDOCK:   -6.16 KCAL/MOL
REMARK 922        TOTAL FREE ENERGY PREDICTED BY IDOCK:   -6.66 KCAL/MOL
REMARK 923 INTER-LIGAND FREE ENERGY PREDICTED BY IDOCK:   -6.53 KCAL/MOL
REMARK 924 INTRA-LIGAND FREE ENERGY PREDICTED BY IDOCK:   -0.13 KCAL/MOL
REMARK 927      BINDING AFFINITY PREDICTED BY RF-SCORE:    0.00 PKD
ROOT
HETATM    1  O   UNL     1     -12.740   6.897  71.635  1.00  0.00    -0.365 OA 
HETATM    2  S   UNL     1     -12.160   8.318  72.132  1.00  0.00    -0.386 S  
HETATM    3  O   UNL     1     -11.003   8.038  72.952  1.00  0.00    -0.378 OA 
HETATM    4  O   UNL     1     -13.294   9.048  72.658  1.00  0.00    -0.458 OA 
HETATM    5  C   UNL     1     -11.606   9.113  70.646  1.00  0.00    -0.235 A  
HETATM    6  C   UNL     1     -12.158  10.349  70.280  1.00  0.00    -0.370 A  
HETATM    7  C   UNL     1     -11.684  10.900  69.087  1.00  0.00    -0.326 A  
HETATM    8  C   UNL     1     -10.722  10.296  68.289  1.00  0.00    -0.237 A  
HETATM    9  C   UNL     1     -10.178   9.063  68.682  1.00  0.00    -0.226 A  
HETATM   10  N   UNL     1     -10.456  11.065  67.185  1.00  0.00    -0.220 NA 
HETATM   11  C   UNL     1     -10.631   8.474  69.870  1.00  0.00    -0.228 A  
HETATM   12  C   UNL     1     -11.225  12.137  67.279  1.00  0.00    -0.306 A  
HETATM   13  H   UNL     1      -9.794  10.851  66.438  1.00  0.00     0.000 HD 
HETATM   14  N   UNL     1     -11.986  12.061  68.425  1.00  0.00    -0.423 NA 
ENDROOT
BRANCH  12  15
HETATM   15  C   UNL     1     -11.265  13.259  66.331  1.00  0.00    -0.325 A  
HETATM   16  C   UNL     1     -10.281  14.257  66.408  1.00  0.00    -0.295 A  
HETATM   17  C   UNL     1     -10.299  15.358  65.547  1.00  0.00    -0.412 A  
HETATM   18  C   UNL     1     -11.304  15.475  64.591  1.00  0.00    -0.363 A  
HETATM   19  C   UNL     1     -12.282  14.489  64.490  1.00  0.00    -0.483 A  
HETATM   20  C   UNL     1     -12.263  13.389  65.353  1.00  0.00    -0.492 A  
ENDBRANCH  12  15
TORSDOF 1
ENDMDL
MODEL       17
REMARK 921   NORMALIZED FREE ENERGY PREDICTED BY IDOCK:   -6.12 KCAL/MOL
REMARK 922        TOTAL FREE ENERGY PREDICTED BY IDOCK:   -6.62 KCAL/MOL
REMARK 923 INTER-LIGAND FREE ENERGY PREDICTED BY IDOCK:   -6.47 KCAL/MOL
REMARK 924 INTRA-LIGAND FREE ENERGY PREDICTED BY IDOCK:   -0.15 KCAL/MOL
REMARK 927      BINDING AFFINITY PREDICTED BY RF-SCORE:    0.00 PKD
ROOT
HETATM    1  O   UNL     1     -10.769  18.098  66.252  1.00  0.00    -0.306 OA 
HETATM    2  S   UNL     1      -9.549  17.158  66.732  1.00  0.00    -0.282 S  
HETATM    3  O   UNL     1      -8.581  18.018  67.375  1.00  0.00    -0.239 OA 
HETATM    4  O   UNL     1      -9.192  16.353  65.583  1.00  0.00    -0.465 OA 
HETATM    5  C   UNL     1     -10.262  16.107  67.970  1.00  0.00    -0.252 A  
HETATM    6  C   UNL     1     -10.235  14.716  67.790  1.00  0.00    -0.229 A  
HETATM    7  C   UNL     1     -10.835  13.958  68.799  1.00  0.00    -0.263 A  
HETATM    8  C   UNL     1     -11.426  14.509  69.927  1.00  0.00    -0.270 A  
HETATM    9  C   UNL     1     -11.431  15.904  70.090  1.00  0.00    -0.366 A  
HETATM   10  N   UNL     1     -11.930  13.526  70.740  1.00  0.00    -0.516 NA 
HETATM   11  C   UNL     1     -10.845  16.700  69.097  1.00  0.00    -0.315 A  
HETATM   12  C   UNL     1     -11.663  12.375  70.146  1.00  0.00    -0.185 A  
HETATM   13  H   UNL     1     -12.417  13.658  71.627  1.00  0.00     0.000 HD 
HETATM   14  N   UNL     1     -11.000  12.608  68.961  1.00  0.00    -0.223 NA 
ENDROOT
BRANCH  12  15
HETATM   15  C   UNL     1     -11.993  11.038  70.661  1.00  0.00    -0.464 A  
HETATM   16  C   UNL     1     -12.987  10.909  71.644  1.00  0.00    -0.569 A  
HETATM   17  C   UNL     1     -13.310   9.661  72.184  1.00  0.00    -0.545 A  
HETATM   18  C   UNL     1     -12.644   8.520  71.745  1.00  0.00    -0.387 A  
HETATM   19  C   UNL     1     -11.664   8.626  70.762  1.00  0.00    -0.239 A  
HETATM   20  C   UNL     1     -11.341   9.875  70.223  1.00  0.00    -0.357 A  
ENDBRANCH  12  15
TORSDOF 1
ENDMDL
MODEL       18
REMARK 921   NORMALIZED FREE ENERGY PREDICTED BY IDOCK:   -6.06 KCAL/MOL
REMARK 922        TOTAL FREE ENERGY PREDICTED BY IDOCK:   -6.56 KCAL/MOL
REMARK 923 INTER-LIGAND FREE ENERGY PREDICTED BY IDOCK:   -6.41 KCAL/MOL
REMARK 924 INTRA-LIGAND FREE ENERGY PREDICTED BY IDOCK:   -0.15 KCAL/MOL
REMARK 927      BINDING AFFINITY PREDICTED BY RF-SCORE:    0.00 PKD
ROOT
HETATM    1  O   UNL     1     -12.127  16.003  71.801  1.00  0.00    -0.447 OA 
HETATM    2  S   UNL     1     -13.361  14.963  71.844  1.00  0.00    -0.404 S  
HETATM    3  O   UNL     1     -14.388  15.492  70.974  1.00  0.00    -0.462 OA 
HETATM    4  O   UNL     1     -13.620  14.712  73.246  1.00  0.00    -0.521 OA 
HETATM    5  C   UNL     1     -12.717  13.485  71.106  1.00  0.00    -0.344 A  
HETATM    6  C   UNL     1     -12.706  12.294  71.847  1.00  0.00    -0.197 A  
HETATM    7  C   UNL     1     -12.165  11.179  71.204  1.00  0.00    -0.282 A  
HETATM    8  C   UNL     1     -11.667  11.204  69.908  1.00  0.00    -0.355 A  
HETATM    9  C   UNL     1     -11.698  12.405  69.183  1.00  0.00    -0.376 A  
HETATM   10  N   UNL     1     -11.203   9.967  69.543  1.00  0.00    -0.354 NA 
HETATM   11  C   UNL     1     -12.228  13.549  69.796  1.00  0.00    -0.330 A  
HETATM   12  C   UNL     1     -11.406   9.169  70.578  1.00  0.00    -0.257 A  
HETATM   13  H   UNL     1     -10.783   9.712  68.648  1.00  0.00     0.000 HD 
HETATM   14  N   UNL     1     -11.987   9.881  71.604  1.00  0.00    -0.388 NA 
ENDROOT
BRANCH  12  15
HETATM   15  C   UNL     1     -11.088   7.735  70.641  1.00  0.00    -0.264 A  
HETATM   16  C   UNL     1     -10.796   7.045  69.454  1.00  0.00    -0.253 A  
HETATM   17  C   UNL     1     -10.520   5.675  69.465  1.00  0.00    -0.372 A  
HETATM   18  C   UNL     1     -10.528   4.974  70.668  1.00  0.00    -0.227 A  
HETATM   19  C   UNL     1     -10.804   5.643  71.857  1.00  0.00    -0.302 A  
HETATM   20  C   UNL     1     -11.081   7.013  71.845  1.00  0.00    -0.274 A  
ENDBRANCH  12  15
TORSDOF 1
ENDMDL
MODEL       19
REMARK 921   NORMALIZED FREE ENERGY PREDICTED BY IDOCK:   -6.06 KCAL/MOL
REMARK 922        TOTAL FREE ENERGY PREDICTED BY IDOCK:   -6.55 KCAL/MOL
REMARK 923 INTER-LIGAND FREE ENERGY PREDICTED BY IDOCK:   -6.41 KCAL/MOL
REMARK 924 INTRA-LIGAND FREE ENERGY PREDICTED BY IDOCK:   -0.14 KCAL/MOL
REMARK 927      BINDING AFFINITY PREDICTED BY RF-SCORE:    0.00 PKD
ROOT
HETATM    1  O   UNL     1     -13.158  12.358  64.946  1.00  0.00    -0.765 OA 
HETATM    2  S   UNL     1     -11.602  12.420  64.524  1.00  0.00    -0.368 S  
HETATM    3  O   UNL     1     -11.545  12.213  63.094  1.00  0.00    -0.345 OA 
HETATM    4  O   UNL     1     -10.907  11.539  65.439  1.00  0.00    -0.287 OA 
HETATM    5  C   UNL     1     -11.120  14.093  64.861  1.00  0.00    -0.385 A  
HETATM    6  C   UNL     1     -10.078  14.339  65.767  1.00  0.00    -0.356 A  
HETATM    7  C   UNL     1      -9.771  15.683  65.995  1.00  0.00    -0.346 A  
HETATM    8  C   UNL     1     -10.428  16.737  65.376  1.00  0.00    -0.193 A  
HETATM    9  C   UNL     1     -11.461  16.465  64.466  1.00  0.00    -0.074 A  
HETATM   10  N   UNL     1      -9.915  17.939  65.792  1.00  0.00    -0.556 NA 
HETATM   11  C   UNL     1     -11.804  15.130  64.215  1.00  0.00    -0.263 A  
HETATM   12  C   UNL     1      -8.948  17.658  66.651  1.00  0.00    -0.265 A  
HETATM   13  H   UNL     1     -10.219  18.867  65.497  1.00  0.00     0.000 HD 
HETATM   14  N   UNL     1      -8.841  16.292  66.796  1.00  0.00    -0.211 NA 
ENDROOT
BRANCH  12  15
HETATM   15  C   UNL     1      -8.093  18.634  67.340  1.00  0.00    -0.258 A  
HETATM   16  C   UNL     1      -7.692  19.795  66.662  1.00  0.00    -0.302 A  
HETATM   17  C   UNL     1      -6.853  20.733  67.269  1.00  0.00    -0.405 A  
HETATM   18  C   UNL     1      -6.404  20.525  68.570  1.00  0.00    -0.341 A  
HETATM   19  C   UNL     1      -6.800  19.385  69.265  1.00  0.00    -0.367 A  
HETATM   20  C   UNL     1      -7.639  18.447  68.656  1.00  0.00    -0.321 A  
ENDBRANCH  12  15
TORSDOF 1
ENDMDL
MODEL       20
REMARK 921   NORMALIZED FREE ENERGY PREDICTED BY IDOCK:   -6.03 KCAL/MOL
REMARK 922        TOTAL FREE ENERGY PREDICTED BY IDOCK:   -6.53 KCAL/MOL
REMARK 923 INTER-LIGAND FREE ENERGY PREDICTED BY IDOCK:   -6.38 KCAL/MOL
REMARK 924 INTRA-LIGAND FREE ENERGY PREDICTED BY IDOCK:   -0.15 KCAL/MOL
REMARK 927      BINDING AFFINITY PREDICTED BY RF-SCORE:    0.00 PKD
ROOT
HETATM    1  O   UNL     1     -14.373  15.526  72.329  1.00  0.00    -0.562 OA 
HETATM    2  S   UNL     1     -12.796  15.218  72.479  1.00  0.00    -0.417 S  
HETATM    3  O   UNL     1     -12.537  15.018  73.887  1.00  0.00    -0.535 OA 
HETATM    4  O   UNL     1     -12.116  16.254  71.730  1.00  0.00    -0.462 OA 
HETATM    5  C   UNL     1     -12.570  13.668  71.648  1.00  0.00    -0.250 A  
HETATM    6  C   UNL     1     -11.686  13.592  70.562  1.00  0.00    -0.144 A  
HETATM    7  C   UNL     1     -11.578  12.341  69.948  1.00  0.00    -0.203 A  
HETATM    8  C   UNL     1     -12.279  11.218  70.364  1.00  0.00    -0.365 A  
HETATM    9  C   UNL     1     -13.150  11.316  71.460  1.00  0.00    -0.459 A  
HETATM   10  N   UNL     1     -11.973  10.137  69.576  1.00  0.00    -0.490 NA 
HETATM   11  C   UNL     1     -13.291  12.555  72.099  1.00  0.00    -0.540 A  
HETATM   12  C   UNL     1     -11.093  10.560  68.683  1.00  0.00    -0.267 A  
HETATM   13  H   UNL     1     -12.351   9.193  69.662  1.00  0.00     0.000 HD 
HETATM   14  N   UNL     1     -10.837  11.898  68.884  1.00  0.00    -0.227 NA 
ENDROOT
BRANCH  12  15
HETATM   15  C   UNL     1     -10.456   9.742  67.642  1.00  0.00    -0.305 A  
HETATM   16  C   UNL     1     -10.568   8.344  67.703  1.00  0.00    -0.265 A  
HETATM   17  C   UNL     1      -9.952   7.528  66.751  1.00  0.00    -0.307 A  
HETATM   18  C   UNL     1      -9.215   8.100  65.718  1.00  0.00    -0.098 A  
HETATM   19  C   UNL     1      -9.102   9.485  65.632  1.00  0.00    -0.250 A  
HETATM   20  C   UNL     1      -9.719  10.301  66.586  1.00  0.00    -0.233 A  
ENDBRANCH  12  15
TORSDOF 1
ENDMDL
MODEL       21
REMARK 921   NORMALIZED FREE ENERGY PREDICTED BY IDOCK:   -6.00 KCAL/MOL
REMARK 922        TOTAL FREE ENERGY PREDICTED BY IDOCK:   -6.49 KCAL/MOL
REMARK 923 INTER-LIGAND FREE ENERGY PREDICTED BY IDOCK:   -6.34 KCAL/MOL
REMARK 924 INTRA-LIGAND FREE ENERGY PREDICTED BY IDOCK:   -0.15 KCAL/MOL
REMARK 927      BINDING AFFINITY PREDICTED BY RF-SCORE:    0.00 PKD
ROOT
HETATM    1  O   UNL     1      -9.403   8.186  73.341  1.00  0.00    -0.262 OA 
HETATM    2  S   UNL     1     -10.125   7.353  72.162  1.00  0.00    -0.195 S  
HETATM    3  O   UNL     1     -11.272   6.699  72.750  1.00  0.00    -0.261 OA 
HETATM    4  O   UNL     1      -9.077   6.592  71.515  1.00  0.00    -0.143 OA 
HETATM    5  C   UNL     1     -10.710   8.594  71.039  1.00  0.00    -0.228 A  
HETATM    6  C   UNL     1     -10.264   8.584  69.709  1.00  0.00    -0.206 A  
HETATM    7  C   UNL     1     -10.754   9.606  68.893  1.00  0.00    -0.206 A  
HETATM    8  C   UNL     1     -11.635  10.585  69.331  1.00  0.00    -0.246 A  
HETATM    9  C   UNL     1     -12.075  10.569  70.664  1.00  0.00    -0.452 A  
HETATM   10  N   UNL     1     -11.942  11.452  68.314  1.00  0.00    -0.610 NA 
HETATM   11  C   UNL     1     -11.601   9.563  71.517  1.00  0.00    -0.465 A  
HETATM   12  C   UNL     1     -11.277  11.032  67.249  1.00  0.00    -0.258 A  
HETATM   13  H   UNL     1     -12.561  12.261  68.367  1.00  0.00     0.000 HD 
HETATM   14  N   UNL     1     -10.544   9.912  67.574  1.00  0.00    -0.259 NA 
ENDROOT
BRANCH  12  15
HETATM   15  C   UNL     1     -11.316  11.638  65.911  1.00  0.00    -0.262 A  
HETATM   16  C   UNL     1     -12.130  12.760  65.689  1.00  0.00    -0.514 A  
HETATM   17  C   UNL     1     -12.220  13.348  64.424  1.00  0.00    -0.444 A  
HETATM   18  C   UNL     1     -11.492  12.822  63.360  1.00  0.00    -0.454 A  
HETATM   19  C   UNL     1     -10.670  11.717  63.563  1.00  0.00    -0.501 A  
HETATM   20  C   UNL     1     -10.581  11.129  64.828  1.00  0.00    -0.371 A  
ENDBRANCH  12  15
TORSDOF 1
ENDMDL
MODEL       22
REMARK 921   NORMALIZED FREE ENERGY PREDICTED BY IDOCK:   -5.99 KCAL/MOL
REMARK 922        TOTAL FREE ENERGY PREDICTED BY IDOCK:   -6.48 KCAL/MOL
REMARK 923 INTER-LIGAND FREE ENERGY PREDICTED BY IDOCK:   -6.33 KCAL/MOL
REMARK 924 INTRA-LIGAND FREE ENERGY PREDICTED BY IDOCK:   -0.15 KCAL/MOL
REMARK 927      BINDING AFFINITY PREDICTED BY RF-SCORE:    0.00 PKD
ROOT
HETATM    1  O   UNL     1      -7.002  18.900  65.224  1.00  0.00    -0.494 OA 
HETATM    2  S   UNL     1      -6.411  18.282  66.592  1.00  0.00    -0.198 S  
HETATM    3  O   UNL     1      -5.616  19.317  67.214  1.00  0.00    -0.171 OA 
HETATM    4  O   UNL     1      -5.833  17.004  66.234  1.00  0.00    -0.306 OA 
HETATM    5  C   UNL     1      -7.842  18.001  67.603  1.00  0.00    -0.220 A  
HETATM    6  C   UNL     1      -8.121  16.703  68.053  1.00  0.00    -0.181 A  
HETATM    7  C   UNL     1      -9.276  16.560  68.827  1.00  0.00    -0.252 A  
HETATM    8  C   UNL     1     -10.116  17.614  69.157  1.00  0.00    -0.232 A  
HETATM    9  C   UNL     1      -9.809  18.906  68.702  1.00  0.00    -0.463 A  
HETATM   10  N   UNL     1     -11.166  17.176  69.923  1.00  0.00    -0.092 NA 
HETATM   11  C   UNL     1      -8.662  19.090  67.918  1.00  0.00    -0.333 A  
HETATM   12  C   UNL     1     -10.996  15.874  70.083  1.00  0.00    -0.364 A  
HETATM   13  H   UNL     1     -11.928  17.743  70.295  1.00  0.00     0.000 HD 
HETATM   14  N   UNL     1      -9.856  15.471  69.424  1.00  0.00    -0.266 NA 
ENDROOT
BRANCH  12  15
HETATM   15  C   UNL     1     -11.866  14.977  70.857  1.00  0.00    -0.376 A  
HETATM   16  C   UNL     1     -11.989  13.634  70.465  1.00  0.00    -0.353 A  
HETATM   17  C   UNL     1     -12.829  12.756  71.154  1.00  0.00    -0.315 A  
HETATM   18  C   UNL     1     -13.558  13.207  72.251  1.00  0.00    -0.677 A  
HETATM   19  C   UNL     1     -13.440  14.531  72.663  1.00  0.00    -0.590 A  
HETATM   20  C   UNL     1     -12.599  15.410  71.972  1.00  0.00    -0.448 A  
ENDBRANCH  12  15
TORSDOF 1
ENDMDL
MODEL       23
REMARK 921   NORMALIZED FREE ENERGY PREDICTED BY IDOCK:   -5.96 KCAL/MOL
REMARK 922        TOTAL FREE ENERGY PREDICTED BY IDOCK:   -6.45 KCAL/MOL
REMARK 923 INTER-LIGAND FREE ENERGY PREDICTED BY IDOCK:   -6.31 KCAL/MOL
REMARK 924 INTRA-LIGAND FREE ENERGY PREDICTED BY IDOCK:   -0.13 KCAL/MOL
REMARK 927      BINDING AFFINITY PREDICTED BY RF-SCORE:    0.00 PKD
ROOT
HETATM    1  O   UNL     1     -11.214  10.207  71.136  1.00  0.00    -0.325 OA 
HETATM    2  S   UNL     1     -11.878  10.718  69.756  1.00  0.00    -0.344 S  
HETATM    3  O   UNL     1     -13.286  10.396  69.821  1.00  0.00     0.046 OA 
HETATM    4  O   UNL     1     -11.038  10.202  68.696  1.00  0.00    -0.235 OA 
HETATM    5  C   UNL     1     -11.710  12.483  69.813  1.00  0.00    -0.285 A  
HETATM    6  C   UNL     1     -10.993  13.138  68.801  1.00  0.00    -0.298 A  
HETATM    7  C   UNL     1     -10.889  14.526  68.928  1.00  0.00    -0.253 A  
HETATM    8  C   UNL     1     -11.452  15.248  69.971  1.00  0.00    -0.292 A  
HETATM    9  C   UNL     1     -12.173  14.570  70.966  1.00  0.00    -0.407 A  
HETATM   10  N   UNL     1     -11.187  16.586  69.833  1.00  0.00    -0.403 NA 
HETATM   11  C   UNL     1     -12.296  13.176  70.879  1.00  0.00    -0.393 A  
HETATM   12  C   UNL     1     -10.477  16.716  68.725  1.00  0.00    -0.324 A  
HETATM   13  H   UNL     1     -11.480  17.334  70.462  1.00  0.00     0.000 HD 
HETATM   14  N   UNL     1     -10.278  15.478  68.155  1.00  0.00    -0.225 NA 
ENDROOT
BRANCH  12  15
HETATM   15  C   UNL     1      -9.983  17.978  68.156  1.00  0.00    -0.356 A  
HETATM   16  C   UNL     1      -8.685  18.410  68.470  1.00  0.00    -0.336 A  
HETATM   17  C   UNL     1      -8.187  19.619  67.976  1.00  0.00    -0.347 A  
HETATM   18  C   UNL     1      -8.982  20.415  67.157  1.00  0.00    -0.453 A  
HETATM   19  C   UNL     1     -10.268  19.998  66.824  1.00  0.00    -0.592 A  
HETATM   20  C   UNL     1     -10.765  18.789  67.319  1.00  0.00    -0.490 A  
ENDBRANCH  12  15
TORSDOF 1
ENDMDL
MODEL       24
REMARK 921   NORMALIZED FREE ENERGY PREDICTED BY IDOCK:   -5.93 KCAL/MOL
REMARK 922        TOTAL FREE ENERGY PREDICTED BY IDOCK:   -6.41 KCAL/MOL
REMARK 923 INTER-LIGAND FREE ENERGY PREDICTED BY IDOCK:   -6.28 KCAL/MOL
REMARK 924 INTRA-LIGAND FREE ENERGY PREDICTED BY IDOCK:   -0.13 KCAL/MOL
REMARK 927      BINDING AFFINITY PREDICTED BY RF-SCORE:    0.00 PKD
ROOT
HETATM    1  O   UNL     1     -10.792   7.802  73.191  1.00  0.00    -0.389 OA 
HETATM    2  S   UNL     1     -11.434   7.534  71.735  1.00  0.00    -0.271 S  
HETATM    3  O   UNL     1     -12.738   6.949  71.949  1.00  0.00    -0.336 OA 
HETATM    4  O   UNL     1     -10.415   6.842  70.974  1.00  0.00    -0.209 OA 
HETATM    5  C   UNL     1     -11.660   9.154  71.048  1.00  0.00    -0.306 A  
HETATM    6  C   UNL     1     -11.021   9.487  69.845  1.00  0.00    -0.263 A  
HETATM    7  C   UNL     1     -11.232  10.787  69.380  1.00  0.00    -0.276 A  
HETATM    8  C   UNL     1     -12.025  11.719  70.036  1.00  0.00    -0.344 A  
HETATM    9  C   UNL     1     -12.662  11.359  71.234  1.00  0.00    -0.498 A  
HETATM   10  N   UNL     1     -12.047  12.906  69.349  1.00  0.00    -0.245 NA 
HETATM   11  C   UNL     1     -12.470  10.065  71.737  1.00  0.00    -0.475 A  
HETATM   12  C   UNL     1     -11.292  12.733  68.276  1.00  0.00    -0.296 A  
HETATM   13  H   UNL     1     -12.548  13.754  69.613  1.00  0.00     0.000 HD 
HETATM   14  N   UNL     1     -10.781  11.454  68.272  1.00  0.00    -0.192 NA 
ENDROOT
BRANCH  12  15
HETATM   15  C   UNL     1     -11.039  13.730  67.227  1.00  0.00    -0.319 A  
HETATM   16  C   UNL     1     -11.997  13.922  66.218  1.00  0.00    -0.462 A  
HETATM   17  C   UNL     1     -11.783  14.836  65.184  1.00  0.00    -0.337 A  
HETATM   18  C   UNL     1     -10.605  15.578  65.144  1.00  0.00    -0.455 A  
HETATM   19  C   UNL     1      -9.648  15.411  66.142  1.00  0.00    -0.362 A  
HETATM   20  C   UNL     1      -9.863  14.495  67.176  1.00  0.00    -0.245 A  
ENDBRANCH  12  15
TORSDOF 1
ENDMDL
MODEL       25
REMARK 921   NORMALIZED FREE ENERGY PREDICTED BY IDOCK:   -5.93 KCAL/MOL
REMARK 922        TOTAL FREE ENERGY PREDICTED BY IDOCK:   -6.41 KCAL/MOL
REMARK 923 INTER-LIGAND FREE ENERGY PREDICTED BY IDOCK:   -6.27 KCAL/MOL
REMARK 924 INTRA-LIGAND FREE ENERGY PREDICTED BY IDOCK:   -0.15 KCAL/MOL
REMARK 927      BINDING AFFINITY PREDICTED BY RF-SCORE:    0.00 PKD
ROOT
HETATM    1  O   UNL     1     -10.718   5.930  67.075  1.00  0.00    -0.274 OA 
HETATM    2  S   UNL     1      -9.750   6.604  68.176  1.00  0.00    -0.132 S  
HETATM    3  O   UNL     1      -8.416   6.606  67.620  1.00  0.00    -0.121 OA 
HETATM    4  O   UNL     1     -10.042   5.932  69.425  1.00  0.00    -0.173 OA 
HETATM    5  C   UNL     1     -10.308   8.284  68.284  1.00  0.00    -0.198 A  
HETATM    6  C   UNL     1     -10.759   8.781  69.515  1.00  0.00    -0.196 A  
HETATM    7  C   UNL     1     -11.200  10.107  69.514  1.00  0.00    -0.238 A  
HETATM    8  C   UNL     1     -11.200  10.916  68.387  1.00  0.00    -0.285 A  
HETATM    9  C   UNL     1     -10.735  10.398  67.168  1.00  0.00    -0.316 A  
HETATM   10  N   UNL     1     -11.687  12.163  68.685  1.00  0.00    -0.315 NA 
HETATM   11  C   UNL     1     -10.289   9.070  67.126  1.00  0.00    -0.342 A  
HETATM   12  C   UNL     1     -11.984  12.151  69.974  1.00  0.00    -0.315 A  
HETATM   13  H   UNL     1     -11.798  12.945  68.040  1.00  0.00     0.000 HD 
HETATM   14  N   UNL     1     -11.701  10.911  70.503  1.00  0.00    -0.337 NA 
ENDROOT
BRANCH  12  15
HETATM   15  C   UNL     1     -12.516  13.281  70.750  1.00  0.00    -0.403 A  
HETATM   16  C   UNL     1     -12.224  14.592  70.340  1.00  0.00    -0.394 A  
HETATM   17  C   UNL     1     -12.683  15.694  71.067  1.00  0.00    -0.517 A  
HETATM   18  C   UNL     1     -13.446  15.501  72.215  1.00  0.00    -0.596 A  
HETATM   19  C   UNL     1     -13.756  14.209  72.631  1.00  0.00    -0.568 A  
HETATM   20  C   UNL     1     -13.296  13.107  71.904  1.00  0.00    -0.546 A  
ENDBRANCH  12  15
TORSDOF 1
ENDMDL
MODEL       26
REMARK 921   NORMALIZED FREE ENERGY PREDICTED BY IDOCK:   -5.91 KCAL/MOL
REMARK 922        TOTAL FREE ENERGY PREDICTED BY IDOCK:   -6.40 KCAL/MOL
REMARK 923 INTER-LIGAND FREE ENERGY PREDICTED BY IDOCK:   -6.26 KCAL/MOL
REMARK 924 INTRA-LIGAND FREE ENERGY PREDICTED BY IDOCK:   -0.13 KCAL/MOL
REMARK 927      BINDING AFFINITY PREDICTED BY RF-SCORE:    0.00 PKD
ROOT
HETATM    1  O   UNL     1     -10.098   7.838  72.660  1.00  0.00    -0.214 OA 
HETATM    2  S   UNL     1     -10.980   7.524  71.345  1.00  0.00    -0.234 S  
HETATM    3  O   UNL     1     -12.224   6.944  71.801  1.00  0.00    -0.326 OA 
HETATM    4  O   UNL     1     -10.105   6.808  70.441  1.00  0.00    -0.182 OA 
HETATM    5  C   UNL     1     -11.333   9.120  70.658  1.00  0.00    -0.273 A  
HETATM    6  C   UNL     1     -10.915   9.414  69.352  1.00  0.00    -0.165 A  
HETATM    7  C   UNL     1     -11.213  10.699  68.891  1.00  0.00    -0.275 A  
HETATM    8  C   UNL     1     -11.886  11.650  69.644  1.00  0.00    -0.352 A  
HETATM    9  C   UNL     1     -12.303  11.329  70.945  1.00  0.00    -0.490 A  
HETATM   10  N   UNL     1     -12.035  12.814  68.934  1.00  0.00    -0.286 NA 
HETATM   11  C   UNL     1     -12.018  10.052  71.448  1.00  0.00    -0.470 A  
HETATM   12  C   UNL     1     -11.476  12.608  67.753  1.00  0.00    -0.322 A  
HETATM   13  H   UNL     1     -12.488  13.671  69.255  1.00  0.00     0.000 HD 
HETATM   14  N   UNL     1     -10.965  11.330  67.700  1.00  0.00    -0.240 NA 
ENDROOT
BRANCH  12  15
HETATM   15  C   UNL     1     -11.416  13.571  66.645  1.00  0.00    -0.366 A  
HETATM   16  C   UNL     1     -10.427  14.568  66.655  1.00  0.00    -0.274 A  
HETATM   17  C   UNL     1     -10.354  15.522  65.636  1.00  0.00    -0.407 A  
HETATM   18  C   UNL     1     -11.270  15.492  64.588  1.00  0.00    -0.381 A  
HETATM   19  C   UNL     1     -12.250  14.504  64.554  1.00  0.00    -0.483 A  
HETATM   20  C   UNL     1     -12.322  13.549  65.573  1.00  0.00    -0.524 A  
ENDBRANCH  12  15
TORSDOF 1
ENDMDL
MODEL       27
REMARK 921   NORMALIZED FREE ENERGY PREDICTED BY IDOCK:   -5.88 KCAL/MOL
REMARK 922        TOTAL FREE ENERGY PREDICTED BY IDOCK:   -6.36 KCAL/MOL
REMARK 923 INTER-LIGAND FREE ENERGY PREDICTED BY IDOCK:   -6.22 KCAL/MOL
REMARK 924 INTRA-LIGAND FREE ENERGY PREDICTED BY IDOCK:   -0.14 KCAL/MOL
REMARK 927      BINDING AFFINITY PREDICTED BY RF-SCORE:    0.00 PKD
ROOT
HETATM    1  O   UNL     1     -10.474  14.524  66.244  1.00  0.00    -0.288 OA 
HETATM    2  S   UNL     1     -11.862  14.070  66.932  1.00  0.00    -0.446 S  
HETATM    3  O   UNL     1     -12.848  13.988  65.878  1.00  0.00    -0.484 OA 
HETATM    4  O   UNL     1     -12.048  14.949  68.067  1.00  0.00    -0.252 OA 
HETATM    5  C   UNL     1     -11.546  12.428  67.523  1.00  0.00    -0.365 A  
HETATM    6  C   UNL     1     -11.681  12.152  68.891  1.00  0.00    -0.381 A  
HETATM    7  C   UNL     1     -11.395  10.841  69.280  1.00  0.00    -0.286 A  
HETATM    8  C   UNL     1     -11.005   9.844  68.397  1.00  0.00    -0.187 A  
HETATM    9  C   UNL     1     -10.886  10.143  67.031  1.00  0.00    -0.221 A  
HETATM   10  N   UNL     1     -10.793   8.663  69.062  1.00  0.00    -0.429 NA 
HETATM   11  C   UNL     1     -11.158  11.449  66.601  1.00  0.00    -0.333 A  
HETATM   12  C   UNL     1     -11.048   8.900  70.338  1.00  0.00    -0.239 A  
HETATM   13  H   UNL     1     -10.497   7.777  68.652  1.00  0.00     0.000 HD 
HETATM   14  N   UNL     1     -11.413  10.218  70.501  1.00  0.00    -0.321 NA 
ENDROOT
BRANCH  12  15
HETATM   15  C   UNL     1     -10.979   7.919  71.430  1.00  0.00    -0.264 A  
HETATM   16  C   UNL     1     -10.193   8.202  72.558  1.00  0.00    -0.383 A  
HETATM   17  C   UNL     1     -10.075   7.283  73.605  1.00  0.00    -0.387 A  
HETATM   18  C   UNL     1     -10.747   6.066  73.541  1.00  0.00    -0.270 A  
HETATM   19  C   UNL     1     -11.541   5.772  72.436  1.00  0.00    -0.320 A  
HETATM   20  C   UNL     1     -11.659   6.691  71.389  1.00  0.00    -0.362 A  
ENDBRANCH  12  15
TORSDOF 1
ENDMDL
MODEL       28
REMARK 921   NORMALIZED FREE ENERGY PREDICTED BY IDOCK:   -5.86 KCAL/MOL
REMARK 922        TOTAL FREE ENERGY PREDICTED BY IDOCK:   -6.34 KCAL/MOL
REMARK 923 INTER-LIGAND FREE ENERGY PREDICTED BY IDOCK:   -6.21 KCAL/MOL
REMARK 924 INTRA-LIGAND FREE ENERGY PREDICTED BY IDOCK:   -0.14 KCAL/MOL
REMARK 927      BINDING AFFINITY PREDICTED BY RF-SCORE:    0.00 PKD
ROOT
HETATM    1  O   UNL     1      -7.209  21.322  67.703  1.00  0.00    -0.407 OA 
HETATM    2  S   UNL     1      -6.641  19.896  68.202  1.00  0.00    -0.276 S  
HETATM    3  O   UNL     1      -6.528  19.968  69.642  1.00  0.00    -0.345 OA 
HETATM    4  O   UNL     1      -5.490  19.613  67.371  1.00  0.00    -0.165 OA 
HETATM    5  C   UNL     1      -7.931  18.745  67.806  1.00  0.00    -0.254 A  
HETATM    6  C   UNL     1      -7.656  17.673  66.944  1.00  0.00    -0.244 A  
HETATM    7  C   UNL     1      -8.728  16.823  66.665  1.00  0.00    -0.248 A  
HETATM    8  C   UNL     1     -10.001  16.990  67.193  1.00  0.00    -0.281 A  
HETATM    9  C   UNL     1     -10.249  18.065  68.061  1.00  0.00    -0.390 A  
HETATM   10  N   UNL     1     -10.846  16.007  66.745  1.00  0.00    -0.253 NA 
HETATM   11  C   UNL     1      -9.200  18.945  68.362  1.00  0.00    -0.390 A  
HETATM   12  C   UNL     1     -10.127  15.227  65.953  1.00  0.00    -0.334 A  
HETATM   13  H   UNL     1     -11.833  15.900  66.976  1.00  0.00     0.000 HD 
HETATM   14  N   UNL     1      -8.836  15.702  65.884  1.00  0.00    -0.186 NA 
ENDROOT
BRANCH  12  15
HETATM   15  C   UNL     1     -10.605  14.023  65.260  1.00  0.00    -0.376 A  
HETATM   16  C   UNL     1     -11.556  14.153  64.235  1.00  0.00    -0.327 A  
HETATM   17  C   UNL     1     -12.060  13.031  63.572  1.00  0.00    -0.617 A  
HETATM   18  C   UNL     1     -11.618  11.759  63.923  1.00  0.00    -0.469 A  
HETATM   19  C   UNL     1     -10.667  11.610  64.929  1.00  0.00    -0.352 A  
HETATM   20  C   UNL     1     -10.163  12.733  65.592  1.00  0.00    -0.292 A  
ENDBRANCH  12  15
TORSDOF 1
ENDMDL
MODEL       29
REMARK 921   NORMALIZED FREE ENERGY PREDICTED BY IDOCK:   -5.85 KCAL/MOL
REMARK 922        TOTAL FREE ENERGY PREDICTED BY IDOCK:   -6.33 KCAL/MOL
REMARK 923 INTER-LIGAND FREE ENERGY PREDICTED BY IDOCK:   -6.18 KCAL/MOL
REMARK 924 INTRA-LIGAND FREE ENERGY PREDICTED BY IDOCK:   -0.15 KCAL/MOL
REMARK 927      BINDING AFFINITY PREDICTED BY RF-SCORE:    0.00 PKD
ROOT
HETATM    1  O   UNL     1     -10.559   5.246  68.561  1.00  0.00    -0.131 OA 
HETATM    2  S   UNL     1     -10.093   5.865  69.976  1.00  0.00    -0.216 S  
HETATM    3  O   UNL     1      -8.671   5.629  70.092  1.00  0.00    -0.132 OA 
HETATM    4  O   UNL     1     -11.022   5.351  70.960  1.00  0.00    -0.179 OA 
HETATM    5  C   UNL     1     -10.352   7.611  69.801  1.00  0.00    -0.223 A  
HETATM    6  C   UNL     1     -11.219   8.270  70.685  1.00  0.00    -0.270 A  
HETATM    7  C   UNL     1     -11.385   9.640  70.469  1.00  0.00    -0.296 A  
HETATM    8  C   UNL     1     -10.744  10.343  69.458  1.00  0.00    -0.251 A  
HETATM    9  C   UNL     1      -9.873   9.663  68.593  1.00  0.00    -0.171 A  
HETATM   10  N   UNL     1     -11.099  11.668  69.489  1.00  0.00    -0.427 NA 
HETATM   11  C   UNL     1      -9.684   8.286  68.772  1.00  0.00    -0.160 A  
HETATM   12  C   UNL     1     -11.941  11.808  70.500  1.00  0.00    -0.289 A  
HETATM   13  H   UNL     1     -10.776  12.400  68.857  1.00  0.00     0.000 HD 
HETATM   14  N   UNL     1     -12.136  10.589  71.112  1.00  0.00    -0.370 NA 
ENDROOT
BRANCH  12  15
HETATM   15  C   UNL     1     -12.569  13.063  70.935  1.00  0.00    -0.364 A  
HETATM   16  C   UNL     1     -13.488  13.038  71.996  1.00  0.00    -0.584 A  
HETATM   17  C   UNL     1     -14.131  14.204  72.421  1.00  0.00    -0.570 A  
HETATM   18  C   UNL     1     -13.861  15.416  71.792  1.00  0.00    -0.620 A  
HETATM   19  C   UNL     1     -12.944  15.463  70.746  1.00  0.00    -0.510 A  
HETATM   20  C   UNL     1     -12.301  14.296  70.321  1.00  0.00    -0.418 A  
ENDBRANCH  12  15
TORSDOF 1
ENDMDL
MODEL       30
REMARK 921   NORMALIZED FREE ENERGY PREDICTED BY IDOCK:   -5.82 KCAL/MOL
REMARK 922        TOTAL FREE ENERGY PREDICTED BY IDOCK:   -6.30 KCAL/MOL
REMARK 923 INTER-LIGAND FREE ENERGY PREDICTED BY IDOCK:   -6.16 KCAL/MOL
REMARK 924 INTRA-LIGAND FREE ENERGY PREDICTED BY IDOCK:   -0.14 KCAL/MOL
REMARK 927      BINDING AFFINITY PREDICTED BY RF-SCORE:    0.00 PKD
ROOT
HETATM    1  O   UNL     1     -11.934  15.172  72.684  1.00  0.00    -0.379 OA 
HETATM    2  S   UNL     1     -13.057  14.543  71.711  1.00  0.00    -0.372 S  
HETATM    3  O   UNL     1     -14.077  15.553  71.537  1.00  0.00    -0.488 OA 
HETATM    4  O   UNL     1     -13.374  13.242  72.259  1.00  0.00    -0.495 OA 
HETATM    5  C   UNL     1     -12.225  14.325  70.160  1.00  0.00    -0.345 A  
HETATM    6  C   UNL     1     -12.139  13.042  69.600  1.00  0.00    -0.304 A  
HETATM    7  C   UNL     1     -11.450  12.949  68.388  1.00  0.00    -0.312 A  
HETATM    8  C   UNL     1     -10.880  14.037  67.742  1.00  0.00    -0.247 A  
HETATM    9  C   UNL     1     -10.988  15.313  68.317  1.00  0.00    -0.276 A  
HETATM   10  N   UNL     1     -10.273  13.645  66.576  1.00  0.00    -0.278 NA 
HETATM   11  C   UNL     1     -11.666  15.447  69.537  1.00  0.00    -0.364 A  
HETATM   12  C   UNL     1     -10.457  12.339  66.478  1.00  0.00    -0.227 A  
HETATM   13  H   UNL     1      -9.776  14.244  65.916  1.00  0.00     0.000 HD 
HETATM   14  N   UNL     1     -11.168  11.888  67.568  1.00  0.00    -0.275 NA 
ENDROOT
BRANCH  12  15
HETATM   15  C   UNL     1     -10.001  11.482  65.375  1.00  0.00    -0.288 A  
HETATM   16  C   UNL     1     -10.200  11.904  64.051  1.00  0.00    -0.394 A  
HETATM   17  C   UNL     1      -9.811  11.106  62.972  1.00  0.00    -0.368 A  
HETATM   18  C   UNL     1      -9.211   9.871  63.202  1.00  0.00    -0.281 A  
HETATM   19  C   UNL     1      -8.994   9.439  64.507  1.00  0.00    -0.227 A  
HETATM   20  C   UNL     1      -9.385  10.238  65.586  1.00  0.00    -0.241 A  
ENDBRANCH  12  15
TORSDOF 1
ENDMDL
MODEL       31
REMARK 921   NORMALIZED FREE ENERGY PREDICTED BY IDOCK:   -5.81 KCAL/MOL
REMARK 922        TOTAL FREE ENERGY PREDICTED BY IDOCK:   -6.29 KCAL/MOL
REMARK 923 INTER-LIGAND FREE ENERGY PREDICTED BY IDOCK:   -6.14 KCAL/MOL
REMARK 924 INTRA-LIGAND FREE ENERGY PREDICTED BY IDOCK:   -0.15 KCAL/MOL
REMARK 927      BINDING AFFINITY PREDICTED BY RF-SCORE:    0.00 PKD
ROOT
HETATM    1  O   UNL     1     -11.064   6.398  72.089  1.00  0.00    -0.238 OA 
HETATM    2  S   UNL     1     -10.952   7.985  72.362  1.00  0.00    -0.365 S  
HETATM    3  O   UNL     1      -9.780   8.190  73.182  1.00  0.00    -0.277 OA 
HETATM    4  O   UNL     1     -12.264   8.405  72.808  1.00  0.00    -0.339 OA 
HETATM    5  C   UNL     1     -10.640   8.686  70.763  1.00  0.00    -0.210 A  
HETATM    6  C   UNL     1     -11.535   9.630  70.238  1.00  0.00    -0.288 A  
HETATM    7  C   UNL     1     -11.230  10.119  68.966  1.00  0.00    -0.173 A  
HETATM    8  C   UNL     1     -10.116   9.727  68.237  1.00  0.00    -0.163 A  
HETATM    9  C   UNL     1      -9.229   8.788  68.788  1.00  0.00    -0.141 A  
HETATM   10  N   UNL     1     -10.076  10.372  67.027  1.00  0.00    -0.206 NA 
HETATM   11  C   UNL     1      -9.503   8.268  70.060  1.00  0.00    -0.167 A  
HETATM   12  C   UNL     1     -11.137  11.162  66.988  1.00  0.00    -0.273 A  
HETATM   13  H   UNL     1      -9.368  10.263  66.301  1.00  0.00     0.000 HD 
HETATM   14  N   UNL     1     -11.858  11.026  68.153  1.00  0.00    -0.603 NA 
ENDROOT
BRANCH  12  15
HETATM   15  C   UNL     1     -11.499  12.069  65.890  1.00  0.00    -0.392 A  
HETATM   16  C   UNL     1     -12.109  13.298  66.189  1.00  0.00    -0.477 A  
HETATM   17  C   UNL     1     -12.498  14.176  65.174  1.00  0.00    -0.453 A  
HETATM   18  C   UNL     1     -12.279  13.840  63.842  1.00  0.00    -0.402 A  
HETATM   19  C   UNL     1     -11.664  12.631  63.525  1.00  0.00    -0.604 A  
HETATM   20  C   UNL     1     -11.276  11.753  64.541  1.00  0.00    -0.368 A  
ENDBRANCH  12  15
TORSDOF 1
ENDMDL
MODEL       32
REMARK 921   NORMALIZED FREE ENERGY PREDICTED BY IDOCK:   -5.80 KCAL/MOL
REMARK 922        TOTAL FREE ENERGY PREDICTED BY IDOCK:   -6.28 KCAL/MOL
REMARK 923 INTER-LIGAND FREE ENERGY PREDICTED BY IDOCK:   -6.13 KCAL/MOL
REMARK 924 INTRA-LIGAND FREE ENERGY PREDICTED BY IDOCK:   -0.15 KCAL/MOL
REMARK 927      BINDING AFFINITY PREDICTED BY RF-SCORE:    0.00 PKD
ROOT
HETATM    1  O   UNL     1     -10.240   9.099  66.115  1.00  0.00    -0.272 OA 
HETATM    2  S   UNL     1      -8.887   9.971  65.997  1.00  0.00    -0.150 S  
HETATM    3  O   UNL     1      -8.226   9.559  64.779  1.00  0.00    -0.127 OA 
HETATM    4  O   UNL     1      -8.230   9.861  67.282  1.00  0.00    -0.119 OA 
HETATM    5  C   UNL     1      -9.454  11.637  65.783  1.00  0.00    -0.226 A  
HETATM    6  C   UNL     1      -9.077  12.617  66.714  1.00  0.00    -0.214 A  
HETATM    7  C   UNL     1      -9.581  13.900  66.487  1.00  0.00    -0.287 A  
HETATM    8  C   UNL     1     -10.400  14.227  65.416  1.00  0.00    -0.370 A  
HETATM    9  C   UNL     1     -10.755  13.231  64.493  1.00  0.00    -0.428 A  
HETATM   10  N   UNL     1     -10.737  15.556  65.451  1.00  0.00    -0.380 NA 
HETATM   11  C   UNL     1     -10.276  11.929  64.688  1.00  0.00    -0.316 A  
HETATM   12  C   UNL     1     -10.142  16.066  66.517  1.00  0.00    -0.287 A  
HETATM   13  H   UNL     1     -11.331  16.053  64.786  1.00  0.00     0.000 HD 
HETATM   14  N   UNL     1      -9.434  15.080  67.168  1.00  0.00    -0.210 NA 
ENDROOT
BRANCH  12  15
HETATM   15  C   UNL     1     -10.195  17.470  66.949  1.00  0.00    -0.329 A  
HETATM   16  C   UNL     1     -10.427  18.473  65.994  1.00  0.00    -0.433 A  
HETATM   17  C   UNL     1     -10.454  19.822  66.357  1.00  0.00    -0.618 A  
HETATM   18  C   UNL     1     -10.253  20.189  67.684  1.00  0.00    -0.516 A  
HETATM   19  C   UNL     1     -10.034  19.209  68.648  1.00  0.00    -0.486 A  
HETATM   20  C   UNL     1     -10.006  17.859  68.284  1.00  0.00    -0.360 A  
ENDBRANCH  12  15
TORSDOF 1
ENDMDL
MODEL       33
REMARK 921   NORMALIZED FREE ENERGY PREDICTED BY IDOCK:   -5.76 KCAL/MOL
REMARK 922        TOTAL FREE ENERGY PREDICTED BY IDOCK:   -6.24 KCAL/MOL
REMARK 923 INTER-LIGAND FREE ENERGY PREDICTED BY IDOCK:   -6.10 KCAL/MOL
REMARK 924 INTRA-LIGAND FREE ENERGY PREDICTED BY IDOCK:   -0.13 KCAL/MOL
REMARK 927      BINDING AFFINITY PREDICTED BY RF-SCORE:    0.00 PKD
ROOT
HETATM    1  O   UNL     1     -11.329  11.667  65.452  1.00  0.00    -0.258 OA 
HETATM    2  S   UNL     1     -11.871  12.943  66.278  1.00  0.00    -0.413 S  
HETATM    3  O   UNL     1     -12.275  12.461  67.580  1.00  0.00    -0.442 OA 
HETATM    4  O   UNL     1     -12.809  13.614  65.402  1.00  0.00    -0.634 OA 
HETATM    5  C   UNL     1     -10.443  13.973  66.487  1.00  0.00    -0.281 A  
HETATM    6  C   UNL     1     -10.457  15.280  65.978  1.00  0.00    -0.328 A  
HETATM    7  C   UNL     1      -9.288  16.021  66.165  1.00  0.00    -0.342 A  
HETATM    8  C   UNL     1      -8.163  15.532  66.815  1.00  0.00    -0.242 A  
HETATM    9  C   UNL     1      -8.177  14.225  67.324  1.00  0.00    -0.212 A  
HETATM   10  N   UNL     1      -7.172  16.480  66.848  1.00  0.00    -0.207 NA 
HETATM   11  C   UNL     1      -9.330  13.446  67.152  1.00  0.00    -0.240 A  
HETATM   12  C   UNL     1      -7.656  17.550  66.239  1.00  0.00    -0.308 A  
HETATM   13  H   UNL     1      -6.245  16.379  67.261  1.00  0.00     0.000 HD 
HETATM   14  N   UNL     1      -8.940  17.298  65.810  1.00  0.00    -0.502 NA 
ENDROOT
BRANCH  12  15
HETATM   15  C   UNL     1      -6.957  18.830  66.054  1.00  0.00    -0.302 A  
HETATM   16  C   UNL     1      -7.174  19.869  66.973  1.00  0.00    -0.258 A  
HETATM   17  C   UNL     1      -6.555  21.112  66.817  1.00  0.00    -0.357 A  
HETATM   18  C   UNL     1      -5.704  21.334  65.739  1.00  0.00    -0.237 A  
HETATM   19  C   UNL     1      -5.466  20.313  64.823  1.00  0.00    -0.217 A  
HETATM   20  C   UNL     1      -6.086  19.069  64.979  1.00  0.00    -0.323 A  
ENDBRANCH  12  15
TORSDOF 1
ENDMDL
MODEL       34
REMARK 921   NORMALIZED FREE ENERGY PREDICTED BY IDOCK:   -5.76 KCAL/MOL
REMARK 922        TOTAL FREE ENERGY PREDICTED BY IDOCK:   -6.23 KCAL/MOL
REMARK 923 INTER-LIGAND FREE ENERGY PREDICTED BY IDOCK:   -6.10 KCAL/MOL
REMARK 924 INTRA-LIGAND FREE ENERGY PREDICTED BY IDOCK:   -0.14 KCAL/MOL
REMARK 927      BINDING AFFINITY PREDICTED BY RF-SCORE:    0.00 PKD
ROOT
HETATM    1  O   UNL     1      -9.384   9.265  68.244  1.00  0.00    -0.134 OA 
HETATM    2  S   UNL     1      -9.261   9.989  66.807  1.00  0.00    -0.150 S  
HETATM    3  O   UNL     1     -10.113   9.262  65.894  1.00  0.00    -0.293 OA 
HETATM    4  O   UNL     1      -7.842  10.135  66.556  1.00  0.00    -0.107 OA 
HETATM    5  C   UNL     1      -9.965  11.597  67.062  1.00  0.00    -0.204 A  
HETATM    6  C   UNL     1      -9.181  12.736  66.830  1.00  0.00    -0.229 A  
HETATM    7  C   UNL     1      -9.802  13.964  67.073  1.00  0.00    -0.257 A  
HETATM    8  C   UNL     1     -11.113  14.090  67.509  1.00  0.00    -0.298 A  
HETATM    9  C   UNL     1     -11.881  12.935  67.724  1.00  0.00    -0.391 A  
HETATM   10  N   UNL     1     -11.449  15.412  67.660  1.00  0.00    -0.298 NA 
HETATM   11  C   UNL     1     -11.293  11.683  67.498  1.00  0.00    -0.364 A  
HETATM   12  C   UNL     1     -10.378  16.112  67.323  1.00  0.00    -0.287 A  
HETATM   13  H   UNL     1     -12.348  15.781  67.972  1.00  0.00     0.000 HD 
HETATM   14  N   UNL     1      -9.360  15.257  66.964  1.00  0.00    -0.215 NA 
ENDROOT
BRANCH  12  15
HETATM   15  C   UNL     1     -10.274  17.578  67.305  1.00  0.00    -0.335 A  
HETATM   16  C   UNL     1     -10.369  18.257  66.080  1.00  0.00    -0.414 A  
HETATM   17  C   UNL     1     -10.244  19.647  66.014  1.00  0.00    -0.587 A  
HETATM   18  C   UNL     1     -10.024  20.381  67.176  1.00  0.00    -0.568 A  
HETATM   19  C   UNL     1      -9.939  19.728  68.402  1.00  0.00    -0.549 A  
HETATM   20  C   UNL     1     -10.064  18.336  68.468  1.00  0.00    -0.419 A  
ENDBRANCH  12  15
TORSDOF 1
ENDMDL
MODEL       35
REMARK 921   NORMALIZED FREE ENERGY PREDICTED BY IDOCK:   -5.74 KCAL/MOL
REMARK 922        TOTAL FREE ENERGY PREDICTED BY IDOCK:   -6.21 KCAL/MOL
REMARK 923 INTER-LIGAND FREE ENERGY PREDICTED BY IDOCK:   -6.08 KCAL/MOL
REMARK 924 INTRA-LIGAND FREE ENERGY PREDICTED BY IDOCK:   -0.13 KCAL/MOL
REMARK 927      BINDING AFFINITY PREDICTED BY RF-SCORE:    0.00 PKD
ROOT
HETATM    1  O   UNL     1      -9.663   9.244  68.259  1.00  0.00    -0.146 OA 
HETATM    2  S   UNL     1      -9.286   9.999  66.884  1.00  0.00    -0.162 S  
HETATM    3  O   UNL     1      -9.988   9.314  65.821  1.00  0.00    -0.299 OA 
HETATM    4  O   UNL     1      -7.843  10.115  66.877  1.00  0.00    -0.105 OA 
HETATM    5  C   UNL     1      -9.992  11.616  67.060  1.00  0.00    -0.204 A  
HETATM    6  C   UNL     1      -9.158  12.741  66.994  1.00  0.00    -0.220 A  
HETATM    7  C   UNL     1      -9.786  13.978  67.162  1.00  0.00    -0.242 A  
HETATM    8  C   UNL     1     -11.149  14.126  67.376  1.00  0.00    -0.306 A  
HETATM    9  C   UNL     1     -11.965  12.985  67.428  1.00  0.00    -0.372 A  
HETATM   10  N   UNL     1     -11.479  15.451  67.504  1.00  0.00    -0.281 NA 
HETATM   11  C   UNL     1     -11.372  11.725  67.270  1.00  0.00    -0.379 A  
HETATM   12  C   UNL     1     -10.353  16.133  67.370  1.00  0.00    -0.294 A  
HETATM   13  H   UNL     1     -12.410  15.834  67.671  1.00  0.00     0.000 HD 
HETATM   14  N   UNL     1      -9.306  15.262  67.164  1.00  0.00    -0.210 NA 
ENDROOT
BRANCH  12  15
HETATM   15  C   UNL     1     -10.218  17.596  67.409  1.00  0.00    -0.345 A  
HETATM   16  C   UNL     1     -10.125  18.243  68.651  1.00  0.00    -0.407 A  
HETATM   17  C   UNL     1     -10.027  19.634  68.735  1.00  0.00    -0.542 A  
HETATM   18  C   UNL     1     -10.017  20.401  67.573  1.00  0.00    -0.537 A  
HETATM   19  C   UNL     1     -10.096  19.777  66.331  1.00  0.00    -0.600 A  
HETATM   20  C   UNL     1     -10.195  18.385  66.249  1.00  0.00    -0.427 A  
ENDBRANCH  12  15
TORSDOF 1
ENDMDL
MODEL       36
REMARK 921   NORMALIZED FREE ENERGY PREDICTED BY IDOCK:   -5.72 KCAL/MOL
REMARK 922        TOTAL FREE ENERGY PREDICTED BY IDOCK:   -6.20 KCAL/MOL
REMARK 923 INTER-LIGAND FREE ENERGY PREDICTED BY IDOCK:   -6.05 KCAL/MOL
REMARK 924 INTRA-LIGAND FREE ENERGY PREDICTED BY IDOCK:   -0.15 KCAL/MOL
REMARK 927      BINDING AFFINITY PREDICTED BY RF-SCORE:    0.00 PKD
ROOT
HETATM    1  O   UNL     1     -10.552   6.321  72.079  1.00  0.00    -0.207 OA 
HETATM    2  S   UNL     1     -10.576   7.912  72.351  1.00  0.00    -0.326 S  
HETATM    3  O   UNL     1      -9.434   8.215  73.184  1.00  0.00    -0.267 OA 
HETATM    4  O   UNL     1     -11.924   8.220  72.783  1.00  0.00    -0.377 OA 
HETATM    5  C   UNL     1     -10.306   8.636  70.755  1.00  0.00    -0.204 A  
HETATM    6  C   UNL     1     -11.271   9.501  70.220  1.00  0.00    -0.307 A  
HETATM    7  C   UNL     1     -10.994  10.015  68.950  1.00  0.00    -0.207 A  
HETATM    8  C   UNL     1      -9.842   9.717  68.235  1.00  0.00    -0.148 A  
HETATM    9  C   UNL     1      -8.887   8.856  68.796  1.00  0.00    -0.137 A  
HETATM   10  N   UNL     1      -9.843  10.363  67.025  1.00  0.00    -0.184 NA 
HETATM   11  C   UNL     1      -9.130   8.315  70.066  1.00  0.00    -0.150 A  
HETATM   12  C   UNL     1     -10.966  11.061  66.972  1.00  0.00    -0.272 A  
HETATM   13  H   UNL     1      -9.120  10.314  66.306  1.00  0.00     0.000 HD 
HETATM   14  N   UNL     1     -11.687  10.865  68.130  1.00  0.00    -0.544 NA 
ENDROOT
BRANCH  12  15
HETATM   15  C   UNL     1     -11.391  11.935  65.870  1.00  0.00    -0.365 A  
HETATM   16  C   UNL     1     -11.013  11.615  64.556  1.00  0.00    -0.376 A  
HETATM   17  C   UNL     1     -11.369  12.435  63.483  1.00  0.00    -0.553 A  
HETATM   18  C   UNL     1     -12.113  13.590  63.707  1.00  0.00    -0.482 A  
HETATM   19  C   UNL     1     -12.507  13.919  65.001  1.00  0.00    -0.447 A  
HETATM   20  C   UNL     1     -12.150  13.098  66.075  1.00  0.00    -0.495 A  
ENDBRANCH  12  15
TORSDOF 1
ENDMDL
MODEL       37
REMARK 921   NORMALIZED FREE ENERGY PREDICTED BY IDOCK:   -5.68 KCAL/MOL
REMARK 922        TOTAL FREE ENERGY PREDICTED BY IDOCK:   -6.15 KCAL/MOL
REMARK 923 INTER-LIGAND FREE ENERGY PREDICTED BY IDOCK:   -6.00 KCAL/MOL
REMARK 924 INTRA-LIGAND FREE ENERGY PREDICTED BY IDOCK:   -0.15 KCAL/MOL
REMARK 927      BINDING AFFINITY PREDICTED BY RF-SCORE:    0.00 PKD
ROOT
HETATM    1  O   UNL     1     -10.014  10.345  63.152  1.00  0.00    -0.247 OA 
HETATM    2  S   UNL     1      -9.128  10.275  64.498  1.00  0.00    -0.256 S  
HETATM    3  O   UNL     1      -7.783  10.666  64.138  1.00  0.00    -0.009 OA 
HETATM    4  O   UNL     1      -9.402   8.982  65.088  1.00  0.00    -0.176 OA 
HETATM    5  C   UNL     1      -9.810  11.537  65.541  1.00  0.00    -0.234 A  
HETATM    6  C   UNL     1     -10.329  11.187  66.796  1.00  0.00    -0.284 A  
HETATM    7  C   UNL     1     -10.867  12.233  67.549  1.00  0.00    -0.234 A  
HETATM    8  C   UNL     1     -10.897  13.553  67.120  1.00  0.00    -0.284 A  
HETATM    9  C   UNL     1     -10.363  13.881  65.864  1.00  0.00    -0.318 A  
HETATM   10  N   UNL     1     -11.482  14.357  68.065  1.00  0.00    -0.294 NA 
HETATM   11  C   UNL     1      -9.819  12.858  65.075  1.00  0.00    -0.067 A  
HETATM   12  C   UNL     1     -11.812  13.569  69.076  1.00  0.00    -0.343 A  
HETATM   13  H   UNL     1     -11.634  15.364  68.000  1.00  0.00     0.000 HD 
HETATM   14  N   UNL     1     -11.451  12.271  68.787  1.00  0.00    -0.285 NA 
ENDROOT
BRANCH  12  15
HETATM   15  C   UNL     1     -12.445  13.994  70.332  1.00  0.00    -0.418 A  
HETATM   16  C   UNL     1     -12.939  13.020  71.214  1.00  0.00    -0.330 A  
HETATM   17  C   UNL     1     -13.577  13.380  72.404  1.00  0.00    -0.708 A  
HETATM   18  C   UNL     1     -13.727  14.725  72.732  1.00  0.00    -0.486 A  
HETATM   19  C   UNL     1     -13.232  15.705  71.877  1.00  0.00    -0.537 A  
HETATM   20  C   UNL     1     -12.595  15.344  70.686  1.00  0.00    -0.491 A  
ENDBRANCH  12  15
TORSDOF 1
ENDMDL
MODEL       38
REMARK 921   NORMALIZED FREE ENERGY PREDICTED BY IDOCK:   -5.68 KCAL/MOL
REMARK 922        TOTAL FREE ENERGY PREDICTED BY IDOCK:   -6.15 KCAL/MOL
REMARK 923 INTER-LIGAND FREE ENERGY PREDICTED BY IDOCK:   -6.00 KCAL/MOL
REMARK 924 INTRA-LIGAND FREE ENERGY PREDICTED BY IDOCK:   -0.15 KCAL/MOL
REMARK 927      BINDING AFFINITY PREDICTED BY RF-SCORE:    0.00 PKD
ROOT
HETATM    1  O   UNL     1     -10.466  15.199  64.809  1.00  0.00    -0.368 OA 
HETATM    2  S   UNL     1     -11.767  14.284  65.080  1.00  0.00    -0.404 S  
HETATM    3  O   UNL     1     -12.584  14.349  63.889  1.00  0.00    -0.814 OA 
HETATM    4  O   UNL     1     -12.283  14.698  66.368  1.00  0.00    -0.300 OA 
HETATM    5  C   UNL     1     -11.126  12.636  65.222  1.00  0.00    -0.295 A  
HETATM    6  C   UNL     1     -11.337  11.916  66.406  1.00  0.00    -0.400 A  
HETATM    7  C   UNL     1     -10.784  10.634  66.448  1.00  0.00    -0.129 A  
HETATM    8  C   UNL     1     -10.070  10.069  65.400  1.00  0.00    -0.247 A  
HETATM    9  C   UNL     1      -9.881  10.807  64.220  1.00  0.00    -0.384 A  
HETATM   10  N   UNL     1      -9.649   8.805  65.724  1.00  0.00    -0.445 NA 
HETATM   11  C   UNL     1     -10.415  12.100  64.141  1.00  0.00    -0.395 A  
HETATM   12  C   UNL     1     -10.090   8.566  66.949  1.00  0.00    -0.294 A  
HETATM   13  H   UNL     1      -9.104   8.174  65.137  1.00  0.00     0.000 HD 
HETATM   14  N   UNL     1     -10.781   9.663  67.415  1.00  0.00    -0.272 NA 
ENDROOT
BRANCH  12  15
HETATM   15  C   UNL     1      -9.903   7.321  67.708  1.00  0.00    -0.181 A  
HETATM   16  C   UNL     1     -10.847   6.965  68.684  1.00  0.00    -0.236 A  
HETATM   17  C   UNL     1     -10.691   5.806  69.450  1.00  0.00    -0.397 A  
HETATM   18  C   UNL     1      -9.586   4.983  69.248  1.00  0.00    -0.230 A  
HETATM   19  C   UNL     1      -8.645   5.313  68.277  1.00  0.00    -0.099 A  
HETATM   20  C   UNL     1      -8.802   6.473  67.511  1.00  0.00    -0.112 A  
ENDBRANCH  12  15
TORSDOF 1
ENDMDL
MODEL       39
REMARK 921   NORMALIZED FREE ENERGY PREDICTED BY IDOCK:   -5.68 KCAL/MOL
REMARK 922        TOTAL FREE ENERGY PREDICTED BY IDOCK:   -6.15 KCAL/MOL
REMARK 923 INTER-LIGAND FREE ENERGY PREDICTED BY IDOCK:   -6.00 KCAL/MOL
REMARK 924 INTRA-LIGAND FREE ENERGY PREDICTED BY IDOCK:   -0.15 KCAL/MOL
REMARK 927      BINDING AFFINITY PREDICTED BY RF-SCORE:    0.00 PKD
ROOT
HETATM    1  O   UNL     1     -11.156  17.529  64.869  1.00  0.00    -0.860 OA 
HETATM    2  S   UNL     1     -10.228  17.012  66.084  1.00  0.00    -0.304 S  
HETATM    3  O   UNL     1     -10.655  17.719  67.270  1.00  0.00    -0.362 OA 
HETATM    4  O   UNL     1      -8.864  17.100  65.607  1.00  0.00    -0.482 OA 
HETATM    5  C   UNL     1     -10.660  15.303  66.273  1.00  0.00    -0.309 A  
HETATM    6  C   UNL     1      -9.667  14.322  66.130  1.00  0.00    -0.325 A  
HETATM    7  C   UNL     1     -10.091  12.999  66.274  1.00  0.00    -0.282 A  
HETATM    8  C   UNL     1     -11.402  12.636  66.548  1.00  0.00    -0.326 A  
HETATM    9  C   UNL     1     -12.376  13.636  66.696  1.00  0.00    -0.381 A  
HETATM   10  N   UNL     1     -11.521  11.272  66.633  1.00  0.00    -0.354 NA 
HETATM   11  C   UNL     1     -11.993  14.977  66.553  1.00  0.00     0.029 A  
HETATM   12  C   UNL     1     -10.312  10.777  66.424  1.00  0.00    -0.248 A  
HETATM   13  H   UNL     1     -12.373  10.744  66.820  1.00  0.00     0.000 HD 
HETATM   14  N   UNL     1      -9.423  11.805  66.200  1.00  0.00    -0.223 NA 
ENDROOT
BRANCH  12  15
HETATM   15  C   UNL     1      -9.944   9.354  66.445  1.00  0.00    -0.346 A  
HETATM   16  C   UNL     1      -8.851   8.917  65.682  1.00  0.00    -0.230 A  
HETATM   17  C   UNL     1      -8.487   7.568  65.648  1.00  0.00    -0.141 A  
HETATM   18  C   UNL     1      -9.212   6.634  66.382  1.00  0.00    -0.180 A  
HETATM   19  C   UNL     1     -10.292   7.049  67.155  1.00  0.00    -0.351 A  
HETATM   20  C   UNL     1     -10.656   8.399  67.188  1.00  0.00    -0.326 A  
ENDBRANCH  12  15
TORSDOF 1
ENDMDL
MODEL       40
REMARK 921   NORMALIZED FREE ENERGY PREDICTED BY IDOCK:   -5.68 KCAL/MOL
REMARK 922        TOTAL FREE ENERGY PREDICTED BY IDOCK:   -6.15 KCAL/MOL
REMARK 923 INTER-LIGAND FREE ENERGY PREDICTED BY IDOCK:   -6.00 KCAL/MOL
REMARK 924 INTRA-LIGAND FREE ENERGY PREDICTED BY IDOCK:   -0.15 KCAL/MOL
REMARK 927      BINDING AFFINITY PREDICTED BY RF-SCORE:    0.00 PKD
ROOT
HETATM    1  O   UNL     1     -12.085  15.820  72.208  1.00  0.00    -0.384 OA 
HETATM    2  S   UNL     1     -13.277  14.806  71.813  1.00  0.00    -0.381 S  
HETATM    3  O   UNL     1     -14.273  15.581  71.107  1.00  0.00    -0.528 OA 
HETATM    4  O   UNL     1     -13.606  14.088  73.026  1.00  0.00    -0.644 OA 
HETATM    5  C   UNL     1     -12.534  13.679  70.663  1.00  0.00    -0.347 A  
HETATM    6  C   UNL     1     -12.518  12.308  70.957  1.00  0.00    -0.361 A  
HETATM    7  C   UNL     1     -11.897  11.488  70.011  1.00  0.00    -0.355 A  
HETATM    8  C   UNL     1     -11.327  11.962  68.838  1.00  0.00    -0.278 A  
HETATM    9  C   UNL     1     -11.365  13.338  68.561  1.00  0.00    -0.319 A  
HETATM   10  N   UNL     1     -10.794  10.931  68.107  1.00  0.00    -0.214 NA 
HETATM   11  C   UNL     1     -11.973  14.195  69.488  1.00  0.00    -0.389 A  
HETATM   12  C   UNL     1     -11.024   9.825  68.795  1.00  0.00    -0.148 A  
HETATM   13  H   UNL     1     -10.314  11.004  67.209  1.00  0.00     0.000 HD 
HETATM   14  N   UNL     1     -11.691  10.134  69.960  1.00  0.00    -0.246 NA 
ENDROOT
BRANCH  12  15
HETATM   15  C   UNL     1     -10.653   8.461  68.390  1.00  0.00    -0.155 A  
HETATM   16  C   UNL     1     -10.168   8.240  67.091  1.00  0.00    -0.365 A  
HETATM   17  C   UNL     1      -9.834   6.955  66.655  1.00  0.00    -0.217 A  
HETATM   18  C   UNL     1      -9.978   5.870  67.515  1.00  0.00    -0.163 A  
HETATM   19  C   UNL     1     -10.446   6.070  68.810  1.00  0.00    -0.307 A  
HETATM   20  C   UNL     1     -10.780   7.356  69.246  1.00  0.00    -0.197 A  
ENDBRANCH  12  15
TORSDOF 1
ENDMDL
MODEL       41
REMARK 921   NORMALIZED FREE ENERGY PREDICTED BY IDOCK:   -5.67 KCAL/MOL
REMARK 922        TOTAL FREE ENERGY PREDICTED BY IDOCK:   -6.14 KCAL/MOL
REMARK 923 INTER-LIGAND FREE ENERGY PREDICTED BY IDOCK:   -6.01 KCAL/MOL
REMARK 924 INTRA-LIGAND FREE ENERGY PREDICTED BY IDOCK:   -0.14 KCAL/MOL
REMARK 927      BINDING AFFINITY PREDICTED BY RF-SCORE:    0.00 PKD
ROOT
HETATM    1  O   UNL     1     -11.697  11.545  70.441  1.00  0.00    -0.320 OA 
HETATM    2  S   UNL     1     -11.162  11.846  68.949  1.00  0.00    -0.275 S  
HETATM    3  O   UNL     1     -12.246  11.538  68.043  1.00  0.00    -0.582 OA 
HETATM    4  O   UNL     1      -9.882  11.179  68.843  1.00  0.00    -0.200 OA 
HETATM    5  C   UNL     1     -10.898  13.600  68.921  1.00  0.00    -0.235 A  
HETATM    6  C   UNL     1      -9.618  14.098  68.640  1.00  0.00    -0.179 A  
HETATM    7  C   UNL     1      -9.487  15.489  68.656  1.00  0.00    -0.204 A  
HETATM    8  C   UNL     1     -10.536  16.358  68.922  1.00  0.00    -0.307 A  
HETATM    9  C   UNL     1     -11.811  15.835  69.191  1.00  0.00    -0.367 A  
HETATM   10  N   UNL     1     -10.112  17.661  68.870  1.00  0.00    -0.362 NA 
HETATM   11  C   UNL     1     -11.983  14.444  69.190  1.00  0.00    -0.357 A  
HETATM   12  C   UNL     1      -8.824  17.625  68.571  1.00  0.00    -0.285 A  
HETATM   13  H   UNL     1     -10.679  18.494  69.030  1.00  0.00     0.000 HD 
HETATM   14  N   UNL     1      -8.416  16.316  68.438  1.00  0.00    -0.187 NA 
ENDROOT
BRANCH  12  15
HETATM   15  C   UNL     1      -7.947  18.789  68.383  1.00  0.00    -0.365 A  
HETATM   16  C   UNL     1      -8.136  19.617  67.265  1.00  0.00    -0.317 A  
HETATM   17  C   UNL     1      -7.305  20.716  67.031  1.00  0.00    -0.370 A  
HETATM   18  C   UNL     1      -6.270  21.005  67.916  1.00  0.00    -0.406 A  
HETATM   19  C   UNL     1      -6.073  20.203  69.037  1.00  0.00    -0.352 A  
HETATM   20  C   UNL     1      -6.906  19.104  69.270  1.00  0.00    -0.336 A  
ENDBRANCH  12  15
TORSDOF 1
ENDMDL
MODEL       42
REMARK 921   NORMALIZED FREE ENERGY PREDICTED BY IDOCK:   -5.54 KCAL/MOL
REMARK 922        TOTAL FREE ENERGY PREDICTED BY IDOCK:   -6.00 KCAL/MOL
REMARK 923 INTER-LIGAND FREE ENERGY PREDICTED BY IDOCK:   -5.86 KCAL/MOL
REMARK 924 INTRA-LIGAND FREE ENERGY PREDICTED BY IDOCK:   -0.14 KCAL/MOL
REMARK 927      BINDING AFFINITY PREDICTED BY RF-SCORE:    0.00 PKD
ROOT
HETATM    1  O   UNL     1     -10.975  15.671  66.388  1.00  0.00    -0.291 OA 
HETATM    2  S   UNL     1     -11.340  14.241  65.735  1.00  0.00    -0.332 S  
HETATM    3  O   UNL     1     -10.576  14.129  64.513  1.00  0.00    -0.406 OA 
HETATM    4  O   UNL     1     -12.786  14.165  65.726  1.00  0.00    -0.508 OA 
HETATM    5  C   UNL     1     -10.711  13.054  66.892  1.00  0.00    -0.262 A  
HETATM    6  C   UNL     1     -11.590  12.132  67.479  1.00  0.00    -0.413 A  
HETATM    7  C   UNL     1     -11.022  11.244  68.396  1.00  0.00    -0.219 A  
HETATM    8  C   UNL     1      -9.674  11.236  68.725  1.00  0.00    -0.174 A  
HETATM    9  C   UNL     1      -8.811  12.162  68.117  1.00  0.00    -0.187 A  
HETATM   10  N   UNL     1      -9.405  10.258  69.648  1.00  0.00    -0.368 NA 
HETATM   11  C   UNL     1      -9.344  13.075  67.196  1.00  0.00    -0.230 A  
HETATM   12  C   UNL     1     -10.554   9.651  69.897  1.00  0.00    -0.249 A  
HETATM   13  H   UNL     1      -8.498  10.041  70.061  1.00  0.00     0.000 HD 
HETATM   14  N   UNL     1     -11.556  10.233  69.151  1.00  0.00    -0.154 NA 
ENDROOT
BRANCH  12  15
HETATM   15  C   UNL     1     -10.754   8.515  70.808  1.00  0.00    -0.254 A  
HETATM   16  C   UNL     1     -11.286   7.318  70.305  1.00  0.00    -0.287 A  
HETATM   17  C   UNL     1     -11.521   6.224  71.143  1.00  0.00    -0.362 A  
HETATM   18  C   UNL     1     -11.223   6.312  72.500  1.00  0.00    -0.316 A  
HETATM   19  C   UNL     1     -10.683   7.487  73.016  1.00  0.00    -0.438 A  
HETATM   20  C   UNL     1     -10.449   8.581  72.177  1.00  0.00    -0.412 A  
ENDBRANCH  12  15
TORSDOF 1
ENDMDL
MODEL       43
REMARK 921   NORMALIZED FREE ENERGY PREDICTED BY IDOCK:   -5.53 KCAL/MOL
REMARK 922        TOTAL FREE ENERGY PREDICTED BY IDOCK:   -5.99 KCAL/MOL
REMARK 923 INTER-LIGAND FREE ENERGY PREDICTED BY IDOCK:   -5.85 KCAL/MOL
REMARK 924 INTRA-LIGAND FREE ENERGY PREDICTED BY IDOCK:   -0.15 KCAL/MOL
REMARK 927      BINDING AFFINITY PREDICTED BY RF-SCORE:    0.00 PKD
ROOT
HETATM    1  O   UNL     1     -11.138  19.199  67.158  1.00  0.00    -0.396 OA 
HETATM    2  S   UNL     1     -10.183  18.375  66.153  1.00  0.00    -0.347 S  
HETATM    3  O   UNL     1      -8.908  19.056  66.129  1.00  0.00    -0.417 OA 
HETATM    4  O   UNL     1     -10.953  18.180  64.943  1.00  0.00    -0.718 OA 
HETATM    5  C   UNL     1      -9.956  16.805  66.948  1.00  0.00    -0.273 A  
HETATM    6  C   UNL     1     -10.352  15.635  66.284  1.00  0.00    -0.316 A  
HETATM    7  C   UNL     1     -10.159  14.441  66.984  1.00  0.00    -0.256 A  
HETATM    8  C   UNL     1      -9.607  14.376  68.256  1.00  0.00    -0.211 A  
HETATM    9  C   UNL     1      -9.210  15.560  68.895  1.00  0.00    -0.218 A  
HETATM   10  N   UNL     1      -9.541  13.076  68.689  1.00  0.00    -0.407 NA 
HETATM   11  C   UNL     1      -9.392  16.780  68.229  1.00  0.00    -0.230 A  
HETATM   12  C   UNL     1     -10.035  12.330  67.715  1.00  0.00    -0.200 A  
HETATM   13  H   UNL     1      -9.183  12.750  69.587  1.00  0.00     0.000 HD 
HETATM   14  N   UNL     1     -10.421  13.135  66.666  1.00  0.00    -0.274 NA 
ENDROOT
BRANCH  12  15
HETATM   15  C   UNL     1     -10.144  10.864  67.718  1.00  0.00    -0.203 A  
HETATM   16  C   UNL     1     -10.294  10.190  68.940  1.00  0.00    -0.223 A  
HETATM   17  C   UNL     1     -10.370   8.796  68.991  1.00  0.00    -0.227 A  
HETATM   18  C   UNL     1     -10.300   8.053  67.817  1.00  0.00    -0.294 A  
HETATM   19  C   UNL     1     -10.163   8.703  66.593  1.00  0.00    -0.343 A  
HETATM   20  C   UNL     1     -10.087  10.098  66.543  1.00  0.00    -0.296 A  
ENDBRANCH  12  15
TORSDOF 1
ENDMDL
MODEL       44
REMARK 921   NORMALIZED FREE ENERGY PREDICTED BY IDOCK:   -5.53 KCAL/MOL
REMARK 922        TOTAL FREE ENERGY PREDICTED BY IDOCK:   -5.99 KCAL/MOL
REMARK 923 INTER-LIGAND FREE ENERGY PREDICTED BY IDOCK:   -5.85 KCAL/MOL
REMARK 924 INTRA-LIGAND FREE ENERGY PREDICTED BY IDOCK:   -0.14 KCAL/MOL
REMARK 927      BINDING AFFINITY PREDICTED BY RF-SCORE:    0.00 PKD
ROOT
HETATM    1  O   UNL     1      -9.392   9.586  64.665  1.00  0.00    -0.240 OA 
HETATM    2  S   UNL     1      -9.264   9.135  66.210  1.00  0.00    -0.212 S  
HETATM    3  O   UNL     1      -7.890   8.738  66.421  1.00  0.00    -0.097 OA 
HETATM    4  O   UNL     1     -10.357   8.215  66.446  1.00  0.00    -0.210 OA 
HETATM    5  C   UNL     1      -9.558  10.623  67.129  1.00  0.00    -0.164 A  
HETATM    6  C   UNL     1     -10.622  10.669  68.042  1.00  0.00    -0.248 A  
HETATM    7  C   UNL     1     -10.800  11.882  68.712  1.00  0.00    -0.231 A  
HETATM    8  C   UNL     1      -9.992  12.993  68.518  1.00  0.00    -0.172 A  
HETATM    9  C   UNL     1      -8.928  12.920  67.606  1.00  0.00    -0.192 A  
HETATM   10  N   UNL     1     -10.404  14.036  69.308  1.00  0.00    -0.433 NA 
HETATM   11  C   UNL     1      -8.719  11.722  66.909  1.00  0.00    -0.189 A  
HETATM   12  C   UNL     1     -11.447  13.598  69.994  1.00  0.00    -0.090 A  
HETATM   13  H   UNL     1      -9.988  14.966  69.357  1.00  0.00     0.000 HD 
HETATM   14  N   UNL     1     -11.712  12.291  69.649  1.00  0.00    -0.317 NA 
ENDROOT
BRANCH  12  15
HETATM   15  C   UNL     1     -12.209  14.361  70.993  1.00  0.00    -0.422 A  
HETATM   16  C   UNL     1     -13.605  14.231  71.037  1.00  0.00    -0.216 A  
HETATM   17  C   UNL     1     -14.371  14.962  71.949  1.00  0.00    -0.667 A  
HETATM   18  C   UNL     1     -13.748  15.835  72.836  1.00  0.00    -0.631 A  
HETATM   19  C   UNL     1     -12.362  15.970  72.816  1.00  0.00    -0.603 A  
HETATM   20  C   UNL     1     -11.597  15.238  71.903  1.00  0.00    -0.515 A  
ENDBRANCH  12  15
TORSDOF 1
ENDMDL
MODEL       45
REMARK 921   NORMALIZED FREE ENERGY PREDICTED BY IDOCK:   -5.53 KCAL/MOL
REMARK 922        TOTAL FREE ENERGY PREDICTED BY IDOCK:   -5.99 KCAL/MOL
REMARK 923 INTER-LIGAND FREE ENERGY PREDICTED BY IDOCK:   -5.85 KCAL/MOL
REMARK 924 INTRA-LIGAND FREE ENERGY PREDICTED BY IDOCK:   -0.14 KCAL/MOL
REMARK 927      BINDING AFFINITY PREDICTED BY RF-SCORE:    0.00 PKD
ROOT
HETATM    1  O   UNL     1     -14.245  15.379  70.912  1.00  0.00    -0.399 OA 
HETATM    2  S   UNL     1     -12.713  15.154  71.368  1.00  0.00    -0.413 S  
HETATM    3  O   UNL     1     -12.569  13.750  71.683  1.00  0.00    -0.332 OA 
HETATM    4  O   UNL     1     -12.439  16.176  72.355  1.00  0.00    -0.454 OA 
HETATM    5  C   UNL     1     -11.764  15.495  69.910  1.00  0.00    -0.352 A  
HETATM    6  C   UNL     1     -10.803  16.516  69.937  1.00  0.00    -0.285 A  
HETATM    7  C   UNL     1     -10.112  16.737  68.743  1.00  0.00    -0.286 A  
HETATM    8  C   UNL     1     -10.329  16.007  67.583  1.00  0.00    -0.284 A  
HETATM    9  C   UNL     1     -11.289  14.983  67.583  1.00  0.00    -0.342 A  
HETATM   10  N   UNL     1      -9.508  16.444  66.575  1.00  0.00    -0.255 NA 
HETATM   11  C   UNL     1     -12.008  14.734  68.760  1.00  0.00    -0.292 A  
HETATM   12  C   UNL     1      -8.781  17.427  67.082  1.00  0.00    -0.227 A  
HETATM   13  H   UNL     1      -9.467  16.084  65.621  1.00  0.00     0.000 HD 
HETATM   14  N   UNL     1      -9.130  17.628  68.399  1.00  0.00    -0.272 NA 
ENDROOT
BRANCH  12  15
HETATM   15  C   UNL     1      -7.740  18.186  66.375  1.00  0.00    -0.295 A  
HETATM   16  C   UNL     1      -6.504  17.575  66.113  1.00  0.00    -0.266 A  
HETATM   17  C   UNL     1      -5.476  18.272  65.471  1.00  0.00    -0.221 A  
HETATM   18  C   UNL     1      -5.671  19.593  65.079  1.00  0.00    -0.233 A  
HETATM   19  C   UNL     1      -6.894  20.213  65.320  1.00  0.00    -0.334 A  
HETATM   20  C   UNL     1      -7.922  19.515  65.962  1.00  0.00    -0.312 A  
ENDBRANCH  12  15
TORSDOF 1
ENDMDL
MODEL       46
REMARK 921   NORMALIZED FREE ENERGY PREDICTED BY IDOCK:   -5.52 KCAL/MOL
REMARK 922        TOTAL FREE ENERGY PREDICTED BY IDOCK:   -5.99 KCAL/MOL
REMARK 923 INTER-LIGAND FREE ENERGY PREDICTED BY IDOCK:   -5.85 KCAL/MOL
REMARK 924 INTRA-LIGAND FREE ENERGY PREDICTED BY IDOCK:   -0.14 KCAL/MOL
REMARK 927      BINDING AFFINITY PREDICTED BY RF-SCORE:    0.00 PKD
ROOT
HETATM    1  O   UNL     1      -7.267  19.816  65.088  1.00  0.00    -0.372 OA 
HETATM    2  S   UNL     1      -6.931  19.513  66.637  1.00  0.00    -0.213 S  
HETATM    3  O   UNL     1      -6.897  20.787  67.319  1.00  0.00    -0.296 OA 
HETATM    4  O   UNL     1      -5.779  18.635  66.629  1.00  0.00    -0.149 OA 
HETATM    5  C   UNL     1      -8.338  18.607  67.224  1.00  0.00    -0.261 A  
HETATM    6  C   UNL     1      -8.158  17.317  67.742  1.00  0.00    -0.201 A  
HETATM    7  C   UNL     1      -9.317  16.661  68.165  1.00  0.00    -0.224 A  
HETATM    8  C   UNL     1     -10.585  17.222  68.100  1.00  0.00    -0.386 A  
HETATM    9  C   UNL     1     -10.738  18.519  67.587  1.00  0.00    -0.405 A  
HETATM   10  N   UNL     1     -11.527  16.350  68.584  1.00  0.00    -0.305 NA 
HETATM   11  C   UNL     1      -9.600  19.208  67.146  1.00  0.00    -0.378 A  
HETATM   12  C   UNL     1     -10.874  15.260  68.955  1.00  0.00    -0.244 A  
HETATM   13  H   UNL     1     -12.532  16.510  68.646  1.00  0.00     0.000 HD 
HETATM   14  N   UNL     1      -9.528  15.421  68.708  1.00  0.00    -0.200 NA 
ENDROOT
BRANCH  12  15
HETATM   15  C   UNL     1     -11.468  14.060  69.559  1.00  0.00    -0.331 A  
HETATM   16  C   UNL     1     -12.272  14.193  70.702  1.00  0.00    -0.432 A  
HETATM   17  C   UNL     1     -12.830  13.074  71.326  1.00  0.00    -0.370 A  
HETATM   18  C   UNL     1     -12.594  11.802  70.813  1.00  0.00    -0.344 A  
HETATM   19  C   UNL     1     -11.809  11.650  69.674  1.00  0.00    -0.419 A  
HETATM   20  C   UNL     1     -11.251  12.770  69.050  1.00  0.00    -0.317 A  
ENDBRANCH  12  15
TORSDOF 1
ENDMDL
MODEL       47
REMARK 921   NORMALIZED FREE ENERGY PREDICTED BY IDOCK:   -5.52 KCAL/MOL
REMARK 922        TOTAL FREE ENERGY PREDICTED BY IDOCK:   -5.98 KCAL/MOL
REMARK 923 INTER-LIGAND FREE ENERGY PREDICTED BY IDOCK:   -5.84 KCAL/MOL
REMARK 924 INTRA-LIGAND FREE ENERGY PREDICTED BY IDOCK:   -0.14 KCAL/MOL
REMARK 927      BINDING AFFINITY PREDICTED BY RF-SCORE:    0.00 PKD
ROOT
HETATM    1  O   UNL     1      -9.972   6.572  73.946  1.00  0.00    -0.214 OA 
HETATM    2  S   UNL     1     -10.310   6.237  72.404  1.00  0.00    -0.196 S  
HETATM    3  O   UNL     1     -11.334   5.217  72.408  1.00  0.00    -0.213 OA 
HETATM    4  O   UNL     1      -9.034   6.018  71.756  1.00  0.00    -0.139 OA 
HETATM    5  C   UNL     1     -11.023   7.734  71.773  1.00  0.00    -0.239 A  
HETATM    6  C   UNL     1     -10.416   8.380  70.686  1.00  0.00    -0.227 A  
HETATM    7  C   UNL     1     -11.025   9.564  70.261  1.00  0.00    -0.269 A  
HETATM    8  C   UNL     1     -12.166  10.095  70.848  1.00  0.00    -0.356 A  
HETATM    9  C   UNL     1     -12.760   9.425  71.928  1.00  0.00    -0.484 A  
HETATM   10  N   UNL     1     -12.535  11.259  70.223  1.00  0.00    -0.275 NA 
HETATM   11  C   UNL     1     -12.176   8.237  72.388  1.00  0.00    -0.412 A  
HETATM   12  C   UNL     1     -11.654  11.462  69.257  1.00  0.00    -0.317 A  
HETATM   13  H   UNL     1     -13.331  11.851  70.458  1.00  0.00     0.000 HD 
HETATM   14  N   UNL     1     -10.722  10.447  69.259  1.00  0.00    -0.220 NA 
ENDROOT
BRANCH  12  15
HETATM   15  C   UNL     1     -11.659  12.579  68.302  1.00  0.00    -0.376 A  
HETATM   16  C   UNL     1     -11.645  12.304  66.925  1.00  0.00    -0.427 A  
HETATM   17  C   UNL     1     -11.618  13.336  65.983  1.00  0.00    -0.384 A  
HETATM   18  C   UNL     1     -11.609  14.662  66.405  1.00  0.00    -0.343 A  
HETATM   19  C   UNL     1     -11.635  14.956  67.766  1.00  0.00    -0.358 A  
HETATM   20  C   UNL     1     -11.661  13.922  68.708  1.00  0.00    -0.392 A  
ENDBRANCH  12  15
TORSDOF 1
ENDMDL
MODEL       48
REMARK 921   NORMALIZED FREE ENERGY PREDICTED BY IDOCK:   -5.48 KCAL/MOL
REMARK 922        TOTAL FREE ENERGY PREDICTED BY IDOCK:   -5.94 KCAL/MOL
REMARK 923 INTER-LIGAND FREE ENERGY PREDICTED BY IDOCK:   -5.80 KCAL/MOL
REMARK 924 INTRA-LIGAND FREE ENERGY PREDICTED BY IDOCK:   -0.14 KCAL/MOL
REMARK 927      BINDING AFFINITY PREDICTED BY RF-SCORE:    0.00 PKD
ROOT
HETATM    1  O   UNL     1     -10.654  14.562  64.744  1.00  0.00    -0.425 OA 
HETATM    2  S   UNL     1     -11.944  13.714  65.214  1.00  0.00    -0.401 S  
HETATM    3  O   UNL     1     -12.753  13.489  64.037  1.00  0.00    -0.660 OA 
HETATM    4  O   UNL     1     -12.475  14.406  66.369  1.00  0.00    -0.389 OA 
HETATM    5  C   UNL     1     -11.280  12.154  65.736  1.00  0.00    -0.339 A  
HETATM    6  C   UNL     1     -11.489  11.724  67.054  1.00  0.00    -0.368 A  
HETATM    7  C   UNL     1     -10.917  10.495  67.393  1.00  0.00    -0.288 A  
HETATM    8  C   UNL     1     -10.187   9.716  66.507  1.00  0.00    -0.224 A  
HETATM    9  C   UNL     1     -10.000  10.163  65.190  1.00  0.00    -0.379 A  
HETATM   10  N   UNL     1      -9.750   8.567  67.117  1.00  0.00    -0.175 NA 
HETATM   11  C   UNL     1     -10.552  11.394  64.811  1.00  0.00    -0.377 A  
HETATM   12  C   UNL     1     -10.197   8.611  68.362  1.00  0.00    -0.200 A  
HETATM   13  H   UNL     1      -9.191   7.826  66.694  1.00  0.00     0.000 HD 
HETATM   14  N   UNL     1     -10.907   9.774  68.558  1.00  0.00    -0.212 NA 
ENDROOT
BRANCH  12  15
HETATM   15  C   UNL     1      -9.997   7.579  69.389  1.00  0.00    -0.178 A  
HETATM   16  C   UNL     1     -11.054   6.711  69.704  1.00  0.00    -0.390 A  
HETATM   17  C   UNL     1     -10.917   5.736  70.696  1.00  0.00    -0.319 A  
HETATM   18  C   UNL     1      -9.715   5.612  71.387  1.00  0.00    -0.204 A  
HETATM   19  C   UNL     1      -8.651   6.455  71.081  1.00  0.00    -0.128 A  
HETATM   20  C   UNL     1      -8.789   7.431  70.088  1.00  0.00    -0.147 A  
ENDBRANCH  12  15
TORSDOF 1
ENDMDL
MODEL       49
REMARK 921   NORMALIZED FREE ENERGY PREDICTED BY IDOCK:   -5.48 KCAL/MOL
REMARK 922        TOTAL FREE ENERGY PREDICTED BY IDOCK:   -5.94 KCAL/MOL
REMARK 923 INTER-LIGAND FREE ENERGY PREDICTED BY IDOCK:   -5.79 KCAL/MOL
REMARK 924 INTRA-LIGAND FREE ENERGY PREDICTED BY IDOCK:   -0.15 KCAL/MOL
REMARK 927      BINDING AFFINITY PREDICTED BY RF-SCORE:    0.00 PKD
ROOT
HETATM    1  O   UNL     1     -11.334   4.987  72.969  1.00  0.00    -0.299 OA 
HETATM    2  S   UNL     1     -10.174   6.107  73.034  1.00  0.00    -0.206 S  
HETATM    3  O   UNL     1      -8.911   5.412  72.929  1.00  0.00    -0.122 OA 
HETATM    4  O   UNL     1     -10.484   6.932  74.182  1.00  0.00    -0.357 OA 
HETATM    5  C   UNL     1     -10.403   7.066  71.560  1.00  0.00    -0.203 A  
HETATM    6  C   UNL     1     -10.655   8.441  71.666  1.00  0.00    -0.327 A  
HETATM    7  C   UNL     1     -10.844   9.122  70.462  1.00  0.00    -0.255 A  
HETATM    8  C   UNL     1     -10.786   8.513  69.216  1.00  0.00    -0.133 A  
HETATM    9  C   UNL     1     -10.522   7.137  69.135  1.00  0.00    -0.219 A  
HETATM   10  N   UNL     1     -11.009   9.427  68.218  1.00  0.00    -0.471 NA 
HETATM   11  C   UNL     1     -10.333   6.416  70.322  1.00  0.00    -0.252 A  
HETATM   12  C   UNL     1     -11.200  10.593  68.813  1.00  0.00    -0.279 A  
HETATM   13  H   UNL     1     -11.026   9.243  67.215  1.00  0.00     0.000 HD 
HETATM   14  N   UNL     1     -11.108  10.437  70.178  1.00  0.00    -0.300 NA 
ENDROOT
BRANCH  12  15
HETATM   15  C   UNL     1     -11.451  11.876  68.141  1.00  0.00    -0.384 A  
HETATM   16  C   UNL     1     -11.598  13.038  68.915  1.00  0.00    -0.355 A  
HETATM   17  C   UNL     1     -11.869  14.273  68.319  1.00  0.00    -0.370 A  
HETATM   18  C   UNL     1     -11.994  14.364  66.936  1.00  0.00    -0.425 A  
HETATM   19  C   UNL     1     -11.840  13.225  66.150  1.00  0.00    -0.437 A  
HETATM   20  C   UNL     1     -11.569  11.990  66.747  1.00  0.00    -0.391 A  
ENDBRANCH  12  15
TORSDOF 1
ENDMDL
MODEL       50
REMARK 921   NORMALIZED FREE ENERGY PREDICTED BY IDOCK:   -5.47 KCAL/MOL
REMARK 922        TOTAL FREE ENERGY PREDICTED BY IDOCK:   -5.93 KCAL/MOL
REMARK 923 INTER-LIGAND FREE ENERGY PREDICTED BY IDOCK:   -5.79 KCAL/MOL
REMARK 924 INTRA-LIGAND FREE ENERGY PREDICTED BY IDOCK:   -0.14 KCAL/MOL
REMARK 927      BINDING AFFINITY PREDICTED BY RF-SCORE:    0.00 PKD
ROOT
HETATM    1  O   UNL     1      -8.670   8.590  62.484  1.00  0.00    -0.158 OA 
HETATM    2  S   UNL     1      -7.827   9.492  63.523  1.00  0.00    -0.144 S  
HETATM    3  O   UNL     1      -7.174  10.525  62.751  1.00  0.00    -0.139 OA 
HETATM    4  O   UNL     1      -7.065   8.561  64.328  1.00  0.00    -0.080 OA 
HETATM    5  C   UNL     1      -9.059  10.258  64.543  1.00  0.00    -0.234 A  
HETATM    6  C   UNL     1      -9.040  10.036  65.928  1.00  0.00    -0.195 A  
HETATM    7  C   UNL     1     -10.055  10.657  66.660  1.00  0.00    -0.220 A  
HETATM    8  C   UNL     1     -11.035  11.458  66.090  1.00  0.00    -0.236 A  
HETATM    9  C   UNL     1     -11.027  11.673  64.703  1.00  0.00    -0.363 A  
HETATM   10  N   UNL     1     -11.894  11.931  67.049  1.00  0.00    -0.613 NA 
HETATM   11  C   UNL     1     -10.028  11.062  63.932  1.00  0.00    -0.396 A  
HETATM   12  C   UNL     1     -11.469  11.447  68.205  1.00  0.00    -0.305 A  
HETATM   13  H   UNL     1     -12.702  12.535  66.900  1.00  0.00     0.000 HD 
HETATM   14  N   UNL     1     -10.353  10.666  67.997  1.00  0.00    -0.170 NA 
ENDROOT
BRANCH  12  15
HETATM   15  C   UNL     1     -12.065  11.707  69.523  1.00  0.00    -0.336 A  
HETATM   16  C   UNL     1     -12.159  13.029  69.984  1.00  0.00    -0.367 A  
HETATM   17  C   UNL     1     -12.690  13.317  71.245  1.00  0.00    -0.411 A  
HETATM   18  C   UNL     1     -13.139  12.284  72.063  1.00  0.00    -0.461 A  
HETATM   19  C   UNL     1     -13.065  10.967  71.618  1.00  0.00    -0.543 A  
HETATM   20  C   UNL     1     -12.533  10.680  70.357  1.00  0.00    -0.421 A  
ENDBRANCH  12  15
TORSDOF 1
ENDMDL
MODEL       51
REMARK 921   NORMALIZED FREE ENERGY PREDICTED BY IDOCK:   -5.46 KCAL/MOL
REMARK 922        TOTAL FREE ENERGY PREDICTED BY IDOCK:   -5.92 KCAL/MOL
REMARK 923 INTER-LIGAND FREE ENERGY PREDICTED BY IDOCK:   -5.78 KCAL/MOL
REMARK 924 INTRA-LIGAND FREE ENERGY PREDICTED BY IDOCK:   -0.15 KCAL/MOL
REMARK 927      BINDING AFFINITY PREDICTED BY RF-SCORE:    0.00 PKD
ROOT
HETATM    1  O   UNL     1      -7.099  10.330  63.126  1.00  0.00    -0.137 OA 
HETATM    2  S   UNL     1      -8.711  10.313  63.053  1.00  0.00    -0.235 S  
HETATM    3  O   UNL     1      -9.090   9.093  62.377  1.00  0.00    -0.221 OA 
HETATM    4  O   UNL     1      -9.099  11.609  62.539  1.00  0.00    -0.311 OA 
HETATM    5  C   UNL     1      -9.227  10.190  64.746  1.00  0.00    -0.242 A  
HETATM    6  C   UNL     1     -10.040  11.194  65.292  1.00  0.00    -0.329 A  
HETATM    7  C   UNL     1     -10.387  11.035  66.636  1.00  0.00    -0.240 A  
HETATM    8  C   UNL     1      -9.978   9.961  67.414  1.00  0.00    -0.189 A  
HETATM    9  C   UNL     1      -9.172   8.964  66.843  1.00  0.00    -0.185 A  
HETATM   10  N   UNL     1     -10.469  10.072  68.690  1.00  0.00    -0.195 NA 
HETATM   11  C   UNL     1      -8.797   9.090  65.498  1.00  0.00    -0.233 A  
HETATM   12  C   UNL     1     -11.180  11.188  68.723  1.00  0.00    -0.253 A  
HETATM   13  H   UNL     1     -10.316   9.423  69.461  1.00  0.00     0.000 HD 
HETATM   14  N   UNL     1     -11.144  11.796  67.487  1.00  0.00    -0.254 NA 
ENDROOT
BRANCH  12  15
HETATM   15  C   UNL     1     -11.920  11.708  69.881  1.00  0.00    -0.414 A  
HETATM   16  C   UNL     1     -12.526  10.806  70.769  1.00  0.00    -0.481 A  
HETATM   17  C   UNL     1     -13.265  11.259  71.865  1.00  0.00    -0.491 A  
HETATM   18  C   UNL     1     -13.408  12.625  72.091  1.00  0.00    -0.570 A  
HETATM   19  C   UNL     1     -12.804  13.536  71.229  1.00  0.00    -0.420 A  
HETATM   20  C   UNL     1     -12.065  13.082  70.132  1.00  0.00    -0.377 A  
ENDBRANCH  12  15
TORSDOF 1
ENDMDL
MODEL       52
REMARK 921   NORMALIZED FREE ENERGY PREDICTED BY IDOCK:   -5.46 KCAL/MOL
REMARK 922        TOTAL FREE ENERGY PREDICTED BY IDOCK:   -5.92 KCAL/MOL
REMARK 923 INTER-LIGAND FREE ENERGY PREDICTED BY IDOCK:   -5.78 KCAL/MOL
REMARK 924 INTRA-LIGAND FREE ENERGY PREDICTED BY IDOCK:   -0.14 KCAL/MOL
REMARK 927      BINDING AFFINITY PREDICTED BY RF-SCORE:    0.00 PKD
ROOT
HETATM    1  O   UNL     1      -9.381   9.039  65.004  1.00  0.00    -0.141 OA 
HETATM    2  S   UNL     1      -8.505  10.297  65.510  1.00  0.00    -0.168 S  
HETATM    3  O   UNL     1      -7.989  10.953  64.330  1.00  0.00     0.114 OA 
HETATM    4  O   UNL     1      -7.617   9.778  66.530  1.00  0.00    -0.097 OA 
HETATM    5  C   UNL     1      -9.686  11.377  66.274  1.00  0.00    -0.212 A  
HETATM    6  C   UNL     1      -9.529  11.723  67.624  1.00  0.00    -0.180 A  
HETATM    7  C   UNL     1     -10.511  12.562  68.157  1.00  0.00    -0.229 A  
HETATM    8  C   UNL     1     -11.586  13.050  67.427  1.00  0.00    -0.356 A  
HETATM    9  C   UNL     1     -11.715  12.698  66.074  1.00  0.00    -0.470 A  
HETATM   10  N   UNL     1     -12.383  13.845  68.210  1.00  0.00    -0.455 NA 
HETATM   11  C   UNL     1     -10.753  11.853  65.503  1.00  0.00    -0.329 A  
HETATM   12  C   UNL     1     -11.827  13.869  69.410  1.00  0.00    -0.334 A  
HETATM   13  H   UNL     1     -13.237  14.324  67.922  1.00  0.00     0.000 HD 
HETATM   14  N   UNL     1     -10.688  13.094  69.407  1.00  0.00     0.071 NA 
ENDROOT
BRANCH  12  15
HETATM   15  C   UNL     1     -12.317  14.617  70.576  1.00  0.00    -0.400 A  
HETATM   16  C   UNL     1     -11.443  15.479  71.255  1.00  0.00    -0.462 A  
HETATM   17  C   UNL     1     -11.859  16.185  72.387  1.00  0.00    -0.637 A  
HETATM   18  C   UNL     1     -13.161  16.040  72.856  1.00  0.00    -0.549 A  
HETATM   19  C   UNL     1     -14.048  15.199  72.190  1.00  0.00    -0.654 A  
HETATM   20  C   UNL     1     -13.630  14.493  71.057  1.00  0.00    -0.294 A  
ENDBRANCH  12  15
TORSDOF 1
ENDMDL
MODEL       53
REMARK 921   NORMALIZED FREE ENERGY PREDICTED BY IDOCK:   -5.43 KCAL/MOL
REMARK 922        TOTAL FREE ENERGY PREDICTED BY IDOCK:   -5.88 KCAL/MOL
REMARK 923 INTER-LIGAND FREE ENERGY PREDICTED BY IDOCK:   -5.73 KCAL/MOL
REMARK 924 INTRA-LIGAND FREE ENERGY PREDICTED BY IDOCK:   -0.15 KCAL/MOL
REMARK 927      BINDING AFFINITY PREDICTED BY RF-SCORE:    0.00 PKD
ROOT
HETATM    1  O   UNL     1      -8.209   4.530  69.257  1.00  0.00    -0.068 OA 
HETATM    2  S   UNL     1      -9.021   5.337  68.120  1.00  0.00    -0.110 S  
HETATM    3  O   UNL     1      -9.859   4.376  67.438  1.00  0.00    -0.185 OA 
HETATM    4  O   UNL     1      -8.034   6.116  67.403  1.00  0.00    -0.104 OA 
HETATM    5  C   UNL     1     -10.072   6.440  69.028  1.00  0.00    -0.165 A  
HETATM    6  C   UNL     1      -9.957   7.823  68.824  1.00  0.00    -0.181 A  
HETATM    7  C   UNL     1     -10.805   8.626  69.592  1.00  0.00    -0.157 A  
HETATM    8  C   UNL     1     -11.723   8.124  70.504  1.00  0.00    -0.063 A  
HETATM    9  C   UNL     1     -11.826   6.736  70.683  1.00  0.00    -0.442 A  
HETATM   10  N   UNL     1     -12.414   9.143  71.107  1.00  0.00    -0.419 NA 
HETATM   11  C   UNL     1     -10.988   5.896  69.936  1.00  0.00    -0.444 A  
HETATM   12  C   UNL     1     -11.952  10.269  70.588  1.00  0.00    -0.342 A  
HETATM   13  H   UNL     1     -13.141   9.051  71.817  1.00  0.00     0.000 HD 
HETATM   14  N   UNL     1     -10.970   9.984  69.665  1.00  0.00    -0.250 NA 
ENDROOT
BRANCH  12  15
HETATM   15  C   UNL     1     -12.415  11.626  70.913  1.00  0.00    -0.440 A  
HETATM   16  C   UNL     1     -11.986  12.704  70.124  1.00  0.00    -0.375 A  
HETATM   17  C   UNL     1     -12.376  14.014  70.417  1.00  0.00    -0.429 A  
HETATM   18  C   UNL     1     -13.207  14.264  71.505  1.00  0.00    -0.420 A  
HETATM   19  C   UNL     1     -13.654  13.206  72.293  1.00  0.00    -0.677 A  
HETATM   20  C   UNL     1     -13.262  11.897  71.999  1.00  0.00    -0.461 A  
ENDBRANCH  12  15
TORSDOF 1
ENDMDL
MODEL       54
REMARK 921   NORMALIZED FREE ENERGY PREDICTED BY IDOCK:   -5.39 KCAL/MOL
REMARK 922        TOTAL FREE ENERGY PREDICTED BY IDOCK:   -5.84 KCAL/MOL
REMARK 923 INTER-LIGAND FREE ENERGY PREDICTED BY IDOCK:   -5.70 KCAL/MOL
REMARK 924 INTRA-LIGAND FREE ENERGY PREDICTED BY IDOCK:   -0.14 KCAL/MOL
REMARK 927      BINDING AFFINITY PREDICTED BY RF-SCORE:    0.00 PKD
ROOT
HETATM    1  O   UNL     1      -8.356   9.920  64.366  1.00  0.00    -0.146 OA 
HETATM    2  S   UNL     1      -9.798  10.405  64.904  1.00  0.00    -0.345 S  
HETATM    3  O   UNL     1     -10.247   9.414  65.856  1.00  0.00    -0.259 OA 
HETATM    4  O   UNL     1     -10.576  10.721  63.725  1.00  0.00    -0.287 OA 
HETATM    5  C   UNL     1      -9.458  11.905  65.786  1.00  0.00    -0.196 A  
HETATM    6  C   UNL     1     -10.078  13.096  65.382  1.00  0.00    -0.260 A  
HETATM    7  C   UNL     1      -9.744  14.238  66.114  1.00  0.00    -0.303 A  
HETATM    8  C   UNL     1      -8.862  14.234  67.186  1.00  0.00    -0.229 A  
HETATM    9  C   UNL     1      -8.261  13.027  67.578  1.00  0.00    -0.181 A  
HETATM   10  N   UNL     1      -8.727  15.495  67.708  1.00  0.00    -0.165 NA 
HETATM   11  C   UNL     1      -8.566  11.860  66.865  1.00  0.00    -0.185 A  
HETATM   12  C   UNL     1      -9.510  16.284  66.990  1.00  0.00    -0.226 A  
HETATM   13  H   UNL     1      -8.139  15.770  68.496  1.00  0.00     0.000 HD 
HETATM   14  N   UNL     1     -10.138  15.546  66.011  1.00  0.00    -0.307 NA 
ENDROOT
BRANCH  12  15
HETATM   15  C   UNL     1      -9.711  17.725  67.199  1.00  0.00    -0.288 A  
HETATM   16  C   UNL     1      -9.739  18.231  68.508  1.00  0.00    -0.379 A  
HETATM   17  C   UNL     1      -9.960  19.589  68.753  1.00  0.00    -0.547 A  
HETATM   18  C   UNL     1     -10.152  20.464  67.688  1.00  0.00    -0.476 A  
HETATM   19  C   UNL     1     -10.115  19.984  66.382  1.00  0.00    -0.609 A  
HETATM   20  C   UNL     1      -9.895  18.625  66.138  1.00  0.00    -0.308 A  
ENDBRANCH  12  15
TORSDOF 1
ENDMDL
MODEL       55
REMARK 921   NORMALIZED FREE ENERGY PREDICTED BY IDOCK:   -5.39 KCAL/MOL
REMARK 922        TOTAL FREE ENERGY PREDICTED BY IDOCK:   -5.84 KCAL/MOL
REMARK 923 INTER-LIGAND FREE ENERGY PREDICTED BY IDOCK:   -5.70 KCAL/MOL
REMARK 924 INTRA-LIGAND FREE ENERGY PREDICTED BY IDOCK:   -0.14 KCAL/MOL
REMARK 927      BINDING AFFINITY PREDICTED BY RF-SCORE:    0.00 PKD
ROOT
HETATM    1  O   UNL     1     -10.475  10.342  64.651  1.00  0.00    -0.259 OA 
HETATM    2  S   UNL     1     -10.961  11.559  63.709  1.00  0.00    -0.385 S  
HETATM    3  O   UNL     1     -12.314  11.260  63.298  1.00  0.00     0.004 OA 
HETATM    4  O   UNL     1      -9.906  11.754  62.736  1.00  0.00    -0.252 OA 
HETATM    5  C   UNL     1     -11.008  12.963  64.792  1.00  0.00    -0.318 A  
HETATM    6  C   UNL     1     -10.217  14.084  64.500  1.00  0.00    -0.071 A  
HETATM    7  C   UNL     1     -10.294  15.140  65.411  1.00  0.00    -0.388 A  
HETATM    8  C   UNL     1     -11.098  15.122  66.543  1.00  0.00    -0.305 A  
HETATM    9  C   UNL     1     -11.888  13.993  66.808  1.00  0.00    -0.450 A  
HETATM   10  N   UNL     1     -10.970  16.292  67.247  1.00  0.00    -0.211 NA 
HETATM   11  C   UNL     1     -11.834  12.909  65.921  1.00  0.00    -0.476 A  
HETATM   12  C   UNL     1     -10.109  17.041  66.577  1.00  0.00    -0.314 A  
HETATM   13  H   UNL     1     -11.445  16.536  68.116  1.00  0.00     0.000 HD 
HETATM   14  N   UNL     1      -9.680  16.363  65.457  1.00  0.00    -0.499 NA 
ENDROOT
BRANCH  12  15
HETATM   15  C   UNL     1      -9.678  18.398  66.940  1.00  0.00    -0.324 A  
HETATM   16  C   UNL     1     -10.645  19.356  67.284  1.00  0.00    -0.599 A  
HETATM   17  C   UNL     1     -10.281  20.666  67.605  1.00  0.00    -0.224 A  
HETATM   18  C   UNL     1      -8.939  21.039  67.589  1.00  0.00     0.011 A  
HETATM   19  C   UNL     1      -7.964  20.101  67.262  1.00  0.00    -0.363 A  
HETATM   20  C   UNL     1      -8.330  18.790  66.941  1.00  0.00    -0.277 A  
ENDBRANCH  12  15
TORSDOF 1
ENDMDL
MODEL       56
REMARK 921   NORMALIZED FREE ENERGY PREDICTED BY IDOCK:   -5.38 KCAL/MOL
REMARK 922        TOTAL FREE ENERGY PREDICTED BY IDOCK:   -5.83 KCAL/MOL
REMARK 923 INTER-LIGAND FREE ENERGY PREDICTED BY IDOCK:   -5.69 KCAL/MOL
REMARK 924 INTRA-LIGAND FREE ENERGY PREDICTED BY IDOCK:   -0.14 KCAL/MOL
REMARK 927      BINDING AFFINITY PREDICTED BY RF-SCORE:    0.00 PKD
ROOT
HETATM    1  O   UNL     1     -14.075  14.729  70.842  1.00  0.00    -0.217 OA 
HETATM    2  S   UNL     1     -12.504  14.398  71.002  1.00  0.00    -0.379 S  
HETATM    3  O   UNL     1     -12.101  14.883  72.303  1.00  0.00    -0.346 OA 
HETATM    4  O   UNL     1     -11.871  14.879  69.793  1.00  0.00    -0.280 OA 
HETATM    5  C   UNL     1     -12.427  12.626  71.024  1.00  0.00    -0.260 A  
HETATM    6  C   UNL     1     -11.670  11.959  70.051  1.00  0.00    -0.366 A  
HETATM    7  C   UNL     1     -11.675  10.563  70.123  1.00  0.00    -0.326 A  
HETATM    8  C   UNL     1     -12.369   9.846  71.088  1.00  0.00    -0.370 A  
HETATM    9  C   UNL     1     -13.111  10.537  72.058  1.00  0.00    -0.511 A  
HETATM   10  N   UNL     1     -12.190   8.498  70.911  1.00  0.00    -0.478 NA 
HETATM   11  C   UNL     1     -13.136  11.938  72.016  1.00  0.00    -0.441 A  
HETATM   12  C   UNL     1     -11.397   8.358  69.861  1.00  0.00     0.067 A  
HETATM   13  H   UNL     1     -12.591   7.750  71.478  1.00  0.00     0.000 HD 
HETATM   14  N   UNL     1     -11.071   9.599  69.360  1.00  0.00    -0.186 NA 
ENDROOT
BRANCH  12  15
HETATM   15  C   UNL     1     -10.908   7.087  69.309  1.00  0.00    -0.241 A  
HETATM   16  C   UNL     1     -10.539   6.055  70.186  1.00  0.00    -0.341 A  
HETATM   17  C   UNL     1     -10.039   4.842  69.705  1.00  0.00    -0.300 A  
HETATM   18  C   UNL     1      -9.905   4.642  68.334  1.00  0.00    -0.169 A  
HETATM   19  C   UNL     1     -10.277   5.648  67.447  1.00  0.00    -0.249 A  
HETATM   20  C   UNL     1     -10.776   6.862  67.930  1.00  0.00    -0.294 A  
ENDBRANCH  12  15
TORSDOF 1
ENDMDL
MODEL       57
REMARK 921   NORMALIZED FREE ENERGY PREDICTED BY IDOCK:   -5.35 KCAL/MOL
REMARK 922        TOTAL FREE ENERGY PREDICTED BY IDOCK:   -5.80 KCAL/MOL
REMARK 923 INTER-LIGAND FREE ENERGY PREDICTED BY IDOCK:   -5.66 KCAL/MOL
REMARK 924 INTRA-LIGAND FREE ENERGY PREDICTED BY IDOCK:   -0.14 KCAL/MOL
REMARK 927      BINDING AFFINITY PREDICTED BY RF-SCORE:    0.00 PKD
ROOT
HETATM    1  O   UNL     1      -8.726  19.259  65.945  1.00  0.00    -0.443 OA 
HETATM    2  S   UNL     1      -9.719  18.665  67.070  1.00  0.00    -0.323 S  
HETATM    3  O   UNL     1     -10.948  19.421  66.989  1.00  0.00    -0.467 OA 
HETATM    4  O   UNL     1      -8.947  18.614  68.294  1.00  0.00    -0.300 OA 
HETATM    5  C   UNL     1     -10.052  17.008  66.533  1.00  0.00    -0.314 A  
HETATM    6  C   UNL     1      -9.722  15.933  67.372  1.00  0.00    -0.227 A  
HETATM    7  C   UNL     1      -9.997  14.659  66.869  1.00  0.00    -0.253 A  
HETATM    8  C   UNL     1     -10.568  14.430  65.625  1.00  0.00    -0.329 A  
HETATM    9  C   UNL     1     -10.898  15.522  64.808  1.00  0.00    -0.385 A  
HETATM   10  N   UNL     1     -10.720  13.085  65.402  1.00  0.00    -0.286 NA 
HETATM   11  C   UNL     1     -10.633  16.817  65.273  1.00  0.00    -0.185 A  
HETATM   12  C   UNL     1     -10.262  12.471  66.481  1.00  0.00    -0.240 A  
HETATM   13  H   UNL     1     -11.109  12.645  64.567  1.00  0.00     0.000 HD 
HETATM   14  N   UNL     1      -9.813  13.405  67.389  1.00  0.00    -0.223 NA 
ENDROOT
BRANCH  12  15
HETATM   15  C   UNL     1     -10.244  11.019  66.708  1.00  0.00    -0.272 A  
HETATM   16  C   UNL     1      -9.571  10.191  65.797  1.00  0.00    -0.288 A  
HETATM   17  C   UNL     1      -9.557   8.803  65.958  1.00  0.00    -0.297 A  
HETATM   18  C   UNL     1     -10.214   8.221  67.039  1.00  0.00    -0.380 A  
HETATM   19  C   UNL     1     -10.877   9.027  67.960  1.00  0.00    -0.102 A  
HETATM   20  C   UNL     1     -10.892  10.416  67.798  1.00  0.00    -0.351 A  
ENDBRANCH  12  15
TORSDOF 1
ENDMDL
MODEL       58
REMARK 921   NORMALIZED FREE ENERGY PREDICTED BY IDOCK:   -5.27 KCAL/MOL
REMARK 922        TOTAL FREE ENERGY PREDICTED BY IDOCK:   -5.72 KCAL/MOL
REMARK 923 INTER-LIGAND FREE ENERGY PREDICTED BY IDOCK:   -5.58 KCAL/MOL
REMARK 924 INTRA-LIGAND FREE ENERGY PREDICTED BY IDOCK:   -0.14 KCAL/MOL
REMARK 927      BINDING AFFINITY PREDICTED BY RF-SCORE:    0.00 PKD
ROOT
HETATM    1  O   UNL     1     -10.432  14.697  67.765  1.00  0.00    -0.243 OA 
HETATM    2  S   UNL     1     -11.828  13.945  68.063  1.00  0.00    -0.363 S  
HETATM    3  O   UNL     1     -12.536  13.857  66.805  1.00  0.00    -0.381 OA 
HETATM    4  O   UNL     1     -12.408  14.620  69.205  1.00  0.00    -0.220 OA 
HETATM    5  C   UNL     1     -11.352  12.306  68.545  1.00  0.00    -0.286 A  
HETATM    6  C   UNL     1     -11.723  11.827  69.810  1.00  0.00    -0.408 A  
HETATM    7  C   UNL     1     -11.293  10.535  70.123  1.00  0.00    -0.323 A  
HETATM    8  C   UNL     1     -10.549   9.741  69.261  1.00  0.00    -0.221 A  
HETATM    9  C   UNL     1     -10.199  10.240  67.997  1.00  0.00    -0.200 A  
HETATM   10  N   UNL     1     -10.273   8.527  69.836  1.00  0.00    -0.199 NA 
HETATM   11  C   UNL     1     -10.606  11.534  67.646  1.00  0.00    -0.235 A  
HETATM   12  C   UNL     1     -10.832   8.544  71.035  1.00  0.00    -0.241 A  
HETATM   13  H   UNL     1      -9.740   7.762  69.421  1.00  0.00     0.000 HD 
HETATM   14  N   UNL     1     -11.456   9.755  71.238  1.00  0.00    -0.379 NA 
ENDROOT
BRANCH  12  15
HETATM   15  C   UNL     1     -10.820   7.444  72.011  1.00  0.00    -0.263 A  
HETATM   16  C   UNL     1     -11.463   6.238  71.692  1.00  0.00    -0.351 A  
HETATM   17  C   UNL     1     -11.503   5.179  72.603  1.00  0.00    -0.221 A  
HETATM   18  C   UNL     1     -10.895   5.310  73.848  1.00  0.00    -0.269 A  
HETATM   19  C   UNL     1     -10.242   6.494  74.178  1.00  0.00    -0.380 A  
HETATM   20  C   UNL     1     -10.203   7.553  73.267  1.00  0.00    -0.398 A  
ENDBRANCH  12  15
TORSDOF 1
ENDMDL
MODEL       59
REMARK 921   NORMALIZED FREE ENERGY PREDICTED BY IDOCK:   -5.26 KCAL/MOL
REMARK 922        TOTAL FREE ENERGY PREDICTED BY IDOCK:   -5.70 KCAL/MOL
REMARK 923 INTER-LIGAND FREE ENERGY PREDICTED BY IDOCK:   -5.57 KCAL/MOL
REMARK 924 INTRA-LIGAND FREE ENERGY PREDICTED BY IDOCK:   -0.14 KCAL/MOL
REMARK 927      BINDING AFFINITY PREDICTED BY RF-SCORE:    0.00 PKD
ROOT
HETATM    1  O   UNL     1     -10.632  17.795  65.713  1.00  0.00    -0.509 OA 
HETATM    2  S   UNL     1      -9.502  17.191  66.695  1.00  0.00    -0.276 S  
HETATM    3  O   UNL     1      -9.405  18.085  67.826  1.00  0.00    -0.257 OA 
HETATM    4  O   UNL     1      -8.355  16.913  65.856  1.00  0.00    -0.498 OA 
HETATM    5  C   UNL     1     -10.184  15.655  67.260  1.00  0.00    -0.266 A  
HETATM    6  C   UNL     1      -9.493  14.461  67.008  1.00  0.00    -0.255 A  
HETATM    7  C   UNL     1     -10.105  13.292  67.467  1.00  0.00    -0.223 A  
HETATM    8  C   UNL     1     -11.318  13.273  68.142  1.00  0.00    -0.288 A  
HETATM    9  C   UNL     1     -11.986  14.482  68.391  1.00  0.00    -0.309 A  
HETATM   10  N   UNL     1     -11.671  11.988  68.469  1.00  0.00    -0.316 NA 
HETATM   11  C   UNL     1     -11.408  15.676  67.941  1.00  0.00    -0.302 A  
HETATM   12  C   UNL     1     -10.703  11.207  68.018  1.00  0.00    -0.211 A  
HETATM   13  H   UNL     1     -12.514  11.694  68.962  1.00  0.00     0.000 HD 
HETATM   14  N   UNL     1      -9.739  11.973  67.402  1.00  0.00    -0.181 NA 
ENDROOT
BRANCH  12  15
HETATM   15  C   UNL     1     -10.633   9.746  68.161  1.00  0.00    -0.276 A  
HETATM   16  C   UNL     1     -10.604   8.945  67.009  1.00  0.00    -0.279 A  
HETATM   17  C   UNL     1     -10.570   7.551  67.099  1.00  0.00    -0.415 A  
HETATM   18  C   UNL     1     -10.561   6.935  68.348  1.00  0.00    -0.249 A  
HETATM   19  C   UNL     1     -10.577   7.712  69.503  1.00  0.00    -0.227 A  
HETATM   20  C   UNL     1     -10.612   9.107  69.411  1.00  0.00    -0.232 A  
ENDBRANCH  12  15
TORSDOF 1
ENDMDL
MODEL       60
REMARK 921   NORMALIZED FREE ENERGY PREDICTED BY IDOCK:   -5.25 KCAL/MOL
REMARK 922        TOTAL FREE ENERGY PREDICTED BY IDOCK:   -5.69 KCAL/MOL
REMARK 923 INTER-LIGAND FREE ENERGY PREDICTED BY IDOCK:   -5.56 KCAL/MOL
REMARK 924 INTRA-LIGAND FREE ENERGY PREDICTED BY IDOCK:   -0.14 KCAL/MOL
REMARK 927      BINDING AFFINITY PREDICTED BY RF-SCORE:    0.00 PKD
ROOT
HETATM    1  O   UNL     1      -8.176   8.895  73.581  1.00  0.00    -0.299 OA 
HETATM    2  S   UNL     1      -7.468   8.465  72.197  1.00  0.00    -0.086 S  
HETATM    3  O   UNL     1      -7.318   7.027  72.229  1.00  0.00    -0.083 OA 
HETATM    4  O   UNL     1      -6.321   9.336  72.049  1.00  0.00    -0.260 OA 
HETATM    5  C   UNL     1      -8.660   8.869  70.947  1.00  0.00    -0.199 A  
HETATM    6  C   UNL     1      -8.315   9.777  69.936  1.00  0.00    -0.198 A  
HETATM    7  C   UNL     1      -9.315  10.059  69.001  1.00  0.00    -0.181 A  
HETATM    8  C   UNL     1     -10.581   9.491  69.034  1.00  0.00    -0.219 A  
HETATM    9  C   UNL     1     -10.899   8.577  70.051  1.00  0.00    -0.225 A  
HETATM   10  N   UNL     1     -11.347   9.953  67.994  1.00  0.00    -0.536 NA 
HETATM   11  C   UNL     1      -9.925   8.272  71.012  1.00  0.00    -0.226 A  
HETATM   12  C   UNL     1     -10.585  10.792  67.311  1.00  0.00    -0.257 A  
HETATM   13  H   UNL     1     -12.313   9.700  67.789  1.00  0.00     0.000 HD 
HETATM   14  N   UNL     1      -9.345  10.878  67.903  1.00  0.00    -0.153 NA 
ENDROOT
BRANCH  12  15
HETATM   15  C   UNL     1     -10.973  11.516  66.093  1.00  0.00    -0.320 A  
HETATM   16  C   UNL     1     -10.367  11.180  64.872  1.00  0.00    -0.375 A  
HETATM   17  C   UNL     1     -10.683  11.865  63.696  1.00  0.00    -0.502 A  
HETATM   18  C   UNL     1     -11.617  12.896  63.722  1.00  0.00    -0.538 A  
HETATM   19  C   UNL     1     -12.239  13.237  64.920  1.00  0.00    -0.466 A  
HETATM   20  C   UNL     1     -11.921  12.552  66.097  1.00  0.00    -0.432 A  
ENDBRANCH  12  15
TORSDOF 1
ENDMDL
MODEL       61
REMARK 921   NORMALIZED FREE ENERGY PREDICTED BY IDOCK:   -5.23 KCAL/MOL
REMARK 922        TOTAL FREE ENERGY PREDICTED BY IDOCK:   -5.68 KCAL/MOL
REMARK 923 INTER-LIGAND FREE ENERGY PREDICTED BY IDOCK:   -5.54 KCAL/MOL
REMARK 924 INTRA-LIGAND FREE ENERGY PREDICTED BY IDOCK:   -0.13 KCAL/MOL
REMARK 927      BINDING AFFINITY PREDICTED BY RF-SCORE:    0.00 PKD
ROOT
HETATM    1  O   UNL     1      -9.628  16.250  65.226  1.00  0.00    -0.383 OA 
HETATM    2  S   UNL     1      -9.741  16.284  66.836  1.00  0.00    -0.248 S  
HETATM    3  O   UNL     1     -10.655  17.352  67.172  1.00  0.00    -0.331 OA 
HETATM    4  O   UNL     1      -8.380  16.277  67.330  1.00  0.00    -0.165 OA 
HETATM    5  C   UNL     1     -10.511  14.743  67.256  1.00  0.00    -0.264 A  
HETATM    6  C   UNL     1      -9.841  13.847  68.101  1.00  0.00    -0.240 A  
HETATM    7  C   UNL     1     -10.504  12.647  68.369  1.00  0.00    -0.238 A  
HETATM    8  C   UNL     1     -11.754  12.327  67.855  1.00  0.00    -0.347 A  
HETATM    9  C   UNL     1     -12.409  13.245  67.019  1.00  0.00    -0.190 A  
HETATM   10  N   UNL     1     -12.153  11.088  68.286  1.00  0.00    -0.788 NA 
HETATM   11  C   UNL     1     -11.774  14.458  66.721  1.00  0.00    -0.415 A  
HETATM   12  C   UNL     1     -11.184  10.630  69.062  1.00  0.00    -0.265 A  
HETATM   13  H   UNL     1     -13.026  10.613  68.054  1.00  0.00     0.000 HD 
HETATM   14  N   UNL     1     -10.167  11.557  69.128  1.00  0.00    -0.086 NA 
ENDROOT
BRANCH  12  15
HETATM   15  C   UNL     1     -11.180   9.344  69.773  1.00  0.00    -0.139 A  
HETATM   16  C   UNL     1     -11.735   9.271  71.061  1.00  0.00    -0.378 A  
HETATM   17  C   UNL     1     -11.723   8.075  71.785  1.00  0.00    -0.335 A  
HETATM   18  C   UNL     1     -11.158   6.931  71.228  1.00  0.00    -0.293 A  
HETATM   19  C   UNL     1     -10.614   6.981  69.948  1.00  0.00    -0.249 A  
HETATM   20  C   UNL     1     -10.625   8.178  69.225  1.00  0.00    -0.191 A  
ENDBRANCH  12  15
TORSDOF 1
ENDMDL
MODEL       62
REMARK 921   NORMALIZED FREE ENERGY PREDICTED BY IDOCK:   -5.21 KCAL/MOL
REMARK 922        TOTAL FREE ENERGY PREDICTED BY IDOCK:   -5.66 KCAL/MOL
REMARK 923 INTER-LIGAND FREE ENERGY PREDICTED BY IDOCK:   -5.52 KCAL/MOL
REMARK 924 INTRA-LIGAND FREE ENERGY PREDICTED BY IDOCK:   -0.14 KCAL/MOL
REMARK 927      BINDING AFFINITY PREDICTED BY RF-SCORE:    0.00 PKD
ROOT
HETATM    1  O   UNL     1     -10.923   9.492  67.391  1.00  0.00    -0.232 OA 
HETATM    2  S   UNL     1     -10.945  10.400  68.725  1.00  0.00    -0.252 S  
HETATM    3  O   UNL     1     -10.078   9.757  69.687  1.00  0.00    -0.200 OA 
HETATM    4  O   UNL     1     -12.342  10.642  69.018  1.00  0.00    -0.355 OA 
HETATM    5  C   UNL     1     -10.190  11.927  68.232  1.00  0.00    -0.204 A  
HETATM    6  C   UNL     1     -10.916  13.122  68.348  1.00  0.00    -0.287 A  
HETATM    7  C   UNL     1     -10.260  14.278  67.920  1.00  0.00    -0.237 A  
HETATM    8  C   UNL     1      -8.967  14.287  67.413  1.00  0.00    -0.201 A  
HETATM    9  C   UNL     1      -8.258  13.080  67.317  1.00  0.00    -0.174 A  
HETATM   10  N   UNL     1      -8.587  15.561  67.076  1.00  0.00    -0.213 NA 
HETATM   11  C   UNL     1      -8.884  11.896  67.730  1.00  0.00    -0.166 A  
HETATM   12  C   UNL     1      -9.611  16.348  67.366  1.00  0.00    -0.231 A  
HETATM   13  H   UNL     1      -7.691  15.846  66.679  1.00  0.00     0.000 HD 
HETATM   14  N   UNL     1     -10.643  15.593  67.878  1.00  0.00    -0.271 NA 
ENDROOT
BRANCH  12  15
HETATM   15  C   UNL     1      -9.655  17.807  67.198  1.00  0.00    -0.276 A  
HETATM   16  C   UNL     1     -10.474  18.357  66.199  1.00  0.00    -0.422 A  
HETATM   17  C   UNL     1     -10.522  19.737  65.984  1.00  0.00    -0.609 A  
HETATM   18  C   UNL     1      -9.752  20.590  66.770  1.00  0.00    -0.466 A  
HETATM   19  C   UNL     1      -8.943  20.065  67.774  1.00  0.00    -0.396 A  
HETATM   20  C   UNL     1      -8.896  18.684  67.988  1.00  0.00    -0.329 A  
ENDBRANCH  12  15
TORSDOF 1
ENDMDL
MODEL       63
REMARK 921   NORMALIZED FREE ENERGY PREDICTED BY IDOCK:   -5.17 KCAL/MOL
REMARK 922        TOTAL FREE ENERGY PREDICTED BY IDOCK:   -5.61 KCAL/MOL
REMARK 923 INTER-LIGAND FREE ENERGY PREDICTED BY IDOCK:   -5.46 KCAL/MOL
REMARK 924 INTRA-LIGAND FREE ENERGY PREDICTED BY IDOCK:   -0.15 KCAL/MOL
REMARK 927      BINDING AFFINITY PREDICTED BY RF-SCORE:    0.00 PKD
ROOT
HETATM    1  O   UNL     1     -10.157  13.390  66.934  1.00  0.00    -0.247 OA 
HETATM    2  S   UNL     1     -11.558  12.708  67.351  1.00  0.00    -0.369 S  
HETATM    3  O   UNL     1     -12.388  12.692  66.167  1.00  0.00    -0.570 OA 
HETATM    4  O   UNL     1     -11.985  13.383  68.558  1.00  0.00    -0.348 OA 
HETATM    5  C   UNL     1     -11.132  11.033  67.750  1.00  0.00    -0.295 A  
HETATM    6  C   UNL     1     -11.406  10.541  69.034  1.00  0.00    -0.319 A  
HETATM    7  C   UNL     1     -11.022   9.220  69.277  1.00  0.00    -0.085 A  
HETATM    8  C   UNL     1     -10.412   8.410  68.329  1.00  0.00    -0.163 A  
HETATM    9  C   UNL     1     -10.157   8.922  67.048  1.00  0.00    -0.331 A  
HETATM   10  N   UNL     1     -10.151   7.168  68.849  1.00  0.00    -0.171 NA 
HETATM   11  C   UNL     1     -10.522  10.246  66.766  1.00  0.00    -0.279 A  
HETATM   12  C   UNL     1     -10.590   7.183  70.098  1.00  0.00    -0.230 A  
HETATM   13  H   UNL     1      -9.706   6.386  68.368  1.00  0.00     0.000 HD 
HETATM   14  N   UNL     1     -11.122   8.421  70.385  1.00  0.00    -0.244 NA 
ENDROOT
BRANCH  12  15
HETATM   15  C   UNL     1     -10.547   6.060  71.044  1.00  0.00    -0.305 A  
HETATM   16  C   UNL     1     -11.309   6.125  72.221  1.00  0.00    -0.346 A  
HETATM   17  C   UNL     1     -11.273   5.092  73.162  1.00  0.00    -0.398 A  
HETATM   18  C   UNL     1     -10.474   3.975  72.938  1.00  0.00    -0.247 A  
HETATM   19  C   UNL     1      -9.720   3.886  71.771  1.00  0.00    -0.243 A  
HETATM   20  C   UNL     1      -9.756   4.919  70.830  1.00  0.00    -0.268 A  
ENDBRANCH  12  15
TORSDOF 1
ENDMDL
MODEL       64
REMARK 921   NORMALIZED FREE ENERGY PREDICTED BY IDOCK:   -5.07 KCAL/MOL
REMARK 922        TOTAL FREE ENERGY PREDICTED BY IDOCK:   -5.51 KCAL/MOL
REMARK 923 INTER-LIGAND FREE ENERGY PREDICTED BY IDOCK:   -5.36 KCAL/MOL
REMARK 924 INTRA-LIGAND FREE ENERGY PREDICTED BY IDOCK:   -0.15 KCAL/MOL
REMARK 927      BINDING AFFINITY PREDICTED BY RF-SCORE:    0.00 PKD
ROOT
HETATM    1  O   UNL     1     -11.716   5.667  72.638  1.00  0.00    -0.303 OA 
HETATM    2  S   UNL     1     -10.441   6.651  72.528  1.00  0.00    -0.214 S  
HETATM    3  O   UNL     1      -9.260   5.819  72.574  1.00  0.00    -0.143 OA 
HETATM    4  O   UNL     1     -10.661   7.697  73.505  1.00  0.00    -0.348 OA 
HETATM    5  C   UNL     1     -10.563   7.351  70.903  1.00  0.00    -0.223 A  
HETATM    6  C   UNL     1     -10.666   8.742  70.759  1.00  0.00    -0.277 A  
HETATM    7  C   UNL     1     -10.778   9.214  69.449  1.00  0.00    -0.198 A  
HETATM    8  C   UNL     1     -10.785   8.389  68.332  1.00  0.00    -0.023 A  
HETATM    9  C   UNL     1     -10.671   7.000  68.502  1.00  0.00    -0.219 A  
HETATM   10  N   UNL     1     -10.907   9.129  67.184  1.00  0.00    -0.326 NA 
HETATM   11  C   UNL     1     -10.562   6.487  69.801  1.00  0.00    -0.284 A  
HETATM   12  C   UNL     1     -10.971  10.396  67.558  1.00  0.00    -0.295 A  
HETATM   13  H   UNL     1     -10.942   8.772  66.229  1.00  0.00     0.000 HD 
HETATM   14  N   UNL     1     -10.898  10.477  68.932  1.00  0.00    -0.219 NA 
ENDROOT
BRANCH  12  15
HETATM   15  C   UNL     1     -11.082  11.558  66.665  1.00  0.00    -0.355 A  
HETATM   16  C   UNL     1     -11.780  12.694  67.101  1.00  0.00    -0.438 A  
HETATM   17  C   UNL     1     -11.936  13.808  66.272  1.00  0.00    -0.462 A  
HETATM   18  C   UNL     1     -11.390  13.804  64.992  1.00  0.00    -0.334 A  
HETATM   19  C   UNL     1     -10.683  12.691  64.545  1.00  0.00    -0.368 A  
HETATM   20  C   UNL     1     -10.529  11.576  65.375  1.00  0.00    -0.333 A  
ENDBRANCH  12  15
TORSDOF 1
ENDMDL
MODEL       65
REMARK 921   NORMALIZED FREE ENERGY PREDICTED BY IDOCK:   -5.06 KCAL/MOL
REMARK 922        TOTAL FREE ENERGY PREDICTED BY IDOCK:   -5.50 KCAL/MOL
REMARK 923 INTER-LIGAND FREE ENERGY PREDICTED BY IDOCK:   -5.36 KCAL/MOL
REMARK 924 INTRA-LIGAND FREE ENERGY PREDICTED BY IDOCK:   -0.13 KCAL/MOL
REMARK 927      BINDING AFFINITY PREDICTED BY RF-SCORE:    0.00 PKD
ROOT
HETATM    1  O   UNL     1     -11.133   6.040  71.472  1.00  0.00    -0.268 OA 
HETATM    2  S   UNL     1     -11.687   7.436  72.062  1.00  0.00    -0.298 S  
HETATM    3  O   UNL     1     -11.161   7.566  73.403  1.00  0.00    -0.296 OA 
HETATM    4  O   UNL     1     -13.112   7.436  71.811  1.00  0.00    -0.341 OA 
HETATM    5  C   UNL     1     -10.926   8.676  71.047  1.00  0.00    -0.260 A  
HETATM    6  C   UNL     1     -11.735   9.561  70.320  1.00  0.00    -0.168 A  
HETATM    7  C   UNL     1     -11.061  10.495  69.529  1.00  0.00    -0.268 A  
HETATM    8  C   UNL     1      -9.678  10.578  69.448  1.00  0.00    -0.164 A  
HETATM    9  C   UNL     1      -8.889   9.688  70.193  1.00  0.00    -0.266 A  
HETATM   10  N   UNL     1      -9.302  11.586  68.597  1.00  0.00    -0.310 NA 
HETATM   11  C   UNL     1      -9.528   8.731  70.994  1.00  0.00    -0.287 A  
HETATM   12  C   UNL     1     -10.419  12.137  68.150  1.00  0.00    -0.211 A  
HETATM   13  H   UNL     1      -8.348  11.858  68.355  1.00  0.00     0.000 HD 
HETATM   14  N   UNL     1     -11.505  11.490  68.699  1.00  0.00    -0.264 NA 
ENDROOT
BRANCH  12  15
HETATM   15  C   UNL     1     -10.513  13.277  67.228  1.00  0.00    -0.247 A  
HETATM   16  C   UNL     1     -10.288  13.072  65.858  1.00  0.00    -0.296 A  
HETATM   17  C   UNL     1     -10.336  14.134  64.951  1.00  0.00    -0.435 A  
HETATM   18  C   UNL     1     -10.616  15.421  65.402  1.00  0.00    -0.430 A  
HETATM   19  C   UNL     1     -10.855  15.643  66.756  1.00  0.00    -0.277 A  
HETATM   20  C   UNL     1     -10.805  14.580  67.663  1.00  0.00    -0.275 A  
ENDBRANCH  12  15
TORSDOF 1
ENDMDL
MODEL       66
REMARK 921   NORMALIZED FREE ENERGY PREDICTED BY IDOCK:   -5.04 KCAL/MOL
REMARK 922        TOTAL FREE ENERGY PREDICTED BY IDOCK:   -5.47 KCAL/MOL
REMARK 923 INTER-LIGAND FREE ENERGY PREDICTED BY IDOCK:   -5.32 KCAL/MOL
REMARK 924 INTRA-LIGAND FREE ENERGY PREDICTED BY IDOCK:   -0.15 KCAL/MOL
REMARK 927      BINDING AFFINITY PREDICTED BY RF-SCORE:    0.00 PKD
ROOT
HETATM    1  O   UNL     1      -8.579   3.649  73.016  1.00  0.00    -0.088 OA 
HETATM    2  S   UNL     1     -10.011   3.732  72.278  1.00  0.00    -0.161 S  
HETATM    3  O   UNL     1     -10.996   3.232  73.211  1.00  0.00    -0.186 OA 
HETATM    4  O   UNL     1      -9.826   3.117  70.981  1.00  0.00    -0.158 OA 
HETATM    5  C   UNL     1     -10.292   5.469  72.055  1.00  0.00    -0.213 A  
HETATM    6  C   UNL     1     -10.471   5.976  70.759  1.00  0.00    -0.298 A  
HETATM    7  C   UNL     1     -10.667   7.356  70.665  1.00  0.00    -0.229 A  
HETATM    8  C   UNL     1     -10.696   8.205  71.762  1.00  0.00    -0.251 A  
HETATM    9  C   UNL     1     -10.525   7.673  73.050  1.00  0.00    -0.414 A  
HETATM   10  N   UNL     1     -10.905   9.502  71.366  1.00  0.00    -0.350 NA 
HETATM   11  C   UNL     1     -10.320   6.293  73.186  1.00  0.00    -0.240 A  
HETATM   12  C   UNL     1     -11.011   9.479  70.048  1.00  0.00    -0.251 A  
HETATM   13  H   UNL     1     -10.965  10.322  71.970  1.00  0.00     0.000 HD 
HETATM   14  N   UNL     1     -10.867   8.186  69.594  1.00  0.00    -0.204 NA 
ENDROOT
BRANCH  12  15
HETATM   15  C   UNL     1     -11.265  10.638  69.180  1.00  0.00    -0.324 A  
HETATM   16  C   UNL     1     -11.070  10.514  67.796  1.00  0.00    -0.382 A  
HETATM   17  C   UNL     1     -11.270  11.600  66.939  1.00  0.00    -0.376 A  
HETATM   18  C   UNL     1     -11.672  12.828  67.455  1.00  0.00    -0.425 A  
HETATM   19  C   UNL     1     -11.883  12.968  68.824  1.00  0.00    -0.355 A  
HETATM   20  C   UNL     1     -11.682  11.881  69.681  1.00  0.00    -0.413 A  
ENDBRANCH  12  15
TORSDOF 1
ENDMDL
MODEL       67
REMARK 921   NORMALIZED FREE ENERGY PREDICTED BY IDOCK:   -5.03 KCAL/MOL
REMARK 922        TOTAL FREE ENERGY PREDICTED BY IDOCK:   -5.46 KCAL/MOL
REMARK 923 INTER-LIGAND FREE ENERGY PREDICTED BY IDOCK:   -5.33 KCAL/MOL
REMARK 924 INTRA-LIGAND FREE ENERGY PREDICTED BY IDOCK:   -0.14 KCAL/MOL
REMARK 927      BINDING AFFINITY PREDICTED BY RF-SCORE:    0.00 PKD
ROOT
HETATM    1  O   UNL     1     -10.932   7.880  66.956  1.00  0.00    -0.219 OA 
HETATM    2  S   UNL     1      -9.443   8.496  67.051  1.00  0.00    -0.188 S  
HETATM    3  O   UNL     1      -8.615   7.740  66.139  1.00  0.00    -0.136 OA 
HETATM    4  O   UNL     1      -9.134   8.570  68.463  1.00  0.00    -0.136 OA 
HETATM    5  C   UNL     1      -9.607  10.143  66.413  1.00  0.00    -0.191 A  
HETATM    6  C   UNL     1      -9.267  11.233  67.228  1.00  0.00    -0.170 A  
HETATM    7  C   UNL     1      -9.443  12.497  66.661  1.00  0.00    -0.242 A  
HETATM    8  C   UNL     1      -9.914  12.704  65.371  1.00  0.00    -0.214 A  
HETATM    9  C   UNL     1     -10.237  11.596  64.572  1.00  0.00    -0.337 A  
HETATM   10  N   UNL     1      -9.982  14.044  65.089  1.00  0.00    -0.584 NA 
HETATM   11  C   UNL     1     -10.081  10.310  65.106  1.00  0.00    -0.355 A  
HETATM   12  C   UNL     1      -9.558  14.678  66.170  1.00  0.00    -0.307 A  
HETATM   13  H   UNL     1     -10.297  14.468  64.216  1.00  0.00     0.000 HD 
HETATM   14  N   UNL     1      -9.227  13.761  67.143  1.00  0.00    -0.234 NA 
ENDROOT
BRANCH  12  15
HETATM   15  C   UNL     1      -9.432  16.134  66.325  1.00  0.00    -0.347 A  
HETATM   16  C   UNL     1      -8.162  16.725  66.236  1.00  0.00    -0.359 A  
HETATM   17  C   UNL     1      -7.993  18.101  66.409  1.00  0.00    -0.297 A  
HETATM   18  C   UNL     1      -9.095  18.910  66.671  1.00  0.00    -0.338 A  
HETATM   19  C   UNL     1     -10.365  18.344  66.751  1.00  0.00    -0.420 A  
HETATM   20  C   UNL     1     -10.533  16.967  66.579  1.00  0.00    -0.253 A  
ENDBRANCH  12  15
TORSDOF 1
ENDMDL
MODEL       68
REMARK 921   NORMALIZED FREE ENERGY PREDICTED BY IDOCK:   -4.99 KCAL/MOL
REMARK 922        TOTAL FREE ENERGY PREDICTED BY IDOCK:   -5.42 KCAL/MOL
REMARK 923 INTER-LIGAND FREE ENERGY PREDICTED BY IDOCK:   -5.29 KCAL/MOL
REMARK 924 INTRA-LIGAND FREE ENERGY PREDICTED BY IDOCK:   -0.14 KCAL/MOL
REMARK 927      BINDING AFFINITY PREDICTED BY RF-SCORE:    0.00 PKD
ROOT
HETATM    1  O   UNL     1      -8.637   5.966  70.219  1.00  0.00    -0.130 OA 
HETATM    2  S   UNL     1     -10.048   6.111  69.449  1.00  0.00    -0.200 S  
HETATM    3  O   UNL     1     -11.071   5.625  70.347  1.00  0.00    -0.261 OA 
HETATM    4  O   UNL     1      -9.850   5.516  68.144  1.00  0.00    -0.129 OA 
HETATM    5  C   UNL     1     -10.266   7.860  69.254  1.00  0.00    -0.216 A  
HETATM    6  C   UNL     1     -10.396   8.398  67.966  1.00  0.00    -0.270 A  
HETATM    7  C   UNL     1     -10.545   9.785  67.895  1.00  0.00    -0.259 A  
HETATM    8  C   UNL     1     -10.575  10.613  69.009  1.00  0.00    -0.219 A  
HETATM    9  C   UNL     1     -10.452  10.050  70.289  1.00  0.00    -0.331 A  
HETATM   10  N   UNL     1     -10.731  11.924  68.635  1.00  0.00    -0.228 NA 
HETATM   11  C   UNL     1     -10.296   8.662  70.402  1.00  0.00    -0.225 A  
HETATM   12  C   UNL     1     -10.805  11.931  67.314  1.00  0.00    -0.247 A  
HETATM   13  H   UNL     1     -10.780  12.733  69.254  1.00  0.00     0.000 HD 
HETATM   14  N   UNL     1     -10.692  10.643  66.837  1.00  0.00    -0.255 NA 
ENDROOT
BRANCH  12  15
HETATM   15  C   UNL     1     -11.000  13.114  66.465  1.00  0.00    -0.303 A  
HETATM   16  C   UNL     1     -12.192  13.246  65.736  1.00  0.00    -0.510 A  
HETATM   17  C   UNL     1     -12.405  14.340  64.893  1.00  0.00    -0.435 A  
HETATM   18  C   UNL     1     -11.427  15.322  64.768  1.00  0.00    -0.364 A  
HETATM   19  C   UNL     1     -10.243  15.216  65.492  1.00  0.00    -0.405 A  
HETATM   20  C   UNL     1     -10.030  14.121  66.335  1.00  0.00    -0.302 A  
ENDBRANCH  12  15
TORSDOF 1
ENDMDL
MODEL       69
REMARK 921   NORMALIZED FREE ENERGY PREDICTED BY IDOCK:   -4.95 KCAL/MOL
REMARK 922        TOTAL FREE ENERGY PREDICTED BY IDOCK:   -5.38 KCAL/MOL
REMARK 923 INTER-LIGAND FREE ENERGY PREDICTED BY IDOCK:   -5.24 KCAL/MOL
REMARK 924 INTRA-LIGAND FREE ENERGY PREDICTED BY IDOCK:   -0.14 KCAL/MOL
REMARK 927      BINDING AFFINITY PREDICTED BY RF-SCORE:    0.00 PKD
ROOT
HETATM    1  O   UNL     1     -13.338   7.554  72.173  1.00  0.00    -0.172 OA 
HETATM    2  S   UNL     1     -11.980   8.425  72.149  1.00  0.00    -0.392 S  
HETATM    3  O   UNL     1     -11.040   7.764  73.025  1.00  0.00    -0.398 OA 
HETATM    4  O   UNL     1     -12.384   9.796  72.378  1.00  0.00    -0.140 OA 
HETATM    5  C   UNL     1     -11.388   8.272  70.484  1.00  0.00    -0.219 A  
HETATM    6  C   UNL     1     -11.218   9.427  69.706  1.00  0.00    -0.139 A  
HETATM    7  C   UNL     1     -10.768   9.221  68.399  1.00  0.00    -0.145 A  
HETATM    8  C   UNL     1     -10.487   7.969  67.870  1.00  0.00    -0.197 A  
HETATM    9  C   UNL     1     -10.655   6.830  68.673  1.00  0.00    -0.263 A  
HETATM   10  N   UNL     1     -10.064   8.076  66.570  1.00  0.00    -0.441 NA 
HETATM   11  C   UNL     1     -11.111   6.993  69.988  1.00  0.00    -0.316 A  
HETATM   12  C   UNL     1     -10.069   9.367  66.278  1.00  0.00    -0.258 A  
HETATM   13  H   UNL     1      -9.798   7.311  65.950  1.00  0.00     0.000 HD 
HETATM   14  N   UNL     1     -10.496  10.087  67.372  1.00  0.00    -0.242 NA 
ENDROOT
BRANCH  12  15
HETATM   15  C   UNL     1      -9.666   9.966  64.998  1.00  0.00    -0.359 A  
HETATM   16  C   UNL     1     -10.456  10.981  64.437  1.00  0.00    -0.422 A  
HETATM   17  C   UNL     1     -10.126  11.556  63.207  1.00  0.00    -0.439 A  
HETATM   18  C   UNL     1      -8.995  11.125  62.519  1.00  0.00    -0.347 A  
HETATM   19  C   UNL     1      -8.192  10.128  63.065  1.00  0.00    -0.158 A  
HETATM   20  C   UNL     1      -8.523   9.553  64.296  1.00  0.00    -0.193 A  
ENDBRANCH  12  15
TORSDOF 1
ENDMDL
MODEL       70
REMARK 921   NORMALIZED FREE ENERGY PREDICTED BY IDOCK:   -4.93 KCAL/MOL
REMARK 922        TOTAL FREE ENERGY PREDICTED BY IDOCK:   -5.36 KCAL/MOL
REMARK 923 INTER-LIGAND FREE ENERGY PREDICTED BY IDOCK:   -5.22 KCAL/MOL
REMARK 924 INTRA-LIGAND FREE ENERGY PREDICTED BY IDOCK:   -0.14 KCAL/MOL
REMARK 927      BINDING AFFINITY PREDICTED BY RF-SCORE:    0.00 PKD
ROOT
HETATM    1  O   UNL     1     -12.743  13.235  64.676  1.00  0.00    -0.643 OA 
HETATM    2  S   UNL     1     -11.185  12.815  64.667  1.00  0.00    -0.339 S  
HETATM    3  O   UNL     1     -10.419  14.032  64.816  1.00  0.00    -0.413 OA 
HETATM    4  O   UNL     1     -11.012  11.955  63.516  1.00  0.00    -0.396 OA 
HETATM    5  C   UNL     1     -10.980  11.849  66.141  1.00  0.00    -0.308 A  
HETATM    6  C   UNL     1     -10.533  10.523  66.038  1.00  0.00    -0.226 A  
HETATM    7  C   UNL     1     -10.418   9.822  67.241  1.00  0.00    -0.261 A  
HETATM    8  C   UNL     1     -10.710  10.371  68.482  1.00  0.00    -0.221 A  
HETATM    9  C   UNL     1     -11.146  11.703  68.560  1.00  0.00    -0.286 A  
HETATM   10  N   UNL     1     -10.504   9.452  69.479  1.00  0.00    -0.210 NA 
HETATM   11  C   UNL     1     -11.281  12.438  67.374  1.00  0.00    -0.351 A  
HETATM   12  C   UNL     1     -10.085   8.345  68.888  1.00  0.00    -0.199 A  
HETATM   13  H   UNL     1     -10.647   9.594  70.479  1.00  0.00     0.000 HD 
HETATM   14  N   UNL     1     -10.026   8.541  67.526  1.00  0.00    -0.184 NA 
ENDROOT
BRANCH  12  15
HETATM   15  C   UNL     1      -9.712   7.093  69.561  1.00  0.00    -0.157 A  
HETATM   16  C   UNL     1      -8.642   7.095  70.470  1.00  0.00    -0.144 A  
HETATM   17  C   UNL     1      -8.235   5.920  71.108  1.00  0.00    -0.123 A  
HETATM   18  C   UNL     1      -8.896   4.723  70.849  1.00  0.00    -0.150 A  
HETATM   19  C   UNL     1      -9.968   4.703  69.960  1.00  0.00    -0.302 A  
HETATM   20  C   UNL     1     -10.374   5.878  69.322  1.00  0.00    -0.312 A  
ENDBRANCH  12  15
TORSDOF 1
ENDMDL
MODEL       71
REMARK 921   NORMALIZED FREE ENERGY PREDICTED BY IDOCK:   -4.92 KCAL/MOL
REMARK 922        TOTAL FREE ENERGY PREDICTED BY IDOCK:   -5.35 KCAL/MOL
REMARK 923 INTER-LIGAND FREE ENERGY PREDICTED BY IDOCK:   -5.19 KCAL/MOL
REMARK 924 INTRA-LIGAND FREE ENERGY PREDICTED BY IDOCK:   -0.15 KCAL/MOL
REMARK 927      BINDING AFFINITY PREDICTED BY RF-SCORE:    0.00 PKD
ROOT
HETATM    1  O   UNL     1     -11.991   6.480  70.619  1.00  0.00    -0.386 OA 
HETATM    2  S   UNL     1     -10.691   7.375  70.957  1.00  0.00    -0.234 S  
HETATM    3  O   UNL     1      -9.541   6.505  70.849  1.00  0.00    -0.174 OA 
HETATM    4  O   UNL     1     -10.995   8.067  72.192  1.00  0.00    -0.252 OA 
HETATM    5  C   UNL     1     -10.616   8.559  69.640  1.00  0.00    -0.220 A  
HETATM    6  C   UNL     1     -10.670   9.928  69.941  1.00  0.00    -0.318 A  
HETATM    7  C   UNL     1     -10.626  10.797  68.848  1.00  0.00    -0.216 A  
HETATM    8  C   UNL     1     -10.526  10.371  67.531  1.00  0.00    -0.245 A  
HETATM    9  C   UNL     1     -10.463   8.996  67.255  1.00  0.00    -0.343 A  
HETATM   10  N   UNL     1     -10.503  11.442  66.675  1.00  0.00    -0.234 NA 
HETATM   11  C   UNL     1     -10.511   8.091  68.325  1.00  0.00    -0.210 A  
HETATM   12  C   UNL     1     -10.581  12.527  67.429  1.00  0.00    -0.223 A  
HETATM   13  H   UNL     1     -10.440  11.409  65.657  1.00  0.00     0.000 HD 
HETATM   14  N   UNL     1     -10.660  12.163  68.756  1.00  0.00    -0.224 NA 
ENDROOT
BRANCH  12  15
HETATM   15  C   UNL     1     -10.565  13.916  66.951  1.00  0.00    -0.280 A  
HETATM   16  C   UNL     1     -10.421  14.167  65.577  1.00  0.00    -0.352 A  
HETATM   17  C   UNL     1     -10.370  15.473  65.083  1.00  0.00    -0.388 A  
HETATM   18  C   UNL     1     -10.466  16.551  65.958  1.00  0.00    -0.320 A  
HETATM   19  C   UNL     1     -10.621  16.324  67.323  1.00  0.00    -0.298 A  
HETATM   20  C   UNL     1     -10.672  15.016  67.816  1.00  0.00    -0.278 A  
ENDBRANCH  12  15
TORSDOF 1
ENDMDL
MODEL       72
REMARK 921   NORMALIZED FREE ENERGY PREDICTED BY IDOCK:   -4.90 KCAL/MOL
REMARK 922        TOTAL FREE ENERGY PREDICTED BY IDOCK:   -5.32 KCAL/MOL
REMARK 923 INTER-LIGAND FREE ENERGY PREDICTED BY IDOCK:   -5.17 KCAL/MOL
REMARK 924 INTRA-LIGAND FREE ENERGY PREDICTED BY IDOCK:   -0.15 KCAL/MOL
REMARK 927      BINDING AFFINITY PREDICTED BY RF-SCORE:    0.00 PKD
ROOT
HETATM    1  O   UNL     1      -7.778   4.497  66.564  1.00  0.00    -0.092 OA 
HETATM    2  S   UNL     1      -9.028   5.226  65.851  1.00  0.00    -0.149 S  
HETATM    3  O   UNL     1      -9.964   4.190  65.477  1.00  0.00    -0.200 OA 
HETATM    4  O   UNL     1      -8.457   6.115  64.861  1.00  0.00    -0.123 OA 
HETATM    5  C   UNL     1      -9.765   6.199  67.138  1.00  0.00    -0.135 A  
HETATM    6  C   UNL     1      -9.867   7.589  66.978  1.00  0.00    -0.280 A  
HETATM    7  C   UNL     1     -10.440   8.286  68.044  1.00  0.00    -0.181 A  
HETATM    8  C   UNL     1     -10.900   7.677  69.203  1.00  0.00    -0.068 A  
HETATM    9  C   UNL     1     -10.796   6.283  69.336  1.00  0.00    -0.404 A  
HETATM   10  N   UNL     1     -11.410   8.609  70.070  1.00  0.00    -0.448 NA 
HETATM   11  C   UNL     1     -10.221   5.548  68.290  1.00  0.00    -0.237 A  
HETATM   12  C   UNL     1     -11.285   9.784  69.476  1.00  0.00    -0.142 A  
HETATM   13  H   UNL     1     -11.808   8.430  70.993  1.00  0.00     0.000 HD 
HETATM   14  N   UNL     1     -10.694   9.618  68.242  1.00  0.00    -0.232 NA 
ENDROOT
BRANCH  12  15
HETATM   15  C   UNL     1     -11.720  11.079  70.018  1.00  0.00    -0.437 A  
HETATM   16  C   UNL     1     -12.491  11.107  71.191  1.00  0.00    -0.498 A  
HETATM   17  C   UNL     1     -12.952  12.314  71.723  1.00  0.00    -0.431 A  
HETATM   18  C   UNL     1     -12.644  13.515  71.090  1.00  0.00    -0.438 A  
HETATM   19  C   UNL     1     -11.870  13.509  69.933  1.00  0.00    -0.386 A  
HETATM   20  C   UNL     1     -11.410  12.301  69.401  1.00  0.00    -0.294 A  
ENDBRANCH  12  15
TORSDOF 1
ENDMDL
MODEL       73
REMARK 921   NORMALIZED FREE ENERGY PREDICTED BY IDOCK:   -4.82 KCAL/MOL
REMARK 922        TOTAL FREE ENERGY PREDICTED BY IDOCK:   -5.25 KCAL/MOL
REMARK 923 INTER-LIGAND FREE ENERGY PREDICTED BY IDOCK:   -5.09 KCAL/MOL
REMARK 924 INTRA-LIGAND FREE ENERGY PREDICTED BY IDOCK:   -0.15 KCAL/MOL
REMARK 927      BINDING AFFINITY PREDICTED BY RF-SCORE:    0.00 PKD
ROOT
HETATM    1  O   UNL     1     -11.437  15.808  67.719  1.00  0.00    -0.290 OA 
HETATM    2  S   UNL     1     -10.130  15.100  68.347  1.00  0.00    -0.230 S  
HETATM    3  O   UNL     1     -10.049  15.515  69.729  1.00  0.00    -0.270 OA 
HETATM    4  O   UNL     1      -9.051  15.363  67.419  1.00  0.00    -0.190 OA 
HETATM    5  C   UNL     1     -10.508  13.367  68.310  1.00  0.00    -0.250 A  
HETATM    6  C   UNL     1      -9.675  12.497  67.592  1.00  0.00    -0.196 A  
HETATM    7  C   UNL     1     -10.050  11.151  67.595  1.00  0.00    -0.179 A  
HETATM    8  C   UNL     1     -11.167  10.665  68.261  1.00  0.00    -0.301 A  
HETATM    9  C   UNL     1     -11.979  11.555  68.981  1.00  0.00    -0.377 A  
HETATM   10  N   UNL     1     -11.283   9.310  68.087  1.00  0.00    -0.458 NA 
HETATM   11  C   UNL     1     -11.640  12.914  68.998  1.00  0.00    -0.372 A  
HETATM   12  C   UNL     1     -10.262   8.939  67.332  1.00  0.00    -0.249 A  
HETATM   13  H   UNL     1     -12.015   8.707  68.465  1.00  0.00     0.000 HD 
HETATM   14  N   UNL     1      -9.497  10.039  67.016  1.00  0.00    -0.160 NA 
ENDROOT
BRANCH  12  15
HETATM   15  C   UNL     1      -9.957   7.567  66.903  1.00  0.00    -0.318 A  
HETATM   16  C   UNL     1      -8.777   7.319  66.185  1.00  0.00    -0.170 A  
HETATM   17  C   UNL     1      -8.464   6.035  65.730  1.00  0.00    -0.146 A  
HETATM   18  C   UNL     1      -9.328   4.976  65.991  1.00  0.00    -0.161 A  
HETATM   19  C   UNL     1     -10.498   5.198  66.712  1.00  0.00    -0.306 A  
HETATM   20  C   UNL     1     -10.811   6.484  67.166  1.00  0.00    -0.472 A  
ENDBRANCH  12  15
TORSDOF 1
ENDMDL
MODEL       74
REMARK 921   NORMALIZED FREE ENERGY PREDICTED BY IDOCK:   -4.82 KCAL/MOL
REMARK 922        TOTAL FREE ENERGY PREDICTED BY IDOCK:   -5.24 KCAL/MOL
REMARK 923 INTER-LIGAND FREE ENERGY PREDICTED BY IDOCK:   -5.09 KCAL/MOL
REMARK 924 INTRA-LIGAND FREE ENERGY PREDICTED BY IDOCK:   -0.15 KCAL/MOL
REMARK 927      BINDING AFFINITY PREDICTED BY RF-SCORE:    0.00 PKD
ROOT
HETATM    1  O   UNL     1      -8.208   7.337  74.385  1.00  0.00    -0.152 OA 
HETATM    2  S   UNL     1      -8.637   6.431  73.120  1.00  0.00    -0.118 S  
HETATM    3  O   UNL     1      -9.563   5.435  73.610  1.00  0.00    -0.136 OA 
HETATM    4  O   UNL     1      -7.403   6.052  72.466  1.00  0.00    -0.088 OA 
HETATM    5  C   UNL     1      -9.527   7.543  72.063  1.00  0.00    -0.140 A  
HETATM    6  C   UNL     1      -9.069   7.766  70.757  1.00  0.00    -0.149 A  
HETATM    7  C   UNL     1      -9.813   8.670  69.994  1.00  0.00    -0.179 A  
HETATM    8  C   UNL     1     -10.945   9.322  70.463  1.00  0.00    -0.265 A  
HETATM    9  C   UNL     1     -11.390   9.075  71.771  1.00  0.00    -0.447 A  
HETATM   10  N   UNL     1     -11.464  10.146  69.497  1.00  0.00    -0.395 NA 
HETATM   11  C   UNL     1     -10.667   8.179  72.570  1.00  0.00    -0.419 A  
HETATM   12  C   UNL     1     -10.685  10.018  68.435  1.00  0.00    -0.234 A  
HETATM   13  H   UNL     1     -12.289  10.741  69.581  1.00  0.00     0.000 HD 
HETATM   14  N   UNL     1      -9.670   9.128  68.711  1.00  0.00    -0.159 NA 
ENDROOT
BRANCH  12  15
HETATM   15  C   UNL     1     -10.866  10.693  67.143  1.00  0.00    -0.328 A  
HETATM   16  C   UNL     1     -10.284  10.139  65.992  1.00  0.00    -0.288 A  
HETATM   17  C   UNL     1     -10.405  10.765  64.748  1.00  0.00    -0.380 A  
HETATM   18  C   UNL     1     -11.115  11.957  64.637  1.00  0.00    -0.373 A  
HETATM   19  C   UNL     1     -11.709  12.517  65.764  1.00  0.00    -0.478 A  
HETATM   20  C   UNL     1     -11.587  11.890  67.008  1.00  0.00    -0.365 A  
ENDBRANCH  12  15
TORSDOF 1
ENDMDL
MODEL       75
REMARK 921   NORMALIZED FREE ENERGY PREDICTED BY IDOCK:   -4.81 KCAL/MOL
REMARK 922        TOTAL FREE ENERGY PREDICTED BY IDOCK:   -5.23 KCAL/MOL
REMARK 923 INTER-LIGAND FREE ENERGY PREDICTED BY IDOCK:   -5.09 KCAL/MOL
REMARK 924 INTRA-LIGAND FREE ENERGY PREDICTED BY IDOCK:   -0.14 KCAL/MOL
REMARK 927      BINDING AFFINITY PREDICTED BY RF-SCORE:    0.00 PKD
ROOT
HETATM    1  O   UNL     1     -11.714  13.544  66.691  1.00  0.00    -0.348 OA 
HETATM    2  S   UNL     1     -10.338  13.310  67.502  1.00  0.00    -0.230 S  
HETATM    3  O   UNL     1     -10.032  14.549  68.179  1.00  0.00    -0.211 OA 
HETATM    4  O   UNL     1      -9.415  12.723  66.554  1.00  0.00    -0.250 OA 
HETATM    5  C   UNL     1     -10.750  12.096  68.727  1.00  0.00    -0.219 A  
HETATM    6  C   UNL     1     -10.058  10.876  68.748  1.00  0.00    -0.205 A  
HETATM    7  C   UNL     1     -10.455   9.965  69.730  1.00  0.00    -0.261 A  
HETATM    8  C   UNL     1     -11.461  10.218  70.652  1.00  0.00    -0.349 A  
HETATM    9  C   UNL     1     -12.132  11.450  70.618  1.00  0.00    -0.469 A  
HETATM   10  N   UNL     1     -11.630   9.145  71.490  1.00  0.00    -0.341 NA 
HETATM   11  C   UNL     1     -11.768  12.389  69.643  1.00  0.00    -0.377 A  
HETATM   12  C   UNL     1     -10.748   8.233  71.116  1.00  0.00    -0.226 A  
HETATM   13  H   UNL     1     -12.304   9.067  72.252  1.00  0.00     0.000 HD 
HETATM   14  N   UNL     1     -10.022   8.704  70.045  1.00  0.00    -0.182 NA 
ENDROOT
BRANCH  12  15
HETATM   15  C   UNL     1     -10.542   6.920  71.744  1.00  0.00    -0.235 A  
HETATM   16  C   UNL     1     -11.653   6.205  72.218  1.00  0.00    -0.362 A  
HETATM   17  C   UNL     1     -11.498   4.968  72.850  1.00  0.00    -0.306 A  
HETATM   18  C   UNL     1     -10.227   4.425  73.014  1.00  0.00    -0.225 A  
HETATM   19  C   UNL     1      -9.114   5.113  72.539  1.00  0.00    -0.142 A  
HETATM   20  C   UNL     1      -9.269   6.351  71.907  1.00  0.00    -0.149 A  
ENDBRANCH  12  15
TORSDOF 1
ENDMDL
MODEL       76
REMARK 921   NORMALIZED FREE ENERGY PREDICTED BY IDOCK:   -4.69 KCAL/MOL
REMARK 922        TOTAL FREE ENERGY PREDICTED BY IDOCK:   -5.10 KCAL/MOL
REMARK 923 INTER-LIGAND FREE ENERGY PREDICTED BY IDOCK:   -4.95 KCAL/MOL
REMARK 924 INTRA-LIGAND FREE ENERGY PREDICTED BY IDOCK:   -0.15 KCAL/MOL
REMARK 927      BINDING AFFINITY PREDICTED BY RF-SCORE:    0.00 PKD
ROOT
HETATM    1  O   UNL     1     -11.828  11.474  67.012  1.00  0.00    -0.568 OA 
HETATM    2  S   UNL     1     -11.691  12.665  65.932  1.00  0.00    -0.434 S  
HETATM    3  O   UNL     1     -13.026  12.967  65.467  1.00  0.00    -0.524 OA 
HETATM    4  O   UNL     1     -10.652  12.250  65.013  1.00  0.00    -0.269 OA 
HETATM    5  C   UNL     1     -11.106  14.049  66.873  1.00  0.00    -0.304 A  
HETATM    6  C   UNL     1      -9.887  14.650  66.528  1.00  0.00    -0.288 A  
HETATM    7  C   UNL     1      -9.485  15.721  67.329  1.00  0.00    -0.212 A  
HETATM    8  C   UNL     1     -10.223  16.196  68.404  1.00  0.00    -0.240 A  
HETATM    9  C   UNL     1     -11.445  15.585  68.724  1.00  0.00    -0.363 A  
HETATM   10  N   UNL     1      -9.583  17.252  69.002  1.00  0.00    -0.218 NA 
HETATM   11  C   UNL     1     -11.880  14.503  67.948  1.00  0.00    -0.370 A  
HETATM   12  C   UNL     1      -8.466  17.450  68.321  1.00  0.00    -0.249 A  
HETATM   13  H   UNL     1      -9.905  17.781  69.814  1.00  0.00     0.000 HD 
HETATM   14  N   UNL     1      -8.379  16.530  67.299  1.00  0.00    -0.169 NA 
ENDROOT
BRANCH  12  15
HETATM   15  C   UNL     1      -7.467  18.496  68.581  1.00  0.00    -0.323 A  
HETATM   16  C   UNL     1      -6.141  18.295  68.169  1.00  0.00    -0.178 A  
HETATM   17  C   UNL     1      -5.153  19.250  68.425  1.00  0.00    -0.184 A  
HETATM   18  C   UNL     1      -5.479  20.425  69.095  1.00  0.00    -0.322 A  
HETATM   19  C   UNL     1      -6.792  20.649  69.500  1.00  0.00     0.424 A  
HETATM   20  C   UNL     1      -7.780  19.693  69.245  1.00  0.00    -0.159 A  
ENDBRANCH  12  15
TORSDOF 1
ENDMDL
MODEL       77
REMARK 921   NORMALIZED FREE ENERGY PREDICTED BY IDOCK:   -4.64 KCAL/MOL
REMARK 922        TOTAL FREE ENERGY PREDICTED BY IDOCK:   -5.06 KCAL/MOL
REMARK 923 INTER-LIGAND FREE ENERGY PREDICTED BY IDOCK:   -4.91 KCAL/MOL
REMARK 924 INTRA-LIGAND FREE ENERGY PREDICTED BY IDOCK:   -0.14 KCAL/MOL
REMARK 927      BINDING AFFINITY PREDICTED BY RF-SCORE:    0.00 PKD
ROOT
HETATM    1  O   UNL     1      -8.267   7.852  63.068  1.00  0.00    -0.137 OA 
HETATM    2  S   UNL     1      -7.479   8.788  64.121  1.00  0.00    -0.114 S  
HETATM    3  O   UNL     1      -6.743   9.764  63.349  1.00  0.00    -0.109 OA 
HETATM    4  O   UNL     1      -6.804   7.884  65.028  1.00  0.00    -0.050 OA 
HETATM    5  C   UNL     1      -8.762   9.635  65.004  1.00  0.00    -0.175 A  
HETATM    6  C   UNL     1      -8.853   9.486  66.396  1.00  0.00    -0.164 A  
HETATM    7  C   UNL     1      -9.902  10.168  67.016  1.00  0.00    -0.191 A  
HETATM    8  C   UNL     1     -10.815  10.961  66.333  1.00  0.00    -0.145 A  
HETATM    9  C   UNL     1     -10.697  11.102  64.942  1.00  0.00    -0.318 A  
HETATM   10  N   UNL     1     -11.730  11.503  67.199  1.00  0.00    -0.577 NA 
HETATM   11  C   UNL     1      -9.661  10.428  64.281  1.00  0.00    -0.389 A  
HETATM   12  C   UNL     1     -11.405  11.072  68.407  1.00  0.00    -0.295 A  
HETATM   13  H   UNL     1     -12.508  12.118  66.959  1.00  0.00     0.000 HD 
HETATM   14  N   UNL     1     -10.299  10.255  68.325  1.00  0.00    -0.172 NA 
ENDROOT
BRANCH  12  15
HETATM   15  C   UNL     1     -12.090  11.414  69.661  1.00  0.00    -0.373 A  
HETATM   16  C   UNL     1     -12.461  10.386  70.543  1.00  0.00    -0.403 A  
HETATM   17  C   UNL     1     -13.142  10.665  71.731  1.00  0.00    -0.571 A  
HETATM   18  C   UNL     1     -13.460  11.980  72.057  1.00  0.00    -0.364 A  
HETATM   19  C   UNL     1     -13.091  13.015  71.202  1.00  0.00    -0.185 A  
HETATM   20  C   UNL     1     -12.410  12.735  70.013  1.00  0.00    -0.182 A  
ENDBRANCH  12  15
TORSDOF 1
ENDMDL
MODEL       78
REMARK 921   NORMALIZED FREE ENERGY PREDICTED BY IDOCK:   -4.64 KCAL/MOL
REMARK 922        TOTAL FREE ENERGY PREDICTED BY IDOCK:   -5.05 KCAL/MOL
REMARK 923 INTER-LIGAND FREE ENERGY PREDICTED BY IDOCK:   -4.91 KCAL/MOL
REMARK 924 INTRA-LIGAND FREE ENERGY PREDICTED BY IDOCK:   -0.14 KCAL/MOL
REMARK 927      BINDING AFFINITY PREDICTED BY RF-SCORE:    0.00 PKD
ROOT
HETATM    1  O   UNL     1      -7.261   4.442  66.359  1.00  0.00    -0.073 OA 
HETATM    2  S   UNL     1      -8.001   5.229  65.160  1.00  0.00    -0.114 S  
HETATM    3  O   UNL     1      -8.871   4.278  64.505  1.00  0.00    -0.131 OA 
HETATM    4  O   UNL     1      -6.955   5.916  64.431  1.00  0.00    -0.048 OA 
HETATM    5  C   UNL     1      -9.013   6.432  65.980  1.00  0.00    -0.130 A  
HETATM    6  C   UNL     1      -8.819   7.795  65.708  1.00  0.00    -0.141 A  
HETATM    7  C   UNL     1      -9.642   8.680  66.409  1.00  0.00    -0.247 A  
HETATM    8  C   UNL     1     -10.608   8.276  67.320  1.00  0.00    -0.265 A  
HETATM    9  C   UNL     1     -10.789   6.906  67.568  1.00  0.00    -0.363 A  
HETATM   10  N   UNL     1     -11.258   9.361  67.851  1.00  0.00    -0.467 NA 
HETATM   11  C   UNL     1      -9.980   5.985  66.889  1.00  0.00    -0.207 A  
HETATM   12  C   UNL     1     -10.724  10.432  67.287  1.00  0.00    -0.273 A  
HETATM   13  H   UNL     1     -12.006   9.344  68.544  1.00  0.00     0.000 HD 
HETATM   14  N   UNL     1      -9.736  10.047  66.407  1.00  0.00    -0.198 NA 
ENDROOT
BRANCH  12  15
HETATM   15  C   UNL     1     -11.121  11.826  67.528  1.00  0.00    -0.330 A  
HETATM   16  C   UNL     1     -11.676  12.573  66.477  1.00  0.00    -0.454 A  
HETATM   17  C   UNL     1     -12.038  13.911  66.655  1.00  0.00    -0.485 A  
HETATM   18  C   UNL     1     -11.853  14.522  67.892  1.00  0.00    -0.370 A  
HETATM   19  C   UNL     1     -11.316  13.795  68.950  1.00  0.00    -0.328 A  
HETATM   20  C   UNL     1     -10.953  12.456  68.771  1.00  0.00    -0.287 A  
ENDBRANCH  12  15
TORSDOF 1
ENDMDL
MODEL       79
REMARK 921   NORMALIZED FREE ENERGY PREDICTED BY IDOCK:   -4.62 KCAL/MOL
REMARK 922        TOTAL FREE ENERGY PREDICTED BY IDOCK:   -5.03 KCAL/MOL
REMARK 923 INTER-LIGAND FREE ENERGY PREDICTED BY IDOCK:   -4.90 KCAL/MOL
REMARK 924 INTRA-LIGAND FREE ENERGY PREDICTED BY IDOCK:   -0.14 KCAL/MOL
REMARK 927      BINDING AFFINITY PREDICTED BY RF-SCORE:    0.00 PKD
ROOT
HETATM    1  O   UNL     1     -10.231  16.831  67.536  1.00  0.00    -0.273 OA 
HETATM    2  S   UNL     1      -9.734  16.127  66.172  1.00  0.00    -0.346 S  
HETATM    3  O   UNL     1      -8.501  16.776  65.788  1.00  0.00    -0.472 OA 
HETATM    4  O   UNL     1     -10.882  16.113  65.291  1.00  0.00    -0.383 OA 
HETATM    5  C   UNL     1      -9.357  14.460  66.648  1.00  0.00    -0.278 A  
HETATM    6  C   UNL     1     -10.033  13.399  66.030  1.00  0.00    -0.300 A  
HETATM    7  C   UNL     1      -9.695  12.118  66.474  1.00  0.00    -0.223 A  
HETATM    8  C   UNL     1      -8.748  11.870  67.457  1.00  0.00    -0.163 A  
HETATM    9  C   UNL     1      -8.077  12.948  68.054  1.00  0.00    -0.159 A  
HETATM   10  N   UNL     1      -8.626  10.523  67.685  1.00  0.00    -0.118 NA 
HETATM   11  C   UNL     1      -8.392  14.250  67.641  1.00  0.00    -0.187 A  
HETATM   12  C   UNL     1      -9.472   9.925  66.862  1.00  0.00    -0.163 A  
HETATM   13  H   UNL     1      -8.006  10.071  68.358  1.00  0.00     0.000 HD 
HETATM   14  N   UNL     1     -10.137  10.872  66.115  1.00  0.00    -0.232 NA 
ENDROOT
BRANCH  12  15
HETATM   15  C   UNL     1      -9.672   8.475  66.730  1.00  0.00    -0.303 A  
HETATM   16  C   UNL     1      -8.741   7.717  66.003  1.00  0.00    -0.184 A  
HETATM   17  C   UNL     1      -8.910   6.341  65.827  1.00  0.00    -0.122 A  
HETATM   18  C   UNL     1     -10.015   5.700  66.379  1.00  0.00    -0.189 A  
HETATM   19  C   UNL     1     -10.944   6.432  67.114  1.00  0.00    -0.476 A  
HETATM   20  C   UNL     1     -10.774   7.809  67.290  1.00  0.00    -0.326 A  
ENDBRANCH  12  15
TORSDOF 1
ENDMDL
MODEL       80
REMARK 921   NORMALIZED FREE ENERGY PREDICTED BY IDOCK:   -4.61 KCAL/MOL
REMARK 922        TOTAL FREE ENERGY PREDICTED BY IDOCK:   -5.02 KCAL/MOL
REMARK 923 INTER-LIGAND FREE ENERGY PREDICTED BY IDOCK:   -4.87 KCAL/MOL
REMARK 924 INTRA-LIGAND FREE ENERGY PREDICTED BY IDOCK:   -0.15 KCAL/MOL
REMARK 927      BINDING AFFINITY PREDICTED BY RF-SCORE:    0.00 PKD
ROOT
HETATM    1  O   UNL     1      -8.829   6.411  68.817  1.00  0.00    -0.125 OA 
HETATM    2  S   UNL     1      -9.999   6.908  67.823  1.00  0.00    -0.158 S  
HETATM    3  O   UNL     1     -11.198   6.191  68.192  1.00  0.00    -0.314 OA 
HETATM    4  O   UNL     1      -9.451   6.816  66.486  1.00  0.00    -0.164 OA 
HETATM    5  C   UNL     1     -10.228   8.618  68.233  1.00  0.00    -0.198 A  
HETATM    6  C   UNL     1     -10.044   9.593  67.242  1.00  0.00    -0.267 A  
HETATM    7  C   UNL     1     -10.223  10.918  67.648  1.00  0.00    -0.183 A  
HETATM    8  C   UNL     1     -10.569  11.286  68.941  1.00  0.00    -0.207 A  
HETATM    9  C   UNL     1     -10.757  10.291  69.913  1.00  0.00    -0.344 A  
HETATM   10  N   UNL     1     -10.675  12.650  69.045  1.00  0.00    -0.411 NA 
HETATM   11  C   UNL     1     -10.581   8.950  69.546  1.00  0.00    -0.233 A  
HETATM   12  C   UNL     1     -10.409  13.140  67.845  1.00  0.00    -0.231 A  
HETATM   13  H   UNL     1     -10.912  13.181  69.883  1.00  0.00     0.000 HD 
HETATM   14  N   UNL     1     -10.127  12.108  66.976  1.00  0.00    -0.203 NA 
ENDROOT
BRANCH  12  15
HETATM   15  C   UNL     1     -10.425  14.560  67.467  1.00  0.00    -0.253 A  
HETATM   16  C   UNL     1     -10.636  15.531  68.459  1.00  0.00    -0.246 A  
HETATM   17  C   UNL     1     -10.690  16.890  68.138  1.00  0.00    -0.375 A  
HETATM   18  C   UNL     1     -10.531  17.299  66.817  1.00  0.00    -0.261 A  
HETATM   19  C   UNL     1     -10.309  16.353  65.821  1.00  0.00    -0.388 A  
HETATM   20  C   UNL     1     -10.255  14.993  66.143  1.00  0.00    -0.311 A  
ENDBRANCH  12  15
TORSDOF 1
ENDMDL
MODEL       81
REMARK 921   NORMALIZED FREE ENERGY PREDICTED BY IDOCK:   -4.56 KCAL/MOL
REMARK 922        TOTAL FREE ENERGY PREDICTED BY IDOCK:   -4.97 KCAL/MOL
REMARK 923 INTER-LIGAND FREE ENERGY PREDICTED BY IDOCK:   -4.82 KCAL/MOL
REMARK 924 INTRA-LIGAND FREE ENERGY PREDICTED BY IDOCK:   -0.15 KCAL/MOL
REMARK 927      BINDING AFFINITY PREDICTED BY RF-SCORE:    0.00 PKD
ROOT
HETATM    1  O   UNL     1      -7.640   4.450  68.195  1.00  0.00    -0.068 OA 
HETATM    2  S   UNL     1      -8.785   4.656  67.076  1.00  0.00    -0.104 S  
HETATM    3  O   UNL     1      -9.774   3.624  67.292  1.00  0.00    -0.198 OA 
HETATM    4  O   UNL     1      -8.088   4.776  65.813  1.00  0.00    -0.108 OA 
HETATM    5  C   UNL     1      -9.518   6.220  67.478  1.00  0.00    -0.112 A  
HETATM    6  C   UNL     1      -9.501   7.252  66.528  1.00  0.00    -0.218 A  
HETATM    7  C   UNL     1     -10.080   8.459  66.927  1.00  0.00    -0.294 A  
HETATM    8  C   UNL     1     -10.654   8.661  68.175  1.00  0.00    -0.133 A  
HETATM    9  C   UNL     1     -10.668   7.610  69.105  1.00  0.00    -0.153 A  
HETATM   10  N   UNL     1     -11.141   9.939  68.283  1.00  0.00    -0.478 NA 
HETATM   11  C   UNL     1     -10.091   6.384  68.745  1.00  0.00    -0.182 A  
HETATM   12  C   UNL     1     -10.889  10.536  67.130  1.00  0.00    -0.259 A  
HETATM   13  H   UNL     1     -11.606  10.348  69.094  1.00  0.00     0.000 HD 
HETATM   14  N   UNL     1     -10.241   9.659  66.287  1.00  0.00    -0.246 NA 
ENDROOT
BRANCH  12  15
HETATM   15  C   UNL     1     -11.253  11.913  66.771  1.00  0.00    -0.384 A  
HETATM   16  C   UNL     1     -11.152  12.323  65.432  1.00  0.00    -0.353 A  
HETATM   17  C   UNL     1     -11.458  13.633  65.053  1.00  0.00    -0.338 A  
HETATM   18  C   UNL     1     -11.874  14.554  66.010  1.00  0.00    -0.339 A  
HETATM   19  C   UNL     1     -11.992  14.164  67.341  1.00  0.00    -0.439 A  
HETATM   20  C   UNL     1     -11.685  12.854  67.720  1.00  0.00    -0.412 A  
ENDBRANCH  12  15
TORSDOF 1
ENDMDL
MODEL       82
REMARK 921   NORMALIZED FREE ENERGY PREDICTED BY IDOCK:   -4.56 KCAL/MOL
REMARK 922        TOTAL FREE ENERGY PREDICTED BY IDOCK:   -4.97 KCAL/MOL
REMARK 923 INTER-LIGAND FREE ENERGY PREDICTED BY IDOCK:   -4.81 KCAL/MOL
REMARK 924 INTRA-LIGAND FREE ENERGY PREDICTED BY IDOCK:   -0.15 KCAL/MOL
REMARK 927      BINDING AFFINITY PREDICTED BY RF-SCORE:    0.00 PKD
ROOT
HETATM    1  O   UNL     1     -10.828  14.565  64.587  1.00  0.00    -0.391 OA 
HETATM    2  S   UNL     1     -11.819  13.299  64.734  1.00  0.00    -0.395 S  
HETATM    3  O   UNL     1     -12.724  13.339  63.607  1.00  0.00    -0.704 OA 
HETATM    4  O   UNL     1     -12.312  13.338  66.095  1.00  0.00    -0.412 OA 
HETATM    5  C   UNL     1     -10.762  11.888  64.547  1.00  0.00    -0.312 A  
HETATM    6  C   UNL     1     -10.676  10.950  65.586  1.00  0.00    -0.178 A  
HETATM    7  C   UNL     1      -9.807   9.877  65.370  1.00  0.00    -0.313 A  
HETATM    8  C   UNL     1      -9.064   9.711  64.210  1.00  0.00    -0.218 A  
HETATM    9  C   UNL     1      -9.175  10.657  63.180  1.00  0.00    -0.308 A  
HETATM   10  N   UNL     1      -8.304   8.571  64.281  1.00  0.00    -0.295 NA 
HETATM   11  C   UNL     1     -10.032  11.752  63.360  1.00  0.00    -0.446 A  
HETATM   12  C   UNL     1      -8.560   8.021  65.456  1.00  0.00    -0.135 A  
HETATM   13  H   UNL     1      -7.665   8.219  63.567  1.00  0.00     0.000 HD 
HETATM   14  N   UNL     1      -9.470   8.796  66.142  1.00  0.00    -0.236 NA 
ENDROOT
BRANCH  12  15
HETATM   15  C   UNL     1      -7.992   6.765  65.966  1.00  0.00    -0.109 A  
HETATM   16  C   UNL     1      -8.236   6.393  67.297  1.00  0.00    -0.113 A  
HETATM   17  C   UNL     1      -7.689   5.223  67.832  1.00  0.00    -0.088 A  
HETATM   18  C   UNL     1      -6.890   4.405  67.039  1.00  0.00    -0.052 A  
HETATM   19  C   UNL     1      -6.645   4.750  65.713  1.00  0.00    -0.044 A  
HETATM   20  C   UNL     1      -7.193   5.921  65.179  1.00  0.00    -0.066 A  
ENDBRANCH  12  15
TORSDOF 1
ENDMDL
MODEL       83
REMARK 921   NORMALIZED FREE ENERGY PREDICTED BY IDOCK:   -4.56 KCAL/MOL
REMARK 922        TOTAL FREE ENERGY PREDICTED BY IDOCK:   -4.97 KCAL/MOL
REMARK 923 INTER-LIGAND FREE ENERGY PREDICTED BY IDOCK:   -4.82 KCAL/MOL
REMARK 924 INTRA-LIGAND FREE ENERGY PREDICTED BY IDOCK:   -0.15 KCAL/MOL
REMARK 927      BINDING AFFINITY PREDICTED BY RF-SCORE:    0.00 PKD
ROOT
HETATM    1  O   UNL     1     -12.015  15.336  67.848  1.00  0.00    -0.234 OA 
HETATM    2  S   UNL     1     -10.633  14.887  68.552  1.00  0.00    -0.253 S  
HETATM    3  O   UNL     1     -10.454  15.737  69.707  1.00  0.00    -0.274 OA 
HETATM    4  O   UNL     1      -9.646  14.839  67.494  1.00  0.00    -0.205 OA 
HETATM    5  C   UNL     1     -10.944  13.236  69.121  1.00  0.00    -0.161 A  
HETATM    6  C   UNL     1     -10.140  12.186  68.655  1.00  0.00    -0.161 A  
HETATM    7  C   UNL     1     -10.461  10.913  69.134  1.00  0.00    -0.221 A  
HETATM    8  C   UNL     1     -11.498  10.664  70.022  1.00  0.00    -0.325 A  
HETATM    9  C   UNL     1     -12.283  11.734  70.481  1.00  0.00    -0.438 A  
HETATM   10  N   UNL     1     -11.576   9.326  70.314  1.00  0.00    -0.440 NA 
HETATM   11  C   UNL     1     -11.997  13.026  70.019  1.00  0.00    -0.383 A  
HETATM   12  C   UNL     1     -10.607   8.736  69.633  1.00  0.00    -0.219 A  
HETATM   13  H   UNL     1     -12.249   8.875  70.934  1.00  0.00     0.000 HD 
HETATM   14  N   UNL     1      -9.915   9.678  68.904  1.00  0.00    -0.172 NA 
ENDROOT
BRANCH  12  15
HETATM   15  C   UNL     1     -10.286   7.302  69.652  1.00  0.00    -0.214 A  
HETATM   16  C   UNL     1     -10.786   6.501  70.690  1.00  0.00    -0.297 A  
HETATM   17  C   UNL     1     -10.478   5.140  70.764  1.00  0.00    -0.263 A  
HETATM   18  C   UNL     1      -9.666   4.557  69.795  1.00  0.00    -0.285 A  
HETATM   19  C   UNL     1      -9.171   5.333  68.750  1.00  0.00    -0.145 A  
HETATM   20  C   UNL     1      -9.478   6.695  68.678  1.00  0.00    -0.128 A  
ENDBRANCH  12  15
TORSDOF 1
ENDMDL
MODEL       84
REMARK 921   NORMALIZED FREE ENERGY PREDICTED BY IDOCK:   -4.55 KCAL/MOL
REMARK 922        TOTAL FREE ENERGY PREDICTED BY IDOCK:   -4.95 KCAL/MOL
REMARK 923 INTER-LIGAND FREE ENERGY PREDICTED BY IDOCK:   -4.82 KCAL/MOL
REMARK 924 INTRA-LIGAND FREE ENERGY PREDICTED BY IDOCK:   -0.14 KCAL/MOL
REMARK 927      BINDING AFFINITY PREDICTED BY RF-SCORE:    0.00 PKD
ROOT
HETATM    1  O   UNL     1      -9.346  16.665  69.154  1.00  0.00    -0.250 OA 
HETATM    2  S   UNL     1     -10.655  16.036  68.450  1.00  0.00    -0.285 S  
HETATM    3  O   UNL     1     -10.839  16.737  67.199  1.00  0.00    -0.236 OA 
HETATM    4  O   UNL     1     -11.687  16.028  69.465  1.00  0.00    -0.325 OA 
HETATM    5  C   UNL     1     -10.198  14.362  68.084  1.00  0.00    -0.232 A  
HETATM    6  C   UNL     1     -10.945  13.310  68.632  1.00  0.00    -0.294 A  
HETATM    7  C   UNL     1     -10.510  12.021  68.313  1.00  0.00    -0.204 A  
HETATM    8  C   UNL     1      -9.415  11.757  67.502  1.00  0.00    -0.174 A  
HETATM    9  C   UNL     1      -8.689  12.828  66.957  1.00  0.00    -0.197 A  
HETATM   10  N   UNL     1      -9.226  10.406  67.366  1.00  0.00    -0.142 NA 
HETATM   11  C   UNL     1      -9.090  14.137  67.258  1.00  0.00    -0.218 A  
HETATM   12  C   UNL     1     -10.182   9.820  68.069  1.00  0.00    -0.190 A  
HETATM   13  H   UNL     1      -8.493   9.943  66.829  1.00  0.00     0.000 HD 
HETATM   14  N   UNL     1     -10.976  10.780  68.659  1.00  0.00    -0.220 NA 
ENDROOT
BRANCH  12  15
HETATM   15  C   UNL     1     -10.398   8.373  68.199  1.00  0.00    -0.255 A  
HETATM   16  C   UNL     1     -10.576   7.599  67.042  1.00  0.00    -0.406 A  
HETATM   17  C   UNL     1     -10.815   6.225  67.122  1.00  0.00    -0.460 A  
HETATM   18  C   UNL     1     -10.876   5.601  68.365  1.00  0.00    -0.161 A  
HETATM   19  C   UNL     1     -10.690   6.348  69.524  1.00  0.00    -0.347 A  
HETATM   20  C   UNL     1     -10.451   7.724  69.443  1.00  0.00    -0.221 A  
ENDBRANCH  12  15
TORSDOF 1
ENDMDL
MODEL       85
REMARK 921   NORMALIZED FREE ENERGY PREDICTED BY IDOCK:   -4.55 KCAL/MOL
REMARK 922        TOTAL FREE ENERGY PREDICTED BY IDOCK:   -4.95 KCAL/MOL
REMARK 923 INTER-LIGAND FREE ENERGY PREDICTED BY IDOCK:   -4.82 KCAL/MOL
REMARK 924 INTRA-LIGAND FREE ENERGY PREDICTED BY IDOCK:   -0.14 KCAL/MOL
REMARK 927      BINDING AFFINITY PREDICTED BY RF-SCORE:    0.00 PKD
ROOT
HETATM    1  O   UNL     1     -10.776  20.344  67.764  1.00  0.00    -0.087 OA 
HETATM    2  S   UNL     1      -9.371  19.571  67.949  1.00  0.00    -0.345 S  
HETATM    3  O   UNL     1      -8.945  19.792  69.313  1.00  0.00    -0.148 OA 
HETATM    4  O   UNL     1      -8.546  19.973  66.830  1.00  0.00    -0.313 OA 
HETATM    5  C   UNL     1      -9.785  17.856  67.769  1.00  0.00    -0.283 A  
HETATM    6  C   UNL     1      -9.173  17.103  66.757  1.00  0.00    -0.270 A  
HETATM    7  C   UNL     1      -9.567  15.766  66.667  1.00  0.00    -0.247 A  
HETATM    8  C   UNL     1     -10.497  15.180  67.514  1.00  0.00    -0.258 A  
HETATM    9  C   UNL     1     -11.089  15.951  68.526  1.00  0.00    -0.340 A  
HETATM   10  N   UNL     1     -10.684  13.860  67.189  1.00  0.00    -0.281 NA 
HETATM   11  C   UNL     1     -10.725  17.299  68.645  1.00  0.00    -0.280 A  
HETATM   12  C   UNL     1      -9.886  13.609  66.164  1.00  0.00    -0.293 A  
HETATM   13  H   UNL     1     -11.314  13.202  67.649  1.00  0.00     0.000 HD 
HETATM   14  N   UNL     1      -9.197  14.752  65.823  1.00  0.00    -0.076 NA 
ENDROOT
BRANCH  12  15
HETATM   15  C   UNL     1      -9.727  12.313  65.489  1.00  0.00    -0.174 A  
HETATM   16  C   UNL     1      -9.027  11.284  66.138  1.00  0.00    -0.210 A  
HETATM   17  C   UNL     1      -8.826  10.047  65.519  1.00  0.00    -0.189 A  
HETATM   18  C   UNL     1      -9.325   9.820  64.240  1.00  0.00    -0.253 A  
HETATM   19  C   UNL     1     -10.033  10.824  63.585  1.00  0.00    -0.405 A  
HETATM   20  C   UNL     1     -10.234  12.061  64.204  1.00  0.00    -0.367 A  
ENDBRANCH  12  15
TORSDOF 1
ENDMDL
MODEL       86
REMARK 921   NORMALIZED FREE ENERGY PREDICTED BY IDOCK:   -4.53 KCAL/MOL
REMARK 922        TOTAL FREE ENERGY PREDICTED BY IDOCK:   -4.94 KCAL/MOL
REMARK 923 INTER-LIGAND FREE ENERGY PREDICTED BY IDOCK:   -4.80 KCAL/MOL
REMARK 924 INTRA-LIGAND FREE ENERGY PREDICTED BY IDOCK:   -0.13 KCAL/MOL
REMARK 927      BINDING AFFINITY PREDICTED BY RF-SCORE:    0.00 PKD
ROOT
HETATM    1  O   UNL     1     -11.107  17.396  64.798  1.00  0.00    -0.973 OA 
HETATM    2  S   UNL     1     -10.235  17.416  66.156  1.00  0.00    -0.279 S  
HETATM    3  O   UNL     1     -10.948  18.246  67.101  1.00  0.00    -0.288 OA 
HETATM    4  O   UNL     1      -8.881  17.729  65.753  1.00  0.00    -0.501 OA 
HETATM    5  C   UNL     1     -10.288  15.742  66.738  1.00  0.00    -0.293 A  
HETATM    6  C   UNL     1      -9.090  15.033  66.904  1.00  0.00    -0.269 A  
HETATM    7  C   UNL     1      -9.216  13.714  67.347  1.00  0.00    -0.222 A  
HETATM    8  C   UNL     1     -10.434  13.109  67.624  1.00  0.00    -0.221 A  
HETATM    9  C   UNL     1     -11.620  13.843  67.461  1.00  0.00    -0.392 A  
HETATM   10  N   UNL     1     -10.249  11.815  68.039  1.00  0.00    -0.187 NA 
HETATM   11  C   UNL     1     -11.536  15.168  67.012  1.00  0.00    -0.230 A  
HETATM   12  C   UNL     1      -8.944  11.601  68.032  1.00  0.00    -0.176 A  
HETATM   13  H   UNL     1     -10.976  11.149  68.302  1.00  0.00     0.000 HD 
HETATM   14  N   UNL     1      -8.291  12.739  67.612  1.00  0.00    -0.162 NA 
ENDROOT
BRANCH  12  15
HETATM   15  C   UNL     1      -8.269  10.357  68.428  1.00  0.00    -0.114 A  
HETATM   16  C   UNL     1      -8.095  10.075  69.792  1.00  0.00    -0.188 A  
HETATM   17  C   UNL     1      -7.431   8.920  70.212  1.00  0.00    -0.074 A  
HETATM   18  C   UNL     1      -6.933   8.024  69.270  1.00  0.00    -0.056 A  
HETATM   19  C   UNL     1      -7.105   8.279  67.913  1.00  0.00    -0.083 A  
HETATM   20  C   UNL     1      -7.769   9.436  67.494  1.00  0.00    -0.091 A  
ENDBRANCH  12  15
TORSDOF 1
ENDMDL
MODEL       87
REMARK 921   NORMALIZED FREE ENERGY PREDICTED BY IDOCK:   -4.45 KCAL/MOL
REMARK 922        TOTAL FREE ENERGY PREDICTED BY IDOCK:   -4.85 KCAL/MOL
REMARK 923 INTER-LIGAND FREE ENERGY PREDICTED BY IDOCK:   -4.71 KCAL/MOL
REMARK 924 INTRA-LIGAND FREE ENERGY PREDICTED BY IDOCK:   -0.14 KCAL/MOL
REMARK 927      BINDING AFFINITY PREDICTED BY RF-SCORE:    0.00 PKD
ROOT
HETATM    1  O   UNL     1      -9.503   9.447  62.334  1.00  0.00    -0.080 OA 
HETATM    2  S   UNL     1      -8.291   9.385  63.398  1.00  0.00    -0.201 S  
HETATM    3  O   UNL     1      -7.507  10.585  63.214  1.00  0.00    -0.101 OA 
HETATM    4  O   UNL     1      -7.701   8.072  63.252  1.00  0.00    -0.128 OA 
HETATM    5  C   UNL     1      -9.088   9.482  64.980  1.00  0.00    -0.228 A  
HETATM    6  C   UNL     1      -8.916   8.439  65.902  1.00  0.00    -0.223 A  
HETATM    7  C   UNL     1      -9.592   8.580  67.116  1.00  0.00    -0.178 A  
HETATM    8  C   UNL     1     -10.388   9.672  67.431  1.00  0.00    -0.247 A  
HETATM    9  C   UNL     1     -10.537  10.708  66.496  1.00  0.00    -0.257 A  
HETATM   10  N   UNL     1     -10.922   9.536  68.687  1.00  0.00    -0.435 NA 
HETATM   11  C   UNL     1      -9.880  10.602  65.263  1.00  0.00    -0.334 A  
HETATM   12  C   UNL     1     -10.473   8.387  69.165  1.00  0.00    -0.206 A  
HETATM   13  H   UNL     1     -11.544  10.193  69.160  1.00  0.00     0.000 HD 
HETATM   14  N   UNL     1      -9.663   7.782  68.228  1.00  0.00    -0.155 NA 
ENDROOT
BRANCH  12  15
HETATM   15  C   UNL     1     -10.760   7.831  70.494  1.00  0.00    -0.238 A  
HETATM   16  C   UNL     1     -10.265   8.485  71.633  1.00  0.00    -0.336 A  
HETATM   17  C   UNL     1     -10.489   7.973  72.914  1.00  0.00    -0.402 A  
HETATM   18  C   UNL     1     -11.216   6.797  73.075  1.00  0.00    -0.193 A  
HETATM   19  C   UNL     1     -11.726   6.140  71.959  1.00  0.00    -0.354 A  
HETATM   20  C   UNL     1     -11.501   6.653  70.677  1.00  0.00    -0.420 A  
ENDBRANCH  12  15
TORSDOF 1
ENDMDL
MODEL       88
REMARK 921   NORMALIZED FREE ENERGY PREDICTED BY IDOCK:   -4.42 KCAL/MOL
REMARK 922        TOTAL FREE ENERGY PREDICTED BY IDOCK:   -4.82 KCAL/MOL
REMARK 923 INTER-LIGAND FREE ENERGY PREDICTED BY IDOCK:   -4.67 KCAL/MOL
REMARK 924 INTRA-LIGAND FREE ENERGY PREDICTED BY IDOCK:   -0.15 KCAL/MOL
REMARK 927      BINDING AFFINITY PREDICTED BY RF-SCORE:    0.00 PKD
ROOT
HETATM    1  O   UNL     1      -9.457  15.634  66.104  1.00  0.00    -0.286 OA 
HETATM    2  S   UNL     1     -10.881  15.113  66.656  1.00  0.00    -0.315 S  
HETATM    3  O   UNL     1     -11.863  15.414  65.639  1.00  0.00     0.029 OA 
HETATM    4  O   UNL     1     -11.003  15.640  67.998  1.00  0.00    -0.296 OA 
HETATM    5  C   UNL     1     -10.700  13.351  66.746  1.00  0.00    -0.277 A  
HETATM    6  C   UNL     1     -10.866  12.704  67.979  1.00  0.00    -0.249 A  
HETATM    7  C   UNL     1     -10.688  11.319  67.971  1.00  0.00    -0.203 A  
HETATM    8  C   UNL     1     -10.373  10.590  66.833  1.00  0.00    -0.239 A  
HETATM    9  C   UNL     1     -10.222  11.258  65.608  1.00  0.00    -0.304 A  
HETATM   10  N   UNL     1     -10.261   9.255  67.127  1.00  0.00    -0.238 NA 
HETATM   11  C   UNL     1     -10.387  12.650  65.575  1.00  0.00    -0.305 A  
HETATM   12  C   UNL     1     -10.504   9.134  68.422  1.00  0.00    -0.199 A  
HETATM   13  H   UNL     1     -10.034   8.504  66.475  1.00  0.00     0.000 HD 
HETATM   14  N   UNL     1     -10.764  10.375  68.962  1.00  0.00    -0.213 NA 
ENDROOT
BRANCH  12  15
HETATM   15  C   UNL     1     -10.521   7.879  69.186  1.00  0.00    -0.218 A  
HETATM   16  C   UNL     1     -10.038   6.705  68.586  1.00  0.00    -0.169 A  
HETATM   17  C   UNL     1     -10.065   5.484  69.265  1.00  0.00    -0.293 A  
HETATM   18  C   UNL     1     -10.574   5.419  70.559  1.00  0.00    -0.312 A  
HETATM   19  C   UNL     1     -11.046   6.575  71.176  1.00  0.00    -0.332 A  
HETATM   20  C   UNL     1     -11.019   7.796  70.495  1.00  0.00    -0.251 A  
ENDBRANCH  12  15
TORSDOF 1
ENDMDL
MODEL       89
REMARK 921   NORMALIZED FREE ENERGY PREDICTED BY IDOCK:   -4.41 KCAL/MOL
REMARK 922        TOTAL FREE ENERGY PREDICTED BY IDOCK:   -4.81 KCAL/MOL
REMARK 923 INTER-LIGAND FREE ENERGY PREDICTED BY IDOCK:   -4.67 KCAL/MOL
REMARK 924 INTRA-LIGAND FREE ENERGY PREDICTED BY IDOCK:   -0.15 KCAL/MOL
REMARK 927      BINDING AFFINITY PREDICTED BY RF-SCORE:    0.00 PKD
ROOT
HETATM    1  O   UNL     1      -9.909   1.615  71.934  1.00  0.00    -0.113 OA 
HETATM    2  S   UNL     1      -9.052   2.786  72.641  1.00  0.00    -0.088 S  
HETATM    3  O   UNL     1      -7.658   2.503  72.381  1.00  0.00    -0.049 OA 
HETATM    4  O   UNL     1      -9.558   2.887  73.993  1.00  0.00    -0.087 OA 
HETATM    5  C   UNL     1      -9.494   4.254  71.751  1.00  0.00    -0.145 A  
HETATM    6  C   UNL     1     -10.070   5.330  72.442  1.00  0.00    -0.227 A  
HETATM    7  C   UNL     1     -10.409   6.443  71.667  1.00  0.00    -0.205 A  
HETATM    8  C   UNL     1     -10.197   6.519  70.298  1.00  0.00    -0.192 A  
HETATM    9  C   UNL     1      -9.611   5.433  69.630  1.00  0.00    -0.217 A  
HETATM   10  N   UNL     1     -10.627   7.726  69.808  1.00  0.00    -0.240 NA 
HETATM   11  C   UNL     1      -9.262   4.296  70.371  1.00  0.00    -0.191 A  
HETATM   12  C   UNL     1     -11.096   8.406  70.842  1.00  0.00    -0.254 A  
HETATM   13  H   UNL     1     -10.593   8.038  68.837  1.00  0.00     0.000 HD 
HETATM   14  N   UNL     1     -10.978   7.647  71.986  1.00  0.00    -0.236 NA 
ENDROOT
BRANCH  12  15
HETATM   15  C   UNL     1     -11.644   9.769  70.805  1.00  0.00    -0.417 A  
HETATM   16  C   UNL     1     -11.096  10.704  69.912  1.00  0.00    -0.364 A  
HETATM   17  C   UNL     1     -11.566  12.019  69.866  1.00  0.00    -0.315 A  
HETATM   18  C   UNL     1     -12.595  12.420  70.713  1.00  0.00    -0.298 A  
HETATM   19  C   UNL     1     -13.159  11.505  71.597  1.00  0.00    -0.478 A  
HETATM   20  C   UNL     1     -12.688  10.189  71.643  1.00  0.00    -0.549 A  
ENDBRANCH  12  15
TORSDOF 1
ENDMDL
MODEL       90
REMARK 921   NORMALIZED FREE ENERGY PREDICTED BY IDOCK:   -4.38 KCAL/MOL
REMARK 922        TOTAL FREE ENERGY PREDICTED BY IDOCK:   -4.77 KCAL/MOL
REMARK 923 INTER-LIGAND FREE ENERGY PREDICTED BY IDOCK:   -4.63 KCAL/MOL
REMARK 924 INTRA-LIGAND FREE ENERGY PREDICTED BY IDOCK:   -0.14 KCAL/MOL
REMARK 927      BINDING AFFINITY PREDICTED BY RF-SCORE:    0.00 PKD
ROOT
HETATM    1  O   UNL     1      -6.416  19.405  66.709  1.00  0.00    -0.189 OA 
HETATM    2  S   UNL     1      -7.212  18.756  67.954  1.00  0.00    -0.242 S  
HETATM    3  O   UNL     1      -8.193  19.729  68.379  1.00  0.00    -0.321 OA 
HETATM    4  O   UNL     1      -6.197  18.267  68.863  1.00  0.00    -0.206 OA 
HETATM    5  C   UNL     1      -8.071  17.371  67.255  1.00  0.00    -0.201 A  
HETATM    6  C   UNL     1      -7.821  16.084  67.752  1.00  0.00    -0.155 A  
HETATM    7  C   UNL     1      -8.522  15.045  67.136  1.00  0.00    -0.218 A  
HETATM    8  C   UNL     1      -9.424  15.234  66.098  1.00  0.00    -0.326 A  
HETATM    9  C   UNL     1      -9.665  16.533  65.624  1.00  0.00    -0.124 A  
HETATM   10  N   UNL     1      -9.957  14.036  65.695  1.00  0.00    -0.432 NA 
HETATM   11  C   UNL     1      -8.977  17.603  66.213  1.00  0.00    -0.211 A  
HETATM   12  C   UNL     1      -9.412  13.106  66.461  1.00  0.00    -0.243 A  
HETATM   13  H   UNL     1     -10.639  13.893  64.950  1.00  0.00     0.000 HD 
HETATM   14  N   UNL     1      -8.533  13.690  67.345  1.00  0.00    -0.191 NA 
ENDROOT
BRANCH  12  15
HETATM   15  C   UNL     1      -9.701  11.665  66.410  1.00  0.00    -0.236 A  
HETATM   16  C   UNL     1     -10.200  11.026  67.556  1.00  0.00    -0.219 A  
HETATM   17  C   UNL     1     -10.459   9.652  67.561  1.00  0.00    -0.321 A  
HETATM   18  C   UNL     1     -10.224   8.897  66.415  1.00  0.00    -0.273 A  
HETATM   19  C   UNL     1      -9.741   9.515  65.265  1.00  0.00    -0.268 A  
HETATM   20  C   UNL     1      -9.482  10.889  65.262  1.00  0.00    -0.257 A  
ENDBRANCH  12  15
TORSDOF 1
ENDMDL
MODEL       91
REMARK 921   NORMALIZED FREE ENERGY PREDICTED BY IDOCK:   -4.37 KCAL/MOL
REMARK 922        TOTAL FREE ENERGY PREDICTED BY IDOCK:   -4.77 KCAL/MOL
REMARK 923 INTER-LIGAND FREE ENERGY PREDICTED BY IDOCK:   -4.63 KCAL/MOL
REMARK 924 INTRA-LIGAND FREE ENERGY PREDICTED BY IDOCK:   -0.14 KCAL/MOL
REMARK 927      BINDING AFFINITY PREDICTED BY RF-SCORE:    0.00 PKD
ROOT
HETATM    1  O   UNL     1     -10.934   5.275  71.063  1.00  0.00    -0.128 OA 
HETATM    2  S   UNL     1      -9.588   6.139  70.849  1.00  0.00    -0.173 S  
HETATM    3  O   UNL     1      -8.542   5.208  70.493  1.00  0.00    -0.113 OA 
HETATM    4  O   UNL     1      -9.472   6.990  72.015  1.00  0.00    -0.141 OA 
HETATM    5  C   UNL     1      -9.934   7.151  69.434  1.00  0.00    -0.164 A  
HETATM    6  C   UNL     1      -9.879   8.547  69.556  1.00  0.00    -0.187 A  
HETATM    7  C   UNL     1     -10.184   9.274  68.403  1.00  0.00    -0.202 A  
HETATM    8  C   UNL     1     -10.518   8.687  67.190  1.00  0.00    -0.289 A  
HETATM    9  C   UNL     1     -10.557   7.287  67.090  1.00  0.00    -0.416 A  
HETATM   10  N   UNL     1     -10.765   9.645  66.240  1.00  0.00     0.041 NA 
HETATM   11  C   UNL     1     -10.263   6.522  68.227  1.00  0.00    -0.195 A  
HETATM   12  C   UNL     1     -10.587  10.815  66.831  1.00  0.00    -0.258 A  
HETATM   13  H   UNL     1     -11.034   9.486  65.268  1.00  0.00     0.000 HD 
HETATM   14  N   UNL     1     -10.236  10.619  68.148  1.00  0.00    -0.162 NA 
ENDROOT
BRANCH  12  15
HETATM   15  C   UNL     1     -10.717  12.134  66.196  1.00  0.00    -0.307 A  
HETATM   16  C   UNL     1     -11.779  12.365  65.307  1.00  0.00    -0.437 A  
HETATM   17  C   UNL     1     -11.921  13.594  64.657  1.00  0.00    -0.441 A  
HETATM   18  C   UNL     1     -11.003  14.614  64.891  1.00  0.00    -0.419 A  
HETATM   19  C   UNL     1      -9.951  14.409  65.778  1.00  0.00    -0.354 A  
HETATM   20  C   UNL     1      -9.808  13.178  66.427  1.00  0.00    -0.279 A  
ENDBRANCH  12  15
TORSDOF 1
ENDMDL
MODEL       92
REMARK 921   NORMALIZED FREE ENERGY PREDICTED BY IDOCK:   -4.27 KCAL/MOL
REMARK 922        TOTAL FREE ENERGY PREDICTED BY IDOCK:   -4.66 KCAL/MOL
REMARK 923 INTER-LIGAND FREE ENERGY PREDICTED BY IDOCK:   -4.53 KCAL/MOL
REMARK 924 INTRA-LIGAND FREE ENERGY PREDICTED BY IDOCK:   -0.14 KCAL/MOL
REMARK 927      BINDING AFFINITY PREDICTED BY RF-SCORE:    0.00 PKD
ROOT
HETATM    1  O   UNL     1      -9.861   4.811  65.917  1.00  0.00    -0.178 OA 
HETATM    2  S   UNL     1      -9.217   5.748  67.063  1.00  0.00    -0.121 S  
HETATM    3  O   UNL     1      -7.873   5.269  67.292  1.00  0.00    -0.099 OA 
HETATM    4  O   UNL     1     -10.191   5.792  68.133  1.00  0.00    -0.159 OA 
HETATM    5  C   UNL     1      -9.115   7.352  66.315  1.00  0.00    -0.156 A  
HETATM    6  C   UNL     1      -9.788   8.431  66.906  1.00  0.00    -0.313 A  
HETATM    7  C   UNL     1      -9.674   9.657  66.246  1.00  0.00    -0.240 A  
HETATM    8  C   UNL     1      -8.944   9.839  65.079  1.00  0.00    -0.207 A  
HETATM    9  C   UNL     1      -8.271   8.745  64.512  1.00  0.00    -0.168 A  
HETATM   10  N   UNL     1      -9.013  11.143  64.661  1.00  0.00    -0.372 NA 
HETATM   11  C   UNL     1      -8.365   7.496  65.141  1.00  0.00    -0.092 A  
HETATM   12  C   UNL     1      -9.765  11.781  65.544  1.00  0.00    -0.224 A  
HETATM   13  H   UNL     1      -8.572  11.543  63.833  1.00  0.00     0.000 HD 
HETATM   14  N   UNL     1     -10.184  10.900  66.517  1.00  0.00    -0.225 NA 
ENDROOT
BRANCH  12  15
HETATM   15  C   UNL     1     -10.099  13.212  65.523  1.00  0.00    -0.271 A  
HETATM   16  C   UNL     1      -9.535  14.062  66.487  1.00  0.00    -0.295 A  
HETATM   17  C   UNL     1      -9.850  15.423  66.522  1.00  0.00    -0.288 A  
HETATM   18  C   UNL     1     -10.734  15.956  65.588  1.00  0.00    -0.350 A  
HETATM   19  C   UNL     1     -11.295  15.132  64.617  1.00  0.00    -0.362 A  
HETATM   20  C   UNL     1     -10.980  13.770  64.583  1.00  0.00    -0.406 A  
ENDBRANCH  12  15
TORSDOF 1
ENDMDL
MODEL       93
REMARK 921   NORMALIZED FREE ENERGY PREDICTED BY IDOCK:   -4.21 KCAL/MOL
REMARK 922        TOTAL FREE ENERGY PREDICTED BY IDOCK:   -4.60 KCAL/MOL
REMARK 923 INTER-LIGAND FREE ENERGY PREDICTED BY IDOCK:   -4.44 KCAL/MOL
REMARK 924 INTRA-LIGAND FREE ENERGY PREDICTED BY IDOCK:   -0.15 KCAL/MOL
REMARK 927      BINDING AFFINITY PREDICTED BY RF-SCORE:    0.00 PKD
ROOT
HETATM    1  O   UNL     1     -10.076   5.318  65.379  1.00  0.00     0.078 OA 
HETATM    2  S   UNL     1      -9.295   5.750  66.724  1.00  0.00    -0.138 S  
HETATM    3  O   UNL     1      -7.882   5.590  66.461  1.00  0.00    -0.099 OA 
HETATM    4  O   UNL     1      -9.943   5.038  67.805  1.00  0.00    -0.160 OA 
HETATM    5  C   UNL     1      -9.634   7.482  66.893  1.00  0.00    -0.187 A  
HETATM    6  C   UNL     1     -10.277   7.948  68.049  1.00  0.00    -0.256 A  
HETATM    7  C   UNL     1     -10.527   9.321  68.098  1.00  0.00    -0.215 A  
HETATM    8  C   UNL     1     -10.170  10.205  67.089  1.00  0.00    -0.225 A  
HETATM    9  C   UNL     1      -9.519   9.716  65.946  1.00  0.00    -0.296 A  
HETATM   10  N   UNL     1     -10.541  11.485  67.412  1.00  0.00    -0.205 NA 
HETATM   11  C   UNL     1      -9.255   8.343  65.855  1.00  0.00    -0.217 A  
HETATM   12  C   UNL     1     -11.115  11.421  68.602  1.00  0.00    -0.236 A  
HETATM   13  H   UNL     1     -10.401  12.322  66.845  1.00  0.00     0.000 HD 
HETATM   14  N   UNL     1     -11.123  10.116  69.042  1.00  0.00    -0.222 NA 
ENDROOT
BRANCH  12  15
HETATM   15  C   UNL     1     -11.651  12.556  69.367  1.00  0.00    -0.368 A  
HETATM   16  C   UNL     1     -12.086  12.351  70.685  1.00  0.00    -0.317 A  
HETATM   17  C   UNL     1     -12.630  13.395  71.437  1.00  0.00    -0.374 A  
HETATM   18  C   UNL     1     -12.745  14.666  70.880  1.00  0.00    -0.413 A  
HETATM   19  C   UNL     1     -12.308  14.893  69.578  1.00  0.00    -0.202 A  
HETATM   20  C   UNL     1     -11.764  13.847  68.826  1.00  0.00    -0.392 A  
ENDBRANCH  12  15
TORSDOF 1
ENDMDL
MODEL       94
REMARK 921   NORMALIZED FREE ENERGY PREDICTED BY IDOCK:   -4.18 KCAL/MOL
REMARK 922        TOTAL FREE ENERGY PREDICTED BY IDOCK:   -4.56 KCAL/MOL
REMARK 923 INTER-LIGAND FREE ENERGY PREDICTED BY IDOCK:   -4.43 KCAL/MOL
REMARK 924 INTRA-LIGAND FREE ENERGY PREDICTED BY IDOCK:   -0.13 KCAL/MOL
REMARK 927      BINDING AFFINITY PREDICTED BY RF-SCORE:    0.00 PKD
ROOT
HETATM    1  O   UNL     1      -7.831   3.480  68.452  1.00  0.00    -0.063 OA 
HETATM    2  S   UNL     1      -8.247   3.799  66.926  1.00  0.00    -0.096 S  
HETATM    3  O   UNL     1      -9.217   2.801  66.536  1.00  0.00    -0.146 OA 
HETATM    4  O   UNL     1      -7.004   3.963  66.202  1.00  0.00    -0.060 OA 
HETATM    5  C   UNL     1      -9.071   5.368  67.012  1.00  0.00    -0.112 A  
HETATM    6  C   UNL     1      -8.566   6.451  66.279  1.00  0.00    -0.140 A  
HETATM    7  C   UNL     1      -9.258   7.657  66.415  1.00  0.00    -0.175 A  
HETATM    8  C   UNL     1     -10.385   7.811  67.211  1.00  0.00    -0.301 A  
HETATM    9  C   UNL     1     -10.877   6.709  67.927  1.00  0.00    -0.353 A  
HETATM   10  N   UNL     1     -10.849   9.100  67.149  1.00  0.00    -0.326 NA 
HETATM   11  C   UNL     1     -10.207   5.483  67.822  1.00  0.00    -0.237 A  
HETATM   12  C   UNL     1     -10.041   9.752  66.329  1.00  0.00    -0.243 A  
HETATM   13  H   UNL     1     -11.658   9.481  67.640  1.00  0.00     0.000 HD 
HETATM   14  N   UNL     1      -9.062   8.898  65.869  1.00  0.00    -0.204 NA 
ENDROOT
BRANCH  12  15
HETATM   15  C   UNL     1     -10.161  11.162  65.935  1.00  0.00    -0.303 A  
HETATM   16  C   UNL     1      -9.661  12.158  66.789  1.00  0.00    -0.216 A  
HETATM   17  C   UNL     1      -9.783  13.512  66.468  1.00  0.00    -0.287 A  
HETATM   18  C   UNL     1     -10.406  13.893  65.283  1.00  0.00    -0.396 A  
HETATM   19  C   UNL     1     -10.898  12.920  64.417  1.00  0.00    -0.404 A  
HETATM   20  C   UNL     1     -10.776  11.565  64.739  1.00  0.00    -0.366 A  
ENDBRANCH  12  15
TORSDOF 1
ENDMDL
MODEL       95
REMARK 921   NORMALIZED FREE ENERGY PREDICTED BY IDOCK:   -4.17 KCAL/MOL
REMARK 922        TOTAL FREE ENERGY PREDICTED BY IDOCK:   -4.55 KCAL/MOL
REMARK 923 INTER-LIGAND FREE ENERGY PREDICTED BY IDOCK:   -4.40 KCAL/MOL
REMARK 924 INTRA-LIGAND FREE ENERGY PREDICTED BY IDOCK:   -0.15 KCAL/MOL
REMARK 927      BINDING AFFINITY PREDICTED BY RF-SCORE:    0.00 PKD
ROOT
HETATM    1  O   UNL     1     -13.561  15.447  69.986  1.00  0.00     0.236 OA 
HETATM    2  S   UNL     1     -11.950  15.355  70.021  1.00  0.00    -0.375 S  
HETATM    3  O   UNL     1     -11.546  15.553  71.395  1.00  0.00    -0.344 OA 
HETATM    4  O   UNL     1     -11.480  16.228  68.967  1.00  0.00    -0.328 OA 
HETATM    5  C   UNL     1     -11.595  13.675  69.576  1.00  0.00    -0.301 A  
HETATM    6  C   UNL     1     -10.806  13.415  68.446  1.00  0.00    -0.284 A  
HETATM    7  C   UNL     1     -10.589  12.068  68.150  1.00  0.00    -0.210 A  
HETATM    8  C   UNL     1     -11.097  11.022  68.908  1.00  0.00    -0.239 A  
HETATM    9  C   UNL     1     -11.876  11.307  70.040  1.00  0.00    -0.448 A  
HETATM   10  N   UNL     1     -10.721   9.813  68.379  1.00  0.00    -0.276 NA 
HETATM   11  C   UNL     1     -12.122  12.648  70.368  1.00  0.00    -0.381 A  
HETATM   12  C   UNL     1      -9.985  10.081  67.314  1.00  0.00    -0.197 A  
HETATM   13  H   UNL     1     -10.963   8.889  68.738  1.00  0.00     0.000 HD 
HETATM   14  N   UNL     1      -9.890  11.446  67.148  1.00  0.00    -0.189 NA 
ENDROOT
BRANCH  12  15
HETATM   15  C   UNL     1      -9.339   9.094  66.437  1.00  0.00    -0.261 A  
HETATM   16  C   UNL     1      -8.872   9.498  65.177  1.00  0.00    -0.223 A  
HETATM   17  C   UNL     1      -8.281   8.585  64.300  1.00  0.00    -0.147 A  
HETATM   18  C   UNL     1      -8.143   7.251  64.673  1.00  0.00    -0.081 A  
HETATM   19  C   UNL     1      -8.589   6.833  65.924  1.00  0.00    -0.153 A  
HETATM   20  C   UNL     1      -9.181   7.748  66.801  1.00  0.00    -0.202 A  
ENDBRANCH  12  15
TORSDOF 1
ENDMDL
MODEL       96
REMARK 921   NORMALIZED FREE ENERGY PREDICTED BY IDOCK:   -4.12 KCAL/MOL
REMARK 922        TOTAL FREE ENERGY PREDICTED BY IDOCK:   -4.50 KCAL/MOL
REMARK 923 INTER-LIGAND FREE ENERGY PREDICTED BY IDOCK:   -4.36 KCAL/MOL
REMARK 924 INTRA-LIGAND FREE ENERGY PREDICTED BY IDOCK:   -0.14 KCAL/MOL
REMARK 927      BINDING AFFINITY PREDICTED BY RF-SCORE:    0.00 PKD
ROOT
HETATM    1  O   UNL     1     -10.826   9.992  68.039  1.00  0.00    -0.244 OA 
HETATM    2  S   UNL     1      -9.514  10.193  67.121  1.00  0.00    -0.162 S  
HETATM    3  O   UNL     1      -9.757   9.493  65.880  1.00  0.00    -0.245 OA 
HETATM    4  O   UNL     1      -8.385   9.859  67.964  1.00  0.00    -0.112 OA 
HETATM    5  C   UNL     1      -9.478  11.933  66.778  1.00  0.00    -0.201 A  
HETATM    6  C   UNL     1      -8.363  12.688  67.170  1.00  0.00    -0.172 A  
HETATM    7  C   UNL     1      -8.420  14.054  66.882  1.00  0.00    -0.078 A  
HETATM    8  C   UNL     1      -9.491  14.662  66.243  1.00  0.00    -0.293 A  
HETATM    9  C   UNL     1     -10.591  13.883  65.851  1.00  0.00    -0.293 A  
HETATM   10  N   UNL     1      -9.268  16.007  66.095  1.00  0.00    -0.331 NA 
HETATM   11  C   UNL     1     -10.576  12.509  66.128  1.00  0.00    -0.279 A  
HETATM   12  C   UNL     1      -8.079  16.251  66.623  1.00  0.00    -0.288 A  
HETATM   13  H   UNL     1      -9.895  16.686  65.664  1.00  0.00     0.000 HD 
HETATM   14  N   UNL     1      -7.542  15.081  67.112  1.00  0.00    -0.189 NA 
ENDROOT
BRANCH  12  15
HETATM   15  C   UNL     1      -7.405  17.556  66.672  1.00  0.00    -0.273 A  
HETATM   16  C   UNL     1      -7.983  18.599  67.413  1.00  0.00    -0.247 A  
HETATM   17  C   UNL     1      -7.392  19.864  67.461  1.00  0.00    -0.305 A  
HETATM   18  C   UNL     1      -6.209  20.105  66.769  1.00  0.00    -0.208 A  
HETATM   19  C   UNL     1      -5.614  19.081  66.038  1.00  0.00    -0.180 A  
HETATM   20  C   UNL     1      -6.206  17.815  65.991  1.00  0.00    -0.263 A  
ENDBRANCH  12  15
TORSDOF 1
ENDMDL
MODEL       97
REMARK 921   NORMALIZED FREE ENERGY PREDICTED BY IDOCK:   -4.05 KCAL/MOL
REMARK 922        TOTAL FREE ENERGY PREDICTED BY IDOCK:   -4.43 KCAL/MOL
REMARK 923 INTER-LIGAND FREE ENERGY PREDICTED BY IDOCK:   -4.28 KCAL/MOL
REMARK 924 INTRA-LIGAND FREE ENERGY PREDICTED BY IDOCK:   -0.15 KCAL/MOL
REMARK 927      BINDING AFFINITY PREDICTED BY RF-SCORE:    0.00 PKD
ROOT
HETATM    1  O   UNL     1      -7.557   9.378  62.999  1.00  0.00    -0.104 OA 
HETATM    2  S   UNL     1      -7.683   8.377  64.258  1.00  0.00    -0.143 S  
HETATM    3  O   UNL     1      -6.352   7.890  64.545  1.00  0.00    -0.051 OA 
HETATM    4  O   UNL     1      -8.762   7.467  63.935  1.00  0.00     0.349 OA 
HETATM    5  C   UNL     1      -8.193   9.418  65.600  1.00  0.00    -0.120 A  
HETATM    6  C   UNL     1      -9.400   9.147  66.260  1.00  0.00    -0.274 A  
HETATM    7  C   UNL     1      -9.742  10.024  67.292  1.00  0.00    -0.167 A  
HETATM    8  C   UNL     1      -8.958  11.103  67.676  1.00  0.00    -0.140 A  
HETATM    9  C   UNL     1      -7.749  11.348  67.007  1.00  0.00    -0.154 A  
HETATM   10  N   UNL     1      -9.544  11.784  68.713  1.00  0.00    -0.385 NA 
HETATM   11  C   UNL     1      -7.373  10.494  65.961  1.00  0.00    -0.137 A  
HETATM   12  C   UNL     1     -10.672  11.150  68.989  1.00  0.00    -0.225 A  
HETATM   13  H   UNL     1      -9.180  12.615  69.180  1.00  0.00     0.000 HD 
HETATM   14  N   UNL     1     -10.819  10.077  68.137  1.00  0.00    -0.256 NA 
ENDROOT
BRANCH  12  15
HETATM   15  C   UNL     1     -11.626  11.503  70.049  1.00  0.00    -0.364 A  
HETATM   16  C   UNL     1     -12.284  10.480  70.749  1.00  0.00    -0.468 A  
HETATM   17  C   UNL     1     -13.222  10.772  71.742  1.00  0.00    -0.523 A  
HETATM   18  C   UNL     1     -13.515  12.097  72.054  1.00  0.00    -0.388 A  
HETATM   19  C   UNL     1     -12.864  13.126  71.380  1.00  0.00    -0.401 A  
HETATM   20  C   UNL     1     -11.926  12.833  70.385  1.00  0.00    -0.331 A  
ENDBRANCH  12  15
TORSDOF 1
ENDMDL
MODEL       98
REMARK 921   NORMALIZED FREE ENERGY PREDICTED BY IDOCK:   -4.03 KCAL/MOL
REMARK 922        TOTAL FREE ENERGY PREDICTED BY IDOCK:   -4.40 KCAL/MOL
REMARK 923 INTER-LIGAND FREE ENERGY PREDICTED BY IDOCK:   -4.25 KCAL/MOL
REMARK 924 INTRA-LIGAND FREE ENERGY PREDICTED BY IDOCK:   -0.15 KCAL/MOL
REMARK 927      BINDING AFFINITY PREDICTED BY RF-SCORE:    0.00 PKD
ROOT
HETATM    1  O   UNL     1     -10.389  12.269  69.387  1.00  0.00     0.165 OA 
HETATM    2  S   UNL     1     -11.727  11.376  69.513  1.00  0.00    -0.379 S  
HETATM    3  O   UNL     1     -12.421  11.474  68.249  1.00  0.00    -0.295 OA 
HETATM    4  O   UNL     1     -12.361  11.783  70.750  1.00  0.00    -0.374 OA 
HETATM    5  C   UNL     1     -11.134   9.715  69.693  1.00  0.00    -0.193 A  
HETATM    6  C   UNL     1     -11.474   8.983  70.839  1.00  0.00    -0.347 A  
HETATM    7  C   UNL     1     -10.951   7.689  70.916  1.00  0.00    -0.250 A  
HETATM    8  C   UNL     1     -10.147   7.126  69.935  1.00  0.00    -0.191 A  
HETATM    9  C   UNL     1      -9.828   7.875  68.792  1.00  0.00    -0.171 A  
HETATM   10  N   UNL     1      -9.784   5.849  70.280  1.00  0.00    -0.165 NA 
HETATM   11  C   UNL     1     -10.329   9.179  68.680  1.00  0.00    -0.233 A  
HETATM   12  C   UNL     1     -10.348   5.602  71.451  1.00  0.00    -0.228 A  
HETATM   13  H   UNL     1      -9.194   5.215  69.740  1.00  0.00     0.000 HD 
HETATM   14  N   UNL     1     -11.062   6.706  71.863  1.00  0.00    -0.243 NA 
ENDROOT
BRANCH  12  15
HETATM   15  C   UNL     1     -10.260   4.344  72.206  1.00  0.00    -0.255 A  
HETATM   16  C   UNL     1     -10.928   4.233  73.435  1.00  0.00    -0.366 A  
HETATM   17  C   UNL     1     -10.845   3.066  74.200  1.00  0.00    -0.216 A  
HETATM   18  C   UNL     1     -10.092   1.988  73.743  1.00  0.00    -0.153 A  
HETATM   19  C   UNL     1      -9.431   2.074  72.521  1.00  0.00    -0.140 A  
HETATM   20  C   UNL     1      -9.515   3.242  71.757  1.00  0.00    -0.215 A  
ENDBRANCH  12  15
TORSDOF 1
ENDMDL
MODEL       99
REMARK 921   NORMALIZED FREE ENERGY PREDICTED BY IDOCK:   -4.01 KCAL/MOL
REMARK 922        TOTAL FREE ENERGY PREDICTED BY IDOCK:   -4.39 KCAL/MOL
REMARK 923 INTER-LIGAND FREE ENERGY PREDICTED BY IDOCK:   -4.24 KCAL/MOL
REMARK 924 INTRA-LIGAND FREE ENERGY PREDICTED BY IDOCK:   -0.15 KCAL/MOL
REMARK 927      BINDING AFFINITY PREDICTED BY RF-SCORE:    0.00 PKD
ROOT
HETATM    1  O   UNL     1      -7.994   8.727  65.930  1.00  0.00    -0.099 OA 
HETATM    2  S   UNL     1      -9.499   9.300  66.031  1.00  0.00    -0.264 S  
HETATM    3  O   UNL     1     -10.232   8.409  66.902  1.00  0.00    -0.265 OA 
HETATM    4  O   UNL     1      -9.926   9.538  64.669  1.00  0.00     0.084 OA 
HETATM    5  C   UNL     1      -9.323  10.860  66.857  1.00  0.00    -0.168 A  
HETATM    6  C   UNL     1      -9.753  12.030  66.216  1.00  0.00    -0.251 A  
HETATM    7  C   UNL     1      -9.562  13.220  66.923  1.00  0.00    -0.249 A  
HETATM    8  C   UNL     1      -8.991  13.280  68.187  1.00  0.00    -0.195 A  
HETATM    9  C   UNL     1      -8.577  12.094  68.812  1.00  0.00     0.101 A  
HETATM   10  N   UNL     1      -8.932  14.577  68.630  1.00  0.00    -0.187 NA 
HETATM   11  C   UNL     1      -8.746  10.880  68.133  1.00  0.00    -0.133 A  
HETATM   12  C   UNL     1      -9.458  15.325  67.674  1.00  0.00    -0.205 A  
HETATM   13  H   UNL     1      -8.556  14.900  69.522  1.00  0.00     0.000 HD 
HETATM   14  N   UNL     1      -9.847  14.526  66.622  1.00  0.00    -0.263 NA 
ENDROOT
BRANCH  12  15
HETATM   15  C   UNL     1      -9.631  16.784  67.714  1.00  0.00    -0.241 A  
HETATM   16  C   UNL     1     -10.180  17.440  66.602  1.00  0.00    -0.324 A  
HETATM   17  C   UNL     1     -10.333  18.829  66.586  1.00  0.00    -0.472 A  
HETATM   18  C   UNL     1      -9.941  19.584  67.687  1.00  0.00    -0.498 A  
HETATM   19  C   UNL     1      -9.406  18.951  68.805  1.00  0.00    -0.381 A  
HETATM   20  C   UNL     1      -9.252  17.561  68.820  1.00  0.00    -0.227 A  
ENDBRANCH  12  15
TORSDOF 1
ENDMDL
MODEL      100
REMARK 921   NORMALIZED FREE ENERGY PREDICTED BY IDOCK:   -3.94 KCAL/MOL
REMARK 922        TOTAL FREE ENERGY PREDICTED BY IDOCK:   -4.32 KCAL/MOL
REMARK 923 INTER-LIGAND FREE ENERGY PREDICTED BY IDOCK:   -4.17 KCAL/MOL
REMARK 924 INTRA-LIGAND FREE ENERGY PREDICTED BY IDOCK:   -0.14 KCAL/MOL
REMARK 927      BINDING AFFINITY PREDICTED BY RF-SCORE:    0.00 PKD
ROOT
HETATM    1  O   UNL     1     -10.781  14.963  68.200  1.00  0.00    -0.243 OA 
HETATM    2  S   UNL     1     -10.948  14.394  66.699  1.00  0.00    -0.325 S  
HETATM    3  O   UNL     1     -10.244  15.304  65.823  1.00  0.00    -0.298 OA 
HETATM    4  O   UNL     1     -12.361  14.130  66.529  1.00  0.00    -0.460 OA 
HETATM    5  C   UNL     1     -10.073  12.852  66.712  1.00  0.00    -0.238 A  
HETATM    6  C   UNL     1     -10.760  11.669  66.400  1.00  0.00    -0.316 A  
HETATM    7  C   UNL     1     -10.007  10.494  66.452  1.00  0.00    -0.218 A  
HETATM    8  C   UNL     1      -8.659  10.458  66.780  1.00  0.00    -0.124 A  
HETATM    9  C   UNL     1      -7.991  11.656  67.079  1.00  0.00    -0.164 A  
HETATM   10  N   UNL     1      -8.187   9.170  66.750  1.00  0.00    -0.118 NA 
HETATM   11  C   UNL     1      -8.713  12.856  67.044  1.00  0.00    -0.195 A  
HETATM   12  C   UNL     1      -9.208   8.404  66.405  1.00  0.00    -0.201 A  
HETATM   13  H   UNL     1      -7.235   8.864  66.954  1.00  0.00     0.000 HD 
HETATM   14  N   UNL     1     -10.329   9.182  66.220  1.00  0.00    -0.193 NA 
ENDROOT
BRANCH  12  15
HETATM   15  C   UNL     1      -9.172   6.946  66.219  1.00  0.00    -0.157 A  
HETATM   16  C   UNL     1      -8.109   6.372  65.504  1.00  0.00    -0.130 A  
HETATM   17  C   UNL     1      -8.053   4.994  65.277  1.00  0.00    -0.117 A  
HETATM   18  C   UNL     1      -9.060   4.167  65.767  1.00  0.00    -0.136 A  
HETATM   19  C   UNL     1     -10.116   4.716  66.489  1.00  0.00    -0.279 A  
HETATM   20  C   UNL     1     -10.172   6.095  66.715  1.00  0.00    -0.264 A  
ENDBRANCH  12  15
TORSDOF 1
ENDMDL
MODEL      101
REMARK 921   NORMALIZED FREE ENERGY PREDICTED BY IDOCK:   -3.94 KCAL/MOL
REMARK 922        TOTAL FREE ENERGY PREDICTED BY IDOCK:   -4.31 KCAL/MOL
REMARK 923 INTER-LIGAND FREE ENERGY PREDICTED BY IDOCK:   -4.17 KCAL/MOL
REMARK 924 INTRA-LIGAND FREE ENERGY PREDICTED BY IDOCK:   -0.15 KCAL/MOL
REMARK 927      BINDING AFFINITY PREDICTED BY RF-SCORE:    0.00 PKD
ROOT
HETATM    1  O   UNL     1      -8.380   8.584  63.087  1.00  0.00    -0.176 OA 
HETATM    2  S   UNL     1      -7.432   8.834  64.368  1.00  0.00    -0.112 S  
HETATM    3  O   UNL     1      -7.094  10.240  64.375  1.00  0.00    -0.131 OA 
HETATM    4  O   UNL     1      -6.405   7.816  64.307  1.00  0.00    -0.051 OA 
HETATM    5  C   UNL     1      -8.479   8.510  65.762  1.00  0.00    -0.154 A  
HETATM    6  C   UNL     1      -8.121   7.505  66.672  1.00  0.00    -0.123 A  
HETATM    7  C   UNL     1      -9.008   7.297  67.732  1.00  0.00    -0.126 A  
HETATM    8  C   UNL     1     -10.176   8.024  67.911  1.00  0.00    -0.212 A  
HETATM    9  C   UNL     1     -10.508   9.031  66.992  1.00  0.00    -0.316 A  
HETATM   10  N   UNL     1     -10.843   7.600  69.033  1.00  0.00    -0.409 NA 
HETATM   11  C   UNL     1      -9.647   9.267  65.912  1.00  0.00    -0.345 A  
HETATM   12  C   UNL     1     -10.114   6.630  69.560  1.00  0.00    -0.177 A  
HETATM   13  H   UNL     1     -11.728   7.963  69.389  1.00  0.00     0.000 HD 
HETATM   14  N   UNL     1      -8.993   6.422  68.787  1.00  0.00    -0.127 NA 
ENDROOT
BRANCH  12  15
HETATM   15  C   UNL     1     -10.421   5.888  70.790  1.00  0.00    -0.311 A  
HETATM   16  C   UNL     1      -9.909   4.592  70.955  1.00  0.00    -0.266 A  
HETATM   17  C   UNL     1     -10.202   3.840  72.096  1.00  0.00    -0.179 A  
HETATM   18  C   UNL     1     -11.012   4.376  73.093  1.00  0.00    -0.332 A  
HETATM   19  C   UNL     1     -11.519   5.665  72.954  1.00  0.00    -0.297 A  
HETATM   20  C   UNL     1     -11.226   6.417  71.812  1.00  0.00    -0.324 A  
ENDBRANCH  12  15
TORSDOF 1
ENDMDL
MODEL      102
REMARK 921   NORMALIZED FREE ENERGY PREDICTED BY IDOCK:   -3.91 KCAL/MOL
REMARK 922        TOTAL FREE ENERGY PREDICTED BY IDOCK:   -4.28 KCAL/MOL
REMARK 923 INTER-LIGAND FREE ENERGY PREDICTED BY IDOCK:   -4.15 KCAL/MOL
REMARK 924 INTRA-LIGAND FREE ENERGY PREDICTED BY IDOCK:   -0.13 KCAL/MOL
REMARK 927      BINDING AFFINITY PREDICTED BY RF-SCORE:    0.00 PKD
ROOT
HETATM    1  O   UNL     1     -14.404  12.788  71.599  1.00  0.00     0.818 OA 
HETATM    2  S   UNL     1     -12.822  12.881  71.904  1.00  0.00    -0.147 S  
HETATM    3  O   UNL     1     -12.286  11.545  71.766  1.00  0.00    -0.070 OA 
HETATM    4  O   UNL     1     -12.699  13.614  73.147  1.00  0.00    -0.173 OA 
HETATM    5  C   UNL     1     -12.176  13.876  70.586  1.00  0.00    -0.373 A  
HETATM    6  C   UNL     1     -11.512  15.073  70.889  1.00  0.00    -0.330 A  
HETATM    7  C   UNL     1     -11.050  15.810  69.795  1.00  0.00    -0.322 A  
HETATM    8  C   UNL     1     -11.213  15.411  68.476  1.00  0.00    -0.318 A  
HETATM    9  C   UNL     1     -11.872  14.204  68.198  1.00  0.00    -0.387 A  
HETATM   10  N   UNL     1     -10.660  16.330  67.620  1.00  0.00    -0.306 NA 
HETATM   11  C   UNL     1     -12.356  13.438  69.268  1.00  0.00    -0.090 A  
HETATM   12  C   UNL     1     -10.152  17.289  68.377  1.00  0.00    -0.333 A  
HETATM   13  H   UNL     1     -10.645  16.283  66.601  1.00  0.00     0.000 HD 
HETATM   14  N   UNL     1     -10.378  17.000  69.704  1.00  0.00    -0.152 NA 
ENDROOT
BRANCH  12  15
HETATM   15  C   UNL     1      -9.434  18.479  67.898  1.00  0.00    -0.316 A  
HETATM   16  C   UNL     1     -10.152  19.658  67.646  1.00  0.00    -0.544 A  
HETATM   17  C   UNL     1      -9.514  20.803  67.161  1.00  0.00    -0.444 A  
HETATM   18  C   UNL     1      -8.142  20.785  66.923  1.00  0.00    -0.152 A  
HETATM   19  C   UNL     1      -7.410  19.629  67.178  1.00  0.00    -0.245 A  
HETATM   20  C   UNL     1      -8.050  18.484  67.664  1.00  0.00    -0.262 A  
ENDBRANCH  12  15
TORSDOF 1
ENDMDL
MODEL      103
REMARK 921   NORMALIZED FREE ENERGY PREDICTED BY IDOCK:   -3.91 KCAL/MOL
REMARK 922        TOTAL FREE ENERGY PREDICTED BY IDOCK:   -4.27 KCAL/MOL
REMARK 923 INTER-LIGAND FREE ENERGY PREDICTED BY IDOCK:   -4.14 KCAL/MOL
REMARK 924 INTRA-LIGAND FREE ENERGY PREDICTED BY IDOCK:   -0.14 KCAL/MOL
REMARK 927      BINDING AFFINITY PREDICTED BY RF-SCORE:    0.00 PKD
ROOT
HETATM    1  O   UNL     1      -9.525  11.774  64.018  1.00  0.00    -0.131 OA 
HETATM    2  S   UNL     1     -10.584  12.081  65.196  1.00  0.00    -0.300 S  
HETATM    3  O   UNL     1     -11.903  11.859  64.646  1.00  0.00    -0.295 OA 
HETATM    4  O   UNL     1     -10.206  13.366  65.746  1.00  0.00    -0.285 OA 
HETATM    5  C   UNL     1     -10.272  10.824  66.408  1.00  0.00    -0.240 A  
HETATM    6  C   UNL     1      -9.902  11.199  67.708  1.00  0.00    -0.186 A  
HETATM    7  C   UNL     1      -9.653  10.152  68.598  1.00  0.00    -0.163 A  
HETATM    8  C   UNL     1      -9.763   8.810  68.258  1.00  0.00    -0.158 A  
HETATM    9  C   UNL     1     -10.144   8.460  66.953  1.00  0.00    -0.364 A  
HETATM   10  N   UNL     1      -9.460   8.012  69.331  1.00  0.00    -0.159 NA 
HETATM   11  C   UNL     1     -10.397   9.483  66.028  1.00  0.00    -0.130 A  
HETATM   12  C   UNL     1      -9.170   8.824  70.334  1.00  0.00    -0.180 A  
HETATM   13  H   UNL     1      -9.458   6.991  69.351  1.00  0.00     0.000 HD 
HETATM   14  N   UNL     1      -9.277  10.132  69.915  1.00  0.00    -0.153 NA 
ENDROOT
BRANCH  12  15
HETATM   15  C   UNL     1      -8.808   8.418  71.699  1.00  0.00    -0.246 A  
HETATM   16  C   UNL     1      -9.815   7.982  72.574  1.00  0.00    -0.330 A  
HETATM   17  C   UNL     1      -9.519   7.617  73.890  1.00  0.00    -0.230 A  
HETATM   18  C   UNL     1      -8.207   7.680  74.351  1.00  0.00    -0.269 A  
HETATM   19  C   UNL     1      -7.192   8.098  73.494  1.00  0.00    -0.174 A  
HETATM   20  C   UNL     1      -7.489   8.464  72.178  1.00  0.00    -0.146 A  
ENDBRANCH  12  15
TORSDOF 1
ENDMDL
MODEL      104
REMARK 921   NORMALIZED FREE ENERGY PREDICTED BY IDOCK:   -3.91 KCAL/MOL
REMARK 922        TOTAL FREE ENERGY PREDICTED BY IDOCK:   -4.27 KCAL/MOL
REMARK 923 INTER-LIGAND FREE ENERGY PREDICTED BY IDOCK:   -4.14 KCAL/MOL
REMARK 924 INTRA-LIGAND FREE ENERGY PREDICTED BY IDOCK:   -0.14 KCAL/MOL
REMARK 927      BINDING AFFINITY PREDICTED BY RF-SCORE:    0.00 PKD
ROOT
HETATM    1  O   UNL     1      -8.746  10.334  65.678  1.00  0.00    -0.150 OA 
HETATM    2  S   UNL     1      -9.772  11.274  66.496  1.00  0.00    -0.209 S  
HETATM    3  O   UNL     1     -10.093  10.580  67.723  1.00  0.00    -0.166 OA 
HETATM    4  O   UNL     1     -10.805  11.649  65.554  1.00  0.00    -0.282 OA 
HETATM    5  C   UNL     1      -8.820  12.713  66.907  1.00  0.00    -0.201 A  
HETATM    6  C   UNL     1      -9.247  13.971  66.459  1.00  0.00    -0.240 A  
HETATM    7  C   UNL     1      -8.433  15.052  66.806  1.00  0.00    -0.204 A  
HETATM    8  C   UNL     1      -7.270  14.929  67.554  1.00  0.00    -0.201 A  
HETATM    9  C   UNL     1      -6.868  13.660  67.999  1.00  0.00    -0.138 A  
HETATM   10  N   UNL     1      -6.681  16.154  67.738  1.00  0.00    -0.135 NA 
HETATM   11  C   UNL     1      -7.655  12.549  67.666  1.00  0.00    -0.145 A  
HETATM   12  C   UNL     1      -7.454  17.038  67.128  1.00  0.00    -0.173 A  
HETATM   13  H   UNL     1      -5.817  16.346  68.246  1.00  0.00     0.000 HD 
HETATM   14  N   UNL     1      -8.526  16.395  66.550  1.00  0.00    -0.270 NA 
ENDROOT
BRANCH  12  15
HETATM   15  C   UNL     1      -7.235  18.491  67.079  1.00  0.00    -0.216 A  
HETATM   16  C   UNL     1      -7.110  19.124  65.833  1.00  0.00    -0.301 A  
HETATM   17  C   UNL     1      -6.871  20.498  65.742  1.00  0.00    -0.240 A  
HETATM   18  C   UNL     1      -6.755  21.261  66.900  1.00  0.00    -0.295 A  
HETATM   19  C   UNL     1      -6.888  20.654  68.145  1.00  0.00    -0.257 A  
HETATM   20  C   UNL     1      -7.127  19.279  68.236  1.00  0.00    -0.315 A  
ENDBRANCH  12  15
TORSDOF 1
ENDMDL
MODEL      105
REMARK 921   NORMALIZED FREE ENERGY PREDICTED BY IDOCK:   -3.89 KCAL/MOL
REMARK 922        TOTAL FREE ENERGY PREDICTED BY IDOCK:   -4.26 KCAL/MOL
REMARK 923 INTER-LIGAND FREE ENERGY PREDICTED BY IDOCK:   -4.11 KCAL/MOL
REMARK 924 INTRA-LIGAND FREE ENERGY PREDICTED BY IDOCK:   -0.15 KCAL/MOL
REMARK 927      BINDING AFFINITY PREDICTED BY RF-SCORE:    0.00 PKD
ROOT
HETATM    1  O   UNL     1      -7.190  10.275  63.555  1.00  0.00    -0.138 OA 
HETATM    2  S   UNL     1      -8.743   9.835  63.583  1.00  0.00    -0.236 S  
HETATM    3  O   UNL     1      -8.994   9.095  62.367  1.00  0.00    -0.237 OA 
HETATM    4  O   UNL     1      -9.489  11.035  63.900  1.00  0.00    -0.225 OA 
HETATM    5  C   UNL     1      -8.858   8.711  64.950  1.00  0.00    -0.031 A  
HETATM    6  C   UNL     1      -9.729   9.002  66.009  1.00  0.00    -0.339 A  
HETATM    7  C   UNL     1      -9.748   8.078  67.057  1.00  0.00    -0.211 A  
HETATM    8  C   UNL     1      -8.973   6.927  67.081  1.00  0.00    -0.120 A  
HETATM    9  C   UNL     1      -8.116   6.652  66.004  1.00  0.00    -0.122 A  
HETATM   10  N   UNL     1      -9.199   6.214  68.230  1.00  0.00    -0.115 NA 
HETATM   11  C   UNL     1      -8.063   7.558  64.936  1.00  0.00    -0.121 A  
HETATM   12  C   UNL     1     -10.102   6.891  68.921  1.00  0.00    -0.170 A  
HETATM   13  H   UNL     1      -8.758   5.334  68.500  1.00  0.00     0.000 HD 
HETATM   14  N   UNL     1     -10.452   8.032  68.231  1.00  0.00    -0.191 NA 
ENDROOT
BRANCH  12  15
HETATM   15  C   UNL     1     -10.676   6.497  70.215  1.00  0.00    -0.307 A  
HETATM   16  C   UNL     1     -10.049   5.490  70.965  1.00  0.00    -0.271 A  
HETATM   17  C   UNL     1     -10.579   5.063  72.186  1.00  0.00    -0.259 A  
HETATM   18  C   UNL     1     -11.745   5.641  72.677  1.00  0.00    -0.256 A  
HETATM   19  C   UNL     1     -12.376   6.650  71.954  1.00  0.00    -0.364 A  
HETATM   20  C   UNL     1     -11.845   7.076  70.732  1.00  0.00    -0.401 A  
ENDBRANCH  12  15
TORSDOF 1
ENDMDL
MODEL      106
REMARK 921   NORMALIZED FREE ENERGY PREDICTED BY IDOCK:   -3.88 KCAL/MOL
REMARK 922        TOTAL FREE ENERGY PREDICTED BY IDOCK:   -4.25 KCAL/MOL
REMARK 923 INTER-LIGAND FREE ENERGY PREDICTED BY IDOCK:   -4.10 KCAL/MOL
REMARK 924 INTRA-LIGAND FREE ENERGY PREDICTED BY IDOCK:   -0.15 KCAL/MOL
REMARK 927      BINDING AFFINITY PREDICTED BY RF-SCORE:    0.00 PKD
ROOT
HETATM    1  O   UNL     1     -10.509   4.533  67.415  1.00  0.00     0.015 OA 
HETATM    2  S   UNL     1      -9.686   5.375  68.519  1.00  0.00    -0.146 S  
HETATM    3  O   UNL     1      -8.322   4.899  68.482  1.00  0.00    -0.084 OA 
HETATM    4  O   UNL     1     -10.472   5.310  69.734  1.00  0.00    -0.291 OA 
HETATM    5  C   UNL     1      -9.709   7.040  67.911  1.00  0.00    -0.124 A  
HETATM    6  C   UNL     1     -10.277   8.053  68.698  1.00  0.00    -0.225 A  
HETATM    7  C   UNL     1     -10.274   9.334  68.140  1.00  0.00    -0.205 A  
HETATM    8  C   UNL     1      -9.745   9.628  66.891  1.00  0.00    -0.186 A  
HETATM    9  C   UNL     1      -9.173   8.599  66.126  1.00  0.00    -0.271 A  
HETATM   10  N   UNL     1      -9.883  10.963  66.608  1.00  0.00    -0.192 NA 
HETATM   11  C   UNL     1      -9.162   7.299  66.648  1.00  0.00    -0.193 A  
HETATM   12  C   UNL     1     -10.481  11.509  67.655  1.00  0.00    -0.189 A  
HETATM   13  H   UNL     1      -9.584  11.441  65.758  1.00  0.00     0.000 HD 
HETATM   14  N   UNL     1     -10.733  10.540  68.601  1.00  0.00    -0.200 NA 
ENDROOT
BRANCH  12  15
HETATM   15  C   UNL     1     -10.815  12.931  67.816  1.00  0.00    -0.248 A  
HETATM   16  C   UNL     1     -10.717  13.788  66.709  1.00  0.00    -0.276 A  
HETATM   17  C   UNL     1     -10.995  15.153  66.826  1.00  0.00    -0.321 A  
HETATM   18  C   UNL     1     -11.379  15.681  68.056  1.00  0.00    -0.324 A  
HETATM   19  C   UNL     1     -11.493  14.845  69.163  1.00  0.00    -0.324 A  
HETATM   20  C   UNL     1     -11.214  13.480  69.045  1.00  0.00    -0.314 A  
ENDBRANCH  12  15
TORSDOF 1
ENDMDL
MODEL      107
REMARK 921   NORMALIZED FREE ENERGY PREDICTED BY IDOCK:   -3.85 KCAL/MOL
REMARK 922        TOTAL FREE ENERGY PREDICTED BY IDOCK:   -4.21 KCAL/MOL
REMARK 923 INTER-LIGAND FREE ENERGY PREDICTED BY IDOCK:   -4.06 KCAL/MOL
REMARK 924 INTRA-LIGAND FREE ENERGY PREDICTED BY IDOCK:   -0.15 KCAL/MOL
REMARK 927      BINDING AFFINITY PREDICTED BY RF-SCORE:    0.00 PKD
ROOT
HETATM    1  O   UNL     1      -9.549   8.839  68.178  1.00  0.00    -0.143 OA 
HETATM    2  S   UNL     1      -9.959  10.014  69.204  1.00  0.00    -0.218 S  
HETATM    3  O   UNL     1      -9.485   9.618  70.511  1.00  0.00    -0.256 OA 
HETATM    4  O   UNL     1     -11.362  10.280  68.963  1.00  0.00    -0.231 OA 
HETATM    5  C   UNL     1      -9.010  11.415  68.673  1.00  0.00    -0.131 A  
HETATM    6  C   UNL     1      -9.674  12.588  68.285  1.00  0.00    -0.220 A  
HETATM    7  C   UNL     1      -8.858  13.640  67.860  1.00  0.00    -0.188 A  
HETATM    8  C   UNL     1      -7.472  13.569  67.817  1.00  0.00    -0.166 A  
HETATM    9  C   UNL     1      -6.831  12.387  68.219  1.00  0.00    -0.080 A  
HETATM   10  N   UNL     1      -6.940  14.747  67.360  1.00  0.00    -0.219 NA 
HETATM   11  C   UNL     1      -7.615  11.307  68.647  1.00  0.00    -0.129 A  
HETATM   12  C   UNL     1      -7.962  15.554  67.123  1.00  0.00    -0.221 A  
HETATM   13  H   UNL     1      -5.951  14.960  67.228  1.00  0.00     0.000 HD 
HETATM   14  N   UNL     1      -9.141  14.904  67.416  1.00  0.00    -0.183 NA 
ENDROOT
BRANCH  12  15
HETATM   15  C   UNL     1      -7.878  16.940  66.642  1.00  0.00    -0.298 A  
HETATM   16  C   UNL     1      -6.723  17.361  65.964  1.00  0.00    -0.199 A  
HETATM   17  C   UNL     1      -6.588  18.678  65.517  1.00  0.00    -0.307 A  
HETATM   18  C   UNL     1      -7.611  19.596  65.740  1.00  0.00    -0.275 A  
HETATM   19  C   UNL     1      -8.769  19.194  66.400  1.00  0.00    -0.336 A  
HETATM   20  C   UNL     1      -8.903  17.876  66.847  1.00  0.00    -0.263 A  
ENDBRANCH  12  15
TORSDOF 1
ENDMDL
MODEL      108
REMARK 921   NORMALIZED FREE ENERGY PREDICTED BY IDOCK:   -3.75 KCAL/MOL
REMARK 922        TOTAL FREE ENERGY PREDICTED BY IDOCK:   -4.11 KCAL/MOL
REMARK 923 INTER-LIGAND FREE ENERGY PREDICTED BY IDOCK:   -3.98 KCAL/MOL
REMARK 924 INTRA-LIGAND FREE ENERGY PREDICTED BY IDOCK:   -0.14 KCAL/MOL
REMARK 927      BINDING AFFINITY PREDICTED BY RF-SCORE:    0.00 PKD
ROOT
HETATM    1  O   UNL     1      -6.573   9.608  62.500  1.00  0.00    -0.097 OA 
HETATM    2  S   UNL     1      -7.826   8.922  63.249  1.00  0.00    -0.151 S  
HETATM    3  O   UNL     1      -7.425   7.578  63.598  1.00  0.00    -0.090 OA 
HETATM    4  O   UNL     1      -8.977   9.168  62.405  1.00  0.00    -0.237 OA 
HETATM    5  C   UNL     1      -8.007   9.853  64.748  1.00  0.00    -0.143 A  
HETATM    6  C   UNL     1      -9.216  10.515  65.006  1.00  0.00    -0.245 A  
HETATM    7  C   UNL     1      -9.272  11.243  66.197  1.00  0.00    -0.206 A  
HETATM    8  C   UNL     1      -8.221  11.323  67.100  1.00  0.00    -0.149 A  
HETATM    9  C   UNL     1      -7.024  10.643  66.825  1.00  0.00    -0.110 A  
HETATM   10  N   UNL     1      -8.563  12.104  68.174  1.00  0.00    -0.172 NA 
HETATM   11  C   UNL     1      -6.926   9.907  65.636  1.00  0.00    -0.108 A  
HETATM   12  C   UNL     1      -9.806  12.508  67.964  1.00  0.00    -0.214 A  
HETATM   13  H   UNL     1      -7.975  12.330  68.976  1.00  0.00     0.000 HD 
HETATM   14  N   UNL     1     -10.261  12.001  66.767  1.00  0.00    -0.201 NA 
ENDROOT
BRANCH  12  15
HETATM   15  C   UNL     1     -10.605  13.350  68.865  1.00  0.00    -0.181 A  
HETATM   16  C   UNL     1     -10.175  14.656  69.145  1.00  0.00    -0.199 A  
HETATM   17  C   UNL     1     -10.889  15.479  70.021  1.00  0.00    -0.330 A  
HETATM   18  C   UNL     1     -12.049  15.007  70.628  1.00  0.00    -0.375 A  
HETATM   19  C   UNL     1     -12.499  13.719  70.354  1.00  0.00    -0.384 A  
HETATM   20  C   UNL     1     -11.784  12.896  69.478  1.00  0.00    -0.387 A  
ENDBRANCH  12  15
TORSDOF 1
ENDMDL
MODEL      109
REMARK 921   NORMALIZED FREE ENERGY PREDICTED BY IDOCK:   -3.73 KCAL/MOL
REMARK 922        TOTAL FREE ENERGY PREDICTED BY IDOCK:   -4.08 KCAL/MOL
REMARK 923 INTER-LIGAND FREE ENERGY PREDICTED BY IDOCK:   -3.94 KCAL/MOL
REMARK 924 INTRA-LIGAND FREE ENERGY PREDICTED BY IDOCK:   -0.15 KCAL/MOL
REMARK 927      BINDING AFFINITY PREDICTED BY RF-SCORE:    0.00 PKD
ROOT
HETATM    1  O   UNL     1      -8.662   7.816  63.000  1.00  0.00     0.205 OA 
HETATM    2  S   UNL     1      -7.722   8.994  63.579  1.00  0.00    -0.128 S  
HETATM    3  O   UNL     1      -7.057   9.597  62.447  1.00  0.00    -0.103 OA 
HETATM    4  O   UNL     1      -6.970   8.404  64.666  1.00  0.00    -0.071 OA 
HETATM    5  C   UNL     1      -8.861  10.178  64.247  1.00  0.00    -0.222 A  
HETATM    6  C   UNL     1      -8.785  10.514  65.607  1.00  0.00    -0.191 A  
HETATM    7  C   UNL     1      -9.729  11.438  66.061  1.00  0.00    -0.223 A  
HETATM    8  C   UNL     1     -10.694  12.016  65.247  1.00  0.00    -0.288 A  
HETATM    9  C   UNL     1     -10.744  11.671  63.888  1.00  0.00    -0.459 A  
HETATM   10  N   UNL     1     -11.479  12.882  65.965  1.00  0.00    -0.324 NA 
HETATM   11  C   UNL     1      -9.817  10.742  63.394  1.00  0.00    -0.400 A  
HETATM   12  C   UNL     1     -11.022  12.862  67.207  1.00  0.00    -0.261 A  
HETATM   13  H   UNL     1     -12.261  13.433  65.611  1.00  0.00     0.000 HD 
HETATM   14  N   UNL     1      -9.959  11.989  67.295  1.00  0.00    -0.194 NA 
ENDROOT
BRANCH  12  15
HETATM   15  C   UNL     1     -11.537  13.655  68.331  1.00  0.00    -0.377 A  
HETATM   16  C   UNL     1     -11.429  13.147  69.635  1.00  0.00    -0.261 A  
HETATM   17  C   UNL     1     -11.934  13.854  70.730  1.00  0.00    -0.348 A  
HETATM   18  C   UNL     1     -12.554  15.085  70.536  1.00  0.00    -0.420 A  
HETATM   19  C   UNL     1     -12.660  15.611  69.252  1.00  0.00     0.248 A  
HETATM   20  C   UNL     1     -12.155  14.903  68.157  1.00  0.00    -0.120 A  
ENDBRANCH  12  15
TORSDOF 1
ENDMDL
MODEL      110
REMARK 921   NORMALIZED FREE ENERGY PREDICTED BY IDOCK:   -3.71 KCAL/MOL
REMARK 922        TOTAL FREE ENERGY PREDICTED BY IDOCK:   -4.07 KCAL/MOL
REMARK 923 INTER-LIGAND FREE ENERGY PREDICTED BY IDOCK:   -3.93 KCAL/MOL
REMARK 924 INTRA-LIGAND FREE ENERGY PREDICTED BY IDOCK:   -0.14 KCAL/MOL
REMARK 927      BINDING AFFINITY PREDICTED BY RF-SCORE:    0.00 PKD
ROOT
HETATM    1  O   UNL     1     -10.815  15.040  71.267  1.00  0.00    -0.153 OA 
HETATM    2  S   UNL     1     -11.555  15.057  69.833  1.00  0.00    -0.315 S  
HETATM    3  O   UNL     1     -11.598  16.435  69.397  1.00  0.00    -0.225 OA 
HETATM    4  O   UNL     1     -12.767  14.284  70.001  1.00  0.00    -0.297 OA 
HETATM    5  C   UNL     1     -10.455  14.172  68.759  1.00  0.00    -0.247 A  
HETATM    6  C   UNL     1     -10.912  13.018  68.107  1.00  0.00    -0.269 A  
HETATM    7  C   UNL     1      -9.980  12.366  67.295  1.00  0.00    -0.206 A  
HETATM    8  C   UNL     1      -8.676  12.806  67.114  1.00  0.00    -0.202 A  
HETATM    9  C   UNL     1      -8.245  13.969  67.770  1.00  0.00    -0.169 A  
HETATM   10  N   UNL     1      -7.996  11.969  66.266  1.00  0.00    -0.363 NA 
HETATM   11  C   UNL     1      -9.148  14.649  68.599  1.00  0.00    -0.189 A  
HETATM   12  C   UNL     1      -8.847  11.021  65.910  1.00  0.00    -0.195 A  
HETATM   13  H   UNL     1      -7.024  12.061  65.969  1.00  0.00     0.000 HD 
HETATM   14  N   UNL     1     -10.062  11.236  66.524  1.00  0.00    -0.211 NA 
ENDROOT
BRANCH  12  15
HETATM   15  C   UNL     1      -8.570   9.912  64.987  1.00  0.00    -0.174 A  
HETATM   16  C   UNL     1      -8.565  10.156  63.604  1.00  0.00    -0.199 A  
HETATM   17  C   UNL     1      -8.338   9.123  62.690  1.00  0.00    -0.192 A  
HETATM   18  C   UNL     1      -8.108   7.829  63.147  1.00  0.00    -0.078 A  
HETATM   19  C   UNL     1      -8.097   7.569  64.515  1.00  0.00    -0.086 A  
HETATM   20  C   UNL     1      -8.325   8.603  65.429  1.00  0.00    -0.165 A  
ENDBRANCH  12  15
TORSDOF 1
ENDMDL
MODEL      111
REMARK 921   NORMALIZED FREE ENERGY PREDICTED BY IDOCK:   -3.68 KCAL/MOL
REMARK 922        TOTAL FREE ENERGY PREDICTED BY IDOCK:   -4.04 KCAL/MOL
REMARK 923 INTER-LIGAND FREE ENERGY PREDICTED BY IDOCK:   -3.89 KCAL/MOL
REMARK 924 INTRA-LIGAND FREE ENERGY PREDICTED BY IDOCK:   -0.14 KCAL/MOL
REMARK 927      BINDING AFFINITY PREDICTED BY RF-SCORE:    0.00 PKD
ROOT
HETATM    1  O   UNL     1     -11.293   7.657  73.026  1.00  0.00    -0.372 OA 
HETATM    2  S   UNL     1     -12.215   7.873  71.719  1.00  0.00    -0.323 S  
HETATM    3  O   UNL     1     -12.552   9.278  71.668  1.00  0.00    -0.322 OA 
HETATM    4  O   UNL     1     -13.243   6.856  71.785  1.00  0.00    -0.348 OA 
HETATM    5  C   UNL     1     -11.138   7.513  70.356  1.00  0.00    -0.261 A  
HETATM    6  C   UNL     1     -11.477   6.484  69.466  1.00  0.00    -0.384 A  
HETATM    7  C   UNL     1     -10.568   6.248  68.431  1.00  0.00    -0.260 A  
HETATM    8  C   UNL     1      -9.396   6.971  68.257  1.00  0.00    -0.126 A  
HETATM    9  C   UNL     1      -9.084   8.002  69.156  1.00  0.00    -0.145 A  
HETATM   10  N   UNL     1      -8.706   6.518  67.161  1.00  0.00    -0.111 NA 
HETATM   11  C   UNL     1      -9.967   8.266  70.212  1.00  0.00    -0.188 A  
HETATM   12  C   UNL     1      -9.424   5.534  66.645  1.00  0.00    -0.146 A  
HETATM   13  H   UNL     1      -7.814   6.871  66.814  1.00  0.00     0.000 HD 
HETATM   14  N   UNL     1     -10.561   5.346  67.399  1.00  0.00    -0.195 NA 
ENDROOT
BRANCH  12  15
HETATM   15  C   UNL     1      -9.091   4.760  65.441  1.00  0.00    -0.154 A  
HETATM   16  C   UNL     1      -8.522   5.417  64.339  1.00  0.00    -0.106 A  
HETATM   17  C   UNL     1      -8.220   4.726  63.163  1.00  0.00    -0.105 A  
HETATM   18  C   UNL     1      -8.480   3.361  63.073  1.00  0.00    -0.089 A  
HETATM   19  C   UNL     1      -9.033   2.689  64.159  1.00  0.00    -0.108 A  
HETATM   20  C   UNL     1      -9.336   3.382  65.335  1.00  0.00    -0.153 A  
ENDBRANCH  12  15
TORSDOF 1
ENDMDL
MODEL      112
REMARK 921   NORMALIZED FREE ENERGY PREDICTED BY IDOCK:   -3.65 KCAL/MOL
REMARK 922        TOTAL FREE ENERGY PREDICTED BY IDOCK:   -4.00 KCAL/MOL
REMARK 923 INTER-LIGAND FREE ENERGY PREDICTED BY IDOCK:   -3.87 KCAL/MOL
REMARK 924 INTRA-LIGAND FREE ENERGY PREDICTED BY IDOCK:   -0.14 KCAL/MOL
REMARK 927      BINDING AFFINITY PREDICTED BY RF-SCORE:    0.00 PKD
ROOT
HETATM    1  O   UNL     1      -8.046   6.311  65.723  1.00  0.00    -0.113 OA 
HETATM    2  S   UNL     1      -7.112   7.332  66.553  1.00  0.00    -0.080 S  
HETATM    3  O   UNL     1      -5.930   7.567  65.754  1.00  0.00    -0.037 OA 
HETATM    4  O   UNL     1      -7.017   6.786  67.890  1.00  0.00    -0.077 OA 
HETATM    5  C   UNL     1      -8.048   8.837  66.612  1.00  0.00    -0.103 A  
HETATM    6  C   UNL     1      -8.402   9.378  67.856  1.00  0.00    -0.115 A  
HETATM    7  C   UNL     1      -9.157  10.553  67.819  1.00  0.00    -0.138 A  
HETATM    8  C   UNL     1      -9.544  11.181  66.643  1.00  0.00    -0.190 A  
HETATM    9  C   UNL     1      -9.169  10.626  65.410  1.00  0.00    -0.226 A  
HETATM   10  N   UNL     1     -10.273  12.311  66.915  1.00  0.00    -0.212 NA 
HETATM   11  C   UNL     1      -8.417   9.443  65.405  1.00  0.00    -0.159 A  
HETATM   12  C   UNL     1     -10.344  12.405  68.233  1.00  0.00    -0.227 A  
HETATM   13  H   UNL     1     -10.681  12.952  66.234  1.00  0.00     0.000 HD 
HETATM   14  N   UNL     1      -9.675  11.347  68.808  1.00  0.00    -0.180 NA 
ENDROOT
BRANCH  12  15
HETATM   15  C   UNL     1     -11.008  13.475  68.989  1.00  0.00    -0.264 A  
HETATM   16  C   UNL     1     -10.502  14.782  68.916  1.00  0.00    -0.249 A  
HETATM   17  C   UNL     1     -11.084  15.824  69.645  1.00  0.00    -0.307 A  
HETATM   18  C   UNL     1     -12.187  15.572  70.456  1.00  0.00    -0.444 A  
HETATM   19  C   UNL     1     -12.711  14.285  70.533  1.00  0.00    -0.391 A  
HETATM   20  C   UNL     1     -12.127  13.244  69.804  1.00  0.00    -0.355 A  
ENDBRANCH  12  15
TORSDOF 1
ENDMDL
MODEL      113
REMARK 921   NORMALIZED FREE ENERGY PREDICTED BY IDOCK:   -3.63 KCAL/MOL
REMARK 922        TOTAL FREE ENERGY PREDICTED BY IDOCK:   -3.98 KCAL/MOL
REMARK 923 INTER-LIGAND FREE ENERGY PREDICTED BY IDOCK:   -3.84 KCAL/MOL
REMARK 924 INTRA-LIGAND FREE ENERGY PREDICTED BY IDOCK:   -0.13 KCAL/MOL
REMARK 927      BINDING AFFINITY PREDICTED BY RF-SCORE:    0.00 PKD
ROOT
HETATM    1  O   UNL     1     -11.858   4.957  73.266  1.00  0.00    -0.264 OA 
HETATM    2  S   UNL     1     -11.103   6.183  72.537  1.00  0.00    -0.286 S  
HETATM    3  O   UNL     1     -10.013   6.579  73.399  1.00  0.00    -0.169 OA 
HETATM    4  O   UNL     1     -12.140   7.120  72.160  1.00  0.00    -0.292 OA 
HETATM    5  C   UNL     1     -10.416   5.466  71.068  1.00  0.00    -0.232 A  
HETATM    6  C   UNL     1     -10.789   5.974  69.815  1.00  0.00    -0.433 A  
HETATM    7  C   UNL     1     -10.220   5.344  68.706  1.00  0.00    -0.182 A  
HETATM    8  C   UNL     1      -9.331   4.282  68.797  1.00  0.00    -0.153 A  
HETATM    9  C   UNL     1      -8.965   3.797  70.062  1.00  0.00    -0.169 A  
HETATM   10  N   UNL     1      -8.940   3.869  67.549  1.00  0.00    -0.123 NA 
HETATM   11  C   UNL     1      -9.519   4.399  71.201  1.00  0.00    -0.228 A  
HETATM   12  C   UNL     1      -9.560   4.652  66.682  1.00  0.00    -0.182 A  
HETATM   13  H   UNL     1      -8.297   3.107  67.332  1.00  0.00     0.000 HD 
HETATM   14  N   UNL     1     -10.349   5.557  67.359  1.00  0.00    -0.216 NA 
ENDROOT
BRANCH  12  15
HETATM   15  C   UNL     1      -9.429   4.600  65.220  1.00  0.00    -0.165 A  
HETATM   16  C   UNL     1      -8.520   5.458  64.581  1.00  0.00    -0.126 A  
HETATM   17  C   UNL     1      -8.386   5.463  63.190  1.00  0.00    -0.101 A  
HETATM   18  C   UNL     1      -9.159   4.603  62.415  1.00  0.00    -0.124 A  
HETATM   19  C   UNL     1     -10.057   3.736  63.030  1.00  0.00    -0.171 A  
HETATM   20  C   UNL     1     -10.191   3.732  64.422  1.00  0.00    -0.227 A  
ENDBRANCH  12  15
TORSDOF 1
ENDMDL
MODEL      114
REMARK 921   NORMALIZED FREE ENERGY PREDICTED BY IDOCK:   -3.59 KCAL/MOL
REMARK 922        TOTAL FREE ENERGY PREDICTED BY IDOCK:   -3.93 KCAL/MOL
REMARK 923 INTER-LIGAND FREE ENERGY PREDICTED BY IDOCK:   -3.79 KCAL/MOL
REMARK 924 INTRA-LIGAND FREE ENERGY PREDICTED BY IDOCK:   -0.14 KCAL/MOL
REMARK 927      BINDING AFFINITY PREDICTED BY RF-SCORE:    0.00 PKD
ROOT
HETATM    1  O   UNL     1      -6.796   5.880  63.803  1.00  0.00    -0.036 OA 
HETATM    2  S   UNL     1      -7.634   4.792  64.650  1.00  0.00    -0.078 S  
HETATM    3  O   UNL     1      -6.726   3.712  64.963  1.00  0.00    -0.045 OA 
HETATM    4  O   UNL     1      -8.851   4.558  63.903  1.00  0.00    -0.138 OA 
HETATM    5  C   UNL     1      -8.040   5.628  66.161  1.00  0.00    -0.108 A  
HETATM    6  C   UNL     1      -9.387   5.790  66.516  1.00  0.00    -0.162 A  
HETATM    7  C   UNL     1      -9.626   6.476  67.710  1.00  0.00    -0.122 A  
HETATM    8  C   UNL     1      -8.619   6.975  68.524  1.00  0.00    -0.123 A  
HETATM    9  C   UNL     1      -7.279   6.793  68.152  1.00  0.00    -0.091 A  
HETATM   10  N   UNL     1      -9.151   7.599  69.624  1.00  0.00    -0.147 NA 
HETATM   11  C   UNL     1      -6.997   6.114  66.958  1.00  0.00    -0.072 A  
HETATM   12  C   UNL     1     -10.465   7.495  69.517  1.00  0.00    -0.226 A  
HETATM   13  H   UNL     1      -8.633   8.055  70.377  1.00  0.00     0.000 HD 
HETATM   14  N   UNL     1     -10.783   6.819  68.359  1.00  0.00    -0.228 NA 
ENDROOT
BRANCH  12  15
HETATM   15  C   UNL     1     -11.455   7.996  70.481  1.00  0.00    -0.192 A  
HETATM   16  C   UNL     1     -12.465   7.136  70.937  1.00  0.00    -0.302 A  
HETATM   17  C   UNL     1     -13.444   7.580  71.829  1.00  0.00    -0.381 A  
HETATM   18  C   UNL     1     -13.425   8.896  72.283  1.00  0.00    -0.503 A  
HETATM   19  C   UNL     1     -12.424   9.762  71.852  1.00  0.00    -0.451 A  
HETATM   20  C   UNL     1     -11.445   9.316  70.959  1.00  0.00    -0.387 A  
ENDBRANCH  12  15
TORSDOF 1
ENDMDL
MODEL      115
REMARK 921   NORMALIZED FREE ENERGY PREDICTED BY IDOCK:   -3.54 KCAL/MOL
REMARK 922        TOTAL FREE ENERGY PREDICTED BY IDOCK:   -3.88 KCAL/MOL
REMARK 923 INTER-LIGAND FREE ENERGY PREDICTED BY IDOCK:   -3.73 KCAL/MOL
REMARK 924 INTRA-LIGAND FREE ENERGY PREDICTED BY IDOCK:   -0.15 KCAL/MOL
REMARK 927      BINDING AFFINITY PREDICTED BY RF-SCORE:    0.00 PKD
ROOT
HETATM    1  O   UNL     1      -7.570  11.021  63.345  1.00  0.00     0.270 OA 
HETATM    2  S   UNL     1      -9.135  10.627  63.383  1.00  0.00    -0.264 S  
HETATM    3  O   UNL     1      -9.342   9.627  62.360  1.00  0.00    -0.271 OA 
HETATM    4  O   UNL     1      -9.860  11.880  63.366  1.00  0.00    -0.393 OA 
HETATM    5  C   UNL     1      -9.358   9.856  64.964  1.00  0.00    -0.264 A  
HETATM    6  C   UNL     1     -10.275  10.403  65.873  1.00  0.00    -0.302 A  
HETATM    7  C   UNL     1     -10.379   9.751  67.104  1.00  0.00    -0.248 A  
HETATM    8  C   UNL     1      -9.642   8.624  67.442  1.00  0.00    -0.159 A  
HETATM    9  C   UNL     1      -8.737   8.089  66.512  1.00  0.00    -0.161 A  
HETATM   10  N   UNL     1      -9.952   8.204  68.710  1.00  0.00    -0.184 NA 
HETATM   11  C   UNL     1      -8.599   8.719  65.267  1.00  0.00    -0.212 A  
HETATM   12  C   UNL     1     -10.870   9.039  69.168  1.00  0.00    -0.089 A  
HETATM   13  H   UNL     1      -9.553   7.404  69.203  1.00  0.00     0.000 HD 
HETATM   14  N   UNL     1     -11.146   9.993  68.213  1.00  0.00    -0.228 NA 
ENDROOT
BRANCH  12  15
HETATM   15  C   UNL     1     -11.525   8.970  70.482  1.00  0.00    -0.248 A  
HETATM   16  C   UNL     1     -12.281  10.064  70.931  1.00  0.00    -0.441 A  
HETATM   17  C   UNL     1     -12.894  10.052  72.186  1.00  0.00    -0.414 A  
HETATM   18  C   UNL     1     -12.762   8.940  73.014  1.00  0.00     0.427 A  
HETATM   19  C   UNL     1     -12.026   7.840  72.582  1.00  0.00    -0.257 A  
HETATM   20  C   UNL     1     -11.413   7.853  71.325  1.00  0.00    -0.293 A  
ENDBRANCH  12  15
TORSDOF 1
ENDMDL
MODEL      116
REMARK 921   NORMALIZED FREE ENERGY PREDICTED BY IDOCK:   -3.48 KCAL/MOL
REMARK 922        TOTAL FREE ENERGY PREDICTED BY IDOCK:   -3.82 KCAL/MOL
REMARK 923 INTER-LIGAND FREE ENERGY PREDICTED BY IDOCK:   -3.67 KCAL/MOL
REMARK 924 INTRA-LIGAND FREE ENERGY PREDICTED BY IDOCK:   -0.15 KCAL/MOL
REMARK 927      BINDING AFFINITY PREDICTED BY RF-SCORE:    0.00 PKD
ROOT
HETATM    1  O   UNL     1     -10.570   5.084  70.782  1.00  0.00    -0.193 OA 
HETATM    2  S   UNL     1      -9.132   5.786  70.580  1.00  0.00    -0.148 S  
HETATM    3  O   UNL     1      -8.287   4.830  69.900  1.00  0.00    -0.068 OA 
HETATM    4  O   UNL     1      -8.767   6.324  71.873  1.00  0.00    -0.135 OA 
HETATM    5  C   UNL     1      -9.450   7.132  69.469  1.00  0.00    -0.151 A  
HETATM    6  C   UNL     1      -9.161   8.443  69.875  1.00  0.00    -0.146 A  
HETATM    7  C   UNL     1      -9.458   9.448  68.952  1.00  0.00    -0.154 A  
HETATM    8  C   UNL     1     -10.000   9.205  67.698  1.00  0.00    -0.195 A  
HETATM    9  C   UNL     1     -10.271   7.883  67.310  1.00  0.00    -0.343 A  
HETATM   10  N   UNL     1     -10.184  10.379  67.013  1.00  0.00    -0.215 NA 
HETATM   11  C   UNL     1      -9.992   6.846  68.210  1.00  0.00    -0.162 A  
HETATM   12  C   UNL     1      -9.764  11.348  67.810  1.00  0.00    -0.175 A  
HETATM   13  H   UNL     1     -10.569  10.484  66.074  1.00  0.00     0.000 HD 
HETATM   14  N   UNL     1      -9.319  10.810  68.998  1.00  0.00    -0.181 NA 
ENDROOT
BRANCH  12  15
HETATM   15  C   UNL     1      -9.743  12.782  67.491  1.00  0.00    -0.201 A  
HETATM   16  C   UNL     1      -9.202  13.684  68.420  1.00  0.00    -0.169 A  
HETATM   17  C   UNL     1      -9.191  15.059  68.171  1.00  0.00    -0.183 A  
HETATM   18  C   UNL     1      -9.721  15.554  66.983  1.00  0.00    -0.230 A  
HETATM   19  C   UNL     1     -10.252  14.675  66.042  1.00  0.00    -0.326 A  
HETATM   20  C   UNL     1     -10.262  13.299  66.293  1.00  0.00    -0.296 A  
ENDBRANCH  12  15
TORSDOF 1
ENDMDL
MODEL      117
REMARK 921   NORMALIZED FREE ENERGY PREDICTED BY IDOCK:   -3.43 KCAL/MOL
REMARK 922        TOTAL FREE ENERGY PREDICTED BY IDOCK:   -3.77 KCAL/MOL
REMARK 923 INTER-LIGAND FREE ENERGY PREDICTED BY IDOCK:   -3.63 KCAL/MOL
REMARK 924 INTRA-LIGAND FREE ENERGY PREDICTED BY IDOCK:   -0.14 KCAL/MOL
REMARK 927      BINDING AFFINITY PREDICTED BY RF-SCORE:    0.00 PKD
ROOT
HETATM    1  O   UNL     1     -11.171   7.629  73.134  1.00  0.00    -0.391 OA 
HETATM    2  S   UNL     1      -9.665   7.343  72.629  1.00  0.00    -0.181 S  
HETATM    3  O   UNL     1      -9.289   6.043  73.136  1.00  0.00    -0.140 OA 
HETATM    4  O   UNL     1      -8.903   8.528  72.961  1.00  0.00    -0.321 OA 
HETATM    5  C   UNL     1      -9.806   7.229  70.864  1.00  0.00    -0.184 A  
HETATM    6  C   UNL     1      -9.076   8.113  70.057  1.00  0.00    -0.151 A  
HETATM    7  C   UNL     1      -9.257   7.973  68.679  1.00  0.00    -0.143 A  
HETATM    8  C   UNL     1     -10.092   7.024  68.105  1.00  0.00    -0.169 A  
HETATM    9  C   UNL     1     -10.805   6.143  68.934  1.00  0.00    -0.406 A  
HETATM   10  N   UNL     1     -10.069   7.121  66.737  1.00  0.00    -0.324 NA 
HETATM   11  C   UNL     1     -10.656   6.256  70.323  1.00  0.00    -0.305 A  
HETATM   12  C   UNL     1      -9.234   8.105  66.445  1.00  0.00    -0.199 A  
HETATM   13  H   UNL     1     -10.594   6.548  66.076  1.00  0.00     0.000 HD 
HETATM   14  N   UNL     1      -8.728   8.643  67.608  1.00  0.00    -0.135 NA 
ENDROOT
BRANCH  12  15
HETATM   15  C   UNL     1      -8.870   8.559  65.095  1.00  0.00    -0.116 A  
HETATM   16  C   UNL     1      -8.471   7.612  64.138  1.00  0.00     0.216 A  
HETATM   17  C   UNL     1      -8.087   8.003  62.853  1.00  0.00    -0.126 A  
HETATM   18  C   UNL     1      -8.099   9.351  62.504  1.00  0.00    -0.141 A  
HETATM   19  C   UNL     1      -8.503  10.304  63.435  1.00  0.00    -0.185 A  
HETATM   20  C   UNL     1      -8.887   9.911  64.721  1.00  0.00    -0.232 A  
ENDBRANCH  12  15
TORSDOF 1
ENDMDL
MODEL      118
REMARK 921   NORMALIZED FREE ENERGY PREDICTED BY IDOCK:   -3.42 KCAL/MOL
REMARK 922        TOTAL FREE ENERGY PREDICTED BY IDOCK:   -3.76 KCAL/MOL
REMARK 923 INTER-LIGAND FREE ENERGY PREDICTED BY IDOCK:   -3.61 KCAL/MOL
REMARK 924 INTRA-LIGAND FREE ENERGY PREDICTED BY IDOCK:   -0.15 KCAL/MOL
REMARK 927      BINDING AFFINITY PREDICTED BY RF-SCORE:    0.00 PKD
ROOT
HETATM    1  O   UNL     1      -7.355  16.249  69.338  1.00  0.00    -0.230 OA 
HETATM    2  S   UNL     1      -8.141  15.902  67.972  1.00  0.00    -0.143 S  
HETATM    3  O   UNL     1      -7.475  16.618  66.908  1.00  0.00    -0.179 OA 
HETATM    4  O   UNL     1      -9.544  16.114  68.257  1.00  0.00    -0.210 OA 
HETATM    5  C   UNL     1      -7.861  14.167  67.731  1.00  0.00    -0.170 A  
HETATM    6  C   UNL     1      -8.959  13.296  67.666  1.00  0.00    -0.199 A  
HETATM    7  C   UNL     1      -8.655  11.943  67.495  1.00  0.00    -0.160 A  
HETATM    8  C   UNL     1      -7.361  11.453  67.384  1.00  0.00    -0.119 A  
HETATM    9  C   UNL     1      -6.280  12.346  67.443  1.00  0.00    -0.158 A  
HETATM   10  N   UNL     1      -7.371  10.091  67.225  1.00  0.00    -0.090 NA 
HETATM   11  C   UNL     1      -6.542  13.711  67.620  1.00  0.00    -0.176 A  
HETATM   12  C   UNL     1      -8.641   9.721  67.227  1.00  0.00    -0.128 A  
HETATM   13  H   UNL     1      -6.558   9.482  67.124  1.00  0.00     0.000 HD 
HETATM   14  N   UNL     1      -9.445  10.828  67.393  1.00  0.00    -0.154 NA 
ENDROOT
BRANCH  12  15
HETATM   15  C   UNL     1      -9.144   8.350  67.059  1.00  0.00    -0.171 A  
HETATM   16  C   UNL     1     -10.466   8.055  67.427  1.00  0.00    -0.357 A  
HETATM   17  C   UNL     1     -10.974   6.758  67.313  1.00  0.00    -0.433 A  
HETATM   18  C   UNL     1     -10.166   5.735  66.825  1.00  0.00    -0.269 A  
HETATM   19  C   UNL     1      -8.856   6.011  66.443  1.00  0.00    -0.137 A  
HETATM   20  C   UNL     1      -8.348   7.308  66.558  1.00  0.00    -0.121 A  
ENDBRANCH  12  15
TORSDOF 1
ENDMDL
MODEL      119
REMARK 921   NORMALIZED FREE ENERGY PREDICTED BY IDOCK:   -3.38 KCAL/MOL
REMARK 922        TOTAL FREE ENERGY PREDICTED BY IDOCK:   -3.72 KCAL/MOL
REMARK 923 INTER-LIGAND FREE ENERGY PREDICTED BY IDOCK:   -3.57 KCAL/MOL
REMARK 924 INTRA-LIGAND FREE ENERGY PREDICTED BY IDOCK:   -0.15 KCAL/MOL
REMARK 927      BINDING AFFINITY PREDICTED BY RF-SCORE:    0.00 PKD
ROOT
HETATM    1  O   UNL     1     -11.239  16.609  69.027  1.00  0.00    -0.271 OA 
HETATM    2  S   UNL     1     -10.201  15.618  69.765  1.00  0.00    -0.291 S  
HETATM    3  O   UNL     1     -10.795  15.254  71.032  1.00  0.00    -0.295 OA 
HETATM    4  O   UNL     1      -8.912  16.272  69.700  1.00  0.00    -0.050 OA 
HETATM    5  C   UNL     1     -10.164  14.174  68.736  1.00  0.00    -0.215 A  
HETATM    6  C   UNL     1      -8.947  13.762  68.173  1.00  0.00    -0.190 A  
HETATM    7  C   UNL     1      -9.004  12.628  67.359  1.00  0.00    -0.190 A  
HETATM    8  C   UNL     1     -10.171  11.920  67.106  1.00  0.00    -0.208 A  
HETATM    9  C   UNL     1     -11.374  12.347  67.689  1.00  0.00    -0.371 A  
HETATM   10  N   UNL     1      -9.923  10.857  66.275  1.00  0.00    -0.219 NA 
HETATM   11  C   UNL     1     -11.361  13.484  68.507  1.00  0.00    -0.327 A  
HETATM   12  C   UNL     1      -8.627  10.882  66.010  1.00  0.00    -0.177 A  
HETATM   13  H   UNL     1     -10.604  10.181  65.930  1.00  0.00     0.000 HD 
HETATM   14  N   UNL     1      -8.043  11.951  66.655  1.00  0.00    -0.115 NA 
ENDROOT
BRANCH  12  15
HETATM   15  C   UNL     1      -7.895   9.917  65.178  1.00  0.00    -0.133 A  
HETATM   16  C   UNL     1      -8.605   8.895  64.529  1.00  0.00    -0.155 A  
HETATM   17  C   UNL     1      -7.945   7.938  63.753  1.00  0.00    -0.119 A  
HETATM   18  C   UNL     1      -6.561   7.991  63.612  1.00  0.00    -0.071 A  
HETATM   19  C   UNL     1      -5.841   9.005  64.238  1.00  0.00    -0.070 A  
HETATM   20  C   UNL     1      -6.502   9.962  65.014  1.00  0.00    -0.106 A  
ENDBRANCH  12  15
TORSDOF 1
ENDMDL
MODEL      120
REMARK 921   NORMALIZED FREE ENERGY PREDICTED BY IDOCK:   -3.04 KCAL/MOL
REMARK 922        TOTAL FREE ENERGY PREDICTED BY IDOCK:   -3.36 KCAL/MOL
REMARK 923 INTER-LIGAND FREE ENERGY PREDICTED BY IDOCK:   -3.23 KCAL/MOL
REMARK 924 INTRA-LIGAND FREE ENERGY PREDICTED BY IDOCK:   -0.13 KCAL/MOL
REMARK 927      BINDING AFFINITY PREDICTED BY RF-SCORE:    0.00 PKD
ROOT
HETATM    1  O   UNL     1      -6.724   8.955  71.461  1.00  0.00    -0.084 OA 
HETATM    2  S   UNL     1      -7.059   8.586  69.926  1.00  0.00    -0.051 S  
HETATM    3  O   UNL     1      -7.739   7.310  69.938  1.00  0.00    -0.098 OA 
HETATM    4  O   UNL     1      -5.824   8.772  69.195  1.00  0.00    -0.038 OA 
HETATM    5  C   UNL     1      -8.219   9.827  69.418  1.00  0.00    -0.135 A  
HETATM    6  C   UNL     1      -7.906  10.658  68.333  1.00  0.00    -0.113 A  
HETATM    7  C   UNL     1      -8.862  11.623  68.007  1.00  0.00    -0.162 A  
HETATM    8  C   UNL     1     -10.063  11.777  68.686  1.00  0.00    -0.189 A  
HETATM    9  C   UNL     1     -10.358  10.926  69.763  1.00  0.00     0.011 A  
HETATM   10  N   UNL     1     -10.798  12.801  68.145  1.00  0.00    -0.219 NA 
HETATM   11  C   UNL     1      -9.422   9.948  70.125  1.00  0.00    -0.214 A  
HETATM   12  C   UNL     1     -10.086  13.285  67.141  1.00  0.00    -0.239 A  
HETATM   13  H   UNL     1     -11.714  13.125  68.457  1.00  0.00     0.000 HD 
HETATM   14  N   UNL     1      -8.902  12.589  67.036  1.00  0.00    -0.207 NA 
ENDROOT
BRANCH  12  15
HETATM   15  C   UNL     1     -10.485  14.382  66.248  1.00  0.00    -0.292 A  
HETATM   16  C   UNL     1     -10.244  15.708  66.640  1.00  0.00    -0.283 A  
HETATM   17  C   UNL     1     -10.635  16.781  65.834  1.00  0.00    -0.255 A  
HETATM   18  C   UNL     1     -11.272  16.542  64.620  1.00  0.00    -0.123 A  
HETATM   19  C   UNL     1     -11.509  15.234  64.208  1.00  0.00    -0.162 A  
HETATM   20  C   UNL     1     -11.118  14.161  65.014  1.00  0.00    -0.372 A  
ENDBRANCH  12  15
TORSDOF 1
ENDMDL
MODEL      121
REMARK 921   NORMALIZED FREE ENERGY PREDICTED BY IDOCK:   -2.67 KCAL/MOL
REMARK 922        TOTAL FREE ENERGY PREDICTED BY IDOCK:   -2.96 KCAL/MOL
REMARK 923 INTER-LIGAND FREE ENERGY PREDICTED BY IDOCK:   -2.82 KCAL/MOL
REMARK 924 INTRA-LIGAND FREE ENERGY PREDICTED BY IDOCK:   -0.14 KCAL/MOL
REMARK 927      BINDING AFFINITY PREDICTED BY RF-SCORE:    0.00 PKD
ROOT
HETATM    1  O   UNL     1      -6.588  10.424  72.393  1.00  0.00     1.165 OA 
HETATM    2  S   UNL     1      -6.012  10.170  70.907  1.00  0.00    -0.034 S  
HETATM    3  O   UNL     1      -5.514   8.813  70.874  1.00  0.00    -0.028 OA 
HETATM    4  O   UNL     1      -5.147  11.295  70.619  1.00  0.00    -0.083 OA 
HETATM    5  C   UNL     1      -7.440  10.262  69.859  1.00  0.00    -0.158 A  
HETATM    6  C   UNL     1      -7.481  11.219  68.835  1.00  0.00    -0.123 A  
HETATM    7  C   UNL     1      -8.648  11.241  68.067  1.00  0.00    -0.140 A  
HETATM    8  C   UNL     1      -9.718  10.380  68.268  1.00  0.00    -0.151 A  
HETATM    9  C   UNL     1      -9.648   9.424  69.293  1.00  0.00    -0.171 A  
HETATM   10  N   UNL     1     -10.720  10.633  67.366  1.00  0.00    -0.256 NA 
HETATM   11  C   UNL     1      -8.497   9.373  70.090  1.00  0.00    -0.224 A  
HETATM   12  C   UNL     1     -10.296  11.628  66.604  1.00  0.00    -0.222 A  
HETATM   13  H   UNL     1     -11.615  10.149  67.297  1.00  0.00     0.000 HD 
HETATM   14  N   UNL     1      -9.040  12.020  67.010  1.00  0.00    -0.185 NA 
ENDROOT
BRANCH  12  15
HETATM   15  C   UNL     1     -11.027  12.226  65.477  1.00  0.00    -0.337 A  
HETATM   16  C   UNL     1     -11.297  13.604  65.489  1.00  0.00    -0.308 A  
HETATM   17  C   UNL     1     -12.016  14.207  64.454  1.00  0.00    -0.478 A  
HETATM   18  C   UNL     1     -12.473  13.440  63.386  1.00  0.00    -0.229 A  
HETATM   19  C   UNL     1     -12.205  12.075  63.350  1.00  0.00    -0.627 A  
HETATM   20  C   UNL     1     -11.486  11.472  64.386  1.00  0.00    -0.236 A  
ENDBRANCH  12  15
TORSDOF 1
ENDMDL
MODEL      122
REMARK 921   NORMALIZED FREE ENERGY PREDICTED BY IDOCK:   -2.34 KCAL/MOL
REMARK 922        TOTAL FREE ENERGY PREDICTED BY IDOCK:   -2.62 KCAL/MOL
REMARK 923 INTER-LIGAND FREE ENERGY PREDICTED BY IDOCK:   -2.48 KCAL/MOL
REMARK 924 INTRA-LIGAND FREE ENERGY PREDICTED BY IDOCK:   -0.14 KCAL/MOL
REMARK 927      BINDING AFFINITY PREDICTED BY RF-SCORE:    0.00 PKD
ROOT
HETATM    1  O   UNL     1      -9.295   2.238  72.291  1.00  0.00    -0.082 OA 
HETATM    2  S   UNL     1      -8.555   3.643  72.578  1.00  0.00    -0.090 S  
HETATM    3  O   UNL     1      -7.276   3.331  73.176  1.00  0.00    -0.043 OA 
HETATM    4  O   UNL     1      -9.524   4.469  73.267  1.00  0.00    -0.119 OA 
HETATM    5  C   UNL     1      -8.262   4.324  70.967  1.00  0.00    -0.076 A  
HETATM    6  C   UNL     1      -8.809   5.573  70.639  1.00  0.00    -0.142 A  
HETATM    7  C   UNL     1      -8.551   6.032  69.345  1.00  0.00    -0.122 A  
HETATM    8  C   UNL     1      -7.796   5.329  68.416  1.00  0.00    -0.087 A  
HETATM    9  C   UNL     1      -7.250   4.085  68.772  1.00  0.00    -0.055 A  
HETATM   10  N   UNL     1      -7.711   6.022  67.235  1.00  0.00    -0.096 NA 
HETATM   11  C   UNL     1      -7.492   3.587  70.059  1.00  0.00    -0.044 A  
HETATM   12  C   UNL     1      -8.390   7.144  67.409  1.00  0.00    -0.119 A  
HETATM   13  H   UNL     1      -7.221   5.730  66.390  1.00  0.00     0.000 HD 
HETATM   14  N   UNL     1      -8.915   7.175  68.683  1.00  0.00    -0.132 NA 
ENDROOT
BRANCH  12  15
HETATM   15  C   UNL     1      -8.556   8.217  66.419  1.00  0.00    -0.144 A  
HETATM   16  C   UNL     1      -7.447   8.632  65.665  1.00  0.00    -0.085 A  
HETATM   17  C   UNL     1      -7.554   9.670  64.736  1.00  0.00    -0.122 A  
HETATM   18  C   UNL     1      -8.776  10.309  64.544  1.00  0.00    -0.205 A  
HETATM   19  C   UNL     1      -9.890   9.904  65.273  1.00  0.00    -0.373 A  
HETATM   20  C   UNL     1      -9.783   8.865  66.204  1.00  0.00    -0.338 A  
ENDBRANCH  12  15
TORSDOF 1
ENDMDL
MODEL      123
REMARK 921   NORMALIZED FREE ENERGY PREDICTED BY IDOCK:   -2.34 KCAL/MOL
REMARK 922        TOTAL FREE ENERGY PREDICTED BY IDOCK:   -2.61 KCAL/MOL
REMARK 923 INTER-LIGAND FREE ENERGY PREDICTED BY IDOCK:   -2.47 KCAL/MOL
REMARK 924 INTRA-LIGAND FREE ENERGY PREDICTED BY IDOCK:   -0.15 KCAL/MOL
REMARK 927      BINDING AFFINITY PREDICTED BY RF-SCORE:    0.00 PKD
ROOT
HETATM    1  O   UNL     1     -11.031  15.063  69.000  1.00  0.00    -0.229 OA 
HETATM    2  S   UNL     1     -11.086  13.982  67.803  1.00  0.00    -0.277 S  
HETATM    3  O   UNL     1     -10.524  14.620  66.633  1.00  0.00    -0.271 OA 
HETATM    4  O   UNL     1     -12.437  13.462  67.799  1.00  0.00    -0.085 OA 
HETATM    5  C   UNL     1      -9.978  12.697  68.319  1.00  0.00    -0.229 A  
HETATM    6  C   UNL     1     -10.465  11.390  68.472  1.00  0.00    -0.223 A  
HETATM    7  C   UNL     1      -9.535  10.439  68.901  1.00  0.00    -0.186 A  
HETATM    8  C   UNL     1      -8.203  10.728  69.161  1.00  0.00    -0.120 A  
HETATM    9  C   UNL     1      -7.738  12.041  68.990  1.00  0.00     0.096 A  
HETATM   10  N   UNL     1      -7.532   9.602  69.564  1.00  0.00    -0.085 NA 
HETATM   11  C   UNL     1      -8.640  13.026  68.567  1.00  0.00    -0.049 A  
HETATM   12  C   UNL     1      -8.415   8.616  69.555  1.00  0.00    -0.129 A  
HETATM   13  H   UNL     1      -6.547   9.537  69.820  1.00  0.00     0.000 HD 
HETATM   14  N   UNL     1      -9.643   9.098  69.159  1.00  0.00    -0.158 NA 
ENDROOT
BRANCH  12  15
HETATM   15  C   UNL     1      -8.146   7.211  69.892  1.00  0.00    -0.125 A  
HETATM   16  C   UNL     1      -7.123   6.908  70.804  1.00  0.00    -0.068 A  
HETATM   17  C   UNL     1      -6.813   5.585  71.128  1.00  0.00    -0.057 A  
HETATM   18  C   UNL     1      -7.526   4.541  70.546  1.00  0.00    -0.050 A  
HETATM   19  C   UNL     1      -8.553   4.821  69.648  1.00  0.00    -0.100 A  
HETATM   20  C   UNL     1      -8.862   6.146  69.324  1.00  0.00    -0.124 A  
ENDBRANCH  12  15
TORSDOF 1
ENDMDL
MODEL      124
REMARK 921   NORMALIZED FREE ENERGY PREDICTED BY IDOCK:   -2.18 KCAL/MOL
REMARK 922        TOTAL FREE ENERGY PREDICTED BY IDOCK:   -2.45 KCAL/MOL
REMARK 923 INTER-LIGAND FREE ENERGY PREDICTED BY IDOCK:   -2.31 KCAL/MOL
REMARK 924 INTRA-LIGAND FREE ENERGY PREDICTED BY IDOCK:   -0.14 KCAL/MOL
REMARK 927      BINDING AFFINITY PREDICTED BY RF-SCORE:    0.00 PKD
ROOT
HETATM    1  O   UNL     1      -7.134  12.561  68.855  1.00  0.00    -0.101 OA 
HETATM    2  S   UNL     1      -7.112  11.766  67.451  1.00  0.00    -0.137 S  
HETATM    3  O   UNL     1      -5.893  12.143  66.772  1.00  0.00    -0.265 OA 
HETATM    4  O   UNL     1      -8.409  11.991  66.847  1.00  0.00    -0.171 OA 
HETATM    5  C   UNL     1      -6.984  10.058  67.913  1.00  0.00    -0.084 A  
HETATM    6  C   UNL     1      -7.984   9.160  67.512  1.00  0.00    -0.100 A  
HETATM    7  C   UNL     1      -7.821   7.838  67.932  1.00  0.00    -0.127 A  
HETATM    8  C   UNL     1      -6.746   7.399  68.693  1.00  0.00    -0.057 A  
HETATM    9  C   UNL     1      -5.753   8.315  69.074  1.00  0.00    -0.035 A  
HETATM   10  N   UNL     1      -6.853   6.057  68.954  1.00  0.00    -0.064 NA 
HETATM   11  C   UNL     1      -5.883   9.653  68.677  1.00  0.00    -0.039 A  
HETATM   12  C   UNL     1      -7.966   5.647  68.368  1.00  0.00    -0.100 A  
HETATM   13  H   UNL     1      -6.201   5.487  69.494  1.00  0.00     0.000 HD 
HETATM   14  N   UNL     1      -8.577   6.711  67.742  1.00  0.00    -0.121 NA 
ENDROOT
BRANCH  12  15
HETATM   15  C   UNL     1      -8.481   4.271  68.355  1.00  0.00    -0.103 A  
HETATM   16  C   UNL     1      -8.462   3.543  67.156  1.00  0.00    -0.108 A  
HETATM   17  C   UNL     1      -8.971   2.243  67.092  1.00  0.00    -0.165 A  
HETATM   18  C   UNL     1      -9.505   1.649  68.232  1.00  0.00    -0.236 A  
HETATM   19  C   UNL     1      -9.522   2.350  69.434  1.00  0.00    -0.126 A  
HETATM   20  C   UNL     1      -9.013   3.651  69.497  1.00  0.00    -0.172 A  
ENDBRANCH  12  15
TORSDOF 1
ENDMDL
MODEL      125
REMARK 921   NORMALIZED FREE ENERGY PREDICTED BY IDOCK:   -2.13 KCAL/MOL
REMARK 922        TOTAL FREE ENERGY PREDICTED BY IDOCK:   -2.40 KCAL/MOL
REMARK 923 INTER-LIGAND FREE ENERGY PREDICTED BY IDOCK:   -2.26 KCAL/MOL
REMARK 924 INTRA-LIGAND FREE ENERGY PREDICTED BY IDOCK:   -0.13 KCAL/MOL
REMARK 927      BINDING AFFINITY PREDICTED BY RF-SCORE:    0.00 PKD
ROOT
HETATM    1  O   UNL     1      -6.265  14.100  70.815  1.00  0.00    -0.182 OA 
HETATM    2  S   UNL     1      -6.527  13.924  69.233  1.00  0.00    -0.118 S  
HETATM    3  O   UNL     1      -5.375  14.470  68.552  1.00  0.00    -0.090 OA 
HETATM    4  O   UNL     1      -7.858  14.440  68.991  1.00  0.00    -0.132 OA 
HETATM    5  C   UNL     1      -6.539  12.169  68.980  1.00  0.00    -0.100 A  
HETATM    6  C   UNL     1      -7.682  11.558  68.444  1.00  0.00    -0.129 A  
HETATM    7  C   UNL     1      -7.621  10.171  68.295  1.00  0.00    -0.087 A  
HETATM    8  C   UNL     1      -6.512   9.409  68.636  1.00  0.00    -0.052 A  
HETATM    9  C   UNL     1      -5.376  10.044  69.161  1.00  0.00    -0.035 A  
HETATM   10  N   UNL     1      -6.739   8.080  68.380  1.00  0.00    -0.065 NA 
HETATM   11  C   UNL     1      -5.400  11.435  69.333  1.00  0.00    -0.044 A  
HETATM   12  C   UNL     1      -7.961   7.998  67.881  1.00  0.00    -0.128 A  
HETATM   13  H   UNL     1      -6.092   7.308  68.542  1.00  0.00     0.000 HD 
HETATM   14  N   UNL     1      -8.523   9.254  67.821  1.00  0.00    -0.116 NA 
ENDROOT
BRANCH  12  15
HETATM   15  C   UNL     1      -8.632   6.769  67.433  1.00  0.00    -0.120 A  
HETATM   16  C   UNL     1      -9.249   5.939  68.382  1.00  0.00    -0.118 A  
HETATM   17  C   UNL     1      -9.870   4.746  68.003  1.00  0.00    -0.185 A  
HETATM   18  C   UNL     1      -9.886   4.366  66.664  1.00  0.00    -0.246 A  
HETATM   19  C   UNL     1      -9.290   5.182  65.706  1.00  0.00    -0.163 A  
HETATM   20  C   UNL     1      -8.669   6.375  66.086  1.00  0.00    -0.151 A  
ENDBRANCH  12  15
TORSDOF 1
ENDMDL
MODEL      126
REMARK 921   NORMALIZED FREE ENERGY PREDICTED BY IDOCK:   -2.06 KCAL/MOL
REMARK 922        TOTAL FREE ENERGY PREDICTED BY IDOCK:   -2.32 KCAL/MOL
REMARK 923 INTER-LIGAND FREE ENERGY PREDICTED BY IDOCK:   -2.17 KCAL/MOL
REMARK 924 INTRA-LIGAND FREE ENERGY PREDICTED BY IDOCK:   -0.15 KCAL/MOL
REMARK 927      BINDING AFFINITY PREDICTED BY RF-SCORE:    0.00 PKD
ROOT
HETATM    1  O   UNL     1      -8.045   5.609  74.434  1.00  0.00    -0.104 OA 
HETATM    2  S   UNL     1      -7.766   6.648  73.231  1.00  0.00    -0.090 S  
HETATM    3  O   UNL     1      -6.436   7.178  73.432  1.00  0.00    -0.064 OA 
HETATM    4  O   UNL     1      -8.921   7.519  73.182  1.00  0.00    -0.139 OA 
HETATM    5  C   UNL     1      -7.745   5.639  71.773  1.00  0.00    -0.101 A  
HETATM    6  C   UNL     1      -8.660   5.901  70.743  1.00  0.00    -0.130 A  
HETATM    7  C   UNL     1      -8.595   5.050  69.636  1.00  0.00    -0.088 A  
HETATM    8  C   UNL     1      -7.689   4.004  69.523  1.00  0.00    -0.053 A  
HETATM    9  C   UNL     1      -6.776   3.769  70.563  1.00  0.00    -0.033 A  
HETATM   10  N   UNL     1      -7.857   3.344  68.333  1.00  0.00    -0.059 NA 
HETATM   11  C   UNL     1      -6.814   4.597  71.693  1.00  0.00    -0.039 A  
HETATM   12  C   UNL     1      -8.843   3.957  67.699  1.00  0.00    -0.115 A  
HETATM   13  H   UNL     1      -7.326   2.538  68.002  1.00  0.00     0.000 HD 
HETATM   14  N   UNL     1      -9.313   4.997  68.471  1.00  0.00    -0.120 NA 
ENDROOT
BRANCH  12  15
HETATM   15  C   UNL     1      -9.361   3.614  66.367  1.00  0.00    -0.194 A  
HETATM   16  C   UNL     1      -9.000   2.389  65.786  1.00  0.00    -0.121 A  
HETATM   17  C   UNL     1      -9.445   2.037  64.508  1.00  0.00    -0.110 A  
HETATM   18  C   UNL     1     -10.263   2.908  63.793  1.00  0.00    -0.176 A  
HETATM   19  C   UNL     1     -10.642   4.122  64.357  1.00  0.00    -0.157 A  
HETATM   20  C   UNL     1     -10.196   4.474  65.635  1.00  0.00    -0.275 A  
ENDBRANCH  12  15
TORSDOF 1
ENDMDL
MODEL      127
REMARK 921   NORMALIZED FREE ENERGY PREDICTED BY IDOCK:   -2.01 KCAL/MOL
REMARK 922        TOTAL FREE ENERGY PREDICTED BY IDOCK:   -2.26 KCAL/MOL
REMARK 923 INTER-LIGAND FREE ENERGY PREDICTED BY IDOCK:   -2.12 KCAL/MOL
REMARK 924 INTRA-LIGAND FREE ENERGY PREDICTED BY IDOCK:   -0.14 KCAL/MOL
REMARK 927      BINDING AFFINITY PREDICTED BY RF-SCORE:    0.00 PKD
ROOT
HETATM    1  O   UNL     1      -9.592   4.270  74.166  1.00  0.00    -0.105 OA 
HETATM    2  S   UNL     1     -10.110   5.372  73.108  1.00  0.00    -0.191 S  
HETATM    3  O   UNL     1      -9.796   6.670  73.662  1.00  0.00    -0.180 OA 
HETATM    4  O   UNL     1     -11.473   5.004  72.786  1.00  0.00    -0.239 OA 
HETATM    5  C   UNL     1      -9.095   5.121  71.676  1.00  0.00    -0.141 A  
HETATM    6  C   UNL     1      -9.699   4.799  70.452  1.00  0.00    -0.289 A  
HETATM    7  C   UNL     1      -8.830   4.597  69.377  1.00  0.00    -0.088 A  
HETATM    8  C   UNL     1      -7.450   4.706  69.472  1.00  0.00    -0.052 A  
HETATM    9  C   UNL     1      -6.869   5.038  70.706  1.00  0.00    -0.040 A  
HETATM   10  N   UNL     1      -6.858   4.453  68.260  1.00  0.00    -0.050 NA 
HETATM   11  C   UNL     1      -7.706   5.244  71.811  1.00  0.00    -0.109 A  
HETATM   12  C   UNL     1      -7.839   4.196  67.410  1.00  0.00    -0.091 A  
HETATM   13  H   UNL     1      -5.859   4.462  68.055  1.00  0.00     0.000 HD 
HETATM   14  N   UNL     1      -9.050   4.273  68.064  1.00  0.00    -0.123 NA 
ENDROOT
BRANCH  12  15
HETATM   15  C   UNL     1      -7.688   3.892  65.981  1.00  0.00    -0.089 A  
HETATM   16  C   UNL     1      -8.417   2.830  65.424  1.00  0.00    -0.099 A  
HETATM   17  C   UNL     1      -8.279   2.488  64.076  1.00  0.00    -0.082 A  
HETATM   18  C   UNL     1      -7.409   3.208  63.262  1.00  0.00    -0.053 A  
HETATM   19  C   UNL     1      -6.686   4.272  63.792  1.00  0.00    -0.043 A  
HETATM   20  C   UNL     1      -6.824   4.614  65.141  1.00  0.00    -0.057 A  
ENDBRANCH  12  15
TORSDOF 1
ENDMDL
MODEL      128
REMARK 921   NORMALIZED FREE ENERGY PREDICTED BY IDOCK:   -1.97 KCAL/MOL
REMARK 922        TOTAL FREE ENERGY PREDICTED BY IDOCK:   -2.23 KCAL/MOL
REMARK 923 INTER-LIGAND FREE ENERGY PREDICTED BY IDOCK:   -2.08 KCAL/MOL
REMARK 924 INTRA-LIGAND FREE ENERGY PREDICTED BY IDOCK:   -0.15 KCAL/MOL
REMARK 927      BINDING AFFINITY PREDICTED BY RF-SCORE:    0.00 PKD
ROOT
HETATM    1  O   UNL     1      -5.961  16.570  70.528  1.00  0.00    -0.065 OA 
HETATM    2  S   UNL     1      -6.249  14.983  70.575  1.00  0.00     0.018 S  
HETATM    3  O   UNL     1      -6.587  14.656  71.942  1.00  0.00     0.682 OA 
HETATM    4  O   UNL     1      -5.127  14.356  69.909  1.00  0.00    -0.092 OA 
HETATM    5  C   UNL     1      -7.700  14.769  69.579  1.00  0.00    -0.068 A  
HETATM    6  C   UNL     1      -7.645  13.935  68.453  1.00  0.00    -0.130 A  
HETATM    7  C   UNL     1      -8.823  13.834  67.709  1.00  0.00    -0.188 A  
HETATM    8  C   UNL     1      -9.998  14.496  68.036  1.00  0.00    -0.222 A  
HETATM    9  C   UNL     1     -10.032  15.317  69.173  1.00  0.00    -0.238 A  
HETATM   10  N   UNL     1     -10.985  14.208  67.128  1.00  0.00    -0.294 NA 
HETATM   11  C   UNL     1      -8.868  15.449  69.943  1.00  0.00     0.136 A  
HETATM   12  C   UNL     1     -10.454  13.377  66.246  1.00  0.00    -0.289 A  
HETATM   13  H   UNL     1     -11.941  14.565  67.132  1.00  0.00     0.000 HD 
HETATM   14  N   UNL     1      -9.138  13.135  66.573  1.00  0.00    -0.179 NA 
ENDROOT
BRANCH  12  15
HETATM   15  C   UNL     1     -11.146  12.776  65.097  1.00  0.00    -0.323 A  
HETATM   16  C   UNL     1     -10.395  12.115  64.113  1.00  0.00    -0.382 A  
HETATM   17  C   UNL     1     -11.010  11.556  62.989  1.00  0.00    -0.035 A  
HETATM   18  C   UNL     1     -12.390  11.647  62.835  1.00  0.00     0.283 A  
HETATM   19  C   UNL     1     -13.154  12.288  63.806  1.00  0.00    -0.165 A  
HETATM   20  C   UNL     1     -12.538  12.847  64.930  1.00  0.00    -0.525 A  
ENDBRANCH  12  15
TORSDOF 1
ENDMDL
MODEL      129
REMARK 921   NORMALIZED FREE ENERGY PREDICTED BY IDOCK:   -1.97 KCAL/MOL
REMARK 922        TOTAL FREE ENERGY PREDICTED BY IDOCK:   -2.23 KCAL/MOL
REMARK 923 INTER-LIGAND FREE ENERGY PREDICTED BY IDOCK:   -2.08 KCAL/MOL
REMARK 924 INTRA-LIGAND FREE ENERGY PREDICTED BY IDOCK:   -0.15 KCAL/MOL
REMARK 927      BINDING AFFINITY PREDICTED BY RF-SCORE:    0.00 PKD
ROOT
HETATM    1  O   UNL     1      -7.596  16.538  69.572  1.00  0.00    -0.147 OA 
HETATM    2  S   UNL     1      -8.608  15.799  68.555  1.00  0.00    -0.194 S  
HETATM    3  O   UNL     1      -8.606  16.564  67.329  1.00  0.00    -0.177 OA 
HETATM    4  O   UNL     1      -9.829  15.579  69.301  1.00  0.00    -0.233 OA 
HETATM    5  C   UNL     1      -7.843  14.232  68.232  1.00  0.00    -0.141 A  
HETATM    6  C   UNL     1      -8.534  13.052  68.544  1.00  0.00    -0.048 A  
HETATM    7  C   UNL     1      -7.857  11.859  68.279  1.00  0.00    -0.141 A  
HETATM    8  C   UNL     1      -6.581  11.804  67.734  1.00  0.00    -0.075 A  
HETATM    9  C   UNL     1      -5.914  12.998  67.422  1.00  0.00    -0.047 A  
HETATM   10  N   UNL     1      -6.173  10.503  67.586  1.00  0.00    -0.055 NA 
HETATM   11  C   UNL     1      -6.557  14.217  67.678  1.00  0.00    -0.173 A  
HETATM   12  C   UNL     1      -7.168   9.746  68.021  1.00  0.00    -0.080 A  
HETATM   13  H   UNL     1      -5.279  10.182  67.215  1.00  0.00     0.000 HD 
HETATM   14  N   UNL     1      -8.204  10.545  68.451  1.00  0.00    -0.116 NA 
ENDROOT
BRANCH  12  15
HETATM   15  C   UNL     1      -7.195   8.276  68.033  1.00  0.00    -0.094 A  
HETATM   16  C   UNL     1      -5.989   7.569  68.157  1.00  0.00    -0.035 A  
HETATM   17  C   UNL     1      -5.967   6.172  68.141  1.00  0.00    -0.016 A  
HETATM   18  C   UNL     1      -7.155   5.459  68.004  1.00  0.00    -0.067 A  
HETATM   19  C   UNL     1      -8.362   6.142  67.892  1.00  0.00    -0.117 A  
HETATM   20  C   UNL     1      -8.384   7.540  67.907  1.00  0.00    -0.123 A  
ENDBRANCH  12  15
TORSDOF 1
ENDMDL
MODEL      130
REMARK 921   NORMALIZED FREE ENERGY PREDICTED BY IDOCK:   -1.40 KCAL/MOL
REMARK 922        TOTAL FREE ENERGY PREDICTED BY IDOCK:   -1.62 KCAL/MOL
REMARK 923 INTER-LIGAND FREE ENERGY PREDICTED BY IDOCK:   -1.47 KCAL/MOL
REMARK 924 INTRA-LIGAND FREE ENERGY PREDICTED BY IDOCK:   -0.15 KCAL/MOL
REMARK 927      BINDING AFFINITY PREDICTED BY RF-SCORE:    0.00 PKD
ROOT
HETATM    1  O   UNL     1      -5.612   5.640  66.147  1.00  0.00    -0.012 OA 
HETATM    2  S   UNL     1      -6.290   6.685  65.121  1.00  0.00    -0.043 S  
HETATM    3  O   UNL     1      -7.448   6.030  64.555  1.00  0.00    -0.070 OA 
HETATM    4  O   UNL     1      -5.216   7.170  64.280  1.00  0.00    -0.027 OA 
HETATM    5  C   UNL     1      -6.854   8.012  66.153  1.00  0.00    -0.058 A  
HETATM    6  C   UNL     1      -6.369   9.310  65.931  1.00  0.00    -0.060 A  
HETATM    7  C   UNL     1      -6.846  10.296  66.798  1.00  0.00    -0.088 A  
HETATM    8  C   UNL     1      -7.749  10.049  67.822  1.00  0.00    -0.090 A  
HETATM    9  C   UNL     1      -8.228   8.744  68.018  1.00  0.00    -0.118 A  
HETATM   10  N   UNL     1      -8.035  11.203  68.506  1.00  0.00    -0.136 NA 
HETATM   11  C   UNL     1      -7.769   7.725  67.173  1.00  0.00    -0.105 A  
HETATM   12  C   UNL     1      -7.334  12.165  67.928  1.00  0.00    -0.108 A  
HETATM   13  H   UNL     1      -8.663  11.300  69.304  1.00  0.00     0.000 HD 
HETATM   14  N   UNL     1      -6.599  11.641  66.887  1.00  0.00    -0.140 NA 
ENDROOT
BRANCH  12  15
HETATM   15  C   UNL     1      -7.339  13.586  68.305  1.00  0.00    -0.116 A  
HETATM   16  C   UNL     1      -6.496  14.479  67.626  1.00  0.00    -0.153 A  
HETATM   17  C   UNL     1      -6.446  15.831  67.974  1.00  0.00    -0.150 A  
HETATM   18  C   UNL     1      -7.245  16.313  69.007  1.00  0.00    -0.204 A  
HETATM   19  C   UNL     1      -8.097  15.446  69.685  1.00  0.00    -0.134 A  
HETATM   20  C   UNL     1      -8.146  14.092  69.336  1.00  0.00     0.341 A  
ENDBRANCH  12  15
TORSDOF 1
ENDMDL
MODEL      131
REMARK 921   NORMALIZED FREE ENERGY PREDICTED BY IDOCK:   -1.04 KCAL/MOL
REMARK 922        TOTAL FREE ENERGY PREDICTED BY IDOCK:   -1.24 KCAL/MOL
REMARK 923 INTER-LIGAND FREE ENERGY PREDICTED BY IDOCK:   -1.09 KCAL/MOL
REMARK 924 INTRA-LIGAND FREE ENERGY PREDICTED BY IDOCK:   -0.15 KCAL/MOL
REMARK 927      BINDING AFFINITY PREDICTED BY RF-SCORE:    0.00 PKD
ROOT
HETATM    1  O   UNL     1      -5.416  13.170  71.827  1.00  0.00    -0.361 OA 
HETATM    2  S   UNL     1      -6.150  14.454  71.181  1.00  0.00     0.064 S  
HETATM    3  O   UNL     1      -5.127  15.445  70.936  1.00  0.00    -0.138 OA 
HETATM    4  O   UNL     1      -7.282  14.737  72.038  1.00  0.00     1.940 OA 
HETATM    5  C   UNL     1      -6.748  13.877  69.614  1.00  0.00    -0.039 A  
HETATM    6  C   UNL     1      -8.122  13.930  69.340  1.00  0.00     0.492 A  
HETATM    7  C   UNL     1      -8.516  13.438  68.093  1.00  0.00    -0.172 A  
HETATM    8  C   UNL     1      -7.631  12.928  67.153  1.00  0.00    -0.028 A  
HETATM    9  C   UNL     1      -6.259  12.894  67.447  1.00  0.00    -0.109 A  
HETATM   10  N   UNL     1      -8.301  12.521  66.027  1.00  0.00    -0.014 NA 
HETATM   11  C   UNL     1      -5.824  13.372  68.690  1.00  0.00    -0.084 A  
HETATM   12  C   UNL     1      -9.583  12.772  66.242  1.00  0.00    -0.242 A  
HETATM   13  H   UNL     1      -7.892  12.107  65.190  1.00  0.00     0.000 HD 
HETATM   14  N   UNL     1      -9.742  13.328  67.492  1.00  0.00    -0.219 NA 
ENDROOT
BRANCH  12  15
HETATM   15  C   UNL     1     -10.682  12.526  65.298  1.00  0.00    -0.318 A  
HETATM   16  C   UNL     1     -10.393  11.991  64.033  1.00  0.00    -0.406 A  
HETATM   17  C   UNL     1     -11.405  11.770  63.095  1.00  0.00    -0.198 A  
HETATM   18  C   UNL     1     -12.725  12.080  63.410  1.00  0.00    -0.527 A  
HETATM   19  C   UNL     1     -13.033  12.600  64.664  1.00  0.00    -0.225 A  
HETATM   20  C   UNL     1     -12.021  12.820  65.602  1.00  0.00    -0.503 A  
ENDBRANCH  12  15
TORSDOF 1
ENDMDL
MODEL      132
REMARK 921   NORMALIZED FREE ENERGY PREDICTED BY IDOCK:   -0.26 KCAL/MOL
REMARK 922        TOTAL FREE ENERGY PREDICTED BY IDOCK:   -0.41 KCAL/MOL
REMARK 923 INTER-LIGAND FREE ENERGY PREDICTED BY IDOCK:   -0.27 KCAL/MOL
REMARK 924 INTRA-LIGAND FREE ENERGY PREDICTED BY IDOCK:   -0.14 KCAL/MOL
REMARK 927      BINDING AFFINITY PREDICTED BY RF-SCORE:    0.00 PKD
ROOT
HETATM    1  O   UNL     1     -10.442  19.861  67.760  1.00  0.00    -0.407 OA 
HETATM    2  S   UNL     1     -11.075  18.561  67.042  1.00  0.00     0.404 S  
HETATM    3  O   UNL     1     -11.384  18.940  65.682  1.00  0.00     0.245 OA 
HETATM    4  O   UNL     1     -12.103  18.075  67.938  1.00  0.00     1.882 OA 
HETATM    5  C   UNL     1      -9.746  17.388  67.003  1.00  0.00    -0.276 A  
HETATM    6  C   UNL     1      -9.904  16.148  67.639  1.00  0.00    -0.236 A  
HETATM    7  C   UNL     1      -8.805  15.287  67.581  1.00  0.00    -0.175 A  
HETATM    8  C   UNL     1      -7.616  15.600  66.937  1.00  0.00    -0.166 A  
HETATM    9  C   UNL     1      -7.486  16.843  66.299  1.00  0.00    -0.282 A  
HETATM   10  N   UNL     1      -6.720  14.567  67.044  1.00  0.00    -0.272 NA 
HETATM   11  C   UNL     1      -8.564  17.738  66.339  1.00  0.00    -0.260 A  
HETATM   12  C   UNL     1      -7.326  13.615  67.735  1.00  0.00    -0.166 A  
HETATM   13  H   UNL     1      -5.774  14.539  66.665  1.00  0.00     0.000 HD 
HETATM   14  N   UNL     1      -8.595  14.028  68.078  1.00  0.00    -0.169 NA 
ENDROOT
BRANCH  12  15
HETATM   15  C   UNL     1      -6.761  12.303  68.079  1.00  0.00    -0.081 A  
HETATM   16  C   UNL     1      -7.319  11.146  67.513  1.00  0.00    -0.102 A  
HETATM   17  C   UNL     1      -6.832   9.877  67.837  1.00  0.00    -0.076 A  
HETATM   18  C   UNL     1      -5.775   9.745  68.732  1.00  0.00    -0.035 A  
HETATM   19  C   UNL     1      -5.200  10.881  69.295  1.00  0.00    -0.041 A  
HETATM   20  C   UNL     1      -5.687  12.151  68.971  1.00  0.00    -0.062 A  
ENDBRANCH  12  15
TORSDOF 1
ENDMDL
MODEL      133
REMARK 921   NORMALIZED FREE ENERGY PREDICTED BY IDOCK:    0.69 KCAL/MOL
REMARK 922        TOTAL FREE ENERGY PREDICTED BY IDOCK:    0.59 KCAL/MOL
REMARK 923 INTER-LIGAND FREE ENERGY PREDICTED BY IDOCK:    0.74 KCAL/MOL
REMARK 924 INTRA-LIGAND FREE ENERGY PREDICTED BY IDOCK:   -0.15 KCAL/MOL
REMARK 927      BINDING AFFINITY PREDICTED BY RF-SCORE:    0.00 PKD
ROOT
HETATM    1  O   UNL     1     -12.587  11.930  72.495  1.00  0.00     0.459 OA 
HETATM    2  S   UNL     1     -13.600  13.029  71.888  1.00  0.00    -0.236 S  
HETATM    3  O   UNL     1     -14.405  13.513  72.987  1.00  0.00    -0.138 OA 
HETATM    4  O   UNL     1     -14.207  12.412  70.728  1.00  0.00     2.712 OA 
HETATM    5  C   UNL     1     -12.547  14.351  71.349  1.00  0.00    -0.354 A  
HETATM    6  C   UNL     1     -12.561  14.735  70.001  1.00  0.00    -0.268 A  
HETATM    7  C   UNL     1     -11.689  15.769  69.651  1.00  0.00    -0.355 A  
HETATM    8  C   UNL     1     -10.851  16.407  70.556  1.00  0.00    -0.061 A  
HETATM    9  C   UNL     1     -10.863  16.012  71.902  1.00  0.00     0.793 A  
HETATM   10  N   UNL     1     -10.112  17.379  69.930  1.00  0.00     0.326 NA 
HETATM   11  C   UNL     1     -11.720  14.973  72.292  1.00  0.00    -0.423 A  
HETATM   12  C   UNL     1     -10.475  17.364  68.657  1.00  0.00    -0.355 A  
HETATM   13  H   UNL     1      -9.420  17.991  70.361  1.00  0.00     0.000 HD 
HETATM   14  N   UNL     1     -11.430  16.392  68.459  1.00  0.00    -0.298 NA 
ENDROOT
BRANCH  12  15
HETATM   15  C   UNL     1      -9.966  18.253  67.603  1.00  0.00    -0.348 A  
HETATM   16  C   UNL     1      -8.712  18.863  67.766  1.00  0.00    -0.318 A  
HETATM   17  C   UNL     1      -8.205  19.740  66.803  1.00  0.00    -0.344 A  
HETATM   18  C   UNL     1      -8.945  20.017  65.657  1.00  0.00     0.180 A  
HETATM   19  C   UNL     1     -10.185  19.412  65.471  1.00  0.00     0.012 A  
HETATM   20  C   UNL     1     -10.692  18.535  66.435  1.00  0.00    -0.245 A  
ENDBRANCH  12  15
TORSDOF 1
ENDMDL
MODEL      134
REMARK 921   NORMALIZED FREE ENERGY PREDICTED BY IDOCK:    0.87 KCAL/MOL
REMARK 922        TOTAL FREE ENERGY PREDICTED BY IDOCK:    0.78 KCAL/MOL
REMARK 923 INTER-LIGAND FREE ENERGY PREDICTED BY IDOCK:    0.92 KCAL/MOL
REMARK 924 INTRA-LIGAND FREE ENERGY PREDICTED BY IDOCK:   -0.13 KCAL/MOL
REMARK 927      BINDING AFFINITY PREDICTED BY RF-SCORE:    0.00 PKD
ROOT
HETATM    1  O   UNL     1     -12.195  11.832  67.165  1.00  0.00    -0.446 OA 
HETATM    2  S   UNL     1     -12.552  13.124  68.065  1.00  0.00     1.200 S  
HETATM    3  O   UNL     1     -13.017  12.632  69.342  1.00  0.00     0.864 OA 
HETATM    4  O   UNL     1     -13.386  13.967  67.235  1.00  0.00     1.816 OA 
HETATM    5  C   UNL     1     -10.992  13.929  68.316  1.00  0.00    -0.255 A  
HETATM    6  C   UNL     1     -10.822  15.251  67.880  1.00  0.00    -0.288 A  
HETATM    7  C   UNL     1      -9.560  15.809  68.097  1.00  0.00    -0.199 A  
HETATM    8  C   UNL     1      -8.515  15.131  68.709  1.00  0.00    -0.180 A  
HETATM    9  C   UNL     1      -8.712  13.812  69.146  1.00  0.00     0.418 A  
HETATM   10  N   UNL     1      -7.400  15.926  68.785  1.00  0.00    -0.148 NA 
HETATM   11  C   UNL     1      -9.963  13.215  68.942  1.00  0.00     0.066 A  
HETATM   12  C   UNL     1      -7.728  17.086  68.240  1.00  0.00    -0.209 A  
HETATM   13  H   UNL     1      -6.495  15.673  69.183  1.00  0.00     0.000 HD 
HETATM   14  N   UNL     1      -9.036  17.042  67.809  1.00  0.00    -0.221 NA 
ENDROOT
BRANCH  12  15
HETATM   15  C   UNL     1      -6.856  18.263  68.119  1.00  0.00    -0.218 A  
HETATM   16  C   UNL     1      -6.764  19.161  69.194  1.00  0.00    -0.346 A  
HETATM   17  C   UNL     1      -5.972  20.309  69.109  1.00  0.00    -0.361 A  
HETATM   18  C   UNL     1      -5.254  20.575  67.946  1.00  0.00    -0.231 A  
HETATM   19  C   UNL     1      -5.323  19.690  66.874  1.00  0.00    -0.163 A  
HETATM   20  C   UNL     1      -6.116  18.542  66.959  1.00  0.00    -0.179 A  
ENDBRANCH  12  15
TORSDOF 1
ENDMDL
MODEL      135
REMARK 921   NORMALIZED FREE ENERGY PREDICTED BY IDOCK:    2.44 KCAL/MOL
REMARK 922        TOTAL FREE ENERGY PREDICTED BY IDOCK:    2.44 KCAL/MOL
REMARK 923 INTER-LIGAND FREE ENERGY PREDICTED BY IDOCK:    2.59 KCAL/MOL
REMARK 924 INTRA-LIGAND FREE ENERGY PREDICTED BY IDOCK:   -0.14 KCAL/MOL
REMARK 927      BINDING AFFINITY PREDICTED BY RF-SCORE:    0.00 PKD
ROOT
HETATM    1  O   UNL     1      -5.885  10.783  64.391  1.00  0.00    -0.063 OA 
HETATM    2  S   UNL     1      -7.228  10.189  65.059  1.00  0.00    -0.121 S  
HETATM    3  O   UNL     1      -6.904   8.871  65.556  1.00  0.00    -0.074 OA 
HETATM    4  O   UNL     1      -8.279  10.386  64.083  1.00  0.00    -0.163 OA 
HETATM    5  C   UNL     1      -7.533  11.245  66.451  1.00  0.00    -0.064 A  
HETATM    6  C   UNL     1      -8.742  11.952  66.527  1.00  0.00    -0.158 A  
HETATM    7  C   UNL     1      -8.898  12.778  67.642  1.00  0.00    -0.189 A  
HETATM    8  C   UNL     1      -7.942  12.912  68.640  1.00  0.00    -0.024 A  
HETATM    9  C   UNL     1      -6.744  12.187  68.547  1.00  0.00    -0.071 A  
HETATM   10  N   UNL     1      -8.369  13.788  69.606  1.00  0.00     0.330 NA 
HETATM   11  C   UNL     1      -6.547  11.351  67.439  1.00  0.00    -0.090 A  
HETATM   12  C   UNL     1      -9.571  14.198  69.236  1.00  0.00     0.263 A  
HETATM   13  H   UNL     1      -7.858  14.068  70.444  1.00  0.00     0.000 HD 
HETATM   14  N   UNL     1      -9.917  13.602  68.043  1.00  0.00    -0.240 NA 
ENDROOT
BRANCH  12  15
HETATM   15  C   UNL     1     -10.433  15.129  69.978  1.00  0.00    -0.207 A  
HETATM   16  C   UNL     1     -10.436  15.091  71.381  1.00  0.00     0.799 A  
HETATM   17  C   UNL     1     -11.264  15.937  72.124  1.00  0.00    -0.017 A  
HETATM   18  C   UNL     1     -12.102  16.838  71.472  1.00  0.00     0.876 A  
HETATM   19  C   UNL     1     -12.104  16.899  70.082  1.00  0.00     2.149 A  
HETATM   20  C   UNL     1     -11.276  16.052  69.339  1.00  0.00    -0.349 A  
ENDBRANCH  12  15
TORSDOF 1
ENDMDL
MODEL      136
REMARK 921   NORMALIZED FREE ENERGY PREDICTED BY IDOCK:   13.06 KCAL/MOL
REMARK 922        TOTAL FREE ENERGY PREDICTED BY IDOCK:   13.68 KCAL/MOL
REMARK 923 INTER-LIGAND FREE ENERGY PREDICTED BY IDOCK:   13.82 KCAL/MOL
REMARK 924 INTRA-LIGAND FREE ENERGY PREDICTED BY IDOCK:   -0.14 KCAL/MOL
REMARK 927      BINDING AFFINITY PREDICTED BY RF-SCORE:    0.00 PKD
ROOT
HETATM    1  O   UNL     1      -8.814  17.005  72.052  1.00  0.00    10.532 OA 
HETATM    2  S   UNL     1     -10.177  17.232  71.220  1.00  0.00     3.995 S  
HETATM    3  O   UNL     1     -10.359  18.660  71.089  1.00  0.00     1.980 OA 
HETATM    4  O   UNL     1     -11.177  16.403  71.861  1.00  0.00    -0.058 OA 
HETATM    5  C   UNL     1      -9.828  16.569  69.612  1.00  0.00     0.016 A  
HETATM    6  C   UNL     1     -10.617  15.523  69.113  1.00  0.00    -0.234 A  
HETATM    7  C   UNL     1     -10.266  15.042  67.849  1.00  0.00    -0.228 A  
HETATM    8  C   UNL     1      -9.213  15.547  67.099  1.00  0.00    -0.214 A  
HETATM    9  C   UNL     1      -8.444  16.601  67.616  1.00  0.00    -0.200 A  
HETATM   10  N   UNL     1      -9.106  14.883  65.904  1.00  0.00    -0.477 NA 
HETATM   11  C   UNL     1      -8.760  17.108  68.884  1.00  0.00    -0.185 A  
HETATM   12  C   UNL     1     -10.072  13.978  65.890  1.00  0.00    -0.321 A  
HETATM   13  H   UNL     1      -8.417  15.052  65.172  1.00  0.00     0.000 HD 
HETATM   14  N   UNL     1     -10.791  14.051  67.062  1.00  0.00    -0.288 NA 
ENDROOT
BRANCH  12  15
HETATM   15  C   UNL     1     -10.365  13.044  64.794  1.00  0.00    -0.356 A  
HETATM   16  C   UNL     1     -11.452  13.303  63.945  1.00  0.00    -0.409 A  
HETATM   17  C   UNL     1     -11.786  12.424  62.911  1.00  0.00     0.202 A  
HETATM   18  C   UNL     1     -11.032  11.271  62.708  1.00  0.00     0.525 A  
HETATM   19  C   UNL     1      -9.942  11.003  63.532  1.00  0.00    -0.421 A  
HETATM   20  C   UNL     1      -9.610  11.883  64.567  1.00  0.00    -0.045 A  
ENDBRANCH  12  15
TORSDOF 1
ENDMDL
MODEL      137
REMARK 921   NORMALIZED FREE ENERGY PREDICTED BY IDOCK:   25.48 KCAL/MOL
REMARK 922        TOTAL FREE ENERGY PREDICTED BY IDOCK:   26.83 KCAL/MOL
REMARK 923 INTER-LIGAND FREE ENERGY PREDICTED BY IDOCK:   26.97 KCAL/MOL
REMARK 924 INTRA-LIGAND FREE ENERGY PREDICTED BY IDOCK:   -0.15 KCAL/MOL
REMARK 927      BINDING AFFINITY PREDICTED BY RF-SCORE:    0.00 PKD
ROOT
HETATM    1  O   UNL     1     -12.470  10.700  66.884  1.00  0.00     2.512 OA 
HETATM    2  S   UNL     1     -13.343  11.781  67.705  1.00  0.00     8.240 S  
HETATM    3  O   UNL     1     -13.931  11.084  68.827  1.00  0.00     5.153 OA 
HETATM    4  O   UNL     1     -14.168  12.453  66.723  1.00  0.00     9.476 OA 
HETATM    5  C   UNL     1     -12.146  12.930  68.331  1.00  0.00    -0.128 A  
HETATM    6  C   UNL     1     -12.241  14.283  67.976  1.00  0.00    -0.168 A  
HETATM    7  C   UNL     1     -11.249  15.121  68.494  1.00  0.00    -0.293 A  
HETATM    8  C   UNL     1     -10.223  14.680  69.318  1.00  0.00    -0.147 A  
HETATM    9  C   UNL     1     -10.156  13.322  69.667  1.00  0.00     1.049 A  
HETATM   10  N   UNL     1      -9.403  15.722  69.670  1.00  0.00    -0.245 NA 
HETATM   11  C   UNL     1     -11.128  12.448  69.163  1.00  0.00    -0.260 A  
HETATM   12  C   UNL     1      -9.898  16.802  69.089  1.00  0.00    -0.228 A  
HETATM   13  H   UNL     1      -8.574  15.672  70.262  1.00  0.00     0.000 HD 
HETATM   14  N   UNL     1     -11.020  16.466  68.364  1.00  0.00    -0.341 NA 
ENDROOT
BRANCH  12  15
HETATM   15  C   UNL     1      -9.363  18.167  69.201  1.00  0.00     0.015 A  
HETATM   16  C   UNL     1     -10.245  19.257  69.130  1.00  0.00    -0.188 A  
HETATM   17  C   UNL     1      -9.775  20.571  69.201  1.00  0.00     0.464 A  
HETATM   18  C   UNL     1      -8.413  20.815  69.348  1.00  0.00     1.915 A  
HETATM   19  C   UNL     1      -7.523  19.748  69.433  1.00  0.00    -0.139 A  
HETATM   20  C   UNL     1      -7.994  18.433  69.361  1.00  0.00     0.289 A  
ENDBRANCH  12  15
TORSDOF 1
ENDMDL
MODEL      138
REMARK 921   NORMALIZED FREE ENERGY PREDICTED BY IDOCK:   57.91 KCAL/MOL
REMARK 922        TOTAL FREE ENERGY PREDICTED BY IDOCK:   61.16 KCAL/MOL
REMARK 923 INTER-LIGAND FREE ENERGY PREDICTED BY IDOCK:   61.30 KCAL/MOL
REMARK 924 INTRA-LIGAND FREE ENERGY PREDICTED BY IDOCK:   -0.14 KCAL/MOL
REMARK 927      BINDING AFFINITY PREDICTED BY RF-SCORE:    0.00 PKD
ROOT
HETATM    1  O   UNL     1     -14.256  11.594  72.913  1.00  0.00     0.997 OA 
HETATM    2  S   UNL     1     -12.657  11.597  73.127  1.00  0.00     6.657 S  
HETATM    3  O   UNL     1     -12.132  10.460  72.405  1.00  0.00     0.641 OA 
HETATM    4  O   UNL     1     -12.447  11.744  74.552  1.00  0.00    14.279 OA 
HETATM    5  C   UNL     1     -12.106  13.073  72.312  1.00  0.00     1.542 A  
HETATM    6  C   UNL     1     -11.422  14.051  73.048  1.00  0.00     2.137 A  
HETATM    7  C   UNL     1     -11.039  15.192  72.339  1.00  0.00     0.239 A  
HETATM    8  C   UNL     1     -11.294  15.380  70.988  1.00  0.00    -0.367 A  
HETATM    9  C   UNL     1     -11.971  14.382  70.270  1.00  0.00    -0.388 A  
HETATM   10  N   UNL     1     -10.804  16.589  70.565  1.00  0.00    -0.164 NA 
HETATM   11  C   UNL     1     -12.378  13.224  70.947  1.00  0.00    -0.413 A  
HETATM   12  C   UNL     1     -10.244  17.157  71.621  1.00  0.00     4.380 A  
HETATM   13  H   UNL     1     -10.860  16.975  69.622  1.00  0.00     0.000 HD 
HETATM   14  N   UNL     1     -10.375  16.330  72.715  1.00  0.00     4.355 NA 
ENDROOT
BRANCH  12  15
HETATM   15  C   UNL     1      -9.561  18.458  71.643  1.00  0.00     6.896 A  
HETATM   16  C   UNL     1     -10.280  19.616  71.306  1.00  0.00     2.419 A  
HETATM   17  C   UNL     1      -9.662  20.869  71.284  1.00  0.00     2.634 A  
HETATM   18  C   UNL     1      -8.312  20.984  71.603  1.00  0.00     3.510 A  
HETATM   19  C   UNL     1      -7.585  19.849  71.952  1.00  0.00     2.056 A  
HETATM   20  C   UNL     1      -8.204  18.596  71.973  1.00  0.00     9.887 A  
ENDBRANCH  12  15
TORSDOF 1
ENDMDL
