MODEL        1
REMARK 921   NORMALIZED FREE ENERGY PREDICTED BY IDOCK:   -7.28 KCAL/MOL
REMARK 922        TOTAL FREE ENERGY PREDICTED BY IDOCK:   -9.53 KCAL/MOL
REMARK 923 INTER-LIGAND FREE ENERGY PREDICTED BY IDOCK:   -9.41 KCAL/MOL
REMARK 924 INTRA-LIGAND FREE ENERGY PREDICTED BY IDOCK:   -0.12 KCAL/MOL
REMARK 927      BINDING AFFINITY PREDICTED BY RF-SCORE:    0.00 PKD
ROOT
HETATM    1  C   UNL     1     -10.222   8.963  71.679  1.00  0.00    -0.415 C  
HETATM    2  C   UNL     1     -11.409   9.013  70.725  1.00  0.00    -0.277 C  
ENDROOT
BRANCH   2   3
HETATM    3  N   UNL     1     -11.390  10.175  69.823  1.00  0.00    -0.257 N  
HETATM    4  O   UNL     1     -10.565   8.824  68.161  1.00  0.00    -0.212 OA 
HETATM    5  C   UNL     1     -10.875   9.961  68.536  1.00  0.00    -0.217 C  
BRANCH   3   6
HETATM    6  C   UNL     1     -11.885  11.471  70.311  1.00  0.00    -0.342 C  
HETATM    7  C   UNL     1     -12.948  11.520  71.397  1.00  0.00    -0.450 C  
ENDBRANCH   3   6
BRANCH   5   8
HETATM    8  C   UNL     1     -10.677  11.088  67.558  1.00  0.00    -0.289 C  
HETATM    9  C   UNL     1     -11.692  11.951  67.307  1.00  0.00    -0.319 C  
BRANCH   8  10
HETATM   10  C   UNL     1      -9.379  11.335  66.806  1.00  0.00    -0.177 C  
HETATM   11  H2  UNL     1      -8.022  11.793  67.133  1.00  0.00     0.000 HD 
HETATM   12  N   UNL     1      -8.302  11.541  66.184  1.00  0.00    -0.354 NA 
HETATM   13  H1  UNL     1      -7.431  11.707  65.680  1.00  0.00     0.000 HD 
ENDBRANCH   8  10
BRANCH   9  14
HETATM   14  C   UNL     1     -11.588  13.114  66.391  1.00  0.00    -0.394 A  
HETATM   15  C   UNL     1     -11.049  14.336  66.829  1.00  0.00    -0.316 A  
HETATM   16  C   UNL     1     -11.026  15.456  65.971  1.00  0.00    -0.286 A  
HETATM   17  C   UNL     1     -11.518  15.359  64.667  1.00  0.00    -0.337 A  
HETATM   18  N   UNL     1     -10.479  16.725  66.458  1.00  0.00    -0.290 N  
HETATM   19  C   UNL     1     -12.040  14.136  64.241  1.00  0.00    -0.444 A  
HETATM   20  O   UNL     1     -10.505  17.697  65.685  1.00  0.00    -0.606 OA 
HETATM   21  O   UNL     1     -10.023  16.756  67.610  1.00  0.00    -0.250 OA 
HETATM   22  O   UNL     1     -11.550  16.369  63.735  1.00  0.00    -1.605 OA 
HETATM   23  H   UNL     1     -11.884  16.302  62.848  1.00  0.00     0.000 HD 
HETATM   24  O   UNL     1     -12.527  14.022  62.967  1.00  0.00    -1.101 OA 
HETATM   25  C   UNL     1     -12.084  13.026  65.084  1.00  0.00    -0.476 A  
HETATM   26  H   UNL     1     -12.882  13.190  62.677  1.00  0.00     0.000 HD 
ENDBRANCH   9  14
ENDBRANCH   5   8
ENDBRANCH   2   3
TORSDOF 5
ENDMDL
MODEL        2
REMARK 921   NORMALIZED FREE ENERGY PREDICTED BY IDOCK:   -7.21 KCAL/MOL
REMARK 922        TOTAL FREE ENERGY PREDICTED BY IDOCK:   -9.44 KCAL/MOL
REMARK 923 INTER-LIGAND FREE ENERGY PREDICTED BY IDOCK:   -8.92 KCAL/MOL
REMARK 924 INTRA-LIGAND FREE ENERGY PREDICTED BY IDOCK:   -0.52 KCAL/MOL
REMARK 927      BINDING AFFINITY PREDICTED BY RF-SCORE:    0.00 PKD
ROOT
HETATM    1  C   UNL     1     -11.274   6.402  68.931  1.00  0.00    -0.385 C  
HETATM    2  C   UNL     1     -10.639   7.715  69.369  1.00  0.00    -0.215 C  
ENDROOT
BRANCH   2   3
HETATM    3  N   UNL     1     -10.448   8.673  68.269  1.00  0.00    -0.209 N  
HETATM    4  O   UNL     1     -10.184  10.344  69.820  1.00  0.00    -0.236 OA 
HETATM    5  C   UNL     1     -10.280  10.018  68.631  1.00  0.00    -0.180 C  
BRANCH   3   6
HETATM    6  C   UNL     1     -10.462   8.186  66.882  1.00  0.00    -0.309 C  
HETATM    7  C   UNL     1      -9.162   7.774  66.207  1.00  0.00    -0.217 C  
ENDBRANCH   3   6
BRANCH   5   8
HETATM    8  C   UNL     1     -10.206  11.118  67.606  1.00  0.00    -0.208 C  
HETATM    9  C   UNL     1     -11.262  11.948  67.428  1.00  0.00    -0.366 C  
BRANCH   8  10
HETATM   10  C   UNL     1      -8.991  11.373  66.728  1.00  0.00    -0.176 C  
HETATM   11  H2  UNL     1      -8.554  12.404  65.778  1.00  0.00     0.000 HD 
HETATM   12  N   UNL     1      -7.985  11.586  65.999  1.00  0.00    -0.371 NA 
HETATM   13  H1  UNL     1      -7.171  11.758  65.410  1.00  0.00     0.000 HD 
ENDBRANCH   8  10
BRANCH   9  14
HETATM   14  C   UNL     1     -11.277  13.084  66.473  1.00  0.00    -0.335 A  
HETATM   15  C   UNL     1     -10.755  14.339  66.832  1.00  0.00    -0.290 A  
HETATM   16  C   UNL     1     -10.844  15.431  65.943  1.00  0.00    -0.325 A  
HETATM   17  C   UNL     1     -11.432  15.274  64.685  1.00  0.00    -0.354 A  
HETATM   18  N   UNL     1     -10.312  16.735  66.348  1.00  0.00    -0.315 N  
HETATM   19  C   UNL     1     -11.935  14.019  64.337  1.00  0.00    -0.454 A  
HETATM   20  O   UNL     1     -10.437  17.679  65.551  1.00  0.00    -0.636 OA 
HETATM   21  O   UNL     1      -9.769  16.820  67.459  1.00  0.00    -0.245 OA 
HETATM   22  O   UNL     1     -11.576  16.251  63.729  1.00  0.00    -1.539 OA 
HETATM   23  H   UNL     1     -11.975  16.143  62.874  1.00  0.00     0.000 HD 
HETATM   24  O   UNL     1     -12.516  13.846  63.110  1.00  0.00    -1.121 OA 
HETATM   25  C   UNL     1     -11.870  12.935  65.213  1.00  0.00    -0.429 A  
HETATM   26  H   UNL     1     -12.858  12.992  62.872  1.00  0.00     0.000 HD 
ENDBRANCH   9  14
ENDBRANCH   5   8
ENDBRANCH   2   3
TORSDOF 5
ENDMDL
MODEL        3
REMARK 921   NORMALIZED FREE ENERGY PREDICTED BY IDOCK:   -6.86 KCAL/MOL
REMARK 922        TOTAL FREE ENERGY PREDICTED BY IDOCK:   -8.98 KCAL/MOL
REMARK 923 INTER-LIGAND FREE ENERGY PREDICTED BY IDOCK:   -8.87 KCAL/MOL
REMARK 924 INTRA-LIGAND FREE ENERGY PREDICTED BY IDOCK:   -0.11 KCAL/MOL
REMARK 927      BINDING AFFINITY PREDICTED BY RF-SCORE:    0.00 PKD
ROOT
HETATM    1  C   UNL     1     -10.552   7.813  71.143  1.00  0.00    -0.235 C  
HETATM    2  C   UNL     1     -11.439   9.018  70.859  1.00  0.00    -0.291 C  
ENDROOT
BRANCH   2   3
HETATM    3  N   UNL     1     -10.927   9.887  69.788  1.00  0.00    -0.255 N  
HETATM    4  O   UNL     1     -12.093  11.639  70.704  1.00  0.00    -0.368 OA 
HETATM    5  C   UNL     1     -11.387  11.212  69.783  1.00  0.00    -0.278 C  
BRANCH   3   6
HETATM    6  C   UNL     1      -9.998   9.330  68.794  1.00  0.00    -0.181 C  
HETATM    7  C   UNL     1     -10.513   8.893  67.432  1.00  0.00    -0.347 C  
ENDBRANCH   3   6
BRANCH   5   8
HETATM    8  C   UNL     1     -11.047  12.171  68.673  1.00  0.00    -0.297 C  
HETATM    9  C   UNL     1     -12.039  12.754  67.957  1.00  0.00    -0.174 C  
BRANCH   8  10
HETATM   10  C   UNL     1      -9.625  12.545  68.286  1.00  0.00    -0.209 C  
HETATM   11  H2  UNL     1      -8.580  13.447  68.787  1.00  0.00     0.000 HD 
HETATM   12  N   UNL     1      -8.447  12.856  67.966  1.00  0.00    -0.169 NA 
HETATM   13  H1  UNL     1      -7.493  13.107  67.706  1.00  0.00     0.000 HD 
ENDBRANCH   8  10
BRANCH   9  14
HETATM   14  C   UNL     1     -11.813  13.739  66.870  1.00  0.00    -0.447 A  
HETATM   15  C   UNL     1     -11.230  14.991  67.136  1.00  0.00    -0.336 A  
HETATM   16  C   UNL     1     -11.090  15.948  66.109  1.00  0.00    -0.024 A  
HETATM   17  C   UNL     1     -11.509  15.656  64.808  1.00  0.00    -0.283 A  
HETATM   18  N   UNL     1     -10.498  17.253  66.416  1.00  0.00    -0.301 N  
HETATM   19  C   UNL     1     -12.075  14.405  64.555  1.00  0.00    -0.481 A  
HETATM   20  O   UNL     1     -10.421  18.080  65.493  1.00  0.00    -0.636 OA 
HETATM   21  O   UNL     1     -10.110  17.455  67.575  1.00  0.00    -0.299 OA 
HETATM   22  O   UNL     1     -11.425  16.494  63.722  1.00  0.00    -1.615 OA 
HETATM   23  H   UNL     1     -11.709  16.295  62.837  1.00  0.00     0.000 HD 
HETATM   24  O   UNL     1     -12.493  14.102  63.288  1.00  0.00    -1.146 OA 
HETATM   25  C   UNL     1     -12.236  13.457  65.565  1.00  0.00    -0.499 A  
HETATM   26  H   UNL     1     -12.878  13.251  63.115  1.00  0.00     0.000 HD 
ENDBRANCH   9  14
ENDBRANCH   5   8
ENDBRANCH   2   3
TORSDOF 5
ENDMDL
MODEL        4
REMARK 921   NORMALIZED FREE ENERGY PREDICTED BY IDOCK:   -6.84 KCAL/MOL
REMARK 922        TOTAL FREE ENERGY PREDICTED BY IDOCK:   -8.96 KCAL/MOL
REMARK 923 INTER-LIGAND FREE ENERGY PREDICTED BY IDOCK:   -9.49 KCAL/MOL
REMARK 924 INTRA-LIGAND FREE ENERGY PREDICTED BY IDOCK:    0.53 KCAL/MOL
REMARK 927      BINDING AFFINITY PREDICTED BY RF-SCORE:    0.00 PKD
ROOT
HETATM    1  C   UNL     1     -10.226   8.795  71.849  1.00  0.00    -0.415 C  
HETATM    2  C   UNL     1     -11.289   9.060  70.790  1.00  0.00    -0.277 C  
ENDROOT
BRANCH   2   3
HETATM    3  N   UNL     1     -11.000  10.230  69.945  1.00  0.00    -0.282 N  
HETATM    4  O   UNL     1     -13.004  11.143  70.591  1.00  0.00    -0.221 OA 
HETATM    5  C   UNL     1     -11.995  11.216  69.879  1.00  0.00    -0.363 C  
BRANCH   3   6
HETATM    6  C   UNL     1      -9.723  10.293  69.218  1.00  0.00    -0.225 C  
HETATM    7  C   UNL     1      -9.392   9.244  68.169  1.00  0.00    -0.143 C  
ENDBRANCH   3   6
BRANCH   5   8
HETATM    8  C   UNL     1     -11.887  12.399  68.955  1.00  0.00    -0.350 C  
HETATM    9  C   UNL     1     -11.561  12.211  67.652  1.00  0.00    -0.413 C  
BRANCH   8  10
HETATM   10  C   UNL     1     -12.127  13.836  69.390  1.00  0.00    -0.328 C  
HETATM   11  H2  UNL     1     -12.646  14.523  70.579  1.00  0.00     0.000 HD 
HETATM   12  N   UNL     1     -12.325  15.026  69.752  1.00  0.00    -0.512 NA 
HETATM   13  H1  UNL     1     -12.486  15.991  70.044  1.00  0.00     0.000 HD 
ENDBRANCH   8  10
BRANCH   9  14
HETATM   14  C   UNL     1     -11.465  13.303  66.652  1.00  0.00    -0.384 A  
HETATM   15  C   UNL     1     -10.767  14.489  66.939  1.00  0.00    -0.288 A  
HETATM   16  C   UNL     1     -10.748  15.551  66.010  1.00  0.00    -0.326 A  
HETATM   17  C   UNL     1     -11.404  15.428  64.782  1.00  0.00    -0.376 A  
HETATM   18  N   UNL     1     -10.031  16.785  66.340  1.00  0.00    -0.289 N  
HETATM   19  C   UNL     1     -12.084  14.241  64.505  1.00  0.00    -0.480 A  
HETATM   20  O   UNL     1     -10.063  17.708  65.511  1.00  0.00    -0.566 OA 
HETATM   21  O   UNL     1      -9.435  16.836  67.426  1.00  0.00    -0.232 OA 
HETATM   22  O   UNL     1     -11.458  16.381  63.793  1.00  0.00    -1.590 OA 
HETATM   23  H   UNL     1     -11.904  16.297  62.958  1.00  0.00     0.000 HD 
HETATM   24  O   UNL     1     -12.734  14.103  63.309  1.00  0.00    -0.952 OA 
HETATM   25  C   UNL     1     -12.126  13.190  65.422  1.00  0.00    -0.478 A  
HETATM   26  H   UNL     1     -13.197  13.295  63.120  1.00  0.00     0.000 HD 
ENDBRANCH   9  14
ENDBRANCH   5   8
ENDBRANCH   2   3
TORSDOF 5
ENDMDL
MODEL        5
REMARK 921   NORMALIZED FREE ENERGY PREDICTED BY IDOCK:   -6.78 KCAL/MOL
REMARK 922        TOTAL FREE ENERGY PREDICTED BY IDOCK:   -8.88 KCAL/MOL
REMARK 923 INTER-LIGAND FREE ENERGY PREDICTED BY IDOCK:   -8.93 KCAL/MOL
REMARK 924 INTRA-LIGAND FREE ENERGY PREDICTED BY IDOCK:    0.05 KCAL/MOL
REMARK 927      BINDING AFFINITY PREDICTED BY RF-SCORE:    0.00 PKD
ROOT
HETATM    1  C   UNL     1     -10.923   7.879  70.570  1.00  0.00    -0.250 C  
HETATM    2  C   UNL     1     -10.628   9.286  71.074  1.00  0.00    -0.316 C  
ENDROOT
BRANCH   2   3
HETATM    3  N   UNL     1     -11.187  10.347  70.220  1.00  0.00    -0.304 N  
HETATM    4  O   UNL     1      -9.129  10.582  69.231  1.00  0.00    -0.189 OA 
HETATM    5  C   UNL     1     -10.293  10.983  69.346  1.00  0.00    -0.104 C  
BRANCH   3   6
HETATM    6  C   UNL     1     -12.613  10.687  70.339  1.00  0.00    -0.316 C  
HETATM    7  C   UNL     1     -13.222  10.947  71.707  1.00  0.00    -0.513 C  
ENDBRANCH   3   6
BRANCH   5   8
HETATM    8  C   UNL     1     -10.700  12.169  68.513  1.00  0.00    -0.257 C  
HETATM    9  C   UNL     1     -10.211  12.312  67.257  1.00  0.00    -0.222 C  
BRANCH   8  10
HETATM   10  C   UNL     1     -11.652  13.253  68.994  1.00  0.00    -0.312 C  
HETATM   11  H2  UNL     1     -12.434  14.338  68.389  1.00  0.00     0.000 HD 
HETATM   12  N   UNL     1     -12.440  14.152  69.392  1.00  0.00    -0.491 NA 
HETATM   13  H1  UNL     1     -13.079  14.879  69.715  1.00  0.00     0.000 HD 
ENDBRANCH   8  10
BRANCH   9  14
HETATM   14  C   UNL     1     -10.578  13.422  66.342  1.00  0.00    -0.285 A  
HETATM   15  C   UNL     1     -10.153  14.738  66.594  1.00  0.00    -0.269 A  
HETATM   16  C   UNL     1     -10.571  15.797  65.760  1.00  0.00    -0.355 A  
HETATM   17  C   UNL     1     -11.395  15.547  64.659  1.00  0.00    -0.357 A  
HETATM   18  N   UNL     1     -10.133  17.163  66.055  1.00  0.00    -0.312 N  
HETATM   19  C   UNL     1     -11.800  14.233  64.414  1.00  0.00    -0.426 A  
HETATM   20  O   UNL     1     -10.547  18.072  65.317  1.00  0.00    -0.615 OA 
HETATM   21  O   UNL     1      -9.376  17.333  67.021  1.00  0.00    -0.240 OA 
HETATM   22  O   UNL     1     -11.867  16.483  63.770  1.00  0.00    -1.423 OA 
HETATM   23  H   UNL     1     -12.426  16.313  63.021  1.00  0.00     0.000 HD 
HETATM   24  O   UNL     1     -12.608  13.970  63.341  1.00  0.00    -1.056 OA 
HETATM   25  C   UNL     1     -11.408  13.180  65.240  1.00  0.00    -0.321 A  
HETATM   26  H   UNL     1     -12.883  13.076  63.174  1.00  0.00     0.000 HD 
ENDBRANCH   9  14
ENDBRANCH   5   8
ENDBRANCH   2   3
TORSDOF 5
ENDMDL
MODEL        6
REMARK 921   NORMALIZED FREE ENERGY PREDICTED BY IDOCK:   -6.75 KCAL/MOL
REMARK 922        TOTAL FREE ENERGY PREDICTED BY IDOCK:   -8.84 KCAL/MOL
REMARK 923 INTER-LIGAND FREE ENERGY PREDICTED BY IDOCK:   -8.31 KCAL/MOL
REMARK 924 INTRA-LIGAND FREE ENERGY PREDICTED BY IDOCK:   -0.53 KCAL/MOL
REMARK 927      BINDING AFFINITY PREDICTED BY RF-SCORE:    0.00 PKD
ROOT
HETATM    1  C   UNL     1     -10.354   7.816  70.725  1.00  0.00    -0.206 C  
HETATM    2  C   UNL     1      -9.515   7.874  69.455  1.00  0.00    -0.156 C  
ENDROOT
BRANCH   2   3
HETATM    3  N   UNL     1      -9.545   9.186  68.789  1.00  0.00    -0.157 N  
HETATM    4  O   UNL     1     -10.768   8.251  67.087  1.00  0.00    -0.302 OA 
HETATM    5  C   UNL     1     -10.175   9.238  67.537  1.00  0.00    -0.242 C  
BRANCH   3   6
HETATM    6  C   UNL     1      -8.914  10.340  69.446  1.00  0.00    -0.176 C  
HETATM    7  C   UNL     1      -7.452  10.275  69.858  1.00  0.00    -0.165 C  
ENDBRANCH   3   6
BRANCH   5   8
HETATM    8  C   UNL     1     -10.164  10.482  66.689  1.00  0.00    -0.289 C  
HETATM    9  C   UNL     1     -11.110  11.435  66.876  1.00  0.00    -0.356 C  
BRANCH   8  10
HETATM   10  C   UNL     1      -9.135  10.756  65.604  1.00  0.00    -0.194 C  
HETATM   11  H2  UNL     1      -7.759  11.262  65.535  1.00  0.00     0.000 HD 
HETATM   12  N   UNL     1      -8.282  10.983  64.705  1.00  0.00    -0.359 NA 
HETATM   13  H1  UNL     1      -7.591  11.167  63.977  1.00  0.00     0.000 HD 
ENDBRANCH   8  10
BRANCH   9  14
HETATM   14  C   UNL     1     -11.166  12.711  66.120  1.00  0.00    -0.350 A  
HETATM   15  C   UNL     1     -10.606  13.889  66.645  1.00  0.00    -0.274 A  
HETATM   16  C   UNL     1     -10.732  15.112  65.952  1.00  0.00    -0.334 A  
HETATM   17  C   UNL     1     -11.398  15.164  64.725  1.00  0.00    -0.395 A  
HETATM   18  N   UNL     1     -10.157  16.330  66.530  1.00  0.00    -0.278 N  
HETATM   19  C   UNL     1     -11.940  13.985  64.209  1.00  0.00    -0.435 A  
HETATM   20  O   UNL     1     -10.317  17.392  65.906  1.00  0.00    -0.481 OA 
HETATM   21  O   UNL     1      -9.547  16.230  67.603  1.00  0.00    -0.224 OA 
HETATM   22  O   UNL     1     -11.585  16.284  63.951  1.00  0.00    -1.489 OA 
HETATM   23  H   UNL     1     -12.037  16.320  63.116  1.00  0.00     0.000 HD 
HETATM   24  O   UNL     1     -12.596  14.017  63.009  1.00  0.00    -1.027 OA 
HETATM   25  C   UNL     1     -11.837  12.773  64.892  1.00  0.00    -0.424 A  
HETATM   26  H   UNL     1     -12.965  13.215  62.658  1.00  0.00     0.000 HD 
ENDBRANCH   9  14
ENDBRANCH   5   8
ENDBRANCH   2   3
TORSDOF 5
ENDMDL
MODEL        7
REMARK 921   NORMALIZED FREE ENERGY PREDICTED BY IDOCK:   -6.75 KCAL/MOL
REMARK 922        TOTAL FREE ENERGY PREDICTED BY IDOCK:   -8.84 KCAL/MOL
REMARK 923 INTER-LIGAND FREE ENERGY PREDICTED BY IDOCK:   -8.30 KCAL/MOL
REMARK 924 INTRA-LIGAND FREE ENERGY PREDICTED BY IDOCK:   -0.54 KCAL/MOL
REMARK 927      BINDING AFFINITY PREDICTED BY RF-SCORE:    0.00 PKD
ROOT
HETATM    1  C   UNL     1      -8.203   7.251  70.178  1.00  0.00    -0.134 C  
HETATM    2  C   UNL     1      -7.499   7.758  68.925  1.00  0.00    -0.095 C  
ENDROOT
BRANCH   2   3
HETATM    3  N   UNL     1      -8.396   8.443  67.982  1.00  0.00    -0.127 N  
HETATM    4  O   UNL     1      -7.855  10.439  68.976  1.00  0.00    -0.100 OA 
HETATM    5  C   UNL     1      -8.541   9.828  68.149  1.00  0.00    -0.118 C  
BRANCH   3   6
HETATM    6  C   UNL     1      -9.090   7.657  66.950  1.00  0.00    -0.144 C  
HETATM    7  C   UNL     1     -10.524   7.205  67.174  1.00  0.00    -0.389 C  
ENDBRANCH   3   6
BRANCH   5   8
HETATM    8  C   UNL     1      -9.524  10.631  67.340  1.00  0.00    -0.172 C  
HETATM    9  C   UNL     1      -9.140  11.180  66.161  1.00  0.00    -0.214 C  
BRANCH   8  10
HETATM   10  C   UNL     1     -10.963  10.879  67.763  1.00  0.00    -0.283 C  
HETATM   11  H2  UNL     1     -12.227  10.131  67.754  1.00  0.00     0.000 HD 
HETATM   12  N   UNL     1     -12.157  11.084  68.113  1.00  0.00    -0.780 NA 
HETATM   13  H1  UNL     1     -13.122  11.250  68.397  1.00  0.00     0.000 HD 
ENDBRANCH   8  10
BRANCH   9  14
HETATM   14  C   UNL     1     -10.040  11.956  65.272  1.00  0.00    -0.290 A  
HETATM   15  C   UNL     1     -10.087  13.359  65.335  1.00  0.00    -0.270 A  
HETATM   16  C   UNL     1     -11.001  14.081  64.538  1.00  0.00    -0.350 A  
HETATM   17  C   UNL     1     -11.857  13.411  63.661  1.00  0.00    -0.398 A  
HETATM   18  N   UNL     1     -11.045  15.542  64.637  1.00  0.00    -0.398 N  
HETATM   19  C   UNL     1     -11.793  12.018  63.600  1.00  0.00    -0.506 A  
HETATM   20  O   UNL     1     -11.884  16.140  63.944  1.00  0.00    -0.921 OA 
HETATM   21  O   UNL     1     -10.244  16.096  65.403  1.00  0.00    -0.479 OA 
HETATM   22  O   UNL     1     -12.786  13.994  62.832  1.00  0.00    -0.802 OA 
HETATM   23  H   UNL     1     -13.368  13.538  62.234  1.00  0.00     0.000 HD 
HETATM   24  O   UNL     1     -12.625  11.344  62.748  1.00  0.00    -0.952 OA 
HETATM   25  C   UNL     1     -10.906  11.291  64.394  1.00  0.00    -0.373 A  
HETATM   26  H   UNL     1     -12.581  10.396  62.706  1.00  0.00     0.000 HD 
ENDBRANCH   9  14
ENDBRANCH   5   8
ENDBRANCH   2   3
TORSDOF 5
ENDMDL
MODEL        8
REMARK 921   NORMALIZED FREE ENERGY PREDICTED BY IDOCK:   -6.63 KCAL/MOL
REMARK 922        TOTAL FREE ENERGY PREDICTED BY IDOCK:   -8.69 KCAL/MOL
REMARK 923 INTER-LIGAND FREE ENERGY PREDICTED BY IDOCK:   -8.47 KCAL/MOL
REMARK 924 INTRA-LIGAND FREE ENERGY PREDICTED BY IDOCK:   -0.22 KCAL/MOL
REMARK 927      BINDING AFFINITY PREDICTED BY RF-SCORE:    0.00 PKD
ROOT
HETATM    1  C   UNL     1      -6.389  21.002  66.459  1.00  0.00    -0.338 C  
HETATM    2  C   UNL     1      -6.931  20.495  67.790  1.00  0.00    -0.315 C  
ENDROOT
BRANCH   2   3
HETATM    3  N   UNL     1      -8.119  19.637  67.654  1.00  0.00    -0.283 N  
HETATM    4  O   UNL     1      -6.824  17.823  68.203  1.00  0.00    -0.196 OA 
HETATM    5  C   UNL     1      -7.920  18.261  67.835  1.00  0.00    -0.254 C  
BRANCH   3   6
HETATM    6  C   UNL     1      -9.414  20.250  67.326  1.00  0.00    -0.423 C  
HETATM    7  C   UNL     1     -10.062  19.984  65.977  1.00  0.00    -0.559 C  
ENDBRANCH   3   6
BRANCH   5   8
HETATM    8  C   UNL     1      -9.018  17.258  67.598  1.00  0.00    -0.224 C  
HETATM    9  C   UNL     1      -9.009  16.500  66.474  1.00  0.00    -0.312 C  
BRANCH   8  10
HETATM   10  C   UNL     1     -10.173  17.026  68.560  1.00  0.00    -0.324 C  
HETATM   11  H2  UNL     1     -11.447  17.682  68.882  1.00  0.00     0.000 HD 
HETATM   12  N   UNL     1     -11.130  16.835  69.356  1.00  0.00    -0.321 NA 
HETATM   13  H1  UNL     1     -11.906  16.680  70.001  1.00  0.00     0.000 HD 
ENDBRANCH   8  10
BRANCH   9  14
HETATM   14  C   UNL     1     -10.021  15.459  66.165  1.00  0.00    -0.330 A  
HETATM   15  C   UNL     1     -10.166  14.324  66.980  1.00  0.00    -0.260 A  
HETATM   16  C   UNL     1     -11.079  13.305  66.633  1.00  0.00    -0.291 A  
HETATM   17  C   UNL     1     -11.867  13.422  65.485  1.00  0.00    -0.363 A  
HETATM   18  N   UNL     1     -11.197  12.121  67.488  1.00  0.00    -0.277 N  
HETATM   19  C   UNL     1     -11.721  14.560  64.690  1.00  0.00    -0.431 A  
HETATM   20  O   UNL     1     -11.987  11.232  67.133  1.00  0.00    -0.470 OA 
HETATM   21  O   UNL     1     -10.503  12.075  68.514  1.00  0.00    -0.218 OA 
HETATM   22  O   UNL     1     -12.792  12.508  65.040  1.00  0.00    -0.742 OA 
HETATM   23  H   UNL     1     -13.328  12.589  64.259  1.00  0.00     0.000 HD 
HETATM   24  O   UNL     1     -12.483  14.692  63.561  1.00  0.00    -1.069 OA 
HETATM   25  C   UNL     1     -10.811  15.567  65.012  1.00  0.00    -0.468 A  
HETATM   26  H   UNL     1     -12.385  15.467  63.020  1.00  0.00     0.000 HD 
ENDBRANCH   9  14
ENDBRANCH   5   8
ENDBRANCH   2   3
TORSDOF 5
ENDMDL
MODEL        9
REMARK 921   NORMALIZED FREE ENERGY PREDICTED BY IDOCK:   -6.59 KCAL/MOL
REMARK 922        TOTAL FREE ENERGY PREDICTED BY IDOCK:   -8.63 KCAL/MOL
REMARK 923 INTER-LIGAND FREE ENERGY PREDICTED BY IDOCK:   -8.39 KCAL/MOL
REMARK 924 INTRA-LIGAND FREE ENERGY PREDICTED BY IDOCK:   -0.24 KCAL/MOL
REMARK 927      BINDING AFFINITY PREDICTED BY RF-SCORE:    0.00 PKD
ROOT
HETATM    1  C   UNL     1      -5.869  21.173  67.540  1.00  0.00    -0.400 C  
HETATM    2  C   UNL     1      -7.296  20.904  67.080  1.00  0.00    -0.309 C  
ENDROOT
BRANCH   2   3
HETATM    3  N   UNL     1      -7.778  19.554  67.414  1.00  0.00    -0.246 N  
HETATM    4  O   UNL     1      -7.178  18.862  65.309  1.00  0.00    -0.471 OA 
HETATM    5  C   UNL     1      -7.717  18.597  66.390  1.00  0.00    -0.268 C  
BRANCH   3   6
HETATM    6  C   UNL     1      -8.300  19.291  68.763  1.00  0.00    -0.351 C  
HETATM    7  C   UNL     1      -9.775  19.508  69.064  1.00  0.00    -0.455 C  
ENDBRANCH   3   6
BRANCH   5   8
HETATM    8  C   UNL     1      -8.295  17.216  66.553  1.00  0.00    -0.309 C  
HETATM    9  C   UNL     1      -9.631  17.024  66.430  1.00  0.00    -0.301 C  
BRANCH   8  10
HETATM   10  C   UNL     1      -7.460  15.982  66.854  1.00  0.00    -0.218 C  
HETATM   11  H2  UNL     1      -6.664  15.014  66.089  1.00  0.00     0.000 HD 
HETATM   12  N   UNL     1      -6.768  14.958  67.102  1.00  0.00    -0.332 NA 
HETATM   13  H1  UNL     1      -6.208  14.130  67.304  1.00  0.00     0.000 HD 
ENDBRANCH   8  10
BRANCH   9  14
HETATM   14  C   UNL     1     -10.295  15.701  66.535  1.00  0.00    -0.296 A  
HETATM   15  C   UNL     1     -11.009  15.160  65.452  1.00  0.00    -0.381 A  
HETATM   16  C   UNL     1     -11.699  13.937  65.588  1.00  0.00    -0.354 A  
HETATM   17  C   UNL     1     -11.663  13.236  66.796  1.00  0.00    -0.385 A  
HETATM   18  N   UNL     1     -12.454  13.405  64.451  1.00  0.00    -0.317 N  
HETATM   19  C   UNL     1     -10.941  13.778  67.861  1.00  0.00    -0.253 A  
HETATM   20  O   UNL     1     -13.074  12.342  64.619  1.00  0.00    -0.825 OA 
HETATM   21  O   UNL     1     -12.430  14.043  63.389  1.00  0.00    -0.826 OA 
HETATM   22  O   UNL     1     -12.286  12.038  67.057  1.00  0.00    -0.516 OA 
HETATM   23  H   UNL     1     -12.261  11.561  67.879  1.00  0.00     0.000 HD 
HETATM   24  O   UNL     1     -10.896  13.106  69.052  1.00  0.00    -0.338 OA 
HETATM   25  C   UNL     1     -10.269  14.994  67.745  1.00  0.00    -0.236 A  
HETATM   26  H   UNL     1     -10.404  13.474  69.777  1.00  0.00     0.000 HD 
ENDBRANCH   9  14
ENDBRANCH   5   8
ENDBRANCH   2   3
TORSDOF 5
ENDMDL
MODEL       10
REMARK 921   NORMALIZED FREE ENERGY PREDICTED BY IDOCK:   -6.54 KCAL/MOL
REMARK 922        TOTAL FREE ENERGY PREDICTED BY IDOCK:   -8.56 KCAL/MOL
REMARK 923 INTER-LIGAND FREE ENERGY PREDICTED BY IDOCK:   -8.57 KCAL/MOL
REMARK 924 INTRA-LIGAND FREE ENERGY PREDICTED BY IDOCK:    0.00 KCAL/MOL
REMARK 927      BINDING AFFINITY PREDICTED BY RF-SCORE:    0.00 PKD
ROOT
HETATM    1  C   UNL     1     -14.070  15.458  72.379  1.00  0.00    -0.645 C  
HETATM    2  C   UNL     1     -12.721  14.759  72.493  1.00  0.00    -0.368 C  
ENDROOT
BRANCH   2   3
HETATM    3  N   UNL     1     -12.271  14.139  71.237  1.00  0.00    -0.355 N  
HETATM    4  O   UNL     1     -11.481  16.184  70.555  1.00  0.00    -0.367 OA 
HETATM    5  C   UNL     1     -11.696  14.996  70.287  1.00  0.00    -0.294 C  
BRANCH   3   6
HETATM    6  C   UNL     1     -12.459  12.694  71.041  1.00  0.00    -0.260 C  
HETATM    7  C   UNL     1     -13.269  11.890  72.046  1.00  0.00    -0.461 C  
ENDBRANCH   3   6
BRANCH   5   8
HETATM    8  C   UNL     1     -11.312  14.520  68.911  1.00  0.00    -0.298 C  
HETATM    9  C   UNL     1     -12.194  13.800  68.175  1.00  0.00    -0.178 C  
BRANCH   8  10
HETATM   10  C   UNL     1      -9.964  14.799  68.266  1.00  0.00    -0.222 C  
HETATM   11  H2  UNL     1      -8.817  15.681  68.518  1.00  0.00     0.000 HD 
HETATM   12  N   UNL     1      -8.846  15.030  67.733  1.00  0.00    -0.168 NA 
HETATM   13  H1  UNL     1      -7.941  15.217  67.301  1.00  0.00     0.000 HD 
ENDBRANCH   8  10
BRANCH   9  14
HETATM   14  C   UNL     1     -11.928  13.316  66.797  1.00  0.00    -0.438 A  
HETATM   15  C   UNL     1     -11.190  12.141  66.571  1.00  0.00    -0.378 A  
HETATM   16  C   UNL     1     -10.879  11.734  65.256  1.00  0.00    -0.290 A  
HETATM   17  C   UNL     1     -11.320  12.481  64.161  1.00  0.00    -0.380 A  
HETATM   18  N   UNL     1     -10.090  10.517  65.047  1.00  0.00    -0.316 N  
HETATM   19  C   UNL     1     -12.062  13.639  64.399  1.00  0.00    -0.427 A  
HETATM   20  O   UNL     1      -9.810  10.208  63.877  1.00  0.00    -0.274 OA 
HETATM   21  O   UNL     1      -9.749   9.868  66.046  1.00  0.00    -0.209 OA 
HETATM   22  O   UNL     1     -11.090  12.192  62.837  1.00  0.00    -0.626 OA 
HETATM   23  H   UNL     1     -11.391  12.699  62.092  1.00  0.00     0.000 HD 
HETATM   24  O   UNL     1     -12.501  14.384  63.339  1.00  0.00    -1.109 OA 
HETATM   25  C   UNL     1     -12.362  14.063  65.694  1.00  0.00    -0.502 A  
HETATM   26  H   UNL     1     -13.007  15.172  63.500  1.00  0.00     0.000 HD 
ENDBRANCH   9  14
ENDBRANCH   5   8
ENDBRANCH   2   3
TORSDOF 5
ENDMDL
MODEL       11
REMARK 921   NORMALIZED FREE ENERGY PREDICTED BY IDOCK:   -6.51 KCAL/MOL
REMARK 922        TOTAL FREE ENERGY PREDICTED BY IDOCK:   -8.53 KCAL/MOL
REMARK 923 INTER-LIGAND FREE ENERGY PREDICTED BY IDOCK:   -8.12 KCAL/MOL
REMARK 924 INTRA-LIGAND FREE ENERGY PREDICTED BY IDOCK:   -0.41 KCAL/MOL
REMARK 927      BINDING AFFINITY PREDICTED BY RF-SCORE:    0.00 PKD
ROOT
HETATM    1  C   UNL     1      -6.741  20.867  66.368  1.00  0.00    -0.271 C  
HETATM    2  C   UNL     1      -7.529  20.825  67.670  1.00  0.00    -0.230 C  
ENDROOT
BRANCH   2   3
HETATM    3  N   UNL     1      -8.544  19.761  67.711  1.00  0.00    -0.320 N  
HETATM    4  O   UNL     1      -6.959  18.334  68.558  1.00  0.00    -0.236 OA 
HETATM    5  C   UNL     1      -8.109  18.497  68.135  1.00  0.00    -0.290 C  
BRANCH   3   6
HETATM    6  C   UNL     1      -9.922  20.066  67.298  1.00  0.00    -0.435 C  
HETATM    7  C   UNL     1     -10.363  19.806  65.866  1.00  0.00    -0.582 C  
ENDBRANCH   3   6
BRANCH   5   8
HETATM    8  C   UNL     1      -9.008  17.290  68.101  1.00  0.00    -0.254 C  
HETATM    9  C   UNL     1      -8.854  16.360  67.126  1.00  0.00    -0.214 C  
BRANCH   8  10
HETATM   10  C   UNL     1     -10.112  17.030  69.113  1.00  0.00    -0.259 C  
HETATM   11  H2  UNL     1     -10.629  17.678  70.325  1.00  0.00     0.000 HD 
HETATM   12  N   UNL     1     -11.027  16.815  69.953  1.00  0.00    -0.401 NA 
HETATM   13  H1  UNL     1     -11.768  16.641  70.632  1.00  0.00     0.000 HD 
ENDBRANCH   8  10
BRANCH   9  14
HETATM   14  C   UNL     1      -9.661  15.119  67.025  1.00  0.00    -0.237 A  
HETATM   15  C   UNL     1     -10.619  14.958  66.009  1.00  0.00    -0.321 A  
HETATM   16  C   UNL     1     -11.434  13.807  65.968  1.00  0.00    -0.326 A  
HETATM   17  C   UNL     1     -11.283  12.800  66.925  1.00  0.00    -0.296 A  
HETATM   18  N   UNL     1     -12.439  13.673  64.911  1.00  0.00    -0.399 N  
HETATM   19  C   UNL     1     -10.320  12.966  67.922  1.00  0.00    -0.231 A  
HETATM   20  O   UNL     1     -13.158  12.660  64.927  1.00  0.00    -0.850 OA 
HETATM   21  O   UNL     1     -12.514  14.574  64.064  1.00  0.00    -0.778 OA 
HETATM   22  O   UNL     1     -12.006  11.633  66.995  1.00  0.00    -0.593 OA 
HETATM   23  H   UNL     1     -11.903  10.948  67.645  1.00  0.00     0.000 HD 
HETATM   24  O   UNL     1     -10.160  11.992  68.869  1.00  0.00    -0.382 OA 
HETATM   25  C   UNL     1      -9.520  14.108  67.984  1.00  0.00    -0.213 A  
HETATM   26  H   UNL     1      -9.504  12.104  69.547  1.00  0.00     0.000 HD 
ENDBRANCH   9  14
ENDBRANCH   5   8
ENDBRANCH   2   3
TORSDOF 5
ENDMDL
MODEL       12
REMARK 921   NORMALIZED FREE ENERGY PREDICTED BY IDOCK:   -6.51 KCAL/MOL
REMARK 922        TOTAL FREE ENERGY PREDICTED BY IDOCK:   -8.53 KCAL/MOL
REMARK 923 INTER-LIGAND FREE ENERGY PREDICTED BY IDOCK:   -8.02 KCAL/MOL
REMARK 924 INTRA-LIGAND FREE ENERGY PREDICTED BY IDOCK:   -0.51 KCAL/MOL
REMARK 927      BINDING AFFINITY PREDICTED BY RF-SCORE:    0.00 PKD
ROOT
HETATM    1  C   UNL     1      -9.449   8.896  71.945  1.00  0.00    -0.301 C  
HETATM    2  C   UNL     1      -8.442   8.889  70.802  1.00  0.00    -0.182 C  
ENDROOT
BRANCH   2   3
HETATM    3  N   UNL     1      -9.006   9.335  69.518  1.00  0.00    -0.144 N  
HETATM    4  O   UNL     1      -7.568  11.124  69.553  1.00  0.00    -0.069 OA 
HETATM    5  C   UNL     1      -8.510  10.542  69.002  1.00  0.00    -0.157 C  
BRANCH   3   6
HETATM    6  C   UNL     1     -10.045   8.523  68.868  1.00  0.00    -0.203 C  
HETATM    7  C   UNL     1      -9.947   7.006  68.886  1.00  0.00    -0.160 C  
ENDBRANCH   3   6
BRANCH   5   8
HETATM    8  C   UNL     1      -9.087  11.180  67.768  1.00  0.00    -0.149 C  
HETATM    9  C   UNL     1     -10.152  12.013  67.872  1.00  0.00    -0.199 C  
BRANCH   8  10
HETATM   10  C   UNL     1      -8.545  10.951  66.366  1.00  0.00    -0.160 C  
HETATM   11  H2  UNL     1      -7.463  11.492  65.534  1.00  0.00     0.000 HD 
HETATM   12  N   UNL     1      -8.095  10.762  65.204  1.00  0.00    -0.346 NA 
HETATM   13  H1  UNL     1      -7.731  10.609  64.263  1.00  0.00     0.000 HD 
ENDBRANCH   8  10
BRANCH   9  14
HETATM   14  C   UNL     1     -10.772  12.720  66.724  1.00  0.00    -0.278 A  
HETATM   15  C   UNL     1     -10.406  14.039  66.402  1.00  0.00    -0.289 A  
HETATM   16  C   UNL     1     -11.057  14.727  65.356  1.00  0.00    -0.357 A  
HETATM   17  C   UNL     1     -12.058  14.098  64.612  1.00  0.00    -0.452 A  
HETATM   18  N   UNL     1     -10.672  16.108  65.054  1.00  0.00    -0.399 N  
HETATM   19  C   UNL     1     -12.404  12.785  64.934  1.00  0.00    -0.490 A  
HETATM   20  O   UNL     1     -11.289  16.691  64.147  1.00  0.00    -1.141 OA 
HETATM   21  O   UNL     1      -9.756  16.613  65.717  1.00  0.00    -0.485 OA 
HETATM   22  O   UNL     1     -12.763  14.653  63.571  1.00  0.00    -0.907 OA 
HETATM   23  H   UNL     1     -13.444  14.226  63.064  1.00  0.00     0.000 HD 
HETATM   24  O   UNL     1     -13.384  12.154  64.218  1.00  0.00    -0.761 OA 
HETATM   25  C   UNL     1     -11.781  12.099  65.977  1.00  0.00    -0.388 A  
HETATM   26  H   UNL     1     -13.619  11.260  64.436  1.00  0.00     0.000 HD 
ENDBRANCH   9  14
ENDBRANCH   5   8
ENDBRANCH   2   3
TORSDOF 5
ENDMDL
MODEL       13
REMARK 921   NORMALIZED FREE ENERGY PREDICTED BY IDOCK:   -6.30 KCAL/MOL
REMARK 922        TOTAL FREE ENERGY PREDICTED BY IDOCK:   -8.26 KCAL/MOL
REMARK 923 INTER-LIGAND FREE ENERGY PREDICTED BY IDOCK:   -7.87 KCAL/MOL
REMARK 924 INTRA-LIGAND FREE ENERGY PREDICTED BY IDOCK:   -0.39 KCAL/MOL
REMARK 927      BINDING AFFINITY PREDICTED BY RF-SCORE:    0.00 PKD
ROOT
HETATM    1  C   UNL     1      -9.443  11.112  62.806  1.00  0.00    -0.357 C  
HETATM    2  C   UNL     1     -10.568  11.044  63.832  1.00  0.00    -0.312 C  
ENDROOT
BRANCH   2   3
HETATM    3  N   UNL     1     -10.455  12.053  64.897  1.00  0.00    -0.273 N  
HETATM    4  O   UNL     1     -10.078  10.365  66.405  1.00  0.00    -0.212 OA 
HETATM    5  C   UNL     1     -10.260  11.571  66.199  1.00  0.00    -0.232 C  
BRANCH   3   6
HETATM    6  C   UNL     1     -10.569  13.478  64.551  1.00  0.00    -0.424 C  
HETATM    7  C   UNL     1     -11.930  14.079  64.239  1.00  0.00    -0.463 C  
ENDBRANCH   3   6
BRANCH   5   8
HETATM    8  C   UNL     1     -10.258  12.483  67.396  1.00  0.00    -0.217 C  
HETATM    9  C   UNL     1     -11.409  13.079  67.794  1.00  0.00    -0.333 C  
BRANCH   8  10
HETATM   10  C   UNL     1      -9.018  12.793  68.220  1.00  0.00    -0.175 C  
HETATM   11  H2  UNL     1      -8.717  13.146  69.613  1.00  0.00     0.000 HD 
HETATM   12  N   UNL     1      -7.991  13.051  68.903  1.00  0.00    -0.335 NA 
HETATM   13  H1  UNL     1      -7.159  13.259  69.456  1.00  0.00     0.000 HD 
ENDBRANCH   8  10
BRANCH   9  14
HETATM   14  C   UNL     1     -11.521  13.963  68.980  1.00  0.00    -0.341 A  
HETATM   15  C   UNL     1     -12.173  13.530  70.148  1.00  0.00    -0.400 A  
HETATM   16  C   UNL     1     -12.341  14.407  71.241  1.00  0.00    -0.359 A  
HETATM   17  C   UNL     1     -11.841  15.710  71.185  1.00  0.00    -0.408 A  
HETATM   18  N   UNL     1     -13.043  13.939  72.439  1.00  0.00    -0.431 N  
HETATM   19  C   UNL     1     -11.185  16.124  70.025  1.00  0.00    -0.357 A  
HETATM   20  O   UNL     1     -13.198  14.749  73.367  1.00  0.00    -0.565 OA 
HETATM   21  O   UNL     1     -13.440  12.765  72.457  1.00  0.00    -0.518 OA 
HETATM   22  O   UNL     1     -11.933  16.657  72.178  1.00  0.00    -0.629 OA 
HETATM   23  H   UNL     1     -11.592  17.543  72.140  1.00  0.00     0.000 HD 
HETATM   24  O   UNL     1     -10.690  17.398  69.951  1.00  0.00    -0.263 OA 
HETATM   25  C   UNL     1     -11.028  15.273  68.930  1.00  0.00    -0.261 A  
HETATM   26  H   UNL     1     -10.243  17.680  69.162  1.00  0.00     0.000 HD 
ENDBRANCH   9  14
ENDBRANCH   5   8
ENDBRANCH   2   3
TORSDOF 5
ENDMDL
MODEL       14
REMARK 921   NORMALIZED FREE ENERGY PREDICTED BY IDOCK:   -6.30 KCAL/MOL
REMARK 922        TOTAL FREE ENERGY PREDICTED BY IDOCK:   -8.26 KCAL/MOL
REMARK 923 INTER-LIGAND FREE ENERGY PREDICTED BY IDOCK:   -7.70 KCAL/MOL
REMARK 924 INTRA-LIGAND FREE ENERGY PREDICTED BY IDOCK:   -0.55 KCAL/MOL
REMARK 927      BINDING AFFINITY PREDICTED BY RF-SCORE:    0.00 PKD
ROOT
HETATM    1  C   UNL     1      -5.908  20.086  70.756  1.00  0.00    -0.356 C  
HETATM    2  C   UNL     1      -5.624  19.186  69.561  1.00  0.00    -0.212 C  
ENDROOT
BRANCH   2   3
HETATM    3  N   UNL     1      -6.819  18.502  69.042  1.00  0.00    -0.276 N  
HETATM    4  O   UNL     1      -5.977  16.516  69.825  1.00  0.00    -0.190 OA 
HETATM    5  C   UNL     1      -6.856  17.108  69.188  1.00  0.00    -0.236 C  
BRANCH   3   6
HETATM    6  C   UNL     1      -7.877  19.295  68.397  1.00  0.00    -0.341 C  
HETATM    7  C   UNL     1      -7.716  19.748  66.955  1.00  0.00    -0.300 C  
ENDBRANCH   3   6
BRANCH   5   8
HETATM    8  C   UNL     1      -7.955  16.271  68.589  1.00  0.00    -0.215 C  
HETATM    9  C   UNL     1      -7.852  15.837  67.309  1.00  0.00    -0.226 C  
BRANCH   8  10
HETATM   10  C   UNL     1      -9.212  15.863  69.341  1.00  0.00    -0.235 C  
HETATM   11  H2  UNL     1      -9.537  15.070  70.533  1.00  0.00     0.000 HD 
HETATM   12  N   UNL     1     -10.253  15.524  69.965  1.00  0.00    -0.365 NA 
HETATM   13  H1  UNL     1     -11.096  15.251  70.470  1.00  0.00     0.000 HD 
ENDBRANCH   8  10
BRANCH   9  14
HETATM   14  C   UNL     1      -8.859  14.978  66.638  1.00  0.00    -0.307 A  
HETATM   15  C   UNL     1      -9.778  15.519  65.721  1.00  0.00    -0.383 A  
HETATM   16  C   UNL     1     -10.779  14.707  65.148  1.00  0.00    -0.414 A  
HETATM   17  C   UNL     1     -10.857  13.349  65.466  1.00  0.00    -0.289 A  
HETATM   18  N   UNL     1     -11.738  15.299  64.212  1.00  0.00    -0.302 N  
HETATM   19  C   UNL     1      -9.931  12.822  66.369  1.00  0.00    -0.265 A  
HETATM   20  O   UNL     1     -12.624  14.559  63.752  1.00  0.00    -0.825 OA 
HETATM   21  O   UNL     1     -11.611  16.499  63.932  1.00  0.00    -1.175 OA 
HETATM   22  O   UNL     1     -11.776  12.452  64.977  1.00  0.00    -0.346 OA 
HETATM   23  H   UNL     1     -11.828  11.528  65.193  1.00  0.00     0.000 HD 
HETATM   24  O   UNL     1      -9.992  11.494  66.694  1.00  0.00    -0.201 OA 
HETATM   25  C   UNL     1      -8.947  13.617  66.956  1.00  0.00    -0.244 A  
HETATM   26  H   UNL     1      -9.362  11.135  67.308  1.00  0.00     0.000 HD 
ENDBRANCH   9  14
ENDBRANCH   5   8
ENDBRANCH   2   3
TORSDOF 5
ENDMDL
MODEL       15
REMARK 921   NORMALIZED FREE ENERGY PREDICTED BY IDOCK:   -6.25 KCAL/MOL
REMARK 922        TOTAL FREE ENERGY PREDICTED BY IDOCK:   -8.19 KCAL/MOL
REMARK 923 INTER-LIGAND FREE ENERGY PREDICTED BY IDOCK:   -7.83 KCAL/MOL
REMARK 924 INTRA-LIGAND FREE ENERGY PREDICTED BY IDOCK:   -0.36 KCAL/MOL
REMARK 927      BINDING AFFINITY PREDICTED BY RF-SCORE:    0.00 PKD
ROOT
HETATM    1  C   UNL     1     -10.446  19.520  67.276  1.00  0.00    -0.590 C  
HETATM    2  C   UNL     1     -10.397  18.701  65.993  1.00  0.00    -0.399 C  
ENDROOT
BRANCH   2   3
HETATM    3  N   UNL     1     -10.389  17.247  66.221  1.00  0.00    -0.339 N  
HETATM    4  O   UNL     1     -11.223  16.949  64.104  1.00  0.00    -1.176 OA 
HETATM    5  C   UNL     1     -10.898  16.448  65.187  1.00  0.00    -0.275 C  
BRANCH   3   6
HETATM    6  C   UNL     1      -9.877  16.723  67.496  1.00  0.00    -0.255 C  
HETATM    7  C   UNL     1     -10.835  16.115  68.508  1.00  0.00    -0.313 C  
ENDBRANCH   3   6
BRANCH   5   8
HETATM    8  C   UNL     1     -11.070  14.961  65.338  1.00  0.00    -0.366 C  
HETATM    9  C   UNL     1      -9.983  14.150  65.322  1.00  0.00    -0.295 C  
BRANCH   8  10
HETATM   10  C   UNL     1     -12.418  14.279  65.514  1.00  0.00    -0.422 C  
HETATM   11  H2  UNL     1     -13.803  14.694  65.771  1.00  0.00     0.000 HD 
HETATM   12  N   UNL     1     -13.535  13.716  65.660  1.00  0.00    -0.375 NA 
HETATM   13  H1  UNL     1     -14.440  13.259  65.778  1.00  0.00     0.000 HD 
ENDBRANCH   8  10
BRANCH   9  14
HETATM   14  C   UNL     1     -10.041  12.678  65.500  1.00  0.00    -0.279 A  
HETATM   15  C   UNL     1     -10.105  12.105  66.782  1.00  0.00    -0.218 A  
HETATM   16  C   UNL     1     -10.083  10.703  66.942  1.00  0.00    -0.214 A  
HETATM   17  C   UNL     1     -10.018   9.865  65.825  1.00  0.00    -0.277 A  
HETATM   18  N   UNL     1     -10.130  10.130  68.289  1.00  0.00    -0.151 N  
HETATM   19  C   UNL     1      -9.966  10.446  64.557  1.00  0.00    -0.331 A  
HETATM   20  O   UNL     1     -10.076   8.893  68.390  1.00  0.00    -0.177 OA 
HETATM   21  O   UNL     1     -10.221  10.910  69.248  1.00  0.00    -0.217 OA 
HETATM   22  O   UNL     1      -9.994   8.491  65.843  1.00  0.00    -0.470 OA 
HETATM   23  H   UNL     1      -9.950   7.921  65.084  1.00  0.00     0.000 HD 
HETATM   24  O   UNL     1      -9.900   9.642  63.452  1.00  0.00    -0.410 OA 
HETATM   25  C   UNL     1      -9.970  11.831  64.386  1.00  0.00    -0.281 A  
HETATM   26  H   UNL     1      -9.865  10.037  62.589  1.00  0.00     0.000 HD 
ENDBRANCH   9  14
ENDBRANCH   5   8
ENDBRANCH   2   3
TORSDOF 5
ENDMDL
MODEL       16
REMARK 921   NORMALIZED FREE ENERGY PREDICTED BY IDOCK:   -6.24 KCAL/MOL
REMARK 922        TOTAL FREE ENERGY PREDICTED BY IDOCK:   -8.18 KCAL/MOL
REMARK 923 INTER-LIGAND FREE ENERGY PREDICTED BY IDOCK:   -7.74 KCAL/MOL
REMARK 924 INTRA-LIGAND FREE ENERGY PREDICTED BY IDOCK:   -0.44 KCAL/MOL
REMARK 927      BINDING AFFINITY PREDICTED BY RF-SCORE:    0.00 PKD
ROOT
HETATM    1  C   UNL     1     -13.893  15.278  71.970  1.00  0.00    -0.626 C  
HETATM    2  C   UNL     1     -12.697  14.349  71.806  1.00  0.00    -0.351 C  
ENDROOT
BRANCH   2   3
HETATM    3  N   UNL     1     -12.227  14.233  70.417  1.00  0.00    -0.320 N  
HETATM    4  O   UNL     1     -12.063  11.962  70.703  1.00  0.00    -0.373 OA 
HETATM    5  C   UNL     1     -11.873  12.948  69.981  1.00  0.00    -0.286 C  
BRANCH   3   6
HETATM    6  C   UNL     1     -12.139  15.442  69.585  1.00  0.00    -0.327 C  
HETATM    7  C   UNL     1     -10.960  16.390  69.744  1.00  0.00    -0.341 C  
ENDBRANCH   3   6
BRANCH   5   8
HETATM    8  C   UNL     1     -11.256  12.705  68.630  1.00  0.00    -0.323 C  
HETATM    9  C   UNL     1     -11.905  11.940  67.718  1.00  0.00    -0.289 C  
BRANCH   8  10
HETATM   10  C   UNL     1      -9.913  13.274  68.200  1.00  0.00    -0.234 C  
HETATM   11  H2  UNL     1      -9.388  14.038  67.061  1.00  0.00     0.000 HD 
HETATM   12  N   UNL     1      -8.801  13.747  67.843  1.00  0.00    -0.176 NA 
HETATM   13  H1  UNL     1      -7.900  14.129  67.555  1.00  0.00     0.000 HD 
ENDBRANCH   8  10
BRANCH   9  14
HETATM   14  C   UNL     1     -11.401  11.671  66.348  1.00  0.00    -0.312 A  
HETATM   15  C   UNL     1     -10.471  10.645  66.106  1.00  0.00    -0.260 A  
HETATM   16  C   UNL     1      -9.942  10.449  64.813  1.00  0.00    -0.339 A  
HETATM   17  C   UNL     1     -10.353  11.258  63.750  1.00  0.00    -0.395 A  
HETATM   18  N   UNL     1      -8.957   9.387  64.591  1.00  0.00    -0.207 N  
HETATM   19  C   UNL     1     -11.286  12.265  64.001  1.00  0.00    -0.392 A  
HETATM   20  O   UNL     1      -8.491   9.265  63.446  1.00  0.00    -0.184 OA 
HETATM   21  O   UNL     1      -8.648   8.672  65.555  1.00  0.00    -0.157 OA 
HETATM   22  O   UNL     1      -9.920  11.168  62.449  1.00  0.00    -0.561 OA 
HETATM   23  H   UNL     1     -10.200  11.718  61.726  1.00  0.00     0.000 HD 
HETATM   24  O   UNL     1     -11.699  13.068  62.973  1.00  0.00    -0.824 OA 
HETATM   25  C   UNL     1     -11.804  12.481  65.278  1.00  0.00    -0.461 A  
HETATM   26  H   UNL     1     -12.334  13.754  63.143  1.00  0.00     0.000 HD 
ENDBRANCH   9  14
ENDBRANCH   5   8
ENDBRANCH   2   3
TORSDOF 5
ENDMDL
MODEL       17
REMARK 921   NORMALIZED FREE ENERGY PREDICTED BY IDOCK:   -6.23 KCAL/MOL
REMARK 922        TOTAL FREE ENERGY PREDICTED BY IDOCK:   -8.16 KCAL/MOL
REMARK 923 INTER-LIGAND FREE ENERGY PREDICTED BY IDOCK:   -7.77 KCAL/MOL
REMARK 924 INTRA-LIGAND FREE ENERGY PREDICTED BY IDOCK:   -0.39 KCAL/MOL
REMARK 927      BINDING AFFINITY PREDICTED BY RF-SCORE:    0.00 PKD
ROOT
HETATM    1  C   UNL     1     -10.484  19.956  65.746  1.00  0.00    -0.518 C  
HETATM    2  C   UNL     1      -9.243  19.180  66.169  1.00  0.00    -0.229 C  
ENDROOT
BRANCH   2   3
HETATM    3  N   UNL     1      -9.444  18.361  67.376  1.00  0.00    -0.271 N  
HETATM    4  O   UNL     1     -10.085  16.612  66.036  1.00  0.00    -0.322 OA 
HETATM    5  C   UNL     1      -9.940  17.065  67.177  1.00  0.00    -0.281 C  
BRANCH   3   6
HETATM    6  C   UNL     1      -9.138  18.938  68.694  1.00  0.00    -0.346 C  
HETATM    7  C   UNL     1     -10.160  19.818  69.395  1.00  0.00    -0.211 C  
ENDBRANCH   3   6
BRANCH   5   8
HETATM    8  C   UNL     1     -10.314  16.168  68.327  1.00  0.00    -0.266 C  
HETATM    9  C   UNL     1     -11.618  15.997  68.655  1.00  0.00    -0.343 C  
BRANCH   8  10
HETATM   10  C   UNL     1      -9.301  15.416  69.176  1.00  0.00    -0.246 C  
HETATM   11  H2  UNL     1      -9.314  14.278  70.104  1.00  0.00     0.000 HD 
HETATM   12  N   UNL     1      -8.462  14.792  69.880  1.00  0.00    -0.308 NA 
HETATM   13  H1  UNL     1      -7.782  14.287  70.449  1.00  0.00     0.000 HD 
ENDBRANCH   8  10
BRANCH   9  14
HETATM   14  C   UNL     1     -12.093  15.108  69.744  1.00  0.00    -0.354 A  
HETATM   15  C   UNL     1     -11.968  13.711  69.646  1.00  0.00    -0.402 A  
HETATM   16  C   UNL     1     -12.493  12.873  70.653  1.00  0.00    -0.252 A  
HETATM   17  C   UNL     1     -13.123  13.422  71.773  1.00  0.00    -0.388 A  
HETATM   18  N   UNL     1     -12.369  11.420  70.518  1.00  0.00    -0.353 N  
HETATM   19  C   UNL     1     -13.230  14.811  71.863  1.00  0.00    -0.345 A  
HETATM   20  O   UNL     1     -12.870  10.715  71.409  1.00  0.00    -0.382 OA 
HETATM   21  O   UNL     1     -11.773  10.978  69.525  1.00  0.00    -0.271 OA 
HETATM   22  O   UNL     1     -13.669  12.721  72.821  1.00  0.00    -0.696 OA 
HETATM   23  H   UNL     1     -14.097  13.095  73.583  1.00  0.00     0.000 HD 
HETATM   24  O   UNL     1     -13.845  15.367  72.952  1.00  0.00    -0.486 OA 
HETATM   25  C   UNL     1     -12.731  15.650  70.867  1.00  0.00    -0.500 A  
HETATM   26  H   UNL     1     -13.918  16.312  73.014  1.00  0.00     0.000 HD 
ENDBRANCH   9  14
ENDBRANCH   5   8
ENDBRANCH   2   3
TORSDOF 5
ENDMDL
MODEL       18
REMARK 921   NORMALIZED FREE ENERGY PREDICTED BY IDOCK:   -6.22 KCAL/MOL
REMARK 922        TOTAL FREE ENERGY PREDICTED BY IDOCK:   -8.15 KCAL/MOL
REMARK 923 INTER-LIGAND FREE ENERGY PREDICTED BY IDOCK:   -7.90 KCAL/MOL
REMARK 924 INTRA-LIGAND FREE ENERGY PREDICTED BY IDOCK:   -0.25 KCAL/MOL
REMARK 927      BINDING AFFINITY PREDICTED BY RF-SCORE:    0.00 PKD
ROOT
HETATM    1  C   UNL     1     -10.122  20.104  66.582  1.00  0.00    -0.584 C  
HETATM    2  C   UNL     1     -10.556  18.876  65.791  1.00  0.00    -0.296 C  
ENDROOT
BRANCH   2   3
HETATM    3  N   UNL     1     -10.247  17.604  66.462  1.00  0.00    -0.345 N  
HETATM    4  O   UNL     1     -10.930  16.488  64.576  1.00  0.00    -0.827 OA 
HETATM    5  C   UNL     1     -10.541  16.433  65.748  1.00  0.00    -0.315 C  
BRANCH   3   6
HETATM    6  C   UNL     1      -9.678  17.626  67.818  1.00  0.00    -0.280 C  
HETATM    7  C   UNL     1     -10.519  17.182  69.004  1.00  0.00    -0.321 C  
ENDBRANCH   3   6
BRANCH   5   8
HETATM    8  C   UNL     1     -10.398  15.066  66.363  1.00  0.00    -0.293 C  
HETATM    9  C   UNL     1     -11.502  14.330  66.640  1.00  0.00    -0.374 C  
BRANCH   8  10
HETATM   10  C   UNL     1      -9.060  14.430  66.706  1.00  0.00    -0.257 C  
HETATM   11  H2  UNL     1      -7.725  14.349  66.099  1.00  0.00     0.000 HD 
HETATM   12  N   UNL     1      -7.950  13.904  66.989  1.00  0.00    -0.375 NA 
HETATM   13  H1  UNL     1      -7.052  13.478  67.219  1.00  0.00     0.000 HD 
ENDBRANCH   8  10
BRANCH   9  14
HETATM   14  C   UNL     1     -11.468  12.961  67.210  1.00  0.00    -0.388 A  
HETATM   15  C   UNL     1     -11.879  12.715  68.533  1.00  0.00    -0.342 A  
HETATM   16  C   UNL     1     -11.770  11.423  69.088  1.00  0.00    -0.342 A  
HETATM   17  C   UNL     1     -11.273  10.364  68.323  1.00  0.00    -0.267 A  
HETATM   18  N   UNL     1     -12.184  11.197  70.475  1.00  0.00    -0.357 N  
HETATM   19  C   UNL     1     -10.880  10.618  67.008  1.00  0.00    -0.238 A  
HETATM   20  O   UNL     1     -12.044  10.053  70.937  1.00  0.00    -0.307 OA 
HETATM   21  O   UNL     1     -12.650  12.157  71.104  1.00  0.00    -0.365 OA 
HETATM   22  O   UNL     1     -11.121   9.063  68.740  1.00  0.00    -0.446 OA 
HETATM   23  H   UNL     1     -10.784   8.343  68.220  1.00  0.00     0.000 HD 
HETATM   24  O   UNL     1     -10.390   9.594  66.244  1.00  0.00    -0.239 OA 
HETATM   25  C   UNL     1     -10.966  11.895  66.452  1.00  0.00    -0.337 A  
HETATM   26  H   UNL     1     -10.123   9.767  65.349  1.00  0.00     0.000 HD 
ENDBRANCH   9  14
ENDBRANCH   5   8
ENDBRANCH   2   3
TORSDOF 5
ENDMDL
MODEL       19
REMARK 921   NORMALIZED FREE ENERGY PREDICTED BY IDOCK:   -6.21 KCAL/MOL
REMARK 922        TOTAL FREE ENERGY PREDICTED BY IDOCK:   -8.14 KCAL/MOL
REMARK 923 INTER-LIGAND FREE ENERGY PREDICTED BY IDOCK:   -7.72 KCAL/MOL
REMARK 924 INTRA-LIGAND FREE ENERGY PREDICTED BY IDOCK:   -0.42 KCAL/MOL
REMARK 927      BINDING AFFINITY PREDICTED BY RF-SCORE:    0.00 PKD
ROOT
HETATM    1  C   UNL     1      -5.946  21.151  67.938  1.00  0.00    -0.406 C  
HETATM    2  C   UNL     1      -5.955  20.207  66.742  1.00  0.00    -0.174 C  
ENDROOT
BRANCH   2   3
HETATM    3  N   UNL     1      -6.686  18.953  66.987  1.00  0.00    -0.197 N  
HETATM    4  O   UNL     1      -8.381  19.725  65.646  1.00  0.00    -0.376 OA 
HETATM    5  C   UNL     1      -7.961  18.849  66.410  1.00  0.00    -0.285 C  
BRANCH   3   6
HETATM    6  C   UNL     1      -6.066  17.910  67.817  1.00  0.00    -0.155 C  
HETATM    7  C   UNL     1      -5.295  16.776  67.162  1.00  0.00    -0.175 C  
ENDBRANCH   3   6
BRANCH   5   8
HETATM    8  C   UNL     1      -8.868  17.680  66.686  1.00  0.00    -0.283 C  
HETATM    9  C   UNL     1      -8.719  16.529  65.987  1.00  0.00    -0.255 C  
BRANCH   8  10
HETATM   10  C   UNL     1      -9.977  17.699  67.727  1.00  0.00    -0.315 C  
HETATM   11  H2  UNL     1     -11.380  18.127  67.790  1.00  0.00     0.000 HD 
HETATM   12  N   UNL     1     -10.896  17.715  68.589  1.00  0.00    -0.271 NA 
HETATM   13  H1  UNL     1     -11.640  17.727  69.287  1.00  0.00     0.000 HD 
ENDBRANCH   8  10
BRANCH   9  14
HETATM   14  C   UNL     1      -9.535  15.309  66.208  1.00  0.00    -0.341 A  
HETATM   15  C   UNL     1     -10.531  14.928  65.291  1.00  0.00    -0.427 A  
HETATM   16  C   UNL     1     -11.351  13.810  65.550  1.00  0.00    -0.307 A  
HETATM   17  C   UNL     1     -11.170  13.053  66.711  1.00  0.00    -0.298 A  
HETATM   18  N   UNL     1     -12.396  13.445  64.590  1.00  0.00    -0.393 N  
HETATM   19  C   UNL     1     -10.171  13.436  67.607  1.00  0.00    -0.228 A  
HETATM   20  O   UNL     1     -13.118  12.474  64.867  1.00  0.00    -0.833 OA 
HETATM   21  O   UNL     1     -12.498  14.124  63.558  1.00  0.00    -0.817 OA 
HETATM   22  O   UNL     1     -11.896  11.945  67.077  1.00  0.00    -0.585 OA 
HETATM   23  H   UNL     1     -11.772  11.430  67.866  1.00  0.00     0.000 HD 
HETATM   24  O   UNL     1      -9.980  12.708  68.750  1.00  0.00    -0.399 OA 
HETATM   25  C   UNL     1      -9.364  14.549  67.372  1.00  0.00    -0.197 A  
HETATM   26  H   UNL     1      -9.300  12.967  69.360  1.00  0.00     0.000 HD 
ENDBRANCH   9  14
ENDBRANCH   5   8
ENDBRANCH   2   3
TORSDOF 5
ENDMDL
MODEL       20
REMARK 921   NORMALIZED FREE ENERGY PREDICTED BY IDOCK:   -6.20 KCAL/MOL
REMARK 922        TOTAL FREE ENERGY PREDICTED BY IDOCK:   -8.13 KCAL/MOL
REMARK 923 INTER-LIGAND FREE ENERGY PREDICTED BY IDOCK:   -7.59 KCAL/MOL
REMARK 924 INTRA-LIGAND FREE ENERGY PREDICTED BY IDOCK:   -0.53 KCAL/MOL
REMARK 927      BINDING AFFINITY PREDICTED BY RF-SCORE:    0.00 PKD
ROOT
HETATM    1  C   UNL     1      -7.235  20.420  66.638  1.00  0.00    -0.317 C  
HETATM    2  C   UNL     1      -8.295  19.415  66.206  1.00  0.00    -0.336 C  
ENDROOT
BRANCH   2   3
HETATM    3  N   UNL     1      -8.721  18.507  67.282  1.00  0.00    -0.263 N  
HETATM    4  O   UNL     1      -8.608  16.759  65.799  1.00  0.00    -0.485 OA 
HETATM    5  C   UNL     1      -8.904  17.162  66.930  1.00  0.00    -0.235 C  
BRANCH   3   6
HETATM    6  C   UNL     1      -8.942  19.047  68.632  1.00  0.00    -0.363 C  
HETATM    7  C   UNL     1     -10.139  19.943  68.906  1.00  0.00    -0.438 C  
ENDBRANCH   3   6
BRANCH   5   8
HETATM    8  C   UNL     1      -9.461  16.152  67.898  1.00  0.00    -0.214 C  
HETATM    9  C   UNL     1     -10.776  15.825  67.852  1.00  0.00    -0.302 C  
BRANCH   8  10
HETATM   10  C   UNL     1      -8.627  15.449  68.957  1.00  0.00    -0.227 C  
HETATM   11  H2  UNL     1      -8.403  15.575  70.403  1.00  0.00     0.000 HD 
HETATM   12  N   UNL     1      -7.936  14.866  69.836  1.00  0.00    -0.388 NA 
HETATM   13  H1  UNL     1      -7.377  14.394  70.547  1.00  0.00     0.000 HD 
ENDBRANCH   8  10
BRANCH   9  14
HETATM   14  C   UNL     1     -11.414  14.817  68.735  1.00  0.00    -0.324 A  
HETATM   15  C   UNL     1     -12.113  15.205  69.891  1.00  0.00    -0.373 A  
HETATM   16  C   UNL     1     -12.650  14.234  70.763  1.00  0.00    -0.356 A  
HETATM   17  C   UNL     1     -12.513  12.873  70.476  1.00  0.00    -0.217 A  
HETATM   18  N   UNL     1     -13.356  14.663  71.973  1.00  0.00    -0.337 N  
HETATM   19  C   UNL     1     -11.827  12.502  69.318  1.00  0.00    -0.304 A  
HETATM   20  O   UNL     1     -13.787  13.779  72.731  1.00  0.00    -0.716 OA 
HETATM   21  O   UNL     1     -13.483  15.880  72.169  1.00  0.00    -0.435 OA 
HETATM   22  O   UNL     1     -12.991  11.832  71.236  1.00  0.00    -0.359 OA 
HETATM   23  H   UNL     1     -12.898  10.907  71.040  1.00  0.00     0.000 HD 
HETATM   24  O   UNL     1     -11.681  11.174  69.021  1.00  0.00    -0.287 OA 
HETATM   25  C   UNL     1     -11.276  13.451  68.457  1.00  0.00    -0.316 A  
HETATM   26  H   UNL     1     -11.214  10.921  68.234  1.00  0.00     0.000 HD 
ENDBRANCH   9  14
ENDBRANCH   5   8
ENDBRANCH   2   3
TORSDOF 5
ENDMDL
MODEL       21
REMARK 921   NORMALIZED FREE ENERGY PREDICTED BY IDOCK:   -6.18 KCAL/MOL
REMARK 922        TOTAL FREE ENERGY PREDICTED BY IDOCK:   -8.11 KCAL/MOL
REMARK 923 INTER-LIGAND FREE ENERGY PREDICTED BY IDOCK:   -7.91 KCAL/MOL
REMARK 924 INTRA-LIGAND FREE ENERGY PREDICTED BY IDOCK:   -0.20 KCAL/MOL
REMARK 927      BINDING AFFINITY PREDICTED BY RF-SCORE:    0.00 PKD
ROOT
HETATM    1  C   UNL     1      -6.219  20.025  70.073  1.00  0.00    -0.395 C  
HETATM    2  C   UNL     1      -6.266  19.518  68.637  1.00  0.00    -0.244 C  
ENDROOT
BRANCH   2   3
HETATM    3  N   UNL     1      -7.139  18.348  68.453  1.00  0.00    -0.255 N  
HETATM    4  O   UNL     1      -8.368  19.553  66.934  1.00  0.00    -0.267 OA 
HETATM    5  C   UNL     1      -8.231  18.512  67.587  1.00  0.00    -0.255 C  
BRANCH   3   6
HETATM    6  C   UNL     1      -6.840  17.107  69.182  1.00  0.00    -0.236 C  
HETATM    7  C   UNL     1      -5.459  16.479  69.079  1.00  0.00    -0.128 C  
ENDBRANCH   3   6
BRANCH   5   8
HETATM    8  C   UNL     1      -9.275  17.443  67.409  1.00  0.00    -0.236 C  
HETATM    9  C   UNL     1      -9.269  16.671  66.294  1.00  0.00    -0.328 C  
BRANCH   8  10
HETATM   10  C   UNL     1     -10.373  17.157  68.421  1.00  0.00    -0.362 C  
HETATM   11  H2  UNL     1     -11.220  17.936  69.332  1.00  0.00     0.000 HD 
HETATM   12  N   UNL     1     -11.282  16.920  69.261  1.00  0.00    -0.242 NA 
HETATM   13  H1  UNL     1     -12.018  16.728  69.941  1.00  0.00     0.000 HD 
ENDBRANCH   8  10
BRANCH   9  14
HETATM   14  C   UNL     1     -10.229  15.569  66.039  1.00  0.00    -0.349 A  
HETATM   15  C   UNL     1     -10.335  14.481  66.924  1.00  0.00    -0.264 A  
HETATM   16  C   UNL     1     -11.196  13.402  66.632  1.00  0.00    -0.309 A  
HETATM   17  C   UNL     1     -11.972  13.411  65.470  1.00  0.00    -0.398 A  
HETATM   18  N   UNL     1     -11.273  12.271  67.559  1.00  0.00    -0.278 N  
HETATM   19  C   UNL     1     -11.866  14.503  64.606  1.00  0.00    -0.453 A  
HETATM   20  O   UNL     1     -12.018  11.326  67.252  1.00  0.00    -0.529 OA 
HETATM   21  O   UNL     1     -10.593  12.321  68.594  1.00  0.00    -0.228 OA 
HETATM   22  O   UNL     1     -12.849  12.430  65.073  1.00  0.00    -0.673 OA 
HETATM   23  H   UNL     1     -13.377  12.437  64.283  1.00  0.00     0.000 HD 
HETATM   24  O   UNL     1     -12.616  14.528  63.462  1.00  0.00    -1.034 OA 
HETATM   25  C   UNL     1     -11.006  15.568  64.874  1.00  0.00    -0.452 A  
HETATM   26  H   UNL     1     -12.545  15.271  62.874  1.00  0.00     0.000 HD 
ENDBRANCH   9  14
ENDBRANCH   5   8
ENDBRANCH   2   3
TORSDOF 5
ENDMDL
MODEL       22
REMARK 921   NORMALIZED FREE ENERGY PREDICTED BY IDOCK:   -6.17 KCAL/MOL
REMARK 922        TOTAL FREE ENERGY PREDICTED BY IDOCK:   -8.09 KCAL/MOL
REMARK 923 INTER-LIGAND FREE ENERGY PREDICTED BY IDOCK:   -8.36 KCAL/MOL
REMARK 924 INTRA-LIGAND FREE ENERGY PREDICTED BY IDOCK:    0.27 KCAL/MOL
REMARK 927      BINDING AFFINITY PREDICTED BY RF-SCORE:    0.00 PKD
ROOT
HETATM    1  C   UNL     1     -10.053  15.333  65.552  1.00  0.00    -0.408 C  
HETATM    2  C   UNL     1     -11.235  14.935  66.428  1.00  0.00    -0.331 C  
ENDROOT
BRANCH   2   3
HETATM    3  N   UNL     1     -10.928  13.850  67.373  1.00  0.00    -0.284 N  
HETATM    4  O   UNL     1     -12.369  12.488  66.218  1.00  0.00    -0.570 OA 
HETATM    5  C   UNL     1     -11.626  12.647  67.194  1.00  0.00    -0.368 C  
BRANCH   3   6
HETATM    6  C   UNL     1      -9.943  14.084  68.440  1.00  0.00    -0.236 C  
HETATM    7  C   UNL     1      -9.990  15.370  69.250  1.00  0.00    -0.256 C  
ENDBRANCH   3   6
BRANCH   5   8
HETATM    8  C   UNL     1     -11.507  11.502  68.164  1.00  0.00    -0.385 C  
HETATM    9  C   UNL     1     -11.846  11.680  69.464  1.00  0.00    -0.414 C  
BRANCH   8  10
HETATM   10  C   UNL     1     -11.019  10.115  67.778  1.00  0.00    -0.277 C  
HETATM   11  H2  UNL     1     -10.286   9.510  66.658  1.00  0.00     0.000 HD 
HETATM   12  N   UNL     1     -10.613   8.966  67.456  1.00  0.00    -0.394 NA 
HETATM   13  H1  UNL     1     -10.285   8.036  67.197  1.00  0.00     0.000 HD 
ENDBRANCH   8  10
BRANCH   9  14
HETATM   14  C   UNL     1     -11.801  10.609  70.490  1.00  0.00    -0.453 A  
HETATM   15  C   UNL     1     -10.644   9.833  70.677  1.00  0.00    -0.382 A  
HETATM   16  C   UNL     1     -10.638   8.768  71.602  1.00  0.00    -0.331 A  
HETATM   17  C   UNL     1     -11.776   8.485  72.362  1.00  0.00    -0.358 A  
HETATM   18  N   UNL     1      -9.427   7.959  71.763  1.00  0.00    -0.151 N  
HETATM   19  C   UNL     1     -12.914   9.271  72.176  1.00  0.00    -0.424 A  
HETATM   20  O   UNL     1      -9.470   7.011  72.564  1.00  0.00    -0.142 OA 
HETATM   21  O   UNL     1      -8.431   8.267  71.093  1.00  0.00    -0.121 OA 
HETATM   22  O   UNL     1     -11.899   7.484  73.296  1.00  0.00    -0.554 OA 
HETATM   23  H   UNL     1     -12.673   7.292  73.813  1.00  0.00     0.000 HD 
HETATM   24  O   UNL     1     -14.039   9.008  72.910  1.00  0.00    -1.009 OA 
HETATM   25  C   UNL     1     -12.939  10.316  71.252  1.00  0.00    -0.517 A  
HETATM   26  H   UNL     1     -14.814   9.543  72.784  1.00  0.00     0.000 HD 
ENDBRANCH   9  14
ENDBRANCH   5   8
ENDBRANCH   2   3
TORSDOF 5
ENDMDL
MODEL       23
REMARK 921   NORMALIZED FREE ENERGY PREDICTED BY IDOCK:   -6.16 KCAL/MOL
REMARK 922        TOTAL FREE ENERGY PREDICTED BY IDOCK:   -8.08 KCAL/MOL
REMARK 923 INTER-LIGAND FREE ENERGY PREDICTED BY IDOCK:   -7.61 KCAL/MOL
REMARK 924 INTRA-LIGAND FREE ENERGY PREDICTED BY IDOCK:   -0.47 KCAL/MOL
REMARK 927      BINDING AFFINITY PREDICTED BY RF-SCORE:    0.00 PKD
ROOT
HETATM    1  C   UNL     1     -11.517   6.461  69.645  1.00  0.00    -0.446 C  
HETATM    2  C   UNL     1     -10.175   6.977  69.141  1.00  0.00    -0.187 C  
ENDROOT
BRANCH   2   3
HETATM    3  N   UNL     1     -10.154   8.429  68.902  1.00  0.00    -0.195 N  
HETATM    4  O   UNL     1     -10.434   8.024  66.660  1.00  0.00    -0.303 OA 
HETATM    5  C   UNL     1     -10.237   8.844  67.564  1.00  0.00    -0.248 C  
BRANCH   3   6
HETATM    6  C   UNL     1     -10.033   9.343  70.046  1.00  0.00    -0.221 C  
HETATM    7  C   UNL     1     -11.281   9.925  70.691  1.00  0.00    -0.416 C  
ENDBRANCH   3   6
BRANCH   5   8
HETATM    8  C   UNL     1     -10.097  10.289  67.167  1.00  0.00    -0.259 C  
HETATM    9  C   UNL     1     -11.159  11.125  67.270  1.00  0.00    -0.366 C  
BRANCH   8  10
HETATM   10  C   UNL     1      -8.807  10.899  66.643  1.00  0.00    -0.159 C  
HETATM   11  H2  UNL     1      -8.377  11.630  65.444  1.00  0.00     0.000 HD 
HETATM   12  N   UNL     1      -7.738  11.406  66.207  1.00  0.00    -0.356 NA 
HETATM   13  H1  UNL     1      -6.873  11.815  65.855  1.00  0.00     0.000 HD 
ENDBRANCH   8  10
BRANCH   9  14
HETATM   14  C   UNL     1     -11.116  12.571  66.941  1.00  0.00    -0.323 A  
HETATM   15  C   UNL     1     -11.640  13.055  65.729  1.00  0.00    -0.396 A  
HETATM   16  C   UNL     1     -11.524  14.420  65.394  1.00  0.00    -0.344 A  
HETATM   17  C   UNL     1     -10.906  15.315  66.273  1.00  0.00    -0.312 A  
HETATM   18  N   UNL     1     -12.059  14.897  64.116  1.00  0.00    -0.372 N  
HETATM   19  C   UNL     1     -10.400  14.823  67.478  1.00  0.00    -0.238 A  
HETATM   20  O   UNL     1     -11.910  16.099  63.843  1.00  0.00    -0.921 OA 
HETATM   21  O   UNL     1     -12.628  14.075  63.384  1.00  0.00    -0.845 OA 
HETATM   22  O   UNL     1     -10.734  16.663  66.069  1.00  0.00    -0.262 OA 
HETATM   23  H   UNL     1     -10.314  17.271  66.667  1.00  0.00     0.000 HD 
HETATM   24  O   UNL     1      -9.791  15.684  68.350  1.00  0.00    -0.202 OA 
HETATM   25  C   UNL     1     -10.493  13.473  67.814  1.00  0.00    -0.242 A  
HETATM   26  H   UNL     1      -9.447  15.350  69.170  1.00  0.00     0.000 HD 
ENDBRANCH   9  14
ENDBRANCH   5   8
ENDBRANCH   2   3
TORSDOF 5
ENDMDL
MODEL       24
REMARK 921   NORMALIZED FREE ENERGY PREDICTED BY IDOCK:   -6.16 KCAL/MOL
REMARK 922        TOTAL FREE ENERGY PREDICTED BY IDOCK:   -8.08 KCAL/MOL
REMARK 923 INTER-LIGAND FREE ENERGY PREDICTED BY IDOCK:   -7.72 KCAL/MOL
REMARK 924 INTRA-LIGAND FREE ENERGY PREDICTED BY IDOCK:   -0.36 KCAL/MOL
REMARK 927      BINDING AFFINITY PREDICTED BY RF-SCORE:    0.00 PKD
ROOT
HETATM    1  C   UNL     1     -11.133  10.833  68.339  1.00  0.00    -0.323 C  
HETATM    2  C   UNL     1     -11.256  11.284  66.889  1.00  0.00    -0.230 C  
ENDROOT
BRANCH   2   3
HETATM    3  N   UNL     1     -10.549  12.542  66.601  1.00  0.00    -0.235 N  
HETATM    4  O   UNL     1     -12.491  13.687  67.032  1.00  0.00    -0.291 OA 
HETATM    5  C   UNL     1     -11.315  13.716  66.651  1.00  0.00    -0.326 C  
BRANCH   3   6
HETATM    6  C   UNL     1      -9.118  12.501  66.267  1.00  0.00    -0.069 C  
HETATM    7  C   UNL     1      -8.077  12.526  67.375  1.00  0.00    -0.180 C  
ENDBRANCH   3   6
BRANCH   5   8
HETATM    8  C   UNL     1     -10.751  15.054  66.253  1.00  0.00    -0.322 C  
HETATM    9  C   UNL     1      -9.852  15.675  67.055  1.00  0.00    -0.237 C  
BRANCH   8  10
HETATM   10  C   UNL     1     -11.130  15.783  64.973  1.00  0.00    -0.370 C  
HETATM   11  H2  UNL     1     -10.910  17.113  64.392  1.00  0.00     0.000 HD 
HETATM   12  N   UNL     1     -11.444  16.388  63.913  1.00  0.00    -1.618 NA 
HETATM   13  H1  UNL     1     -11.697  16.877  63.054  1.00  0.00     0.000 HD 
ENDBRANCH   8  10
BRANCH   9  14
HETATM   14  C   UNL     1      -9.210  16.974  66.736  1.00  0.00    -0.270 A  
HETATM   15  C   UNL     1      -7.861  17.040  66.346  1.00  0.00    -0.343 A  
HETATM   16  C   UNL     1      -7.242  18.287  66.119  1.00  0.00    -0.266 A  
HETATM   17  C   UNL     1      -7.967  19.473  66.259  1.00  0.00    -0.321 A  
HETATM   18  N   UNL     1      -5.829  18.331  65.734  1.00  0.00    -0.193 N  
HETATM   19  C   UNL     1      -9.309  19.394  66.636  1.00  0.00    -0.349 A  
HETATM   20  O   UNL     1      -5.311  19.448  65.574  1.00  0.00    -0.152 OA 
HETATM   21  O   UNL     1      -5.234  17.253  65.589  1.00  0.00    -0.245 OA 
HETATM   22  O   UNL     1      -7.486  20.746  66.065  1.00  0.00    -0.503 OA 
HETATM   23  H   UNL     1      -7.980  21.552  66.159  1.00  0.00     0.000 HD 
HETATM   24  O   UNL     1     -10.035  20.544  66.779  1.00  0.00    -0.528 OA 
HETATM   25  C   UNL     1      -9.929  18.168  66.879  1.00  0.00    -0.345 A  
HETATM   26  H   UNL     1     -10.948  20.490  67.035  1.00  0.00     0.000 HD 
ENDBRANCH   9  14
ENDBRANCH   5   8
ENDBRANCH   2   3
TORSDOF 5
ENDMDL
MODEL       25
REMARK 921   NORMALIZED FREE ENERGY PREDICTED BY IDOCK:   -6.16 KCAL/MOL
REMARK 922        TOTAL FREE ENERGY PREDICTED BY IDOCK:   -8.07 KCAL/MOL
REMARK 923 INTER-LIGAND FREE ENERGY PREDICTED BY IDOCK:   -8.05 KCAL/MOL
REMARK 924 INTRA-LIGAND FREE ENERGY PREDICTED BY IDOCK:   -0.03 KCAL/MOL
REMARK 927      BINDING AFFINITY PREDICTED BY RF-SCORE:    0.00 PKD
ROOT
HETATM    1  C   UNL     1     -12.249   6.996  71.710  1.00  0.00    -0.387 C  
HETATM    2  C   UNL     1     -11.714   8.234  72.419  1.00  0.00    -0.397 C  
ENDROOT
BRANCH   2   3
HETATM    3  N   UNL     1     -11.205   9.264  71.500  1.00  0.00    -0.364 N  
HETATM    4  O   UNL     1     -13.288  10.229  71.490  1.00  0.00    -0.359 OA 
HETATM    5  C   UNL     1     -12.135  10.210  71.043  1.00  0.00    -0.377 C  
BRANCH   3   6
HETATM    6  C   UNL     1      -9.789   9.239  71.106  1.00  0.00    -0.272 C  
HETATM    7  C   UNL     1      -8.875   8.138  71.622  1.00  0.00    -0.202 C  
ENDBRANCH   3   6
BRANCH   5   8
HETATM    8  C   UNL     1     -11.781  11.238  70.001  1.00  0.00    -0.428 C  
HETATM    9  C   UNL     1     -11.431  10.843  68.753  1.00  0.00    -0.376 C  
BRANCH   8  10
HETATM   10  C   UNL     1     -11.790  12.737  70.257  1.00  0.00    -0.212 C  
HETATM   11  H2  UNL     1     -10.801  13.777  70.566  1.00  0.00     0.000 HD 
HETATM   12  N   UNL     1     -11.797  13.979  70.469  1.00  0.00    -0.453 NA 
HETATM   13  H1  UNL     1     -11.802  14.985  70.640  1.00  0.00     0.000 HD 
ENDBRANCH   8  10
BRANCH   9  14
HETATM   14  C   UNL     1     -11.101  11.775  67.646  1.00  0.00    -0.312 A  
HETATM   15  C   UNL     1     -11.903  11.843  66.493  1.00  0.00    -0.132 A  
HETATM   16  C   UNL     1     -11.537  12.677  65.416  1.00  0.00    -0.363 A  
HETATM   17  C   UNL     1     -10.385  13.464  65.490  1.00  0.00    -0.295 A  
HETATM   18  N   UNL     1     -12.378  12.715  64.217  1.00  0.00    -0.429 N  
HETATM   19  C   UNL     1      -9.604  13.395  66.645  1.00  0.00    -0.270 A  
HETATM   20  O   UNL     1     -12.007  13.437  63.277  1.00  0.00    -0.460 OA 
HETATM   21  O   UNL     1     -13.408  12.027  64.209  1.00  0.00    -0.709 OA 
HETATM   22  O   UNL     1      -9.922  14.318  64.517  1.00  0.00    -0.640 OA 
HETATM   23  H   UNL     1      -9.139  14.853  64.568  1.00  0.00     0.000 HD 
HETATM   24  O   UNL     1      -8.471  14.157  66.735  1.00  0.00    -0.402 OA 
HETATM   25  C   UNL     1      -9.945  12.562  67.710  1.00  0.00    -0.210 A  
HETATM   26  H   UNL     1      -7.939  14.111  67.521  1.00  0.00     0.000 HD 
ENDBRANCH   9  14
ENDBRANCH   5   8
ENDBRANCH   2   3
TORSDOF 5
ENDMDL
MODEL       26
REMARK 921   NORMALIZED FREE ENERGY PREDICTED BY IDOCK:   -6.13 KCAL/MOL
REMARK 922        TOTAL FREE ENERGY PREDICTED BY IDOCK:   -8.04 KCAL/MOL
REMARK 923 INTER-LIGAND FREE ENERGY PREDICTED BY IDOCK:   -7.93 KCAL/MOL
REMARK 924 INTRA-LIGAND FREE ENERGY PREDICTED BY IDOCK:   -0.10 KCAL/MOL
REMARK 927      BINDING AFFINITY PREDICTED BY RF-SCORE:    0.00 PKD
ROOT
HETATM    1  C   UNL     1      -6.202  21.104  66.757  1.00  0.00    -0.381 C  
HETATM    2  C   UNL     1      -7.271  20.646  67.742  1.00  0.00    -0.264 C  
ENDROOT
BRANCH   2   3
HETATM    3  N   UNL     1      -8.062  19.502  67.262  1.00  0.00    -0.267 N  
HETATM    4  O   UNL     1      -7.255  18.258  69.013  1.00  0.00    -0.277 OA 
HETATM    5  C   UNL     1      -7.922  18.302  67.973  1.00  0.00    -0.264 C  
BRANCH   3   6
HETATM    6  C   UNL     1      -8.923  19.669  66.081  1.00  0.00    -0.334 C  
HETATM    7  C   UNL     1     -10.343  20.188  66.242  1.00  0.00    -0.512 C  
ENDBRANCH   3   6
BRANCH   5   8
HETATM    8  C   UNL     1      -8.570  17.022  67.516  1.00  0.00    -0.212 C  
HETATM    9  C   UNL     1      -9.917  16.959  67.375  1.00  0.00    -0.269 C  
BRANCH   8  10
HETATM   10  C   UNL     1      -7.798  15.754  67.189  1.00  0.00    -0.212 C  
HETATM   11  H2  UNL     1      -6.616  15.394  66.395  1.00  0.00     0.000 HD 
HETATM   12  N   UNL     1      -7.157  14.704  66.917  1.00  0.00    -0.260 NA 
HETATM   13  H1  UNL     1      -6.638  13.853  66.697  1.00  0.00     0.000 HD 
ENDBRANCH   8  10
BRANCH   9  14
HETATM   14  C   UNL     1     -10.649  15.761  66.896  1.00  0.00    -0.317 A  
HETATM   15  C   UNL     1     -10.829  14.641  67.728  1.00  0.00    -0.268 A  
HETATM   16  C   UNL     1     -11.460  13.479  67.236  1.00  0.00    -0.339 A  
HETATM   17  C   UNL     1     -11.934  13.433  65.922  1.00  0.00    -0.409 A  
HETATM   18  N   UNL     1     -11.617  12.318  68.115  1.00  0.00    -0.320 N  
HETATM   19  C   UNL     1     -11.758  14.555  65.110  1.00  0.00    -0.376 A  
HETATM   20  O   UNL     1     -12.149  11.302  67.637  1.00  0.00    -0.600 OA 
HETATM   21  O   UNL     1     -11.213  12.415  69.282  1.00  0.00    -0.242 OA 
HETATM   22  O   UNL     1     -12.566  12.369  65.325  1.00  0.00    -0.636 OA 
HETATM   23  H   UNL     1     -12.889  12.338  64.432  1.00  0.00     0.000 HD 
HETATM   24  O   UNL     1     -12.214  14.529  63.821  1.00  0.00    -0.947 OA 
HETATM   25  C   UNL     1     -11.121  15.705  65.579  1.00  0.00    -0.229 A  
HETATM   26  H   UNL     1     -12.096  15.292  63.268  1.00  0.00     0.000 HD 
ENDBRANCH   9  14
ENDBRANCH   5   8
ENDBRANCH   2   3
TORSDOF 5
ENDMDL
MODEL       27
REMARK 921   NORMALIZED FREE ENERGY PREDICTED BY IDOCK:   -6.12 KCAL/MOL
REMARK 922        TOTAL FREE ENERGY PREDICTED BY IDOCK:   -8.03 KCAL/MOL
REMARK 923 INTER-LIGAND FREE ENERGY PREDICTED BY IDOCK:   -8.58 KCAL/MOL
REMARK 924 INTRA-LIGAND FREE ENERGY PREDICTED BY IDOCK:    0.55 KCAL/MOL
REMARK 927      BINDING AFFINITY PREDICTED BY RF-SCORE:    0.00 PKD
ROOT
HETATM    1  C   UNL     1     -11.824  15.863  72.384  1.00  0.00    -0.618 C  
HETATM    2  C   UNL     1     -12.848  15.560  71.298  1.00  0.00    -0.475 C  
ENDROOT
BRANCH   2   3
HETATM    3  N   UNL     1     -12.494  14.402  70.462  1.00  0.00    -0.333 N  
HETATM    4  O   UNL     1     -11.980  15.843  68.751  1.00  0.00    -0.368 OA 
HETATM    5  C   UNL     1     -12.115  14.677  69.140  1.00  0.00    -0.248 C  
BRANCH   3   6
HETATM    6  C   UNL     1     -12.572  13.050  71.036  1.00  0.00    -0.299 C  
HETATM    7  C   UNL     1     -13.524  12.766  72.187  1.00  0.00    -0.591 C  
ENDBRANCH   3   6
BRANCH   5   8
HETATM    8  C   UNL     1     -11.854  13.583  68.140  1.00  0.00    -0.400 C  
HETATM    9  C   UNL     1     -11.431  13.895  66.890  1.00  0.00    -0.370 C  
BRANCH   8  10
HETATM   10  C   UNL     1     -12.035  12.103  68.440  1.00  0.00    -0.198 C  
HETATM   11  H2  UNL     1     -12.458  10.904  67.706  1.00  0.00     0.000 HD 
HETATM   12  N   UNL     1     -12.185  10.877  68.688  1.00  0.00    -0.810 NA 
HETATM   13  H1  UNL     1     -12.306   9.884  68.890  1.00  0.00     0.000 HD 
ENDBRANCH   8  10
BRANCH   9  14
HETATM   14  C   UNL     1     -11.111  12.892  65.845  1.00  0.00    -0.310 A  
HETATM   15  C   UNL     1      -9.882  12.209  65.848  1.00  0.00    -0.265 A  
HETATM   16  C   UNL     1      -9.557  11.315  64.806  1.00  0.00    -0.235 A  
HETATM   17  C   UNL     1     -10.463  11.079  63.769  1.00  0.00    -0.341 A  
HETATM   18  N   UNL     1      -8.262  10.631  64.821  1.00  0.00    -0.097 N  
HETATM   19  C   UNL     1     -11.684  11.755  63.783  1.00  0.00    -0.400 A  
HETATM   20  O   UNL     1      -8.000   9.875  63.871  1.00  0.00    -0.136 OA 
HETATM   21  O   UNL     1      -7.504  10.844  65.779  1.00  0.00    -0.111 OA 
HETATM   22  O   UNL     1     -10.272  10.233  62.703  1.00  0.00    -0.613 OA 
HETATM   23  H   UNL     1     -10.888  10.072  61.997  1.00  0.00     0.000 HD 
HETATM   24  O   UNL     1     -12.583  11.538  62.775  1.00  0.00    -0.905 OA 
HETATM   25  C   UNL     1     -12.011  12.655  64.798  1.00  0.00    -0.458 A  
HETATM   26  H   UNL     1     -13.415  11.997  62.784  1.00  0.00     0.000 HD 
ENDBRANCH   9  14
ENDBRANCH   5   8
ENDBRANCH   2   3
TORSDOF 5
ENDMDL
MODEL       28
REMARK 921   NORMALIZED FREE ENERGY PREDICTED BY IDOCK:   -6.12 KCAL/MOL
REMARK 922        TOTAL FREE ENERGY PREDICTED BY IDOCK:   -8.02 KCAL/MOL
REMARK 923 INTER-LIGAND FREE ENERGY PREDICTED BY IDOCK:   -7.43 KCAL/MOL
REMARK 924 INTRA-LIGAND FREE ENERGY PREDICTED BY IDOCK:   -0.60 KCAL/MOL
REMARK 927      BINDING AFFINITY PREDICTED BY RF-SCORE:    0.00 PKD
ROOT
HETATM    1  C   UNL     1     -10.651  15.831  65.293  1.00  0.00    -0.446 C  
HETATM    2  C   UNL     1     -10.433  14.329  65.158  1.00  0.00    -0.411 C  
ENDROOT
BRANCH   2   3
HETATM    3  N   UNL     1     -10.334  13.629  66.449  1.00  0.00    -0.281 N  
HETATM    4  O   UNL     1     -12.559  13.090  66.284  1.00  0.00    -0.383 OA 
HETATM    5  C   UNL     1     -11.520  13.079  66.955  1.00  0.00    -0.333 C  
BRANCH   3   6
HETATM    6  C   UNL     1      -9.033  13.561  67.130  1.00  0.00    -0.227 C  
HETATM    7  C   UNL     1      -8.606  14.679  68.068  1.00  0.00    -0.162 C  
ENDBRANCH   3   6
BRANCH   5   8
HETATM    8  C   UNL     1     -11.589  12.451  68.322  1.00  0.00    -0.384 C  
HETATM    9  C   UNL     1     -11.562  11.102  68.448  1.00  0.00    -0.376 C  
BRANCH   8  10
HETATM   10  C   UNL     1     -11.690  13.248  69.613  1.00  0.00    -0.303 C  
HETATM   11  H2  UNL     1     -10.764  13.932  70.525  1.00  0.00     0.000 HD 
HETATM   12  N   UNL     1     -11.772  13.908  70.683  1.00  0.00    -0.515 NA 
HETATM   13  H1  UNL     1     -11.839  14.443  71.549  1.00  0.00     0.000 HD 
ENDBRANCH   8  10
BRANCH   9  14
HETATM   14  C   UNL     1     -11.587  10.387  69.748  1.00  0.00    -0.339 A  
HETATM   15  C   UNL     1     -10.399   9.939  70.352  1.00  0.00    -0.322 A  
HETATM   16  C   UNL     1     -10.442   9.194  71.549  1.00  0.00    -0.352 A  
HETATM   17  C   UNL     1     -11.665   8.910  72.163  1.00  0.00    -0.341 A  
HETATM   18  N   UNL     1      -9.192   8.720  72.148  1.00  0.00    -0.251 N  
HETATM   19  C   UNL     1     -12.836   9.371  71.559  1.00  0.00    -0.362 A  
HETATM   20  O   UNL     1      -9.272   8.040  73.185  1.00  0.00    -0.238 OA 
HETATM   21  O   UNL     1      -8.129   9.023  71.588  1.00  0.00    -0.329 OA 
HETATM   22  O   UNL     1     -11.843   8.202  73.327  1.00  0.00    -0.511 OA 
HETATM   23  H   UNL     1     -12.675   8.010  73.745  1.00  0.00     0.000 HD 
HETATM   24  O   UNL     1     -14.044   9.102  72.145  1.00  0.00    -0.407 OA 
HETATM   25  C   UNL     1     -12.809  10.094  70.366  1.00  0.00    -0.155 A  
HETATM   26  H   UNL     1     -14.841   9.416  71.734  1.00  0.00     0.000 HD 
ENDBRANCH   9  14
ENDBRANCH   5   8
ENDBRANCH   2   3
TORSDOF 5
ENDMDL
MODEL       29
REMARK 921   NORMALIZED FREE ENERGY PREDICTED BY IDOCK:   -6.11 KCAL/MOL
REMARK 922        TOTAL FREE ENERGY PREDICTED BY IDOCK:   -8.01 KCAL/MOL
REMARK 923 INTER-LIGAND FREE ENERGY PREDICTED BY IDOCK:   -7.89 KCAL/MOL
REMARK 924 INTRA-LIGAND FREE ENERGY PREDICTED BY IDOCK:   -0.12 KCAL/MOL
REMARK 927      BINDING AFFINITY PREDICTED BY RF-SCORE:    0.00 PKD
ROOT
HETATM    1  C   UNL     1      -7.026   6.889  67.537  1.00  0.00    -0.083 C  
HETATM    2  C   UNL     1      -8.161   7.045  66.534  1.00  0.00    -0.114 C  
ENDROOT
BRANCH   2   3
HETATM    3  N   UNL     1      -8.269   8.401  65.972  1.00  0.00    -0.107 N  
HETATM    4  O   UNL     1     -10.451   8.480  66.680  1.00  0.00    -0.289 OA 
HETATM    5  C   UNL     1      -9.526   9.017  66.059  1.00  0.00    -0.256 C  
BRANCH   3   6
HETATM    6  C   UNL     1      -7.087   9.016  65.350  1.00  0.00    -0.081 C  
HETATM    7  C   UNL     1      -6.454   8.379  64.123  1.00  0.00    -0.067 C  
ENDBRANCH   3   6
BRANCH   5   8
HETATM    8  C   UNL     1      -9.810  10.346  65.412  1.00  0.00    -0.347 C  
HETATM    9  C   UNL     1     -10.092  11.426  66.181  1.00  0.00    -0.271 C  
BRANCH   8  10
HETATM   10  C   UNL     1      -9.803  10.572  63.908  1.00  0.00    -0.310 C  
HETATM   11  H2  UNL     1      -8.824  10.974  62.890  1.00  0.00     0.000 HD 
HETATM   12  N   UNL     1      -9.795  10.760  62.662  1.00  0.00    -0.653 NA 
HETATM   13  H1  UNL     1      -9.790  10.911  61.653  1.00  0.00     0.000 HD 
ENDBRANCH   8  10
BRANCH   9  14
HETATM   14  C   UNL     1     -10.349  12.785  65.645  1.00  0.00    -0.296 A  
HETATM   15  C   UNL     1      -9.560  13.881  66.038  1.00  0.00    -0.210 A  
HETATM   16  C   UNL     1      -9.862  15.181  65.580  1.00  0.00    -0.343 A  
HETATM   17  C   UNL     1     -10.937  15.394  64.713  1.00  0.00    -0.393 A  
HETATM   18  N   UNL     1      -9.038  16.309  66.021  1.00  0.00    -0.327 N  
HETATM   19  C   UNL     1     -11.706  14.296  64.322  1.00  0.00    -0.329 A  
HETATM   20  O   UNL     1      -9.354  17.442  65.622  1.00  0.00    -0.496 OA 
HETATM   21  O   UNL     1      -8.075  16.069  66.762  1.00  0.00    -0.216 OA 
HETATM   22  O   UNL     1     -11.333  16.603  64.194  1.00  0.00    -1.419 OA 
HETATM   23  H   UNL     1     -12.063  16.748  63.604  1.00  0.00     0.000 HD 
HETATM   24  O   UNL     1     -12.763  14.485  63.474  1.00  0.00    -0.920 OA 
HETATM   25  C   UNL     1     -11.429  13.008  64.780  1.00  0.00    -0.363 A  
HETATM   26  H   UNL     1     -13.286  13.739  63.207  1.00  0.00     0.000 HD 
ENDBRANCH   9  14
ENDBRANCH   5   8
ENDBRANCH   2   3
TORSDOF 5
ENDMDL
MODEL       30
REMARK 921   NORMALIZED FREE ENERGY PREDICTED BY IDOCK:   -6.03 KCAL/MOL
REMARK 922        TOTAL FREE ENERGY PREDICTED BY IDOCK:   -7.91 KCAL/MOL
REMARK 923 INTER-LIGAND FREE ENERGY PREDICTED BY IDOCK:   -7.36 KCAL/MOL
REMARK 924 INTRA-LIGAND FREE ENERGY PREDICTED BY IDOCK:   -0.55 KCAL/MOL
REMARK 927      BINDING AFFINITY PREDICTED BY RF-SCORE:    0.00 PKD
ROOT
HETATM    1  C   UNL     1      -8.054  19.731  66.645  1.00  0.00    -0.341 C  
HETATM    2  C   UNL     1      -9.536  19.379  66.645  1.00  0.00    -0.355 C  
ENDROOT
BRANCH   2   3
HETATM    3  N   UNL     1      -9.805  17.957  66.911  1.00  0.00    -0.306 N  
HETATM    4  O   UNL     1     -10.393  18.510  69.059  1.00  0.00    -0.283 OA 
HETATM    5  C   UNL     1     -10.186  17.626  68.219  1.00  0.00    -0.374 C  
BRANCH   3   6
HETATM    6  C   UNL     1      -9.645  16.981  65.823  1.00  0.00    -0.009 C  
HETATM    7  C   UNL     1     -10.868  16.453  65.089  1.00  0.00    -0.289 C  
ENDBRANCH   3   6
BRANCH   5   8
HETATM    8  C   UNL     1     -10.364  16.199  68.662  1.00  0.00    -0.252 C  
HETATM    9  C   UNL     1     -11.599  15.638  68.656  1.00  0.00    -0.391 C  
BRANCH   8  10
HETATM   10  C   UNL     1      -9.222  15.310  69.129  1.00  0.00    -0.234 C  
HETATM   11  H2  UNL     1      -7.754  15.353  69.110  1.00  0.00     0.000 HD 
HETATM   12  N   UNL     1      -8.275  14.575  69.516  1.00  0.00    -0.381 NA 
HETATM   13  H1  UNL     1      -7.508  13.979  69.830  1.00  0.00     0.000 HD 
ENDBRANCH   8  10
BRANCH   9  14
HETATM   14  C   UNL     1     -11.876  14.231  69.037  1.00  0.00    -0.370 A  
HETATM   15  C   UNL     1     -12.386  13.911  70.307  1.00  0.00    -0.413 A  
HETATM   16  C   UNL     1     -12.574  12.564  70.685  1.00  0.00    -0.155 A  
HETATM   17  C   UNL     1     -12.275  11.531  69.793  1.00  0.00    -0.244 A  
HETATM   18  N   UNL     1     -13.088  12.256  72.022  1.00  0.00    -0.412 N  
HETATM   19  C   UNL     1     -11.779  11.863  68.531  1.00  0.00    -0.330 A  
HETATM   20  O   UNL     1     -13.209  11.058  72.329  1.00  0.00    -0.405 OA 
HETATM   21  O   UNL     1     -13.371  13.204  72.767  1.00  0.00    -0.464 OA 
HETATM   22  O   UNL     1     -12.415  10.186  70.034  1.00  0.00    -0.510 OA 
HETATM   23  H   UNL     1     -12.212   9.483  69.427  1.00  0.00     0.000 HD 
HETATM   24  O   UNL     1     -11.479  10.865  67.644  1.00  0.00    -0.468 OA 
HETATM   25  C   UNL     1     -11.573  13.190  68.151  1.00  0.00    -0.375 A  
HETATM   26  H   UNL     1     -11.142  11.090  66.785  1.00  0.00     0.000 HD 
ENDBRANCH   9  14
ENDBRANCH   5   8
ENDBRANCH   2   3
TORSDOF 5
ENDMDL
MODEL       31
REMARK 921   NORMALIZED FREE ENERGY PREDICTED BY IDOCK:   -6.02 KCAL/MOL
REMARK 922        TOTAL FREE ENERGY PREDICTED BY IDOCK:   -7.90 KCAL/MOL
REMARK 923 INTER-LIGAND FREE ENERGY PREDICTED BY IDOCK:   -7.57 KCAL/MOL
REMARK 924 INTRA-LIGAND FREE ENERGY PREDICTED BY IDOCK:   -0.33 KCAL/MOL
REMARK 927      BINDING AFFINITY PREDICTED BY RF-SCORE:    0.00 PKD
ROOT
HETATM    1  C   UNL     1      -9.672  20.305  66.328  1.00  0.00    -0.455 C  
HETATM    2  C   UNL     1     -10.758  19.243  66.205  1.00  0.00    -0.384 C  
ENDROOT
BRANCH   2   3
HETATM    3  N   UNL     1     -10.409  17.966  66.848  1.00  0.00    -0.354 N  
HETATM    4  O   UNL     1     -10.663  16.921  64.820  1.00  0.00    -0.758 OA 
HETATM    5  C   UNL     1     -10.453  16.824  66.035  1.00  0.00    -0.293 C  
BRANCH   3   6
HETATM    6  C   UNL     1     -10.058  17.953  68.275  1.00  0.00    -0.375 C  
HETATM    7  C   UNL     1      -8.604  18.079  68.703  1.00  0.00    -0.274 C  
ENDBRANCH   3   6
BRANCH   5   8
HETATM    8  C   UNL     1     -10.246  15.440  66.591  1.00  0.00    -0.281 C  
HETATM    9  C   UNL     1     -11.317  14.684  66.935  1.00  0.00    -0.361 C  
BRANCH   8  10
HETATM   10  C   UNL     1      -8.879  14.809  66.800  1.00  0.00    -0.252 C  
HETATM   11  H2  UNL     1      -7.732  15.009  67.695  1.00  0.00     0.000 HD 
HETATM   12  N   UNL     1      -7.745  14.287  66.974  1.00  0.00    -0.336 NA 
HETATM   13  H1  UNL     1      -6.828  13.864  67.115  1.00  0.00     0.000 HD 
ENDBRANCH   8  10
BRANCH   9  14
HETATM   14  C   UNL     1     -11.224  13.297  67.456  1.00  0.00    -0.309 A  
HETATM   15  C   UNL     1     -10.815  12.238  66.627  1.00  0.00    -0.296 A  
HETATM   16  C   UNL     1     -10.804  10.913  67.112  1.00  0.00    -0.280 A  
HETATM   17  C   UNL     1     -11.177  10.639  68.430  1.00  0.00    -0.288 A  
HETATM   18  N   UNL     1     -10.394   9.823  66.222  1.00  0.00    -0.207 N  
HETATM   19  C   UNL     1     -11.570  11.701  69.246  1.00  0.00    -0.320 A  
HETATM   20  O   UNL     1     -10.427   8.668  66.675  1.00  0.00    -0.277 OA 
HETATM   21  O   UNL     1     -10.039  10.117  65.072  1.00  0.00    -0.330 OA 
HETATM   22  O   UNL     1     -11.205   9.400  69.024  1.00  0.00    -0.441 OA 
HETATM   23  H   UNL     1     -11.459   9.214  69.921  1.00  0.00     0.000 HD 
HETATM   24  O   UNL     1     -11.941  11.452  70.540  1.00  0.00    -0.348 OA 
HETATM   25  C   UNL     1     -11.602  13.013  68.774  1.00  0.00    -0.350 A  
HETATM   26  H   UNL     1     -12.208  12.175  71.095  1.00  0.00     0.000 HD 
ENDBRANCH   9  14
ENDBRANCH   5   8
ENDBRANCH   2   3
TORSDOF 5
ENDMDL
MODEL       32
REMARK 921   NORMALIZED FREE ENERGY PREDICTED BY IDOCK:   -5.97 KCAL/MOL
REMARK 922        TOTAL FREE ENERGY PREDICTED BY IDOCK:   -7.84 KCAL/MOL
REMARK 923 INTER-LIGAND FREE ENERGY PREDICTED BY IDOCK:   -8.06 KCAL/MOL
REMARK 924 INTRA-LIGAND FREE ENERGY PREDICTED BY IDOCK:    0.23 KCAL/MOL
REMARK 927      BINDING AFFINITY PREDICTED BY RF-SCORE:    0.00 PKD
ROOT
HETATM    1  C   UNL     1      -9.075  19.298  66.240  1.00  0.00    -0.354 C  
HETATM    2  C   UNL     1     -10.398  18.593  65.970  1.00  0.00    -0.399 C  
ENDROOT
BRANCH   2   3
HETATM    3  N   UNL     1     -10.371  17.154  66.273  1.00  0.00    -0.329 N  
HETATM    4  O   UNL     1     -11.229  16.737  64.185  1.00  0.00    -1.155 OA 
HETATM    5  C   UNL     1     -10.884  16.297  65.288  1.00  0.00    -0.297 C  
BRANCH   3   6
HETATM    6  C   UNL     1      -9.837  16.702  67.566  1.00  0.00    -0.253 C  
HETATM    7  C   UNL     1     -10.634  16.933  68.841  1.00  0.00    -0.353 C  
ENDBRANCH   3   6
BRANCH   5   8
HETATM    8  C   UNL     1     -11.037  14.817  65.518  1.00  0.00    -0.346 C  
HETATM    9  C   UNL     1     -10.249  14.189  66.426  1.00  0.00    -0.292 C  
BRANCH   8  10
HETATM   10  C   UNL     1     -12.044  13.947  64.783  1.00  0.00    -0.419 C  
HETATM   11  H2  UNL     1     -13.505  13.807  64.734  1.00  0.00     0.000 HD 
HETATM   12  N   UNL     1     -12.880  13.227  64.174  1.00  0.00    -0.579 NA 
HETATM   13  H1  UNL     1     -13.556  12.644  63.680  1.00  0.00     0.000 HD 
ENDBRANCH   8  10
BRANCH   9  14
HETATM   14  C   UNL     1     -10.345  12.745  66.753  1.00  0.00    -0.248 A  
HETATM   15  C   UNL     1      -9.506  11.804  66.132  1.00  0.00    -0.240 A  
HETATM   16  C   UNL     1      -9.659  10.426  66.394  1.00  0.00    -0.179 A  
HETATM   17  C   UNL     1     -10.631   9.980  67.294  1.00  0.00    -0.257 A  
HETATM   18  N   UNL     1      -8.786   9.462  65.718  1.00  0.00    -0.160 N  
HETATM   19  C   UNL     1     -11.450  10.926  67.913  1.00  0.00    -0.266 A  
HETATM   20  O   UNL     1      -8.971   8.257  65.951  1.00  0.00    -0.170 OA 
HETATM   21  O   UNL     1      -7.916   9.905  64.955  1.00  0.00    -0.126 OA 
HETATM   22  O   UNL     1     -10.878   8.673  67.639  1.00  0.00    -0.477 OA 
HETATM   23  H   UNL     1     -11.539   8.370  68.251  1.00  0.00     0.000 HD 
HETATM   24  O   UNL     1     -12.409  10.509  68.795  1.00  0.00    -0.790 OA 
HETATM   25  C   UNL     1     -11.321  12.290  67.649  1.00  0.00    -0.374 A  
HETATM   26  H   UNL     1     -12.966  11.152  69.217  1.00  0.00     0.000 HD 
ENDBRANCH   9  14
ENDBRANCH   5   8
ENDBRANCH   2   3
TORSDOF 5
ENDMDL
MODEL       33
REMARK 921   NORMALIZED FREE ENERGY PREDICTED BY IDOCK:   -5.94 KCAL/MOL
REMARK 922        TOTAL FREE ENERGY PREDICTED BY IDOCK:   -7.79 KCAL/MOL
REMARK 923 INTER-LIGAND FREE ENERGY PREDICTED BY IDOCK:   -8.13 KCAL/MOL
REMARK 924 INTRA-LIGAND FREE ENERGY PREDICTED BY IDOCK:    0.34 KCAL/MOL
REMARK 927      BINDING AFFINITY PREDICTED BY RF-SCORE:    0.00 PKD
ROOT
HETATM    1  C   UNL     1      -9.934  10.255  65.026  1.00  0.00    -0.393 C  
HETATM    2  C   UNL     1     -10.885  10.996  65.958  1.00  0.00    -0.122 C  
ENDROOT
BRANCH   2   3
HETATM    3  N   UNL     1     -10.934  12.446  65.716  1.00  0.00    -0.288 N  
HETATM    4  O   UNL     1      -8.848  12.635  66.655  1.00  0.00    -0.203 OA 
HETATM    5  C   UNL     1      -9.842  13.195  66.178  1.00  0.00    -0.280 C  
BRANCH   3   6
HETATM    6  C   UNL     1     -12.104  13.022  65.037  1.00  0.00    -0.427 C  
HETATM    7  C   UNL     1     -12.501  12.527  63.655  1.00  0.00    -0.570 C  
ENDBRANCH   3   6
BRANCH   5   8
HETATM    8  C   UNL     1      -9.821  14.699  66.114  1.00  0.00    -0.334 C  
HETATM    9  C   UNL     1      -9.132  15.406  67.044  1.00  0.00    -0.247 C  
BRANCH   8  10
HETATM   10  C   UNL     1     -10.540  15.510  65.047  1.00  0.00    -0.409 C  
HETATM   11  H2  UNL     1     -10.242  16.672  64.202  1.00  0.00     0.000 HD 
HETATM   12  N   UNL     1     -11.135  16.182  64.163  1.00  0.00    -1.150 NA 
HETATM   13  H1  UNL     1     -11.618  16.726  63.447  1.00  0.00     0.000 HD 
ENDBRANCH   8  10
BRANCH   9  14
HETATM   14  C   UNL     1      -9.018  16.885  67.049  1.00  0.00    -0.232 A  
HETATM   15  C   UNL     1      -8.047  17.540  66.270  1.00  0.00    -0.289 A  
HETATM   16  C   UNL     1      -7.898  18.941  66.342  1.00  0.00    -0.280 A  
HETATM   17  C   UNL     1      -8.729  19.699  67.171  1.00  0.00    -0.312 A  
HETATM   18  N   UNL     1      -6.866  19.598  65.537  1.00  0.00    -0.284 N  
HETATM   19  C   UNL     1      -9.697  19.038  67.930  1.00  0.00    -0.326 A  
HETATM   20  O   UNL     1      -6.744  20.829  65.650  1.00  0.00    -0.202 OA 
HETATM   21  O   UNL     1      -6.175  18.890  64.790  1.00  0.00    -0.407 OA 
HETATM   22  O   UNL     1      -8.691  21.064  67.328  1.00  0.00    -0.521 OA 
HETATM   23  H   UNL     1      -9.256  21.580  67.891  1.00  0.00     0.000 HD 
HETATM   24  O   UNL     1     -10.518  19.764  68.749  1.00  0.00    -0.558 OA 
HETATM   25  C   UNL     1      -9.843  17.652  67.882  1.00  0.00    -0.300 A  
HETATM   26  H   UNL     1     -11.177  19.314  69.265  1.00  0.00     0.000 HD 
ENDBRANCH   9  14
ENDBRANCH   5   8
ENDBRANCH   2   3
TORSDOF 5
ENDMDL
MODEL       34
REMARK 921   NORMALIZED FREE ENERGY PREDICTED BY IDOCK:   -5.90 KCAL/MOL
REMARK 922        TOTAL FREE ENERGY PREDICTED BY IDOCK:   -7.75 KCAL/MOL
REMARK 923 INTER-LIGAND FREE ENERGY PREDICTED BY IDOCK:   -7.79 KCAL/MOL
REMARK 924 INTRA-LIGAND FREE ENERGY PREDICTED BY IDOCK:    0.05 KCAL/MOL
REMARK 927      BINDING AFFINITY PREDICTED BY RF-SCORE:    0.00 PKD
ROOT
HETATM    1  C   UNL     1     -11.908   7.467  71.198  1.00  0.00    -0.324 C  
HETATM    2  C   UNL     1     -11.485   8.743  71.915  1.00  0.00    -0.358 C  
ENDROOT
BRANCH   2   3
HETATM    3  N   UNL     1     -11.118   9.838  71.003  1.00  0.00    -0.350 N  
HETATM    4  O   UNL     1     -13.128  10.845  71.464  1.00  0.00    -0.406 OA 
HETATM    5  C   UNL     1     -12.080  10.839  70.807  1.00  0.00    -0.372 C  
BRANCH   3   6
HETATM    6  C   UNL     1      -9.802   9.815  70.347  1.00  0.00    -0.209 C  
HETATM    7  C   UNL     1      -8.639   9.085  71.000  1.00  0.00    -0.264 C  
ENDBRANCH   3   6
BRANCH   5   8
HETATM    8  C   UNL     1     -11.889  11.945  69.804  1.00  0.00    -0.411 C  
HETATM    9  C   UNL     1     -11.295  11.683  68.614  1.00  0.00    -0.326 C  
BRANCH   8  10
HETATM   10  C   UNL     1     -12.329  13.382  70.037  1.00  0.00    -0.226 C  
HETATM   11  H2  UNL     1     -13.542  14.070  70.498  1.00  0.00     0.000 HD 
HETATM   12  N   UNL     1     -12.695  14.572  70.230  1.00  0.00    -0.497 NA 
HETATM   13  H1  UNL     1     -12.990  15.536  70.387  1.00  0.00     0.000 HD 
ENDBRANCH   8  10
BRANCH   9  14
HETATM   14  C   UNL     1     -11.094  12.692  67.545  1.00  0.00    -0.313 A  
HETATM   15  C   UNL     1      -9.964  13.528  67.541  1.00  0.00    -0.230 A  
HETATM   16  C   UNL     1      -9.821  14.534  66.562  1.00  0.00    -0.285 A  
HETATM   17  C   UNL     1     -10.791  14.698  65.570  1.00  0.00    -0.345 A  
HETATM   18  N   UNL     1      -8.645  15.407  66.592  1.00  0.00    -0.275 N  
HETATM   19  C   UNL     1     -11.903  13.854  65.578  1.00  0.00    -0.362 A  
HETATM   20  O   UNL     1      -8.571  16.301  65.733  1.00  0.00    -0.348 OA 
HETATM   21  O   UNL     1      -7.794  15.204  67.469  1.00  0.00    -0.149 OA 
HETATM   22  O   UNL     1     -10.770  15.632  64.561  1.00  0.00    -0.706 OA 
HETATM   23  H   UNL     1     -11.430  15.743  63.886  1.00  0.00     0.000 HD 
HETATM   24  O   UNL     1     -12.864  14.000  64.615  1.00  0.00    -0.661 OA 
HETATM   25  C   UNL     1     -12.065  12.866  66.550  1.00  0.00    -0.375 A  
HETATM   26  H   UNL     1     -13.620  13.425  64.620  1.00  0.00     0.000 HD 
ENDBRANCH   9  14
ENDBRANCH   5   8
ENDBRANCH   2   3
TORSDOF 5
ENDMDL
MODEL       35
REMARK 921   NORMALIZED FREE ENERGY PREDICTED BY IDOCK:   -5.89 KCAL/MOL
REMARK 922        TOTAL FREE ENERGY PREDICTED BY IDOCK:   -7.73 KCAL/MOL
REMARK 923 INTER-LIGAND FREE ENERGY PREDICTED BY IDOCK:   -7.11 KCAL/MOL
REMARK 924 INTRA-LIGAND FREE ENERGY PREDICTED BY IDOCK:   -0.62 KCAL/MOL
REMARK 927      BINDING AFFINITY PREDICTED BY RF-SCORE:    0.00 PKD
ROOT
HETATM    1  C   UNL     1     -10.637   7.177  73.232  1.00  0.00    -0.405 C  
HETATM    2  C   UNL     1     -11.513   7.174  71.985  1.00  0.00    -0.274 C  
ENDROOT
BRANCH   2   3
HETATM    3  N   UNL     1     -11.313   8.348  71.121  1.00  0.00    -0.261 N  
HETATM    4  O   UNL     1     -10.420   6.969  69.519  1.00  0.00    -0.205 OA 
HETATM    5  C   UNL     1     -10.682   8.119  69.890  1.00  0.00    -0.241 C  
BRANCH   3   6
HETATM    6  C   UNL     1     -11.758   9.669  71.590  1.00  0.00    -0.369 C  
HETATM    7  C   UNL     1     -13.144  10.178  71.227  1.00  0.00    -0.490 C  
ENDBRANCH   3   6
BRANCH   5   8
HETATM    8  C   UNL     1     -10.298   9.245  68.968  1.00  0.00    -0.228 C  
HETATM    9  C   UNL     1     -11.012   9.465  67.836  1.00  0.00    -0.122 C  
BRANCH   8  10
HETATM   10  C   UNL     1      -9.130  10.184  69.222  1.00  0.00    -0.198 C  
HETATM   11  H2  UNL     1      -8.074  10.332  70.231  1.00  0.00     0.000 HD 
HETATM   12  N   UNL     1      -8.161  10.962  69.434  1.00  0.00    -0.376 NA 
HETATM   13  H1  UNL     1      -7.377  11.592  69.605  1.00  0.00     0.000 HD 
ENDBRANCH   8  10
BRANCH   9  14
HETATM   14  C   UNL     1     -10.740  10.569  66.882  1.00  0.00    -0.281 A  
HETATM   15  C   UNL     1     -11.307  11.842  67.066  1.00  0.00    -0.387 A  
HETATM   16  C   UNL     1     -11.103  12.861  66.111  1.00  0.00    -0.286 A  
HETATM   17  C   UNL     1     -10.315  12.624  64.981  1.00  0.00    -0.299 A  
HETATM   18  N   UNL     1     -11.722  14.173  66.314  1.00  0.00    -0.374 N  
HETATM   19  C   UNL     1      -9.749  11.359  64.817  1.00  0.00    -0.244 A  
HETATM   20  O   UNL     1     -11.545  15.034  65.437  1.00  0.00    -0.318 OA 
HETATM   21  O   UNL     1     -12.384  14.348  67.347  1.00  0.00    -0.300 OA 
HETATM   22  O   UNL     1     -10.036  13.527  63.984  1.00  0.00    -0.749 OA 
HETATM   23  H   UNL     1      -9.500  13.366  63.216  1.00  0.00     0.000 HD 
HETATM   24  O   UNL     1      -8.976  11.108  63.716  1.00  0.00    -0.367 OA 
HETATM   25  C   UNL     1      -9.957  10.337  65.744  1.00  0.00    -0.337 A  
HETATM   26  H   UNL     1      -8.590  10.247  63.604  1.00  0.00     0.000 HD 
ENDBRANCH   9  14
ENDBRANCH   5   8
ENDBRANCH   2   3
TORSDOF 5
ENDMDL
MODEL       36
REMARK 921   NORMALIZED FREE ENERGY PREDICTED BY IDOCK:   -5.87 KCAL/MOL
REMARK 922        TOTAL FREE ENERGY PREDICTED BY IDOCK:   -7.71 KCAL/MOL
REMARK 923 INTER-LIGAND FREE ENERGY PREDICTED BY IDOCK:   -7.65 KCAL/MOL
REMARK 924 INTRA-LIGAND FREE ENERGY PREDICTED BY IDOCK:   -0.06 KCAL/MOL
REMARK 927      BINDING AFFINITY PREDICTED BY RF-SCORE:    0.00 PKD
ROOT
HETATM    1  C   UNL     1     -11.130  12.649  63.640  1.00  0.00    -0.496 C  
HETATM    2  C   UNL     1     -10.475  13.065  64.950  1.00  0.00    -0.339 C  
ENDROOT
BRANCH   2   3
HETATM    3  N   UNL     1     -10.297  11.955  65.900  1.00  0.00    -0.234 N  
HETATM    4  O   UNL     1     -12.410  12.355  66.703  1.00  0.00    -0.477 OA 
HETATM    5  C   UNL     1     -11.350  11.724  66.797  1.00  0.00    -0.320 C  
BRANCH   3   6
HETATM    6  C   UNL     1      -9.050  11.177  65.870  1.00  0.00    -0.203 C  
HETATM    7  C   UNL     1      -8.876  10.057  64.857  1.00  0.00    -0.219 C  
ENDBRANCH   3   6
BRANCH   5   8
HETATM    8  C   UNL     1     -11.248  10.708  67.903  1.00  0.00    -0.376 C  
HETATM    9  C   UNL     1     -11.364  11.102  69.195  1.00  0.00    -0.340 C  
BRANCH   8  10
HETATM   10  C   UNL     1     -11.018   9.224  67.668  1.00  0.00    -0.001 C  
HETATM   11  H2  UNL     1      -9.948   8.379  67.122  1.00  0.00     0.000 HD 
HETATM   12  N   UNL     1     -10.825   7.994  67.473  1.00  0.00    -0.518 NA 
HETATM   13  H1  UNL     1     -10.670   6.998  67.316  1.00  0.00     0.000 HD 
ENDBRANCH   8  10
BRANCH   9  14
HETATM   14  C   UNL     1     -11.316  10.178  70.355  1.00  0.00    -0.401 A  
HETATM   15  C   UNL     1     -10.154   9.443  70.648  1.00  0.00    -0.356 A  
HETATM   16  C   UNL     1     -10.145   8.510  71.706  1.00  0.00    -0.281 A  
HETATM   17  C   UNL     1     -11.285   8.321  72.492  1.00  0.00    -0.376 A  
HETATM   18  N   UNL     1      -8.928   7.741  71.979  1.00  0.00    -0.127 N  
HETATM   19  C   UNL     1     -12.429   9.065  72.198  1.00  0.00    -0.380 A  
HETATM   20  O   UNL     1      -8.969   6.907  72.898  1.00  0.00    -0.126 OA 
HETATM   21  O   UNL     1      -7.931   7.966  71.278  1.00  0.00    -0.086 OA 
HETATM   22  O   UNL     1     -11.405   7.452  73.550  1.00  0.00    -0.601 OA 
HETATM   23  H   UNL     1     -12.180   7.323  74.085  1.00  0.00     0.000 HD 
HETATM   24  O   UNL     1     -13.555   8.892  72.955  1.00  0.00    -0.914 OA 
HETATM   25  C   UNL     1     -12.456   9.978  71.143  1.00  0.00    -0.480 A  
HETATM   26  H   UNL     1     -14.333   9.399  72.756  1.00  0.00     0.000 HD 
ENDBRANCH   9  14
ENDBRANCH   5   8
ENDBRANCH   2   3
TORSDOF 5
ENDMDL
MODEL       37
REMARK 921   NORMALIZED FREE ENERGY PREDICTED BY IDOCK:   -5.87 KCAL/MOL
REMARK 922        TOTAL FREE ENERGY PREDICTED BY IDOCK:   -7.70 KCAL/MOL
REMARK 923 INTER-LIGAND FREE ENERGY PREDICTED BY IDOCK:   -7.22 KCAL/MOL
REMARK 924 INTRA-LIGAND FREE ENERGY PREDICTED BY IDOCK:   -0.48 KCAL/MOL
REMARK 927      BINDING AFFINITY PREDICTED BY RF-SCORE:    0.00 PKD
ROOT
HETATM    1  C   UNL     1      -5.730   9.885  70.643  1.00  0.00    -0.071 C  
HETATM    2  C   UNL     1      -6.391   9.191  69.458  1.00  0.00    -0.043 C  
ENDROOT
BRANCH   2   3
HETATM    3  N   UNL     1      -6.921  10.124  68.451  1.00  0.00    -0.066 N  
HETATM    4  O   UNL     1      -8.946   9.051  68.579  1.00  0.00    -0.133 OA 
HETATM    5  C   UNL     1      -8.243   9.909  68.034  1.00  0.00    -0.113 C  
BRANCH   3   6
HETATM    6  C   UNL     1      -6.053  11.193  67.934  1.00  0.00    -0.049 C  
HETATM    7  C   UNL     1      -6.323  12.640  68.312  1.00  0.00    -0.072 C  
ENDBRANCH   3   6
BRANCH   5   8
HETATM    8  C   UNL     1      -8.867  10.704  66.918  1.00  0.00    -0.143 C  
HETATM    9  C   UNL     1      -9.865  11.580  67.188  1.00  0.00    -0.210 C  
BRANCH   8  10
HETATM   10  C   UNL     1      -8.443  10.593  65.462  1.00  0.00    -0.175 C  
HETATM   11  H2  UNL     1      -7.180  10.523  64.715  1.00  0.00     0.000 HD 
HETATM   12  N   UNL     1      -8.090  10.500  64.255  1.00  0.00    -0.327 NA 
HETATM   13  H1  UNL     1      -7.806  10.425  63.278  1.00  0.00     0.000 HD 
ENDBRANCH   8  10
BRANCH   9  14
HETATM   14  C   UNL     1     -10.520  12.437  66.168  1.00  0.00    -0.274 A  
HETATM   15  C   UNL     1     -10.195  13.800  66.050  1.00  0.00    -0.315 A  
HETATM   16  C   UNL     1     -10.878  14.621  65.128  1.00  0.00    -0.401 A  
HETATM   17  C   UNL     1     -11.872  14.085  64.305  1.00  0.00    -0.410 A  
HETATM   18  N   UNL     1     -10.536  16.043  65.038  1.00  0.00    -0.382 N  
HETATM   19  C   UNL     1     -12.177  12.728  64.425  1.00  0.00    -0.428 A  
HETATM   20  O   UNL     1     -11.181  16.740  64.238  1.00  0.00    -1.163 OA 
HETATM   21  O   UNL     1      -9.625  16.467  65.763  1.00  0.00    -0.476 OA 
HETATM   22  O   UNL     1     -12.606  14.772  63.368  1.00  0.00    -0.870 OA 
HETATM   23  H   UNL     1     -13.282  14.408  62.808  1.00  0.00     0.000 HD 
HETATM   24  O   UNL     1     -13.149  12.186  63.628  1.00  0.00    -0.787 OA 
HETATM   25  C   UNL     1     -11.521  11.909  65.343  1.00  0.00    -0.310 A  
HETATM   26  H   UNL     1     -13.357  11.263  63.709  1.00  0.00     0.000 HD 
ENDBRANCH   9  14
ENDBRANCH   5   8
ENDBRANCH   2   3
TORSDOF 5
ENDMDL
MODEL       38
REMARK 921   NORMALIZED FREE ENERGY PREDICTED BY IDOCK:   -5.84 KCAL/MOL
REMARK 922        TOTAL FREE ENERGY PREDICTED BY IDOCK:   -7.66 KCAL/MOL
REMARK 923 INTER-LIGAND FREE ENERGY PREDICTED BY IDOCK:   -7.09 KCAL/MOL
REMARK 924 INTRA-LIGAND FREE ENERGY PREDICTED BY IDOCK:   -0.57 KCAL/MOL
REMARK 927      BINDING AFFINITY PREDICTED BY RF-SCORE:    0.00 PKD
ROOT
HETATM    1  C   UNL     1      -9.195  10.240  63.124  1.00  0.00    -0.311 C  
HETATM    2  C   UNL     1     -10.464  10.985  63.521  1.00  0.00    -0.300 C  
ENDROOT
BRANCH   2   3
HETATM    3  N   UNL     1     -10.275  11.911  64.648  1.00  0.00    -0.269 N  
HETATM    4  O   UNL     1     -11.772  13.349  63.668  1.00  0.00    -0.411 OA 
HETATM    5  C   UNL     1     -10.964  13.131  64.579  1.00  0.00    -0.372 C  
BRANCH   3   6
HETATM    6  C   UNL     1      -9.382  11.527  65.752  1.00  0.00    -0.221 C  
HETATM    7  C   UNL     1      -9.959  10.915  67.018  1.00  0.00    -0.227 C  
ENDBRANCH   3   6
BRANCH   5   8
HETATM    8  C   UNL     1     -10.761  14.222  65.596  1.00  0.00    -0.321 C  
HETATM    9  C   UNL     1      -9.793  15.151  65.406  1.00  0.00    -0.309 C  
BRANCH   8  10
HETATM   10  C   UNL     1     -11.591  14.361  66.862  1.00  0.00    -0.388 C  
HETATM   11  H2  UNL     1     -12.781  13.722  67.439  1.00  0.00     0.000 HD 
HETATM   12  N   UNL     1     -12.280  14.475  67.911  1.00  0.00    -0.622 NA 
HETATM   13  H1  UNL     1     -12.837  14.568  68.761  1.00  0.00     0.000 HD 
ENDBRANCH   8  10
BRANCH   9  14
HETATM   14  C   UNL     1      -9.536  16.286  66.327  1.00  0.00    -0.336 A  
HETATM   15  C   UNL     1     -10.014  17.576  66.039  1.00  0.00    -0.231 A  
HETATM   16  C   UNL     1      -9.698  18.662  66.883  1.00  0.00    -0.314 A  
HETATM   17  C   UNL     1      -8.925  18.464  68.030  1.00  0.00    -0.290 A  
HETATM   18  N   UNL     1     -10.190  20.001  66.550  1.00  0.00    -0.468 N  
HETATM   19  C   UNL     1      -8.467  17.176  68.312  1.00  0.00    -0.236 A  
HETATM   20  O   UNL     1      -9.866  20.936  67.300  1.00  0.00    -0.444 OA 
HETATM   21  O   UNL     1     -10.900  20.123  65.542  1.00  0.00    -0.323 OA 
HETATM   22  O   UNL     1      -8.553  19.431  68.934  1.00  0.00    -0.369 OA 
HETATM   23  H   UNL     1      -8.028  19.296  69.714  1.00  0.00     0.000 HD 
HETATM   24  O   UNL     1      -7.707  16.963  69.430  1.00  0.00    -0.131 OA 
HETATM   25  C   UNL     1      -8.757  16.097  67.476  1.00  0.00    -0.195 A  
HETATM   26  H   UNL     1      -7.396  16.086  69.622  1.00  0.00     0.000 HD 
ENDBRANCH   9  14
ENDBRANCH   5   8
ENDBRANCH   2   3
TORSDOF 5
ENDMDL
MODEL       39
REMARK 921   NORMALIZED FREE ENERGY PREDICTED BY IDOCK:   -5.82 KCAL/MOL
REMARK 922        TOTAL FREE ENERGY PREDICTED BY IDOCK:   -7.63 KCAL/MOL
REMARK 923 INTER-LIGAND FREE ENERGY PREDICTED BY IDOCK:   -8.15 KCAL/MOL
REMARK 924 INTRA-LIGAND FREE ENERGY PREDICTED BY IDOCK:    0.52 KCAL/MOL
REMARK 927      BINDING AFFINITY PREDICTED BY RF-SCORE:    0.00 PKD
ROOT
HETATM    1  C   UNL     1     -14.024   9.191  71.649  1.00  0.00    -0.345 C  
HETATM    2  C   UNL     1     -12.735   9.852  72.121  1.00  0.00    -0.300 C  
ENDROOT
BRANCH   2   3
HETATM    3  N   UNL     1     -12.228  10.879  71.197  1.00  0.00    -0.352 N  
HETATM    4  O   UNL     1     -13.500  12.441  72.297  1.00  0.00    -0.541 OA 
HETATM    5  C   UNL     1     -12.746  12.173  71.355  1.00  0.00    -0.263 C  
BRANCH   3   6
HETATM    6  C   UNL     1     -11.242  10.501  70.174  1.00  0.00    -0.315 C  
HETATM    7  C   UNL     1     -10.157   9.488  70.500  1.00  0.00    -0.347 C  
ENDBRANCH   3   6
BRANCH   5   8
HETATM    8  C   UNL     1     -12.415  13.287  70.399  1.00  0.00    -0.295 C  
HETATM    9  C   UNL     1     -11.660  13.034  69.301  1.00  0.00    -0.367 C  
BRANCH   8  10
HETATM   10  C   UNL     1     -12.881  14.723  70.581  1.00  0.00    -0.343 C  
HETATM   11  H2  UNL     1     -12.354  15.952  71.188  1.00  0.00     0.000 HD 
HETATM   12  N   UNL     1     -13.266  15.913  70.733  1.00  0.00    -0.679 NA 
HETATM   13  H1  UNL     1     -13.578  16.877  70.855  1.00  0.00     0.000 HD 
ENDBRANCH   8  10
BRANCH   9  14
HETATM   14  C   UNL     1     -11.308  14.052  68.280  1.00  0.00    -0.317 A  
HETATM   15  C   UNL     1     -11.893  14.029  67.002  1.00  0.00    -0.458 A  
HETATM   16  C   UNL     1     -11.495  14.955  66.016  1.00  0.00    -0.275 A  
HETATM   17  C   UNL     1     -10.528  15.923  66.303  1.00  0.00    -0.318 A  
HETATM   18  N   UNL     1     -12.104  14.897  64.684  1.00  0.00    -0.413 N  
HETATM   19  C   UNL     1      -9.964  15.943  67.580  1.00  0.00    -0.238 A  
HETATM   20  O   UNL     1     -11.705  15.709  63.834  1.00  0.00    -0.367 OA 
HETATM   21  O   UNL     1     -12.981  14.045  64.485  1.00  0.00    -0.586 OA 
HETATM   22  O   UNL     1     -10.058  16.881  65.437  1.00  0.00    -0.586 OA 
HETATM   23  H   UNL     1      -9.401  17.539  65.633  1.00  0.00     0.000 HD 
HETATM   24  O   UNL     1      -9.015  16.882  67.879  1.00  0.00    -0.219 OA 
HETATM   25  C   UNL     1     -10.336  15.022  68.559  1.00  0.00    -0.230 A  
HETATM   26  H   UNL     1      -8.630  16.896  68.748  1.00  0.00     0.000 HD 
ENDBRANCH   9  14
ENDBRANCH   5   8
ENDBRANCH   2   3
TORSDOF 5
ENDMDL
MODEL       40
REMARK 921   NORMALIZED FREE ENERGY PREDICTED BY IDOCK:   -5.80 KCAL/MOL
REMARK 922        TOTAL FREE ENERGY PREDICTED BY IDOCK:   -7.62 KCAL/MOL
REMARK 923 INTER-LIGAND FREE ENERGY PREDICTED BY IDOCK:   -7.37 KCAL/MOL
REMARK 924 INTRA-LIGAND FREE ENERGY PREDICTED BY IDOCK:   -0.25 KCAL/MOL
REMARK 927      BINDING AFFINITY PREDICTED BY RF-SCORE:    0.00 PKD
ROOT
HETATM    1  C   UNL     1     -10.734   6.858  73.129  1.00  0.00    -0.338 C  
HETATM    2  C   UNL     1     -10.229   8.184  72.573  1.00  0.00    -0.313 C  
ENDROOT
BRANCH   2   3
HETATM    3  N   UNL     1     -10.716   8.478  71.216  1.00  0.00    -0.227 N  
HETATM    4  O   UNL     1      -8.780   7.583  70.368  1.00  0.00    -0.141 OA 
HETATM    5  C   UNL     1      -9.846   8.173  70.159  1.00  0.00    -0.184 C  
BRANCH   3   6
HETATM    6  C   UNL     1     -12.048   9.076  71.046  1.00  0.00    -0.251 C  
HETATM    7  C   UNL     1     -12.701   9.820  72.199  1.00  0.00    -0.410 C  
ENDBRANCH   3   6
BRANCH   5   8
HETATM    8  C   UNL     1     -10.163   8.540  68.734  1.00  0.00    -0.217 C  
HETATM    9  C   UNL     1      -9.855   9.776  68.270  1.00  0.00    -0.167 C  
BRANCH   8  10
HETATM   10  C   UNL     1     -10.824   7.594  67.744  1.00  0.00    -0.063 C  
HETATM   11  H2  UNL     1     -10.969   6.141  67.584  1.00  0.00     0.000 HD 
HETATM   12  N   UNL     1     -11.372   6.808  66.925  1.00  0.00    -0.792 NA 
HETATM   13  H1  UNL     1     -11.815   6.173  66.262  1.00  0.00     0.000 HD 
ENDBRANCH   8  10
BRANCH   9  14
HETATM   14  C   UNL     1     -10.090  10.224  66.875  1.00  0.00    -0.274 A  
HETATM   15  C   UNL     1     -11.026  11.233  66.586  1.00  0.00    -0.326 A  
HETATM   16  C   UNL     1     -11.297  11.597  65.250  1.00  0.00    -0.154 A  
HETATM   17  C   UNL     1     -10.621  10.975  64.197  1.00  0.00    -0.342 A  
HETATM   18  N   UNL     1     -12.292  12.636  64.973  1.00  0.00    -0.491 N  
HETATM   19  C   UNL     1      -9.686   9.983  64.498  1.00  0.00    -0.239 A  
HETATM   20  O   UNL     1     -12.525  12.906  63.784  1.00  0.00    -0.627 OA 
HETATM   21  O   UNL     1     -12.842  13.184  65.939  1.00  0.00    -0.361 OA 
HETATM   22  O   UNL     1     -10.787  11.239  62.858  1.00  0.00    -0.781 OA 
HETATM   23  H   UNL     1     -10.327  10.816  62.142  1.00  0.00     0.000 HD 
HETATM   24  O   UNL     1      -9.015   9.362  63.480  1.00  0.00    -0.358 OA 
HETATM   25  C   UNL     1      -9.421   9.602  65.814  1.00  0.00    -0.308 A  
HETATM   26  H   UNL     1      -8.378   8.687  63.684  1.00  0.00     0.000 HD 
ENDBRANCH   9  14
ENDBRANCH   5   8
ENDBRANCH   2   3
TORSDOF 5
ENDMDL
MODEL       41
REMARK 921   NORMALIZED FREE ENERGY PREDICTED BY IDOCK:   -5.78 KCAL/MOL
REMARK 922        TOTAL FREE ENERGY PREDICTED BY IDOCK:   -7.59 KCAL/MOL
REMARK 923 INTER-LIGAND FREE ENERGY PREDICTED BY IDOCK:   -7.23 KCAL/MOL
REMARK 924 INTRA-LIGAND FREE ENERGY PREDICTED BY IDOCK:   -0.36 KCAL/MOL
REMARK 927      BINDING AFFINITY PREDICTED BY RF-SCORE:    0.00 PKD
ROOT
HETATM    1  C   UNL     1     -11.391   7.390  71.076  1.00  0.00    -0.298 C  
HETATM    2  C   UNL     1     -10.173   7.221  70.178  1.00  0.00    -0.203 C  
ENDROOT
BRANCH   2   3
HETATM    3  N   UNL     1     -10.170   8.120  69.014  1.00  0.00    -0.216 N  
HETATM    4  O   UNL     1      -9.425   9.814  70.372  1.00  0.00    -0.247 OA 
HETATM    5  C   UNL     1      -9.819   9.457  69.256  1.00  0.00    -0.174 C  
BRANCH   3   6
HETATM    6  C   UNL     1     -10.541   7.589  67.694  1.00  0.00    -0.233 C  
HETATM    7  C   UNL     1     -10.814   6.103  67.522  1.00  0.00    -0.422 C  
ENDBRANCH   3   6
BRANCH   5   8
HETATM    8  C   UNL     1      -9.900  10.510  68.184  1.00  0.00    -0.169 C  
HETATM    9  C   UNL     1     -10.956  11.360  68.150  1.00  0.00    -0.284 C  
BRANCH   8  10
HETATM   10  C   UNL     1      -8.849  10.697  67.101  1.00  0.00    -0.137 C  
HETATM   11  H2  UNL     1      -8.829  10.835  65.639  1.00  0.00     0.000 HD 
HETATM   12  N   UNL     1      -7.979  10.851  66.203  1.00  0.00    -0.172 NA 
HETATM   13  H1  UNL     1      -7.274  10.976  65.477  1.00  0.00     0.000 HD 
ENDBRANCH   8  10
BRANCH   9  14
HETATM   14  C   UNL     1     -11.112  12.455  67.160  1.00  0.00    -0.328 A  
HETATM   15  C   UNL     1     -11.750  12.232  65.928  1.00  0.00    -0.451 A  
HETATM   16  C   UNL     1     -11.825  13.260  64.964  1.00  0.00    -0.352 A  
HETATM   17  C   UNL     1     -11.284  14.520  65.231  1.00  0.00    -0.352 A  
HETATM   18  N   UNL     1     -12.477  12.996  63.679  1.00  0.00    -0.366 N  
HETATM   19  C   UNL     1     -10.663  14.732  66.463  1.00  0.00    -0.319 A  
HETATM   20  O   UNL     1     -12.495  13.916  62.844  1.00  0.00    -0.572 OA 
HETATM   21  O   UNL     1     -12.972  11.875  63.499  1.00  0.00    -0.724 OA 
HETATM   22  O   UNL     1     -11.294  15.603  64.384  1.00  0.00    -0.696 OA 
HETATM   23  H   UNL     1     -10.927  16.460  64.566  1.00  0.00     0.000 HD 
HETATM   24  O   UNL     1     -10.126  15.959  66.742  1.00  0.00    -0.256 OA 
HETATM   25  C   UNL     1     -10.567  13.719  67.418  1.00  0.00    -0.260 A  
HETATM   26  H   UNL     1      -9.704  16.104  67.581  1.00  0.00     0.000 HD 
ENDBRANCH   9  14
ENDBRANCH   5   8
ENDBRANCH   2   3
TORSDOF 5
ENDMDL
MODEL       42
REMARK 921   NORMALIZED FREE ENERGY PREDICTED BY IDOCK:   -5.78 KCAL/MOL
REMARK 922        TOTAL FREE ENERGY PREDICTED BY IDOCK:   -7.59 KCAL/MOL
REMARK 923 INTER-LIGAND FREE ENERGY PREDICTED BY IDOCK:   -7.00 KCAL/MOL
REMARK 924 INTRA-LIGAND FREE ENERGY PREDICTED BY IDOCK:   -0.59 KCAL/MOL
REMARK 927      BINDING AFFINITY PREDICTED BY RF-SCORE:    0.00 PKD
ROOT
HETATM    1  C   UNL     1     -10.870   7.027  72.290  1.00  0.00    -0.262 C  
HETATM    2  C   UNL     1     -11.573   7.328  70.973  1.00  0.00    -0.299 C  
ENDROOT
BRANCH   2   3
HETATM    3  N   UNL     1     -11.369   8.705  70.497  1.00  0.00    -0.248 N  
HETATM    4  O   UNL     1     -10.625   7.863  68.496  1.00  0.00    -0.187 OA 
HETATM    5  C   UNL     1     -10.816   8.849  69.216  1.00  0.00    -0.096 C  
BRANCH   3   6
HETATM    6  C   UNL     1     -11.729   9.829  71.374  1.00  0.00    -0.398 C  
HETATM    7  C   UNL     1     -13.170  10.013  71.822  1.00  0.00    -0.540 C  
ENDBRANCH   3   6
BRANCH   5   8
HETATM    8  C   UNL     1     -10.433  10.194  68.659  1.00  0.00    -0.225 C  
HETATM    9  C   UNL     1     -11.331  10.906  67.934  1.00  0.00    -0.380 C  
BRANCH   8  10
HETATM   10  C   UNL     1      -9.068  10.834  68.857  1.00  0.00    -0.164 C  
HETATM   11  H2  UNL     1      -8.353  11.520  69.941  1.00  0.00     0.000 HD 
HETATM   12  N   UNL     1      -7.937  11.364  69.022  1.00  0.00    -0.328 NA 
HETATM   13  H1  UNL     1      -7.021  11.793  69.156  1.00  0.00     0.000 HD 
ENDBRANCH   8  10
BRANCH   9  14
HETATM   14  C   UNL     1     -11.067  12.254  67.373  1.00  0.00    -0.333 A  
HETATM   15  C   UNL     1     -11.276  13.412  68.142  1.00  0.00    -0.304 A  
HETATM   16  C   UNL     1     -11.094  14.691  67.573  1.00  0.00    -0.313 A  
HETATM   17  C   UNL     1     -10.683  14.822  66.244  1.00  0.00    -0.313 A  
HETATM   18  N   UNL     1     -11.338  15.883  68.389  1.00  0.00    -0.362 N  
HETATM   19  C   UNL     1     -10.468  13.664  65.495  1.00  0.00    -0.306 A  
HETATM   20  O   UNL     1     -11.198  16.991  67.844  1.00  0.00    -0.222 OA 
HETATM   21  O   UNL     1     -11.669  15.719  69.572  1.00  0.00    -0.340 OA 
HETATM   22  O   UNL     1     -10.467  16.003  65.576  1.00  0.00    -0.371 OA 
HETATM   23  H   UNL     1     -10.187  16.093  64.672  1.00  0.00     0.000 HD 
HETATM   24  O   UNL     1     -10.067  13.773  64.192  1.00  0.00    -0.729 OA 
HETATM   25  C   UNL     1     -10.661  12.394  66.040  1.00  0.00    -0.286 A  
HETATM   26  H   UNL     1      -9.920  12.985  63.681  1.00  0.00     0.000 HD 
ENDBRANCH   9  14
ENDBRANCH   5   8
ENDBRANCH   2   3
TORSDOF 5
ENDMDL
MODEL       43
REMARK 921   NORMALIZED FREE ENERGY PREDICTED BY IDOCK:   -5.76 KCAL/MOL
REMARK 922        TOTAL FREE ENERGY PREDICTED BY IDOCK:   -7.56 KCAL/MOL
REMARK 923 INTER-LIGAND FREE ENERGY PREDICTED BY IDOCK:   -7.08 KCAL/MOL
REMARK 924 INTRA-LIGAND FREE ENERGY PREDICTED BY IDOCK:   -0.48 KCAL/MOL
REMARK 927      BINDING AFFINITY PREDICTED BY RF-SCORE:    0.00 PKD
ROOT
HETATM    1  C   UNL     1      -9.541   7.296  70.443  1.00  0.00    -0.165 C  
HETATM    2  C   UNL     1      -8.590   8.058  69.528  1.00  0.00    -0.136 C  
ENDROOT
BRANCH   2   3
HETATM    3  N   UNL     1      -9.251   9.099  68.726  1.00  0.00    -0.136 N  
HETATM    4  O   UNL     1      -7.896  10.666  69.713  1.00  0.00    -0.106 OA 
HETATM    5  C   UNL     1      -8.843  10.421  68.957  1.00  0.00    -0.172 C  
BRANCH   3   6
HETATM    6  C   UNL     1     -10.292   8.711  67.762  1.00  0.00    -0.242 C  
HETATM    7  C   UNL     1      -9.900   8.184  66.391  1.00  0.00    -0.261 C  
ENDBRANCH   3   6
BRANCH   5   8
HETATM    8  C   UNL     1      -9.524  11.593  68.303  1.00  0.00    -0.191 C  
HETATM    9  C   UNL     1      -8.964  12.181  67.217  1.00  0.00    -0.184 C  
BRANCH   8  10
HETATM   10  C   UNL     1     -10.839  12.184  68.787  1.00  0.00    -0.228 C  
HETATM   11  H2  UNL     1     -12.262  12.050  68.452  1.00  0.00     0.000 HD 
HETATM   12  N   UNL     1     -11.929  12.673  69.188  1.00  0.00    -0.276 NA 
HETATM   13  H1  UNL     1     -12.811  13.069  69.513  1.00  0.00     0.000 HD 
ENDBRANCH   8  10
BRANCH   9  14
HETATM   14  C   UNL     1      -9.572  13.315  66.478  1.00  0.00    -0.267 A  
HETATM   15  C   UNL     1     -10.736  13.138  65.708  1.00  0.00    -0.292 A  
HETATM   16  C   UNL     1     -11.261  14.205  64.949  1.00  0.00    -0.373 A  
HETATM   17  C   UNL     1     -10.644  15.459  64.971  1.00  0.00    -0.420 A  
HETATM   18  N   UNL     1     -12.462  13.990  64.139  1.00  0.00    -0.314 N  
HETATM   19  C   UNL     1      -9.496  15.624  65.748  1.00  0.00    -0.303 A  
HETATM   20  O   UNL     1     -12.876  14.945  63.460  1.00  0.00    -0.405 OA 
HETATM   21  O   UNL     1     -12.995  12.872  64.177  1.00  0.00    -0.673 OA 
HETATM   22  O   UNL     1     -11.055  16.577  64.284  1.00  0.00    -1.199 OA 
HETATM   23  H   UNL     1     -10.636  17.429  64.299  1.00  0.00     0.000 HD 
HETATM   24  O   UNL     1      -8.877  16.844  65.780  1.00  0.00    -0.522 OA 
HETATM   25  C   UNL     1      -8.957  14.573  66.489  1.00  0.00    -0.211 A  
HETATM   26  H   UNL     1      -8.097  16.958  66.309  1.00  0.00     0.000 HD 
ENDBRANCH   9  14
ENDBRANCH   5   8
ENDBRANCH   2   3
TORSDOF 5
ENDMDL
MODEL       44
REMARK 921   NORMALIZED FREE ENERGY PREDICTED BY IDOCK:   -5.74 KCAL/MOL
REMARK 922        TOTAL FREE ENERGY PREDICTED BY IDOCK:   -7.54 KCAL/MOL
REMARK 923 INTER-LIGAND FREE ENERGY PREDICTED BY IDOCK:   -8.52 KCAL/MOL
REMARK 924 INTRA-LIGAND FREE ENERGY PREDICTED BY IDOCK:    0.99 KCAL/MOL
REMARK 927      BINDING AFFINITY PREDICTED BY RF-SCORE:    0.00 PKD
ROOT
HETATM    1  C   UNL     1      -6.361  20.650  68.074  1.00  0.00    -0.357 C  
HETATM    2  C   UNL     1      -7.331  20.707  66.901  1.00  0.00    -0.282 C  
ENDROOT
BRANCH   2   3
HETATM    3  N   UNL     1      -7.843  19.388  66.496  1.00  0.00    -0.273 N  
HETATM    4  O   UNL     1      -9.920  20.004  67.254  1.00  0.00    -0.381 OA 
HETATM    5  C   UNL     1      -9.189  19.122  66.787  1.00  0.00    -0.320 C  
BRANCH   3   6
HETATM    6  C   UNL     1      -6.935  18.436  65.839  1.00  0.00    -0.271 C  
HETATM    7  C   UNL     1      -6.205  17.388  66.664  1.00  0.00    -0.239 C  
ENDBRANCH   3   6
BRANCH   5   8
HETATM    8  C   UNL     1      -9.806  17.771  66.546  1.00  0.00    -0.331 C  
HETATM    9  C   UNL     1      -9.706  16.804  67.492  1.00  0.00    -0.252 C  
BRANCH   8  10
HETATM   10  C   UNL     1     -10.559  17.399  65.278  1.00  0.00     0.072 C  
HETATM   11  H2  UNL     1     -10.230  17.166  63.866  1.00  0.00     0.000 HD 
HETATM   12  N   UNL     1     -11.181  17.092  64.227  1.00  0.00    -1.149 NA 
HETATM   13  H1  UNL     1     -11.686  16.842  63.376  1.00  0.00     0.000 HD 
ENDBRANCH   8  10
BRANCH   9  14
HETATM   14  C   UNL     1     -10.310  15.454  67.369  1.00  0.00    -0.262 A  
HETATM   15  C   UNL     1     -11.045  15.090  66.227  1.00  0.00    -0.334 A  
HETATM   16  C   UNL     1     -11.678  13.831  66.155  1.00  0.00    -0.370 A  
HETATM   17  C   UNL     1     -11.564  12.920  67.208  1.00  0.00    -0.360 A  
HETATM   18  N   UNL     1     -12.456  13.483  64.963  1.00  0.00    -0.421 N  
HETATM   19  C   UNL     1     -10.822  13.290  68.331  1.00  0.00    -0.258 A  
HETATM   20  O   UNL     1     -13.024  12.379  64.949  1.00  0.00    -0.762 OA 
HETATM   21  O   UNL     1     -12.501  14.308  64.039  1.00  0.00    -0.700 OA 
HETATM   22  O   UNL     1     -12.125  11.667  67.261  1.00  0.00    -0.595 OA 
HETATM   23  H   UNL     1     -12.047  11.047  67.977  1.00  0.00     0.000 HD 
HETATM   24  O   UNL     1     -10.700  12.412  69.374  1.00  0.00    -0.439 OA 
HETATM   25  C   UNL     1     -10.205  14.538  68.423  1.00  0.00    -0.239 A  
HETATM   26  H   UNL     1     -10.195  12.663  70.138  1.00  0.00     0.000 HD 
ENDBRANCH   9  14
ENDBRANCH   5   8
ENDBRANCH   2   3
TORSDOF 5
ENDMDL
MODEL       45
REMARK 921   NORMALIZED FREE ENERGY PREDICTED BY IDOCK:   -5.74 KCAL/MOL
REMARK 922        TOTAL FREE ENERGY PREDICTED BY IDOCK:   -7.53 KCAL/MOL
REMARK 923 INTER-LIGAND FREE ENERGY PREDICTED BY IDOCK:   -7.23 KCAL/MOL
REMARK 924 INTRA-LIGAND FREE ENERGY PREDICTED BY IDOCK:   -0.30 KCAL/MOL
REMARK 927      BINDING AFFINITY PREDICTED BY RF-SCORE:    0.00 PKD
ROOT
HETATM    1  C   UNL     1      -6.858  20.645  67.669  1.00  0.00    -0.379 C  
HETATM    2  C   UNL     1      -7.422  19.929  66.448  1.00  0.00    -0.284 C  
ENDROOT
BRANCH   2   3
HETATM    3  N   UNL     1      -8.369  18.854  66.782  1.00  0.00    -0.271 N  
HETATM    4  O   UNL     1      -7.088  17.398  65.554  1.00  0.00    -0.211 OA 
HETATM    5  C   UNL     1      -8.118  17.599  66.208  1.00  0.00    -0.246 C  
BRANCH   3   6
HETATM    6  C   UNL     1      -9.509  19.148  67.662  1.00  0.00    -0.304 C  
HETATM    7  C   UNL     1     -10.850  19.544  67.065  1.00  0.00    -0.542 C  
ENDBRANCH   3   6
BRANCH   5   8
HETATM    8  C   UNL     1      -9.075  16.446  66.358  1.00  0.00    -0.341 C  
HETATM    9  C   UNL     1      -8.955  15.602  67.412  1.00  0.00    -0.205 C  
BRANCH   8  10
HETATM   10  C   UNL     1     -10.203  16.152  65.382  1.00  0.00    -0.264 C  
HETATM   11  H2  UNL     1     -11.670  16.212  65.391  1.00  0.00     0.000 HD 
HETATM   12  N   UNL     1     -11.139  15.909  64.574  1.00  0.00    -0.850 NA 
HETATM   13  H1  UNL     1     -11.896  15.712  63.920  1.00  0.00     0.000 HD 
ENDBRANCH   8  10
BRANCH   9  14
HETATM   14  C   UNL     1      -9.867  14.460  67.671  1.00  0.00    -0.224 A  
HETATM   15  C   UNL     1     -10.645  14.406  68.841  1.00  0.00    -0.250 A  
HETATM   16  C   UNL     1     -11.450  13.280  69.113  1.00  0.00    -0.305 A  
HETATM   17  C   UNL     1     -11.503  12.213  68.212  1.00  0.00    -0.305 A  
HETATM   18  N   UNL     1     -12.236  13.237  70.350  1.00  0.00    -0.353 N  
HETATM   19  C   UNL     1     -10.735  12.285  67.049  1.00  0.00    -0.231 A  
HETATM   20  O   UNL     1     -12.908  12.216  70.569  1.00  0.00    -0.039 OA 
HETATM   21  O   UNL     1     -12.185  14.220  71.103  1.00  0.00    -0.328 OA 
HETATM   22  O   UNL     1     -12.247  11.066  68.356  1.00  0.00    -0.770 OA 
HETATM   23  H   UNL     1     -12.283  10.341  67.742  1.00  0.00     0.000 HD 
HETATM   24  O   UNL     1     -10.772  11.249  66.155  1.00  0.00    -0.265 OA 
HETATM   25  C   UNL     1      -9.921  13.385  66.776  1.00  0.00    -0.264 A  
HETATM   26  H   UNL     1     -10.249  11.298  65.363  1.00  0.00     0.000 HD 
ENDBRANCH   9  14
ENDBRANCH   5   8
ENDBRANCH   2   3
TORSDOF 5
ENDMDL
MODEL       46
REMARK 921   NORMALIZED FREE ENERGY PREDICTED BY IDOCK:   -5.72 KCAL/MOL
REMARK 922        TOTAL FREE ENERGY PREDICTED BY IDOCK:   -7.51 KCAL/MOL
REMARK 923 INTER-LIGAND FREE ENERGY PREDICTED BY IDOCK:   -7.21 KCAL/MOL
REMARK 924 INTRA-LIGAND FREE ENERGY PREDICTED BY IDOCK:   -0.30 KCAL/MOL
REMARK 927      BINDING AFFINITY PREDICTED BY RF-SCORE:    0.00 PKD
ROOT
HETATM    1  C   UNL     1     -14.400  15.213  72.062  1.00  0.00    -0.682 C  
HETATM    2  C   UNL     1     -13.273  14.194  72.173  1.00  0.00    -0.420 C  
ENDROOT
BRANCH   2   3
HETATM    3  N   UNL     1     -12.580  13.941  70.900  1.00  0.00    -0.349 N  
HETATM    4  O   UNL     1     -12.620  11.695  71.371  1.00  0.00    -0.349 OA 
HETATM    5  C   UNL     1     -12.244  12.607  70.626  1.00  0.00    -0.285 C  
BRANCH   3   6
HETATM    6  C   UNL     1     -12.270  15.072  70.014  1.00  0.00    -0.328 C  
HETATM    7  C   UNL     1     -11.203  16.080  70.412  1.00  0.00    -0.401 C  
ENDBRANCH   3   6
BRANCH   5   8
HETATM    8  C   UNL     1     -11.421  12.222  69.426  1.00  0.00    -0.341 C  
HETATM    9  C   UNL     1     -11.881  11.282  68.564  1.00  0.00    -0.355 C  
BRANCH   8  10
HETATM   10  C   UNL     1     -10.067  12.832  69.099  1.00  0.00     0.335 C  
HETATM   11  H2  UNL     1      -9.412  13.419  67.923  1.00  0.00     0.000 HD 
HETATM   12  N   UNL     1      -8.945  13.338  68.827  1.00  0.00    -0.388 NA 
HETATM   13  H1  UNL     1      -8.037  13.748  68.607  1.00  0.00     0.000 HD 
ENDBRANCH   8  10
BRANCH   9  14
HETATM   14  C   UNL     1     -11.166  10.859  67.334  1.00  0.00    -0.345 A  
HETATM   15  C   UNL     1     -11.147  11.676  66.190  1.00  0.00    -0.335 A  
HETATM   16  C   UNL     1     -10.530  11.230  65.002  1.00  0.00    -0.298 A  
HETATM   17  C   UNL     1      -9.909   9.979  64.955  1.00  0.00    -0.281 A  
HETATM   18  N   UNL     1     -10.541  12.090  63.817  1.00  0.00    -0.386 N  
HETATM   19  C   UNL     1      -9.925   9.182  66.101  1.00  0.00    -0.268 A  
HETATM   20  O   UNL     1     -10.015  11.650  62.782  1.00  0.00    -0.263 OA 
HETATM   21  O   UNL     1     -11.073  13.205  63.915  1.00  0.00    -0.388 OA 
HETATM   22  O   UNL     1      -9.271   9.431  63.868  1.00  0.00    -0.427 OA 
HETATM   23  H   UNL     1      -8.849   8.580  63.835  1.00  0.00     0.000 HD 
HETATM   24  O   UNL     1      -9.324   7.954  66.073  1.00  0.00    -0.337 OA 
HETATM   25  C   UNL     1     -10.547   9.604  67.277  1.00  0.00    -0.315 A  
HETATM   26  H   UNL     1      -9.334   7.411  66.853  1.00  0.00     0.000 HD 
ENDBRANCH   9  14
ENDBRANCH   5   8
ENDBRANCH   2   3
TORSDOF 5
ENDMDL
MODEL       47
REMARK 921   NORMALIZED FREE ENERGY PREDICTED BY IDOCK:   -5.70 KCAL/MOL
REMARK 922        TOTAL FREE ENERGY PREDICTED BY IDOCK:   -7.48 KCAL/MOL
REMARK 923 INTER-LIGAND FREE ENERGY PREDICTED BY IDOCK:   -7.05 KCAL/MOL
REMARK 924 INTRA-LIGAND FREE ENERGY PREDICTED BY IDOCK:   -0.43 KCAL/MOL
REMARK 927      BINDING AFFINITY PREDICTED BY RF-SCORE:    0.00 PKD
ROOT
HETATM    1  C   UNL     1     -11.470  11.519  63.088  1.00  0.00    -0.039 C  
HETATM    2  C   UNL     1     -12.535  12.074  64.026  1.00  0.00    -0.388 C  
ENDROOT
BRANCH   2   3
HETATM    3  N   UNL     1     -11.984  12.846  65.151  1.00  0.00    -0.386 N  
HETATM    4  O   UNL     1     -12.574  14.779  64.063  1.00  0.00    -0.822 OA 
HETATM    5  C   UNL     1     -12.010  14.243  65.024  1.00  0.00    -0.410 C  
BRANCH   3   6
HETATM    6  C   UNL     1     -11.433  12.131  66.312  1.00  0.00    -0.374 C  
HETATM    7  C   UNL     1      -9.953  11.787  66.361  1.00  0.00    -0.237 C  
ENDBRANCH   3   6
BRANCH   5   8
HETATM    8  C   UNL     1     -11.364  15.149  66.038  1.00  0.00    -0.221 C  
HETATM    9  C   UNL     1     -10.355  15.973  65.662  1.00  0.00    -0.414 C  
BRANCH   8  10
HETATM   10  C   UNL     1     -11.774  15.208  67.500  1.00  0.00    -0.199 C  
HETATM   11  H2  UNL     1     -13.026  15.144  68.265  1.00  0.00     0.000 HD 
HETATM   12  N   UNL     1     -12.116  15.258  68.712  1.00  0.00    -0.582 NA 
HETATM   13  H1  UNL     1     -12.392  15.298  69.694  1.00  0.00     0.000 HD 
ENDBRANCH   8  10
BRANCH   9  14
HETATM   14  C   UNL     1      -9.678  16.929  66.573  1.00  0.00    -0.295 A  
HETATM   15  C   UNL     1      -8.544  16.548  67.310  1.00  0.00    -0.202 A  
HETATM   16  C   UNL     1      -7.955  17.442  68.230  1.00  0.00    -0.253 A  
HETATM   17  C   UNL     1      -8.479  18.725  68.403  1.00  0.00    -0.342 A  
HETATM   18  N   UNL     1      -6.786  17.014  69.002  1.00  0.00    -0.210 N  
HETATM   19  C   UNL     1      -9.599  19.095  67.657  1.00  0.00    -0.311 A  
HETATM   20  O   UNL     1      -6.315  17.817  69.824  1.00  0.00    -0.222 OA 
HETATM   21  O   UNL     1      -6.335  15.879  68.791  1.00  0.00    -0.110 OA 
HETATM   22  O   UNL     1      -7.999  19.688  69.259  1.00  0.00    -0.266 OA 
HETATM   23  H   UNL     1      -8.355  20.561  69.377  1.00  0.00     0.000 HD 
HETATM   24  O   UNL     1     -10.127  20.348  67.814  1.00  0.00    -0.391 OA 
HETATM   25  C   UNL     1     -10.201  18.216  66.757  1.00  0.00    -0.379 A  
HETATM   26  H   UNL     1     -10.889  20.600  67.306  1.00  0.00     0.000 HD 
ENDBRANCH   9  14
ENDBRANCH   5   8
ENDBRANCH   2   3
TORSDOF 5
ENDMDL
MODEL       48
REMARK 921   NORMALIZED FREE ENERGY PREDICTED BY IDOCK:   -5.70 KCAL/MOL
REMARK 922        TOTAL FREE ENERGY PREDICTED BY IDOCK:   -7.48 KCAL/MOL
REMARK 923 INTER-LIGAND FREE ENERGY PREDICTED BY IDOCK:   -6.86 KCAL/MOL
REMARK 924 INTRA-LIGAND FREE ENERGY PREDICTED BY IDOCK:   -0.62 KCAL/MOL
REMARK 927      BINDING AFFINITY PREDICTED BY RF-SCORE:    0.00 PKD
ROOT
HETATM    1  C   UNL     1      -7.343   9.263  63.473  1.00  0.00    -0.097 C  
HETATM    2  C   UNL     1      -8.856   9.298  63.303  1.00  0.00    -0.137 C  
ENDROOT
BRANCH   2   3
HETATM    3  N   UNL     1      -9.541  10.140  64.298  1.00  0.00    -0.304 N  
HETATM    4  O   UNL     1      -9.624  11.833  62.751  1.00  0.00    -0.318 OA 
HETATM    5  C   UNL     1      -9.833  11.455  63.910  1.00  0.00    -0.300 C  
BRANCH   3   6
HETATM    6  C   UNL     1      -9.858   9.577  65.619  1.00  0.00    -0.272 C  
HETATM    7  C   UNL     1      -8.815   9.598  66.725  1.00  0.00    -0.148 C  
ENDBRANCH   3   6
BRANCH   5   8
HETATM    8  C   UNL     1     -10.412  12.461  64.869  1.00  0.00    -0.327 C  
HETATM    9  C   UNL     1      -9.597  13.125  65.724  1.00  0.00    -0.075 C  
BRANCH   8  10
HETATM   10  C   UNL     1     -11.893  12.796  64.950  1.00  0.00    -0.379 C  
HETATM   11  H2  UNL     1     -12.715  13.901  65.458  1.00  0.00     0.000 HD 
HETATM   12  N   UNL     1     -13.120  13.075  65.017  1.00  0.00    -0.764 NA 
HETATM   13  H1  UNL     1     -14.114  13.300  65.072  1.00  0.00     0.000 HD 
ENDBRANCH   8  10
BRANCH   9  14
HETATM   14  C   UNL     1     -10.061  14.160  66.681  1.00  0.00    -0.275 A  
HETATM   15  C   UNL     1     -10.141  15.512  66.304  1.00  0.00    -0.312 A  
HETATM   16  C   UNL     1     -10.511  16.497  67.245  1.00  0.00    -0.304 A  
HETATM   17  C   UNL     1     -10.824  16.138  68.558  1.00  0.00    -0.313 A  
HETATM   18  N   UNL     1     -10.566  17.902  66.833  1.00  0.00    -0.310 N  
HETATM   19  C   UNL     1     -10.752  14.791  68.917  1.00  0.00    -0.252 A  
HETATM   20  O   UNL     1     -10.865  18.743  67.697  1.00  0.00    -0.426 OA 
HETATM   21  O   UNL     1     -10.313  18.170  65.650  1.00  0.00    -0.603 OA 
HETATM   22  O   UNL     1     -11.200  16.995  69.565  1.00  0.00    -0.256 OA 
HETATM   23  H   UNL     1     -11.414  16.751  70.458  1.00  0.00     0.000 HD 
HETATM   24  O   UNL     1     -11.053  14.421  70.199  1.00  0.00    -0.444 OA 
HETATM   25  C   UNL     1     -10.371  13.810  68.001  1.00  0.00    -0.246 A  
HETATM   26  H   UNL     1     -11.005  13.504  70.444  1.00  0.00     0.000 HD 
ENDBRANCH   9  14
ENDBRANCH   5   8
ENDBRANCH   2   3
TORSDOF 5
ENDMDL
MODEL       49
REMARK 921   NORMALIZED FREE ENERGY PREDICTED BY IDOCK:   -5.68 KCAL/MOL
REMARK 922        TOTAL FREE ENERGY PREDICTED BY IDOCK:   -7.46 KCAL/MOL
REMARK 923 INTER-LIGAND FREE ENERGY PREDICTED BY IDOCK:   -8.02 KCAL/MOL
REMARK 924 INTRA-LIGAND FREE ENERGY PREDICTED BY IDOCK:    0.55 KCAL/MOL
REMARK 927      BINDING AFFINITY PREDICTED BY RF-SCORE:    0.00 PKD
ROOT
HETATM    1  C   UNL     1     -12.254  15.492  74.178  1.00  0.00    -0.753 C  
HETATM    2  C   UNL     1     -13.238  15.298  73.031  1.00  0.00    -0.510 C  
ENDROOT
BRANCH   2   3
HETATM    3  N   UNL     1     -12.621  14.750  71.813  1.00  0.00    -0.319 N  
HETATM    4  O   UNL     1     -11.710  16.813  71.391  1.00  0.00    -0.084 OA 
HETATM    5  C   UNL     1     -11.901  15.651  71.015  1.00  0.00    -0.400 C  
BRANCH   3   6
HETATM    6  C   UNL     1     -12.801  13.325  71.495  1.00  0.00    -0.327 C  
HETATM    7  C   UNL     1     -13.776  12.483  72.303  1.00  0.00    -0.356 C  
ENDBRANCH   3   6
BRANCH   5   8
HETATM    8  C   UNL     1     -11.331  15.255  69.679  1.00  0.00    -0.304 C  
HETATM    9  C   UNL     1     -11.294  13.949  69.320  1.00  0.00    -0.321 C  
BRANCH   8  10
HETATM   10  C   UNL     1     -10.774  16.248  68.671  1.00  0.00    -0.309 C  
HETATM   11  H2  UNL     1      -9.515  16.975  68.465  1.00  0.00     0.000 HD 
HETATM   12  N   UNL     1     -10.312  17.071  67.836  1.00  0.00    -0.323 NA 
HETATM   13  H1  UNL     1      -9.939  17.737  67.159  1.00  0.00     0.000 HD 
ENDBRANCH   8  10
BRANCH   9  14
HETATM   14  C   UNL     1     -10.788  13.458  68.014  1.00  0.00    -0.264 A  
HETATM   15  C   UNL     1     -11.665  13.208  66.944  1.00  0.00    -0.441 A  
HETATM   16  C   UNL     1     -11.181  12.670  65.733  1.00  0.00    -0.312 A  
HETATM   17  C   UNL     1      -9.820  12.399  65.573  1.00  0.00    -0.200 A  
HETATM   18  N   UNL     1     -12.118  12.399  64.640  1.00  0.00    -0.414 N  
HETATM   19  C   UNL     1      -8.958  12.662  66.640  1.00  0.00    -0.164 A  
HETATM   20  O   UNL     1     -11.659  11.896  63.601  1.00  0.00    -0.427 OA 
HETATM   21  O   UNL     1     -13.311  12.687  64.814  1.00  0.00    -0.787 OA 
HETATM   22  O   UNL     1      -9.222  11.881  64.449  1.00  0.00    -0.419 OA 
HETATM   23  H   UNL     1      -8.296  11.697  64.341  1.00  0.00     0.000 HD 
HETATM   24  O   UNL     1      -7.621  12.401  66.503  1.00  0.00    -0.364 OA 
HETATM   25  C   UNL     1      -9.425  13.178  67.848  1.00  0.00    -0.218 A  
HETATM   26  H   UNL     1      -7.035  12.581  67.228  1.00  0.00     0.000 HD 
ENDBRANCH   9  14
ENDBRANCH   5   8
ENDBRANCH   2   3
TORSDOF 5
ENDMDL
MODEL       50
REMARK 921   NORMALIZED FREE ENERGY PREDICTED BY IDOCK:   -5.65 KCAL/MOL
REMARK 922        TOTAL FREE ENERGY PREDICTED BY IDOCK:   -7.42 KCAL/MOL
REMARK 923 INTER-LIGAND FREE ENERGY PREDICTED BY IDOCK:   -6.84 KCAL/MOL
REMARK 924 INTRA-LIGAND FREE ENERGY PREDICTED BY IDOCK:   -0.58 KCAL/MOL
REMARK 927      BINDING AFFINITY PREDICTED BY RF-SCORE:    0.00 PKD
ROOT
HETATM    1  C   UNL     1      -9.802   9.674  65.834  1.00  0.00    -0.358 C  
HETATM    2  C   UNL     1     -10.568  10.101  67.079  1.00  0.00    -0.225 C  
ENDROOT
BRANCH   2   3
HETATM    3  N   UNL     1     -10.289  11.484  67.497  1.00  0.00    -0.190 N  
HETATM    4  O   UNL     1     -12.121  12.174  66.298  1.00  0.00    -0.626 OA 
HETATM    5  C   UNL     1     -11.133  12.477  66.976  1.00  0.00    -0.281 C  
BRANCH   3   6
HETATM    6  C   UNL     1      -9.159  11.749  68.400  1.00  0.00    -0.176 C  
HETATM    7  C   UNL     1      -7.791  12.085  67.828  1.00  0.00    -0.145 C  
ENDBRANCH   3   6
BRANCH   5   8
HETATM    8  C   UNL     1     -10.883  13.942  67.215  1.00  0.00    -0.292 C  
HETATM    9  C   UNL     1      -9.982  14.608  66.451  1.00  0.00    -0.296 C  
BRANCH   8  10
HETATM   10  C   UNL     1     -11.592  14.756  68.286  1.00  0.00    -0.323 C  
HETATM   11  H2  UNL     1     -12.742  14.578  69.181  1.00  0.00     0.000 HD 
HETATM   12  N   UNL     1     -12.181  15.430  69.173  1.00  0.00    -0.596 NA 
HETATM   13  H1  UNL     1     -12.657  15.976  69.892  1.00  0.00     0.000 HD 
ENDBRANCH   8  10
BRANCH   9  14
HETATM   14  C   UNL     1      -9.691  16.057  66.580  1.00  0.00    -0.261 A  
HETATM   15  C   UNL     1      -8.748  16.526  67.511  1.00  0.00    -0.191 A  
HETATM   16  C   UNL     1      -8.535  17.911  67.678  1.00  0.00    -0.234 A  
HETATM   17  C   UNL     1      -9.243  18.834  66.904  1.00  0.00    -0.307 A  
HETATM   18  N   UNL     1      -7.562  18.376  68.670  1.00  0.00    -0.300 N  
HETATM   19  C   UNL     1     -10.169  18.355  65.976  1.00  0.00    -0.336 A  
HETATM   20  O   UNL     1      -7.425  19.603  68.810  1.00  0.00    -0.339 OA 
HETATM   21  O   UNL     1      -6.932  17.522  69.309  1.00  0.00    -0.247 OA 
HETATM   22  O   UNL     1      -9.127  20.202  66.965  1.00  0.00    -0.339 OA 
HETATM   23  H   UNL     1      -9.609  20.830  66.439  1.00  0.00     0.000 HD 
HETATM   24  O   UNL     1     -10.873  19.243  65.210  1.00  0.00    -0.503 OA 
HETATM   25  C   UNL     1     -10.401  16.989  65.813  1.00  0.00    -0.275 A  
HETATM   26  H   UNL     1     -11.503  18.917  64.577  1.00  0.00     0.000 HD 
ENDBRANCH   9  14
ENDBRANCH   5   8
ENDBRANCH   2   3
TORSDOF 5
ENDMDL
MODEL       51
REMARK 921   NORMALIZED FREE ENERGY PREDICTED BY IDOCK:   -5.64 KCAL/MOL
REMARK 922        TOTAL FREE ENERGY PREDICTED BY IDOCK:   -7.40 KCAL/MOL
REMARK 923 INTER-LIGAND FREE ENERGY PREDICTED BY IDOCK:   -7.00 KCAL/MOL
REMARK 924 INTRA-LIGAND FREE ENERGY PREDICTED BY IDOCK:   -0.40 KCAL/MOL
REMARK 927      BINDING AFFINITY PREDICTED BY RF-SCORE:    0.00 PKD
ROOT
HETATM    1  C   UNL     1      -8.071   6.415  69.098  1.00  0.00    -0.111 C  
HETATM    2  C   UNL     1      -8.172   6.824  67.634  1.00  0.00    -0.119 C  
ENDROOT
BRANCH   2   3
HETATM    3  N   UNL     1      -8.540   8.235  67.440  1.00  0.00    -0.124 N  
HETATM    4  O   UNL     1     -10.697   7.576  67.020  1.00  0.00    -0.346 OA 
HETATM    5  C   UNL     1      -9.867   8.491  67.066  1.00  0.00    -0.224 C  
BRANCH   3   6
HETATM    6  C   UNL     1      -7.518   9.276  67.627  1.00  0.00    -0.088 C  
HETATM    7  C   UNL     1      -6.117   9.075  67.072  1.00  0.00    -0.058 C  
ENDBRANCH   3   6
BRANCH   5   8
HETATM    8  C   UNL     1     -10.344   9.873  66.710  1.00  0.00    -0.285 C  
HETATM    9  C   UNL     1      -9.891  10.475  65.582  1.00  0.00    -0.311 C  
BRANCH   8  10
HETATM   10  C   UNL     1     -11.330  10.670  67.550  1.00  0.00    -0.162 C  
HETATM   11  H2  UNL     1     -12.654  11.276  67.361  1.00  0.00     0.000 HD 
HETATM   12  N   UNL     1     -12.147  11.330  68.245  1.00  0.00    -0.660 NA 
HETATM   13  H1  UNL     1     -12.809  11.864  68.809  1.00  0.00     0.000 HD 
ENDBRANCH   8  10
BRANCH   9  14
HETATM   14  C   UNL     1     -10.326  11.817  65.122  1.00  0.00    -0.323 A  
HETATM   15  C   UNL     1      -9.721  12.985  65.618  1.00  0.00    -0.110 A  
HETATM   16  C   UNL     1     -10.194  14.256  65.232  1.00  0.00    -0.382 A  
HETATM   17  C   UNL     1     -11.258  14.371  64.332  1.00  0.00    -0.222 A  
HETATM   18  N   UNL     1      -9.560  15.458  65.779  1.00  0.00    -0.345 N  
HETATM   19  C   UNL     1     -11.843  13.204  63.839  1.00  0.00    -0.472 A  
HETATM   20  O   UNL     1     -10.025  16.559  65.439  1.00  0.00    -0.552 OA 
HETATM   21  O   UNL     1      -8.599  15.309  66.546  1.00  0.00    -0.276 OA 
HETATM   22  O   UNL     1     -11.808  15.545  63.874  1.00  0.00    -0.949 OA 
HETATM   23  H   UNL     1     -12.531  15.623  63.262  1.00  0.00     0.000 HD 
HETATM   24  O   UNL     1     -12.886  13.297  62.958  1.00  0.00    -0.454 OA 
HETATM   25  C   UNL     1     -11.396  11.941  64.226  1.00  0.00    -0.425 A  
HETATM   26  H   UNL     1     -13.284  12.503  62.622  1.00  0.00     0.000 HD 
ENDBRANCH   9  14
ENDBRANCH   5   8
ENDBRANCH   2   3
TORSDOF 5
ENDMDL
MODEL       52
REMARK 921   NORMALIZED FREE ENERGY PREDICTED BY IDOCK:   -5.63 KCAL/MOL
REMARK 922        TOTAL FREE ENERGY PREDICTED BY IDOCK:   -7.40 KCAL/MOL
REMARK 923 INTER-LIGAND FREE ENERGY PREDICTED BY IDOCK:   -6.81 KCAL/MOL
REMARK 924 INTRA-LIGAND FREE ENERGY PREDICTED BY IDOCK:   -0.59 KCAL/MOL
REMARK 927      BINDING AFFINITY PREDICTED BY RF-SCORE:    0.00 PKD
ROOT
HETATM    1  C   UNL     1      -9.372   6.788  69.771  1.00  0.00    -0.145 C  
HETATM    2  C   UNL     1     -10.723   7.432  69.483  1.00  0.00    -0.224 C  
ENDROOT
BRANCH   2   3
HETATM    3  N   UNL     1     -10.705   8.901  69.568  1.00  0.00    -0.224 N  
HETATM    4  O   UNL     1     -10.573   8.993  67.279  1.00  0.00    -0.276 OA 
HETATM    5  C   UNL     1     -10.564   9.596  68.358  1.00  0.00    -0.225 C  
BRANCH   3   6
HETATM    6  C   UNL     1     -10.815   9.546  70.885  1.00  0.00    -0.337 C  
HETATM    7  C   UNL     1     -12.179   9.950  71.423  1.00  0.00    -0.499 C  
ENDBRANCH   3   6
BRANCH   5   8
HETATM    8  C   UNL     1     -10.401  11.092  68.311  1.00  0.00    -0.197 C  
HETATM    9  C   UNL     1     -11.490  11.887  68.174  1.00  0.00    -0.384 C  
BRANCH   8  10
HETATM   10  C   UNL     1      -9.058  11.798  68.412  1.00  0.00    -0.176 C  
HETATM   11  H2  UNL     1      -8.518  13.125  68.086  1.00  0.00     0.000 HD 
HETATM   12  N   UNL     1      -7.946  12.385  68.494  1.00  0.00    -0.243 NA 
HETATM   13  H1  UNL     1      -7.045  12.859  68.561  1.00  0.00     0.000 HD 
ENDBRANCH   8  10
BRANCH   9  14
HETATM   14  C   UNL     1     -11.441  13.370  68.154  1.00  0.00    -0.339 A  
HETATM   15  C   UNL     1     -11.098  14.068  66.983  1.00  0.00    -0.312 A  
HETATM   16  C   UNL     1     -10.980  15.474  66.997  1.00  0.00    -0.283 A  
HETATM   17  C   UNL     1     -11.225  16.193  68.170  1.00  0.00    -0.311 A  
HETATM   18  N   UNL     1     -10.601  16.178  65.768  1.00  0.00    -0.346 N  
HETATM   19  C   UNL     1     -11.576  15.489  69.323  1.00  0.00    -0.357 A  
HETATM   20  O   UNL     1     -10.477  17.412  65.828  1.00  0.00    -0.518 OA 
HETATM   21  O   UNL     1     -10.427  15.503  64.744  1.00  0.00    -0.390 OA 
HETATM   22  O   UNL     1     -11.149  17.558  68.315  1.00  0.00    -0.212 OA 
HETATM   23  H   UNL     1     -11.316  18.047  69.112  1.00  0.00     0.000 HD 
HETATM   24  O   UNL     1     -11.817  16.175  70.481  1.00  0.00    -0.439 OA 
HETATM   25  C   UNL     1     -11.679  14.097  69.327  1.00  0.00    -0.368 A  
HETATM   26  H   UNL     1     -12.056  15.696  71.266  1.00  0.00     0.000 HD 
ENDBRANCH   9  14
ENDBRANCH   5   8
ENDBRANCH   2   3
TORSDOF 5
ENDMDL
MODEL       53
REMARK 921   NORMALIZED FREE ENERGY PREDICTED BY IDOCK:   -5.63 KCAL/MOL
REMARK 922        TOTAL FREE ENERGY PREDICTED BY IDOCK:   -7.39 KCAL/MOL
REMARK 923 INTER-LIGAND FREE ENERGY PREDICTED BY IDOCK:   -7.05 KCAL/MOL
REMARK 924 INTRA-LIGAND FREE ENERGY PREDICTED BY IDOCK:   -0.35 KCAL/MOL
REMARK 927      BINDING AFFINITY PREDICTED BY RF-SCORE:    0.00 PKD
ROOT
HETATM    1  C   UNL     1     -10.224   5.239  72.108  1.00  0.00    -0.252 C  
HETATM    2  C   UNL     1     -10.703   5.872  70.808  1.00  0.00    -0.277 C  
ENDROOT
BRANCH   2   3
HETATM    3  N   UNL     1     -10.840   7.335  70.880  1.00  0.00    -0.239 N  
HETATM    4  O   UNL     1     -10.578   7.434  68.602  1.00  0.00    -0.198 OA 
HETATM    5  C   UNL     1     -10.697   8.038  69.675  1.00  0.00    -0.207 C  
BRANCH   3   6
HETATM    6  C   UNL     1     -11.095   7.969  72.182  1.00  0.00    -0.311 C  
HETATM    7  C   UNL     1     -12.513   8.348  72.578  1.00  0.00    -0.337 C  
ENDBRANCH   3   6
BRANCH   5   8
HETATM    8  C   UNL     1     -10.683   9.542  69.624  1.00  0.00    -0.257 C  
HETATM    9  C   UNL     1     -11.851  10.230  69.654  1.00  0.00    -0.181 C  
BRANCH   8  10
HETATM   10  C   UNL     1      -9.413  10.373  69.540  1.00  0.00    -0.139 C  
HETATM   11  H2  UNL     1      -8.955  11.683  70.023  1.00  0.00     0.000 HD 
HETATM   12  N   UNL     1      -8.361  11.063  69.472  1.00  0.00    -0.363 NA 
HETATM   13  H1  UNL     1      -7.508  11.621  69.416  1.00  0.00     0.000 HD 
ENDBRANCH   8  10
BRANCH   9  14
HETATM   14  C   UNL     1     -11.946  11.711  69.646  1.00  0.00    -0.390 A  
HETATM   15  C   UNL     1     -12.417  12.412  70.769  1.00  0.00    -0.356 A  
HETATM   16  C   UNL     1     -12.575  13.814  70.724  1.00  0.00    -0.340 A  
HETATM   17  C   UNL     1     -12.242  14.525  69.568  1.00  0.00    -0.265 A  
HETATM   18  N   UNL     1     -13.088  14.520  71.900  1.00  0.00    -0.330 N  
HETATM   19  C   UNL     1     -11.764  13.818  68.463  1.00  0.00    -0.356 A  
HETATM   20  O   UNL     1     -13.242  15.749  71.811  1.00  0.00    -0.477 OA 
HETATM   21  O   UNL     1     -13.337  13.853  72.914  1.00  0.00    -0.604 OA 
HETATM   22  O   UNL     1     -12.344  15.885  69.396  1.00  0.00    -0.476 OA 
HETATM   23  H   UNL     1     -12.118  16.369  68.610  1.00  0.00     0.000 HD 
HETATM   24  O   UNL     1     -11.435  14.497  67.322  1.00  0.00    -0.335 OA 
HETATM   25  C   UNL     1     -11.621  12.431  68.490  1.00  0.00    -0.358 A  
HETATM   26  H   UNL     1     -11.110  14.017  66.571  1.00  0.00     0.000 HD 
ENDBRANCH   9  14
ENDBRANCH   5   8
ENDBRANCH   2   3
TORSDOF 5
ENDMDL
MODEL       54
REMARK 921   NORMALIZED FREE ENERGY PREDICTED BY IDOCK:   -5.63 KCAL/MOL
REMARK 922        TOTAL FREE ENERGY PREDICTED BY IDOCK:   -7.39 KCAL/MOL
REMARK 923 INTER-LIGAND FREE ENERGY PREDICTED BY IDOCK:   -6.90 KCAL/MOL
REMARK 924 INTRA-LIGAND FREE ENERGY PREDICTED BY IDOCK:   -0.49 KCAL/MOL
REMARK 927      BINDING AFFINITY PREDICTED BY RF-SCORE:    0.00 PKD
ROOT
HETATM    1  C   UNL     1     -10.294   5.178  70.406  1.00  0.00    -0.326 C  
HETATM    2  C   UNL     1      -9.267   6.166  69.868  1.00  0.00    -0.149 C  
ENDROOT
BRANCH   2   3
HETATM    3  N   UNL     1      -9.829   7.144  68.923  1.00  0.00    -0.153 N  
HETATM    4  O   UNL     1      -8.495   8.759  69.859  1.00  0.00    -0.121 OA 
HETATM    5  C   UNL     1      -9.392   8.469  69.059  1.00  0.00    -0.146 C  
BRANCH   3   6
HETATM    6  C   UNL     1     -10.809   6.694  67.923  1.00  0.00    -0.277 C  
HETATM    7  C   UNL     1     -10.339   5.980  66.665  1.00  0.00    -0.264 C  
ENDBRANCH   3   6
BRANCH   5   8
HETATM    8  C   UNL     1      -9.981   9.592  68.247  1.00  0.00    -0.184 C  
HETATM    9  C   UNL     1      -9.374   9.987  67.100  1.00  0.00    -0.173 C  
BRANCH   8  10
HETATM   10  C   UNL     1     -11.248  10.338  68.632  1.00  0.00    -0.208 C  
HETATM   11  H2  UNL     1     -12.168  10.369  69.776  1.00  0.00     0.000 HD 
HETATM   12  N   UNL     1     -12.298  10.956  68.952  1.00  0.00    -0.759 NA 
HETATM   13  H1  UNL     1     -13.149  11.457  69.211  1.00  0.00     0.000 HD 
ENDBRANCH   8  10
BRANCH   9  14
HETATM   14  C   UNL     1      -9.893  11.055  66.210  1.00  0.00    -0.257 A  
HETATM   15  C   UNL     1      -9.824  12.408  66.586  1.00  0.00    -0.231 A  
HETATM   16  C   UNL     1     -10.389  13.408  65.766  1.00  0.00    -0.293 A  
HETATM   17  C   UNL     1     -11.004  13.068  64.558  1.00  0.00    -0.358 A  
HETATM   18  N   UNL     1     -10.323  14.809  66.189  1.00  0.00    -0.291 N  
HETATM   19  C   UNL     1     -11.055  11.722  64.191  1.00  0.00    -0.374 A  
HETATM   20  O   UNL     1     -10.859  15.656  65.457  1.00  0.00    -0.338 OA 
HETATM   21  O   UNL     1      -9.738  15.067  67.251  1.00  0.00    -0.217 OA 
HETATM   22  O   UNL     1     -11.586  13.942  63.671  1.00  0.00    -0.612 OA 
HETATM   23  H   UNL     1     -12.004  13.711  62.849  1.00  0.00     0.000 HD 
HETATM   24  O   UNL     1     -11.655  11.370  63.013  1.00  0.00    -0.865 OA 
HETATM   25  C   UNL     1     -10.516  10.722  65.001  1.00  0.00    -0.307 A  
HETATM   26  H   UNL     1     -11.690  10.454  62.763  1.00  0.00     0.000 HD 
ENDBRANCH   9  14
ENDBRANCH   5   8
ENDBRANCH   2   3
TORSDOF 5
ENDMDL
MODEL       55
REMARK 921   NORMALIZED FREE ENERGY PREDICTED BY IDOCK:   -5.61 KCAL/MOL
REMARK 922        TOTAL FREE ENERGY PREDICTED BY IDOCK:   -7.37 KCAL/MOL
REMARK 923 INTER-LIGAND FREE ENERGY PREDICTED BY IDOCK:   -6.88 KCAL/MOL
REMARK 924 INTRA-LIGAND FREE ENERGY PREDICTED BY IDOCK:   -0.49 KCAL/MOL
REMARK 927      BINDING AFFINITY PREDICTED BY RF-SCORE:    0.00 PKD
ROOT
HETATM    1  C   UNL     1      -9.533   5.643  72.468  1.00  0.00    -0.157 C  
HETATM    2  C   UNL     1      -8.643   6.480  71.558  1.00  0.00    -0.129 C  
ENDROOT
BRANCH   2   3
HETATM    3  N   UNL     1      -9.392   7.371  70.658  1.00  0.00    -0.161 N  
HETATM    4  O   UNL     1      -9.135   9.066  72.184  1.00  0.00    -0.372 OA 
HETATM    5  C   UNL     1      -9.633   8.672  71.123  1.00  0.00    -0.220 C  
BRANCH   3   6
HETATM    6  C   UNL     1      -9.853   6.858  69.359  1.00  0.00    -0.158 C  
HETATM    7  C   UNL     1     -11.240   6.249  69.230  1.00  0.00    -0.458 C  
ENDBRANCH   3   6
BRANCH   5   8
HETATM    8  C   UNL     1     -10.496   9.644  70.363  1.00  0.00    -0.352 C  
HETATM    9  C   UNL     1      -9.926  10.531  69.512  1.00  0.00    -0.187 C  
BRANCH   8  10
HETATM   10  C   UNL     1     -12.010   9.704  70.487  1.00  0.00    -0.172 C  
HETATM   11  H2  UNL     1     -13.099   8.766  70.789  1.00  0.00     0.000 HD 
HETATM   12  N   UNL     1     -13.265   9.753  70.589  1.00  0.00    -0.599 NA 
HETATM   13  H1  UNL     1     -14.281   9.793  70.672  1.00  0.00     0.000 HD 
ENDBRANCH   8  10
BRANCH   9  14
HETATM   14  C   UNL     1     -10.688  11.504  68.690  1.00  0.00    -0.242 A  
HETATM   15  C   UNL     1     -10.800  11.346  67.298  1.00  0.00    -0.311 A  
HETATM   16  C   UNL     1     -11.462  12.318  66.518  1.00  0.00    -0.381 A  
HETATM   17  C   UNL     1     -12.035  13.439  67.123  1.00  0.00    -0.366 A  
HETATM   18  N   UNL     1     -11.547  12.141  65.066  1.00  0.00    -0.328 N  
HETATM   19  C   UNL     1     -11.927  13.579  68.508  1.00  0.00    -0.344 A  
HETATM   20  O   UNL     1     -12.110  13.033  64.411  1.00  0.00    -0.371 OA 
HETATM   21  O   UNL     1     -11.055  11.115  64.577  1.00  0.00    -0.253 OA 
HETATM   22  O   UNL     1     -12.708  14.452  66.481  1.00  0.00    -0.493 OA 
HETATM   23  H   UNL     1     -13.098  15.214  66.893  1.00  0.00     0.000 HD 
HETATM   24  O   UNL     1     -12.481  14.671  69.118  1.00  0.00    -0.567 OA 
HETATM   25  C   UNL     1     -11.260  12.634  69.288  1.00  0.00    -0.255 A  
HETATM   26  H   UNL     1     -12.408  14.766  70.060  1.00  0.00     0.000 HD 
ENDBRANCH   9  14
ENDBRANCH   5   8
ENDBRANCH   2   3
TORSDOF 5
ENDMDL
MODEL       56
REMARK 921   NORMALIZED FREE ENERGY PREDICTED BY IDOCK:   -5.61 KCAL/MOL
REMARK 922        TOTAL FREE ENERGY PREDICTED BY IDOCK:   -7.37 KCAL/MOL
REMARK 923 INTER-LIGAND FREE ENERGY PREDICTED BY IDOCK:   -6.75 KCAL/MOL
REMARK 924 INTRA-LIGAND FREE ENERGY PREDICTED BY IDOCK:   -0.62 KCAL/MOL
REMARK 927      BINDING AFFINITY PREDICTED BY RF-SCORE:    0.00 PKD
ROOT
HETATM    1  C   UNL     1      -9.962   6.090  71.449  1.00  0.00    -0.223 C  
HETATM    2  C   UNL     1     -11.073   6.657  70.574  1.00  0.00    -0.307 C  
ENDROOT
BRANCH   2   3
HETATM    3  N   UNL     1     -11.023   8.121  70.433  1.00  0.00    -0.248 N  
HETATM    4  O   UNL     1     -10.609   7.852  68.191  1.00  0.00    -0.194 OA 
HETATM    5  C   UNL     1     -10.715   8.616  69.157  1.00  0.00    -0.118 C  
BRANCH   3   6
HETATM    6  C   UNL     1     -11.275   8.965  71.610  1.00  0.00    -0.345 C  
HETATM    7  C   UNL     1     -12.691   9.417  71.933  1.00  0.00    -0.484 C  
ENDBRANCH   3   6
BRANCH   5   8
HETATM    8  C   UNL     1     -10.503  10.084  68.901  1.00  0.00    -0.229 C  
HETATM    9  C   UNL     1     -11.541  10.856  68.495  1.00  0.00    -0.360 C  
BRANCH   8  10
HETATM   10  C   UNL     1      -9.166  10.787  69.071  1.00  0.00    -0.146 C  
HETATM   11  H2  UNL     1      -7.766  10.393  69.272  1.00  0.00     0.000 HD 
HETATM   12  N   UNL     1      -8.057  11.369  69.212  1.00  0.00    -0.367 NA 
HETATM   13  H1  UNL     1      -7.159  11.840  69.326  1.00  0.00     0.000 HD 
ENDBRANCH   8  10
BRANCH   9  14
HETATM   14  C   UNL     1     -11.447  12.317  68.252  1.00  0.00    -0.367 A  
HETATM   15  C   UNL     1     -11.127  12.821  66.979  1.00  0.00    -0.316 A  
HETATM   16  C   UNL     1     -10.966  14.208  66.778  1.00  0.00    -0.300 A  
HETATM   17  C   UNL     1     -11.144  15.101  67.837  1.00  0.00    -0.321 A  
HETATM   18  N   UNL     1     -10.612  14.707  65.446  1.00  0.00    -0.347 N  
HETATM   19  C   UNL     1     -11.472  14.589  69.094  1.00  0.00    -0.294 A  
HETATM   20  O   UNL     1     -10.447  15.931  65.316  1.00  0.00    -0.385 OA 
HETATM   21  O   UNL     1     -10.497  13.881  64.529  1.00  0.00    -0.431 OA 
HETATM   22  O   UNL     1     -11.020  16.469  67.774  1.00  0.00    -0.327 OA 
HETATM   23  H   UNL     1     -11.142  17.077  68.494  1.00  0.00     0.000 HD 
HETATM   24  O   UNL     1     -11.649  15.449  70.143  1.00  0.00    -0.275 OA 
HETATM   25  C   UNL     1     -11.618  13.219  69.310  1.00  0.00    -0.370 A  
HETATM   26  H   UNL     1     -11.873  15.101  70.998  1.00  0.00     0.000 HD 
ENDBRANCH   9  14
ENDBRANCH   5   8
ENDBRANCH   2   3
TORSDOF 5
ENDMDL
MODEL       57
REMARK 921   NORMALIZED FREE ENERGY PREDICTED BY IDOCK:   -5.60 KCAL/MOL
REMARK 922        TOTAL FREE ENERGY PREDICTED BY IDOCK:   -7.35 KCAL/MOL
REMARK 923 INTER-LIGAND FREE ENERGY PREDICTED BY IDOCK:   -7.14 KCAL/MOL
REMARK 924 INTRA-LIGAND FREE ENERGY PREDICTED BY IDOCK:   -0.21 KCAL/MOL
REMARK 927      BINDING AFFINITY PREDICTED BY RF-SCORE:    0.00 PKD
ROOT
HETATM    1  C   UNL     1     -12.075  12.995  63.347  1.00  0.00    -0.591 C  
HETATM    2  C   UNL     1     -10.754  12.844  64.091  1.00  0.00    -0.415 C  
ENDROOT
BRANCH   2   3
HETATM    3  N   UNL     1     -10.915  12.542  65.522  1.00  0.00    -0.279 N  
HETATM    4  O   UNL     1      -9.053  11.205  65.411  1.00  0.00    -0.203 OA 
HETATM    5  C   UNL     1     -10.004  11.632  66.076  1.00  0.00    -0.228 C  
BRANCH   3   6
HETATM    6  C   UNL     1     -12.006  13.182  66.272  1.00  0.00    -0.415 C  
HETATM    7  C   UNL     1     -11.774  14.518  66.961  1.00  0.00    -0.412 C  
ENDBRANCH   3   6
BRANCH   5   8
HETATM    8  C   UNL     1     -10.132  11.135  67.492  1.00  0.00    -0.210 C  
HETATM    9  C   UNL     1     -11.282  10.543  67.899  1.00  0.00    -0.358 C  
BRANCH   8  10
HETATM   10  C   UNL     1      -9.029  11.254  68.532  1.00  0.00    -0.166 C  
HETATM   11  H2  UNL     1      -7.602  11.601  68.546  1.00  0.00     0.000 HD 
HETATM   12  N   UNL     1      -8.114  11.352  69.393  1.00  0.00    -0.348 NA 
HETATM   13  H1  UNL     1      -7.374  11.431  70.090  1.00  0.00     0.000 HD 
ENDBRANCH   8  10
BRANCH   9  14
HETATM   14  C   UNL     1     -11.496   9.988  69.258  1.00  0.00    -0.111 A  
HETATM   15  C   UNL     1     -10.896   8.778  69.650  1.00  0.00    -0.175 A  
HETATM   16  C   UNL     1     -11.168   8.222  70.917  1.00  0.00    -0.265 A  
HETATM   17  C   UNL     1     -12.021   8.878  71.809  1.00  0.00    -0.359 A  
HETATM   18  N   UNL     1     -10.547   6.950  71.294  1.00  0.00    -0.219 N  
HETATM   19  C   UNL     1     -12.601  10.084  71.413  1.00  0.00    -0.415 A  
HETATM   20  O   UNL     1     -10.836   6.476  72.405  1.00  0.00    -0.217 OA 
HETATM   21  O   UNL     1      -9.772   6.421  70.485  1.00  0.00    -0.168 OA 
HETATM   22  O   UNL     1     -12.363   8.447  73.069  1.00  0.00    -0.616 OA 
HETATM   23  H   UNL     1     -12.943   8.893  73.676  1.00  0.00     0.000 HD 
HETATM   24  O   UNL     1     -13.440  10.740  72.272  1.00  0.00    -0.600 OA 
HETATM   25  C   UNL     1     -12.354  10.636  70.156  1.00  0.00    -0.370 A  
HETATM   26  H   UNL     1     -13.835  11.561  72.003  1.00  0.00     0.000 HD 
ENDBRANCH   9  14
ENDBRANCH   5   8
ENDBRANCH   2   3
TORSDOF 5
ENDMDL
MODEL       58
REMARK 921   NORMALIZED FREE ENERGY PREDICTED BY IDOCK:   -5.58 KCAL/MOL
REMARK 922        TOTAL FREE ENERGY PREDICTED BY IDOCK:   -7.33 KCAL/MOL
REMARK 923 INTER-LIGAND FREE ENERGY PREDICTED BY IDOCK:   -6.93 KCAL/MOL
REMARK 924 INTRA-LIGAND FREE ENERGY PREDICTED BY IDOCK:   -0.40 KCAL/MOL
REMARK 927      BINDING AFFINITY PREDICTED BY RF-SCORE:    0.00 PKD
ROOT
HETATM    1  C   UNL     1     -10.632   6.986  72.170  1.00  0.00    -0.240 C  
HETATM    2  C   UNL     1     -10.274   8.457  72.341  1.00  0.00    -0.329 C  
ENDROOT
BRANCH   2   3
HETATM    3  N   UNL     1      -9.910   9.124  71.081  1.00  0.00    -0.295 N  
HETATM    4  O   UNL     1     -11.881  10.296  71.177  1.00  0.00    -0.353 OA 
HETATM    5  C   UNL     1     -10.854  10.014  70.548  1.00  0.00    -0.314 C  
BRANCH   3   6
HETATM    6  C   UNL     1      -8.615   8.818  70.454  1.00  0.00    -0.163 C  
HETATM    7  C   UNL     1      -8.514   7.706  69.422  1.00  0.00    -0.132 C  
ENDBRANCH   3   6
BRANCH   5   8
HETATM    8  C   UNL     1     -10.668  10.665  69.203  1.00  0.00    -0.264 C  
HETATM    9  C   UNL     1     -11.105  10.038  68.083  1.00  0.00    -0.252 C  
BRANCH   8  10
HETATM   10  C   UNL     1     -10.004  12.018  69.004  1.00  0.00     0.137 C  
HETATM   11  H2  UNL     1      -8.952  12.802  69.662  1.00  0.00     0.000 HD 
HETATM   12  N   UNL     1      -9.453  13.139  68.841  1.00  0.00    -0.393 NA 
HETATM   13  H1  UNL     1      -9.008  14.047  68.707  1.00  0.00     0.000 HD 
ENDBRANCH   8  10
BRANCH   9  14
HETATM   14  C   UNL     1     -11.004  10.609  66.717  1.00  0.00    -0.182 A  
HETATM   15  C   UNL     1     -11.730  11.757  66.356  1.00  0.00    -0.131 A  
HETATM   16  C   UNL     1     -11.685  12.246  65.033  1.00  0.00    -0.352 A  
HETATM   17  C   UNL     1     -10.899  11.608  64.070  1.00  0.00    -0.392 A  
HETATM   18  N   UNL     1     -12.467  13.432  64.676  1.00  0.00    -0.358 N  
HETATM   19  C   UNL     1     -10.174  10.475  64.444  1.00  0.00    -0.267 A  
HETATM   20  O   UNL     1     -12.426  13.813  63.495  1.00  0.00    -0.780 OA 
HETATM   21  O   UNL     1     -13.122  13.986  65.570  1.00  0.00    -0.713 OA 
HETATM   22  O   UNL     1     -10.765  11.983  62.754  1.00  0.00    -0.524 OA 
HETATM   23  H   UNL     1     -10.231  11.549  62.099  1.00  0.00     0.000 HD 
HETATM   24  O   UNL     1      -9.401   9.835  63.514  1.00  0.00    -0.360 OA 
HETATM   25  C   UNL     1     -10.224   9.971  65.744  1.00  0.00    -0.270 A  
HETATM   26  H   UNL     1      -8.907   9.065  63.769  1.00  0.00     0.000 HD 
ENDBRANCH   9  14
ENDBRANCH   5   8
ENDBRANCH   2   3
TORSDOF 5
ENDMDL
MODEL       59
REMARK 921   NORMALIZED FREE ENERGY PREDICTED BY IDOCK:   -5.56 KCAL/MOL
REMARK 922        TOTAL FREE ENERGY PREDICTED BY IDOCK:   -7.30 KCAL/MOL
REMARK 923 INTER-LIGAND FREE ENERGY PREDICTED BY IDOCK:   -6.76 KCAL/MOL
REMARK 924 INTRA-LIGAND FREE ENERGY PREDICTED BY IDOCK:   -0.54 KCAL/MOL
REMARK 927      BINDING AFFINITY PREDICTED BY RF-SCORE:    0.00 PKD
ROOT
HETATM    1  C   UNL     1      -6.712  20.938  67.436  1.00  0.00    -0.427 C  
HETATM    2  C   UNL     1      -7.351  20.379  66.172  1.00  0.00    -0.183 C  
ENDROOT
BRANCH   2   3
HETATM    3  N   UNL     1      -8.325  19.306  66.429  1.00  0.00    -0.312 N  
HETATM    4  O   UNL     1      -6.685  17.763  65.984  1.00  0.00    -0.254 OA 
HETATM    5  C   UNL     1      -7.872  17.992  66.240  1.00  0.00    -0.253 C  
BRANCH   3   6
HETATM    6  C   UNL     1      -9.691  19.659  66.843  1.00  0.00    -0.369 C  
HETATM    7  C   UNL     1     -10.073  19.624  68.314  1.00  0.00    -0.560 C  
ENDBRANCH   3   6
BRANCH   5   8
HETATM    8  C   UNL     1      -8.796  16.807  66.341  1.00  0.00    -0.331 C  
HETATM    9  C   UNL     1      -8.666  15.934  67.369  1.00  0.00    -0.197 C  
BRANCH   8  10
HETATM   10  C   UNL     1      -9.902  16.511  65.340  1.00  0.00     0.140 C  
HETATM   11  H2  UNL     1     -11.353  16.721  65.252  1.00  0.00     0.000 HD 
HETATM   12  N   UNL     1     -10.819  16.266  64.511  1.00  0.00    -0.936 NA 
HETATM   13  H1  UNL     1     -11.561  16.067  63.840  1.00  0.00     0.000 HD 
ENDBRANCH   8  10
BRANCH   9  14
HETATM   14  C   UNL     1      -9.547  14.758  67.580  1.00  0.00    -0.208 A  
HETATM   15  C   UNL     1      -9.313  13.547  66.905  1.00  0.00    -0.255 A  
HETATM   16  C   UNL     1     -10.202  12.462  67.055  1.00  0.00    -0.220 A  
HETATM   17  C   UNL     1     -11.314  12.569  67.895  1.00  0.00    -0.291 A  
HETATM   18  N   UNL     1      -9.949  11.217  66.325  1.00  0.00    -0.212 N  
HETATM   19  C   UNL     1     -11.528  13.773  68.568  1.00  0.00    -0.307 A  
HETATM   20  O   UNL     1     -10.770  10.295  66.458  1.00  0.00    -0.176 OA 
HETATM   21  O   UNL     1      -8.932  11.155  65.619  1.00  0.00    -0.200 OA 
HETATM   22  O   UNL     1     -12.249  11.589  68.131  1.00  0.00    -0.576 OA 
HETATM   23  H   UNL     1     -13.005  11.662  68.702  1.00  0.00     0.000 HD 
HETATM   24  O   UNL     1     -12.612  13.897  69.393  1.00  0.00    -0.389 OA 
HETATM   25  C   UNL     1     -10.667  14.860  68.415  1.00  0.00    -0.245 A  
HETATM   26  H   UNL     1     -12.758  14.716  69.852  1.00  0.00     0.000 HD 
ENDBRANCH   9  14
ENDBRANCH   5   8
ENDBRANCH   2   3
TORSDOF 5
ENDMDL
MODEL       60
REMARK 921   NORMALIZED FREE ENERGY PREDICTED BY IDOCK:   -5.55 KCAL/MOL
REMARK 922        TOTAL FREE ENERGY PREDICTED BY IDOCK:   -7.29 KCAL/MOL
REMARK 923 INTER-LIGAND FREE ENERGY PREDICTED BY IDOCK:   -7.47 KCAL/MOL
REMARK 924 INTRA-LIGAND FREE ENERGY PREDICTED BY IDOCK:    0.18 KCAL/MOL
REMARK 927      BINDING AFFINITY PREDICTED BY RF-SCORE:    0.00 PKD
ROOT
HETATM    1  C   UNL     1      -9.938   7.769  71.030  1.00  0.00    -0.191 C  
HETATM    2  C   UNL     1     -11.193   8.121  70.243  1.00  0.00    -0.182 C  
ENDROOT
BRANCH   2   3
HETATM    3  N   UNL     1     -11.331   9.560  69.966  1.00  0.00    -0.208 N  
HETATM    4  O   UNL     1     -10.605   9.178  67.823  1.00  0.00    -0.248 OA 
HETATM    5  C   UNL     1     -10.937   9.993  68.692  1.00  0.00    -0.204 C  
BRANCH   3   6
HETATM    6  C   UNL     1     -11.844  10.448  71.020  1.00  0.00    -0.361 C  
HETATM    7  C   UNL     1     -13.124  10.091  71.759  1.00  0.00    -0.562 C  
ENDBRANCH   3   6
BRANCH   5   8
HETATM    8  C   UNL     1     -10.902  11.451  68.319  1.00  0.00    -0.253 C  
HETATM    9  C   UNL     1     -10.062  11.880  67.346  1.00  0.00    -0.211 C  
BRANCH   8  10
HETATM   10  C   UNL     1     -11.771  12.512  68.977  1.00  0.00    -0.318 C  
HETATM   11  H2  UNL     1     -11.596  13.882  69.476  1.00  0.00     0.000 HD 
HETATM   12  N   UNL     1     -12.490  13.392  69.522  1.00  0.00    -0.089 NA 
HETATM   13  H1  UNL     1     -13.073  14.104  69.962  1.00  0.00     0.000 HD 
ENDBRANCH   8  10
BRANCH   9  14
HETATM   14  C   UNL     1      -9.977  13.287  66.880  1.00  0.00    -0.250 A  
HETATM   15  C   UNL     1     -10.865  13.783  65.909  1.00  0.00    -0.283 A  
HETATM   16  C   UNL     1     -10.726  15.098  65.418  1.00  0.00    -0.381 A  
HETATM   17  C   UNL     1      -9.718  15.933  65.907  1.00  0.00    -0.351 A  
HETATM   18  N   UNL     1     -11.650  15.585  64.391  1.00  0.00    -0.338 N  
HETATM   19  C   UNL     1      -8.850  15.432  66.879  1.00  0.00    -0.253 A  
HETATM   20  O   UNL     1     -11.477  16.737  63.961  1.00  0.00    -1.198 OA 
HETATM   21  O   UNL     1     -12.550  14.822  64.012  1.00  0.00    -0.822 OA 
HETATM   22  O   UNL     1      -9.479  17.229  65.518  1.00  0.00    -0.422 OA 
HETATM   23  H   UNL     1      -8.794  17.797  65.851  1.00  0.00     0.000 HD 
HETATM   24  O   UNL     1      -7.856  16.234  67.369  1.00  0.00    -0.141 OA 
HETATM   25  C   UNL     1      -8.966  14.128  67.361  1.00  0.00    -0.205 A  
HETATM   26  H   UNL     1      -7.266  15.894  68.031  1.00  0.00     0.000 HD 
ENDBRANCH   9  14
ENDBRANCH   5   8
ENDBRANCH   2   3
TORSDOF 5
ENDMDL
MODEL       61
REMARK 921   NORMALIZED FREE ENERGY PREDICTED BY IDOCK:   -5.53 KCAL/MOL
REMARK 922        TOTAL FREE ENERGY PREDICTED BY IDOCK:   -7.26 KCAL/MOL
REMARK 923 INTER-LIGAND FREE ENERGY PREDICTED BY IDOCK:   -6.87 KCAL/MOL
REMARK 924 INTRA-LIGAND FREE ENERGY PREDICTED BY IDOCK:   -0.40 KCAL/MOL
REMARK 927      BINDING AFFINITY PREDICTED BY RF-SCORE:    0.00 PKD
ROOT
HETATM    1  C   UNL     1      -9.921  10.867  64.493  1.00  0.00    -0.376 C  
HETATM    2  C   UNL     1     -10.568  11.495  65.721  1.00  0.00    -0.263 C  
ENDROOT
BRANCH   2   3
HETATM    3  N   UNL     1     -10.372  12.951  65.811  1.00  0.00    -0.280 N  
HETATM    4  O   UNL     1      -9.405  12.654  67.872  1.00  0.00    -0.190 OA 
HETATM    5  C   UNL     1      -9.812  13.434  67.003  1.00  0.00    -0.250 C  
BRANCH   3   6
HETATM    6  C   UNL     1     -10.779  13.801  64.683  1.00  0.00    -0.414 C  
HETATM    7  C   UNL     1     -12.250  14.110  64.455  1.00  0.00    -0.468 C  
ENDBRANCH   3   6
BRANCH   5   8
HETATM    8  C   UNL     1      -9.676  14.908  67.280  1.00  0.00    -0.228 C  
HETATM    9  C   UNL     1      -8.668  15.613  66.710  1.00  0.00    -0.306 C  
BRANCH   8  10
HETATM   10  C   UNL     1     -10.619  15.687  68.183  1.00  0.00    -0.274 C  
HETATM   11  H2  UNL     1     -12.068  15.762  68.410  1.00  0.00     0.000 HD 
HETATM   12  N   UNL     1     -11.402  16.333  68.931  1.00  0.00    -0.339 NA 
HETATM   13  H1  UNL     1     -12.034  16.856  69.537  1.00  0.00     0.000 HD 
ENDBRANCH   8  10
BRANCH   9  14
HETATM   14  C   UNL     1      -8.469  17.073  66.889  1.00  0.00    -0.244 A  
HETATM   15  C   UNL     1      -7.471  17.568  67.746  1.00  0.00    -0.197 A  
HETATM   16  C   UNL     1      -7.341  18.956  67.967  1.00  0.00    -0.250 A  
HETATM   17  C   UNL     1      -8.189  19.857  67.319  1.00  0.00    -0.313 A  
HETATM   18  N   UNL     1      -6.306  19.446  68.881  1.00  0.00    -0.249 N  
HETATM   19  C   UNL     1      -9.169  19.353  66.462  1.00  0.00    -0.356 A  
HETATM   20  O   UNL     1      -6.244  20.671  69.074  1.00  0.00    -0.326 OA 
HETATM   21  O   UNL     1      -5.555  18.613  69.407  1.00  0.00    -0.207 OA 
HETATM   22  O   UNL     1      -8.165  21.226  67.443  1.00  0.00    -0.517 OA 
HETATM   23  H   UNL     1      -8.742  21.839  67.002  1.00  0.00     0.000 HD 
HETATM   24  O   UNL     1     -10.010  20.221  65.819  1.00  0.00    -0.599 OA 
HETATM   25  C   UNL     1      -9.319  17.983  66.248  1.00  0.00    -0.220 A  
HETATM   26  H   UNL     1     -10.676  19.878  65.236  1.00  0.00     0.000 HD 
ENDBRANCH   9  14
ENDBRANCH   5   8
ENDBRANCH   2   3
TORSDOF 5
ENDMDL
MODEL       62
REMARK 921   NORMALIZED FREE ENERGY PREDICTED BY IDOCK:   -5.50 KCAL/MOL
REMARK 922        TOTAL FREE ENERGY PREDICTED BY IDOCK:   -7.23 KCAL/MOL
REMARK 923 INTER-LIGAND FREE ENERGY PREDICTED BY IDOCK:   -7.41 KCAL/MOL
REMARK 924 INTRA-LIGAND FREE ENERGY PREDICTED BY IDOCK:    0.18 KCAL/MOL
REMARK 927      BINDING AFFINITY PREDICTED BY RF-SCORE:    0.00 PKD
ROOT
HETATM    1  C   UNL     1     -12.705  14.322  65.544  1.00  0.00    -0.399 C  
HETATM    2  C   UNL     1     -11.270  14.218  66.048  1.00  0.00    -0.324 C  
ENDROOT
BRANCH   2   3
HETATM    3  N   UNL     1     -11.161  13.652  67.402  1.00  0.00    -0.292 N  
HETATM    4  O   UNL     1     -11.745  11.602  66.550  1.00  0.00    -0.498 OA 
HETATM    5  C   UNL     1     -11.491  12.296  67.541  1.00  0.00    -0.347 C  
BRANCH   3   6
HETATM    6  C   UNL     1     -10.740  14.520  68.511  1.00  0.00    -0.250 C  
HETATM    7  C   UNL     1     -11.382  15.886  68.694  1.00  0.00    -0.376 C  
ENDBRANCH   3   6
BRANCH   5   8
HETATM    8  C   UNL     1     -11.549  11.623  68.887  1.00  0.00    -0.377 C  
HETATM    9  C   UNL     1     -11.099  10.352  69.027  1.00  0.00    -0.297 C  
BRANCH   8  10
HETATM   10  C   UNL     1     -12.092  12.288  70.141  1.00  0.00    -0.287 C  
HETATM   11  H2  UNL     1     -13.315  13.000  70.533  1.00  0.00     0.000 HD 
HETATM   12  N   UNL     1     -12.544  12.840  71.181  1.00  0.00    -0.340 NA 
HETATM   13  H1  UNL     1     -12.908  13.286  72.022  1.00  0.00     0.000 HD 
ENDBRANCH   8  10
BRANCH   9  14
HETATM   14  C   UNL     1     -11.077   9.613  70.314  1.00  0.00    -0.327 A  
HETATM   15  C   UNL     1      -9.870   9.385  70.998  1.00  0.00    -0.317 A  
HETATM   16  C   UNL     1      -9.853   8.616  72.181  1.00  0.00    -0.317 A  
HETATM   17  C   UNL     1     -11.039   8.090  72.700  1.00  0.00    -0.387 A  
HETATM   18  N   UNL     1      -8.580   8.374  72.864  1.00  0.00    -0.199 N  
HETATM   19  C   UNL     1     -12.232   8.334  72.018  1.00  0.00    -0.348 A  
HETATM   20  O   UNL     1      -8.600   7.667  73.885  1.00  0.00    -0.190 OA 
HETATM   21  O   UNL     1      -7.558   8.888  72.386  1.00  0.00    -0.351 OA 
HETATM   22  O   UNL     1     -11.159   7.333  73.841  1.00  0.00    -0.497 OA 
HETATM   23  H   UNL     1     -11.965   6.976  74.194  1.00  0.00     0.000 HD 
HETATM   24  O   UNL     1     -13.403   7.826  72.510  1.00  0.00    -0.491 OA 
HETATM   25  C   UNL     1     -12.261   9.078  70.838  1.00  0.00    -0.205 A  
HETATM   26  H   UNL     1     -14.215   7.993  72.046  1.00  0.00     0.000 HD 
ENDBRANCH   9  14
ENDBRANCH   5   8
ENDBRANCH   2   3
TORSDOF 5
ENDMDL
MODEL       63
REMARK 921   NORMALIZED FREE ENERGY PREDICTED BY IDOCK:   -5.50 KCAL/MOL
REMARK 922        TOTAL FREE ENERGY PREDICTED BY IDOCK:   -7.23 KCAL/MOL
REMARK 923 INTER-LIGAND FREE ENERGY PREDICTED BY IDOCK:   -6.78 KCAL/MOL
REMARK 924 INTRA-LIGAND FREE ENERGY PREDICTED BY IDOCK:   -0.45 KCAL/MOL
REMARK 927      BINDING AFFINITY PREDICTED BY RF-SCORE:    0.00 PKD
ROOT
HETATM    1  C   UNL     1      -6.044  21.056  68.118  1.00  0.00    -0.385 C  
HETATM    2  C   UNL     1      -7.254  20.856  67.213  1.00  0.00    -0.350 C  
ENDROOT
BRANCH   2   3
HETATM    3  N   UNL     1      -7.677  19.451  67.098  1.00  0.00    -0.244 N  
HETATM    4  O   UNL     1      -9.081  19.769  68.887  1.00  0.00    -0.279 OA 
HETATM    5  C   UNL     1      -8.586  18.991  68.063  1.00  0.00    -0.302 C  
BRANCH   3   6
HETATM    6  C   UNL     1      -7.127  18.621  66.017  1.00  0.00    -0.267 C  
HETATM    7  C   UNL     1      -6.314  19.264  64.903  1.00  0.00    -0.267 C  
ENDBRANCH   3   6
BRANCH   5   8
HETATM    8  C   UNL     1      -9.002  17.546  68.141  1.00  0.00    -0.266 C  
HETATM    9  C   UNL     1     -10.162  17.145  67.567  1.00  0.00    -0.323 C  
BRANCH   8  10
HETATM   10  C   UNL     1      -8.187  16.470  68.842  1.00  0.00    -0.241 C  
HETATM   11  H2  UNL     1      -6.913  16.392  69.568  1.00  0.00     0.000 HD 
HETATM   12  N   UNL     1      -7.512  15.578  69.422  1.00  0.00    -0.209 NA 
HETATM   13  H1  UNL     1      -6.965  14.856  69.892  1.00  0.00     0.000 HD 
ENDBRANCH   8  10
BRANCH   9  14
HETATM   14  C   UNL     1     -10.643  15.741  67.556  1.00  0.00    -0.309 A  
HETATM   15  C   UNL     1     -10.520  14.942  66.406  1.00  0.00    -0.301 A  
HETATM   16  C   UNL     1     -11.050  13.634  66.383  1.00  0.00    -0.303 A  
HETATM   17  C   UNL     1     -11.684  13.108  67.511  1.00  0.00    -0.366 A  
HETATM   18  N   UNL     1     -10.928  12.828  65.165  1.00  0.00    -0.286 N  
HETATM   19  C   UNL     1     -11.790  13.908  68.650  1.00  0.00    -0.372 A  
HETATM   20  O   UNL     1     -11.434  11.694  65.173  1.00  0.00    -0.231 OA 
HETATM   21  O   UNL     1     -10.327  13.323  64.200  1.00  0.00    -0.407 OA 
HETATM   22  O   UNL     1     -12.236  11.854  67.620  1.00  0.00    -0.510 OA 
HETATM   23  H   UNL     1     -12.668  11.496  68.388  1.00  0.00     0.000 HD 
HETATM   24  O   UNL     1     -12.409  13.411  69.764  1.00  0.00    -0.261 OA 
HETATM   25  C   UNL     1     -11.286  15.208  68.681  1.00  0.00    -0.295 A  
HETATM   26  H   UNL     1     -12.481  13.955  70.540  1.00  0.00     0.000 HD 
ENDBRANCH   9  14
ENDBRANCH   5   8
ENDBRANCH   2   3
TORSDOF 5
ENDMDL
MODEL       64
REMARK 921   NORMALIZED FREE ENERGY PREDICTED BY IDOCK:   -5.48 KCAL/MOL
REMARK 922        TOTAL FREE ENERGY PREDICTED BY IDOCK:   -7.20 KCAL/MOL
REMARK 923 INTER-LIGAND FREE ENERGY PREDICTED BY IDOCK:   -6.99 KCAL/MOL
REMARK 924 INTRA-LIGAND FREE ENERGY PREDICTED BY IDOCK:   -0.21 KCAL/MOL
REMARK 927      BINDING AFFINITY PREDICTED BY RF-SCORE:    0.00 PKD
ROOT
HETATM    1  C   UNL     1     -10.189   7.719  66.613  1.00  0.00    -0.288 C  
HETATM    2  C   UNL     1      -9.639   8.939  65.885  1.00  0.00    -0.223 C  
ENDROOT
BRANCH   2   3
HETATM    3  N   UNL     1     -10.057  10.218  66.481  1.00  0.00    -0.222 N  
HETATM    4  O   UNL     1     -10.277  11.087  64.368  1.00  0.00    -0.297 OA 
HETATM    5  C   UNL     1     -10.303  11.273  65.590  1.00  0.00    -0.256 C  
BRANCH   3   6
HETATM    6  C   UNL     1     -10.174  10.325  67.943  1.00  0.00    -0.183 C  
HETATM    7  C   UNL     1     -11.535  10.551  68.582  1.00  0.00    -0.290 C  
ENDBRANCH   3   6
BRANCH   5   8
HETATM    8  C   UNL     1     -10.609  12.667  66.069  1.00  0.00    -0.294 C  
HETATM    9  C   UNL     1      -9.717  13.324  66.851  1.00  0.00    -0.248 C  
BRANCH   8  10
HETATM   10  C   UNL     1     -11.887  13.416  65.727  1.00  0.00    -0.377 C  
HETATM   11  H2  UNL     1     -13.038  13.220  64.837  1.00  0.00     0.000 HD 
HETATM   12  N   UNL     1     -12.947  14.036  65.443  1.00  0.00    -0.743 NA 
HETATM   13  H1  UNL     1     -13.805  14.538  65.214  1.00  0.00     0.000 HD 
ENDBRANCH   8  10
BRANCH   9  14
HETATM   14  C   UNL     1      -9.906  14.711  67.344  1.00  0.00    -0.222 A  
HETATM   15  C   UNL     1      -9.237  15.792  66.743  1.00  0.00    -0.268 A  
HETATM   16  C   UNL     1      -9.365  17.095  67.268  1.00  0.00    -0.242 A  
HETATM   17  C   UNL     1     -10.177  17.332  68.380  1.00  0.00    -0.358 A  
HETATM   18  N   UNL     1      -8.641  18.201  66.636  1.00  0.00    -0.261 N  
HETATM   19  C   UNL     1     -10.845  16.253  68.961  1.00  0.00    -0.315 A  
HETATM   20  O   UNL     1      -8.754  19.327  67.146  1.00  0.00    -0.280 OA 
HETATM   21  O   UNL     1      -7.961  17.950  65.632  1.00  0.00    -0.527 OA 
HETATM   22  O   UNL     1     -10.390  18.549  68.984  1.00  0.00    -0.478 OA 
HETATM   23  H   UNL     1     -10.942  18.710  69.740  1.00  0.00     0.000 HD 
HETATM   24  O   UNL     1     -11.643  16.466  70.052  1.00  0.00    -0.369 OA 
HETATM   25  C   UNL     1     -10.713  14.957  68.462  1.00  0.00    -0.245 A  
HETATM   26  H   UNL     1     -12.098  15.732  70.448  1.00  0.00     0.000 HD 
ENDBRANCH   9  14
ENDBRANCH   5   8
ENDBRANCH   2   3
TORSDOF 5
ENDMDL
MODEL       65
REMARK 921   NORMALIZED FREE ENERGY PREDICTED BY IDOCK:   -5.46 KCAL/MOL
REMARK 922        TOTAL FREE ENERGY PREDICTED BY IDOCK:   -7.18 KCAL/MOL
REMARK 923 INTER-LIGAND FREE ENERGY PREDICTED BY IDOCK:   -6.77 KCAL/MOL
REMARK 924 INTRA-LIGAND FREE ENERGY PREDICTED BY IDOCK:   -0.41 KCAL/MOL
REMARK 927      BINDING AFFINITY PREDICTED BY RF-SCORE:    0.00 PKD
ROOT
HETATM    1  C   UNL     1     -10.643  19.475  67.413  1.00  0.00    -0.607 C  
HETATM    2  C   UNL     1     -10.454  18.191  68.212  1.00  0.00    -0.317 C  
ENDROOT
BRANCH   2   3
HETATM    3  N   UNL     1     -10.393  16.982  67.376  1.00  0.00    -0.312 N  
HETATM    4  O   UNL     1     -11.902  15.978  68.784  1.00  0.00    -0.375 OA 
HETATM    5  C   UNL     1     -11.144  15.881  67.812  1.00  0.00    -0.288 C  
BRANCH   3   6
HETATM    6  C   UNL     1      -9.554  16.985  66.168  1.00  0.00    -0.240 C  
HETATM    7  C   UNL     1      -8.044  16.856  66.290  1.00  0.00    -0.351 C  
ENDBRANCH   3   6
BRANCH   5   8
HETATM    8  C   UNL     1     -11.071  14.542  67.127  1.00  0.00    -0.325 C  
HETATM    9  C   UNL     1     -10.024  13.716  67.368  1.00  0.00    -0.234 C  
BRANCH   8  10
HETATM   10  C   UNL     1     -12.122  14.034  66.152  1.00  0.00    -0.446 C  
HETATM   11  H2  UNL     1     -12.718  14.484  64.888  1.00  0.00     0.000 HD 
HETATM   12  N   UNL     1     -12.992  13.613  65.344  1.00  0.00    -0.699 NA 
HETATM   13  H1  UNL     1     -13.697  13.272  64.690  1.00  0.00     0.000 HD 
ENDBRANCH   8  10
BRANCH   9  14
HETATM   14  C   UNL     1      -9.876  12.364  66.774  1.00  0.00    -0.228 A  
HETATM   15  C   UNL     1      -9.632  12.199  65.399  1.00  0.00    -0.112 A  
HETATM   16  C   UNL     1      -9.570  10.908  64.833  1.00  0.00    -0.248 A  
HETATM   17  C   UNL     1      -9.727   9.776  65.636  1.00  0.00    -0.288 A  
HETATM   18  N   UNL     1      -9.335  10.763  63.394  1.00  0.00    -0.255 N  
HETATM   19  C   UNL     1      -9.958   9.953  67.001  1.00  0.00    -0.200 A  
HETATM   20  O   UNL     1      -9.318   9.612  62.928  1.00  0.00    -0.236 OA 
HETATM   21  O   UNL     1      -9.167  11.794  62.727  1.00  0.00    -0.331 OA 
HETATM   22  O   UNL     1      -9.685   8.469  65.212  1.00  0.00    -0.284 OA 
HETATM   23  H   UNL     1      -9.791   7.699  65.758  1.00  0.00     0.000 HD 
HETATM   24  O   UNL     1     -10.117   8.856  67.803  1.00  0.00    -0.185 OA 
HETATM   25  C   UNL     1     -10.039  11.224  67.571  1.00  0.00    -0.207 A  
HETATM   26  H   UNL     1     -10.273   8.976  68.732  1.00  0.00     0.000 HD 
ENDBRANCH   9  14
ENDBRANCH   5   8
ENDBRANCH   2   3
TORSDOF 5
ENDMDL
MODEL       66
REMARK 921   NORMALIZED FREE ENERGY PREDICTED BY IDOCK:   -5.40 KCAL/MOL
REMARK 922        TOTAL FREE ENERGY PREDICTED BY IDOCK:   -7.10 KCAL/MOL
REMARK 923 INTER-LIGAND FREE ENERGY PREDICTED BY IDOCK:   -6.61 KCAL/MOL
REMARK 924 INTRA-LIGAND FREE ENERGY PREDICTED BY IDOCK:   -0.48 KCAL/MOL
REMARK 927      BINDING AFFINITY PREDICTED BY RF-SCORE:    0.00 PKD
ROOT
HETATM    1  C   UNL     1     -10.923   7.240  73.201  1.00  0.00    -0.384 C  
HETATM    2  C   UNL     1     -11.864   7.453  72.022  1.00  0.00    -0.298 C  
ENDROOT
BRANCH   2   3
HETATM    3  N   UNL     1     -11.233   8.130  70.879  1.00  0.00    -0.263 N  
HETATM    4  O   UNL     1     -11.915  10.143  71.745  1.00  0.00    -0.319 OA 
HETATM    5  C   UNL     1     -11.380   9.524  70.818  1.00  0.00    -0.321 C  
BRANCH   3   6
HETATM    6  C   UNL     1     -10.515   7.330  69.876  1.00  0.00    -0.225 C  
HETATM    7  C   UNL     1      -9.045   7.000  70.078  1.00  0.00    -0.145 C  
ENDBRANCH   3   6
BRANCH   5   8
HETATM    8  C   UNL     1     -10.899  10.327  69.640  1.00  0.00    -0.311 C  
HETATM    9  C   UNL     1     -11.788  10.776  68.719  1.00  0.00    -0.250 C  
BRANCH   8  10
HETATM   10  C   UNL     1      -9.441  10.683  69.399  1.00  0.00    -0.078 C  
HETATM   11  H2  UNL     1      -8.685  11.547  68.483  1.00  0.00     0.000 HD 
HETATM   12  N   UNL     1      -8.232  10.979  69.198  1.00  0.00    -0.336 NA 
HETATM   13  H1  UNL     1      -7.254  11.218  69.037  1.00  0.00     0.000 HD 
ENDBRANCH   8  10
BRANCH   9  14
HETATM   14  C   UNL     1     -11.422  11.605  67.544  1.00  0.00    -0.360 A  
HETATM   15  C   UNL     1     -10.848  11.026  66.399  1.00  0.00    -0.253 A  
HETATM   16  C   UNL     1     -10.434  11.834  65.319  1.00  0.00    -0.274 A  
HETATM   17  C   UNL     1     -10.610  13.219  65.364  1.00  0.00    -0.296 A  
HETATM   18  N   UNL     1      -9.820  11.208  64.145  1.00  0.00    -0.266 N  
HETATM   19  C   UNL     1     -11.191  13.781  66.502  1.00  0.00    -0.312 A  
HETATM   20  O   UNL     1      -9.440  11.955  63.229  1.00  0.00    -0.269 OA 
HETATM   21  O   UNL     1      -9.715   9.974  64.134  1.00  0.00    -0.282 OA 
HETATM   22  O   UNL     1     -10.256  14.114  64.383  1.00  0.00    -0.646 OA 
HETATM   23  H   UNL     1     -10.376  15.056  64.413  1.00  0.00     0.000 HD 
HETATM   24  O   UNL     1     -11.370  15.136  66.566  1.00  0.00    -0.324 OA 
HETATM   25  C   UNL     1     -11.589  12.995  67.584  1.00  0.00    -0.403 A  
HETATM   26  H   UNL     1     -11.766  15.519  67.340  1.00  0.00     0.000 HD 
ENDBRANCH   9  14
ENDBRANCH   5   8
ENDBRANCH   2   3
TORSDOF 5
ENDMDL
MODEL       67
REMARK 921   NORMALIZED FREE ENERGY PREDICTED BY IDOCK:   -5.39 KCAL/MOL
REMARK 922        TOTAL FREE ENERGY PREDICTED BY IDOCK:   -7.08 KCAL/MOL
REMARK 923 INTER-LIGAND FREE ENERGY PREDICTED BY IDOCK:   -6.80 KCAL/MOL
REMARK 924 INTRA-LIGAND FREE ENERGY PREDICTED BY IDOCK:   -0.27 KCAL/MOL
REMARK 927      BINDING AFFINITY PREDICTED BY RF-SCORE:    0.00 PKD
ROOT
HETATM    1  C   UNL     1      -7.370   6.880  65.877  1.00  0.00    -0.079 C  
HETATM    2  C   UNL     1      -8.658   7.610  65.518  1.00  0.00    -0.092 C  
ENDROOT
BRANCH   2   3
HETATM    3  N   UNL     1      -9.411   8.087  66.689  1.00  0.00    -0.197 N  
HETATM    4  O   UNL     1      -8.679  10.216  66.244  1.00  0.00    -0.137 OA 
HETATM    5  C   UNL     1      -9.294   9.450  66.996  1.00  0.00    -0.148 C  
BRANCH   3   6
HETATM    6  C   UNL     1     -10.213   7.130  67.466  1.00  0.00    -0.212 C  
HETATM    7  C   UNL     1     -10.840   5.927  66.778  1.00  0.00    -0.347 C  
ENDBRANCH   3   6
BRANCH   5   8
HETATM    8  C   UNL     1      -9.903  10.045  68.237  1.00  0.00    -0.163 C  
HETATM    9  C   UNL     1     -11.040  10.778  68.148  1.00  0.00    -0.337 C  
BRANCH   8  10
HETATM   10  C   UNL     1      -9.317   9.876  69.630  1.00  0.00    -0.228 C  
HETATM   11  H2  UNL     1      -9.798   9.972  71.014  1.00  0.00     0.000 HD 
HETATM   12  N   UNL     1      -8.832   9.736  70.785  1.00  0.00    -0.364 NA 
HETATM   13  H1  UNL     1      -8.439   9.622  71.719  1.00  0.00     0.000 HD 
ENDBRANCH   8  10
BRANCH   9  14
HETATM   14  C   UNL     1     -11.739  11.374  69.313  1.00  0.00    -0.404 A  
HETATM   15  C   UNL     1     -11.802  12.768  69.484  1.00  0.00    -0.379 A  
HETATM   16  C   UNL     1     -12.404  13.321  70.635  1.00  0.00    -0.339 A  
HETATM   17  C   UNL     1     -12.965  12.490  71.608  1.00  0.00    -0.302 A  
HETATM   18  N   UNL     1     -12.438  14.776  70.801  1.00  0.00    -0.314 N  
HETATM   19  C   UNL     1     -12.906  11.108  71.420  1.00  0.00    -0.439 A  
HETATM   20  O   UNL     1     -12.947  15.224  71.841  1.00  0.00    -0.331 OA 
HETATM   21  O   UNL     1     -11.959  15.475  69.897  1.00  0.00    -0.324 OA 
HETATM   22  O   UNL     1     -13.581  12.900  72.766  1.00  0.00    -0.672 OA 
HETATM   23  H   UNL     1     -13.963  12.335  73.428  1.00  0.00     0.000 HD 
HETATM   24  O   UNL     1     -13.449  10.279  72.363  1.00  0.00    -0.618 OA 
HETATM   25  C   UNL     1     -12.299  10.548  70.296  1.00  0.00    -0.377 A  
HETATM   26  H   UNL     1     -13.409   9.339  72.235  1.00  0.00     0.000 HD 
ENDBRANCH   9  14
ENDBRANCH   5   8
ENDBRANCH   2   3
TORSDOF 5
ENDMDL
MODEL       68
REMARK 921   NORMALIZED FREE ENERGY PREDICTED BY IDOCK:   -5.37 KCAL/MOL
REMARK 922        TOTAL FREE ENERGY PREDICTED BY IDOCK:   -7.05 KCAL/MOL
REMARK 923 INTER-LIGAND FREE ENERGY PREDICTED BY IDOCK:   -7.42 KCAL/MOL
REMARK 924 INTRA-LIGAND FREE ENERGY PREDICTED BY IDOCK:    0.37 KCAL/MOL
REMARK 927      BINDING AFFINITY PREDICTED BY RF-SCORE:    0.00 PKD
ROOT
HETATM    1  C   UNL     1      -9.639   8.022  73.269  1.00  0.00    -0.322 C  
HETATM    2  C   UNL     1     -10.699   7.986  72.175  1.00  0.00    -0.276 C  
ENDROOT
BRANCH   2   3
HETATM    3  N   UNL     1     -10.402   8.873  71.039  1.00  0.00    -0.231 N  
HETATM    4  O   UNL     1     -12.301  10.067  71.525  1.00  0.00    -0.369 OA 
HETATM    5  C   UNL     1     -11.342   9.879  70.769  1.00  0.00    -0.353 C  
BRANCH   3   6
HETATM    6  C   UNL     1      -9.177   8.652  70.256  1.00  0.00    -0.166 C  
HETATM    7  C   UNL     1      -7.976   9.564  70.451  1.00  0.00    -0.200 C  
ENDBRANCH   3   6
BRANCH   5   8
HETATM    8  C   UNL     1     -11.230  10.771  69.561  1.00  0.00    -0.342 C  
HETATM    9  C   UNL     1     -11.491  12.097  69.674  1.00  0.00    -0.308 C  
BRANCH   8  10
HETATM   10  C   UNL     1     -10.833  10.277  68.179  1.00  0.00    -0.265 C  
HETATM   11  H2  UNL     1     -11.407   9.403  67.147  1.00  0.00     0.000 HD 
HETATM   12  N   UNL     1     -10.505   9.866  67.034  1.00  0.00    -0.240 NA 
HETATM   13  H1  UNL     1     -10.238   9.535  66.107  1.00  0.00     0.000 HD 
ENDBRANCH   8  10
BRANCH   9  14
HETATM   14  C   UNL     1     -11.375  13.066  68.556  1.00  0.00    -0.323 A  
HETATM   15  C   UNL     1     -12.030  12.844  67.333  1.00  0.00    -0.360 A  
HETATM   16  C   UNL     1     -11.850  13.733  66.252  1.00  0.00    -0.398 A  
HETATM   17  C   UNL     1     -11.035  14.859  66.392  1.00  0.00    -0.336 A  
HETATM   18  N   UNL     1     -12.528  13.468  64.981  1.00  0.00    -0.421 N  
HETATM   19  C   UNL     1     -10.399  15.075  67.616  1.00  0.00    -0.243 A  
HETATM   20  O   UNL     1     -12.320  14.257  64.044  1.00  0.00    -0.641 OA 
HETATM   21  O   UNL     1     -13.268  12.477  64.913  1.00  0.00    -0.787 OA 
HETATM   22  O   UNL     1     -10.782  15.801  65.424  1.00  0.00    -0.368 OA 
HETATM   23  H   UNL     1     -10.228  16.568  65.519  1.00  0.00     0.000 HD 
HETATM   24  O   UNL     1      -9.595  16.171  67.770  1.00  0.00    -0.221 OA 
HETATM   25  C   UNL     1     -10.554  14.194  68.686  1.00  0.00    -0.253 A  
HETATM   26  H   UNL     1      -9.163  16.319  68.603  1.00  0.00     0.000 HD 
ENDBRANCH   9  14
ENDBRANCH   5   8
ENDBRANCH   2   3
TORSDOF 5
ENDMDL
MODEL       69
REMARK 921   NORMALIZED FREE ENERGY PREDICTED BY IDOCK:   -5.36 KCAL/MOL
REMARK 922        TOTAL FREE ENERGY PREDICTED BY IDOCK:   -7.04 KCAL/MOL
REMARK 923 INTER-LIGAND FREE ENERGY PREDICTED BY IDOCK:   -6.59 KCAL/MOL
REMARK 924 INTRA-LIGAND FREE ENERGY PREDICTED BY IDOCK:   -0.45 KCAL/MOL
REMARK 927      BINDING AFFINITY PREDICTED BY RF-SCORE:    0.00 PKD
ROOT
HETATM    1  C   UNL     1      -8.267   7.974  64.316  1.00  0.00    -0.070 C  
HETATM    2  C   UNL     1      -8.062   8.376  65.771  1.00  0.00    -0.117 C  
ENDROOT
BRANCH   2   3
HETATM    3  N   UNL     1      -9.179   9.156  66.329  1.00  0.00    -0.178 N  
HETATM    4  O   UNL     1      -8.075  11.082  65.744  1.00  0.00    -0.135 OA 
HETATM    5  C   UNL     1      -9.039  10.552  66.309  1.00  0.00    -0.164 C  
BRANCH   3   6
HETATM    6  C   UNL     1     -10.344   8.449  66.880  1.00  0.00    -0.307 C  
HETATM    7  C   UNL     1     -10.282   7.855  68.279  1.00  0.00    -0.240 C  
ENDBRANCH   3   6
BRANCH   5   8
HETATM    8  C   UNL     1     -10.042  11.464  66.963  1.00  0.00    -0.237 C  
HETATM    9  C   UNL     1      -9.834  11.901  68.229  1.00  0.00    -0.199 C  
BRANCH   8  10
HETATM   10  C   UNL     1     -11.313  11.947  66.283  1.00  0.00    -0.334 C  
HETATM   11  H2  UNL     1     -11.691  13.023  65.357  1.00  0.00     0.000 HD 
HETATM   12  N   UNL     1     -12.366  12.349  65.718  1.00  0.00    -0.603 NA 
HETATM   13  H1  UNL     1     -13.218  12.673  65.261  1.00  0.00     0.000 HD 
ENDBRANCH   8  10
BRANCH   9  14
HETATM   14  C   UNL     1     -10.741  12.829  68.949  1.00  0.00    -0.199 A  
HETATM   15  C   UNL     1     -11.555  12.377  70.002  1.00  0.00    -0.216 A  
HETATM   16  C   UNL     1     -12.468  13.252  70.627  1.00  0.00    -0.298 A  
HETATM   17  C   UNL     1     -12.559  14.587  70.223  1.00  0.00    -0.323 A  
HETATM   18  N   UNL     1     -13.322  12.751  71.708  1.00  0.00    -0.406 N  
HETATM   19  C   UNL     1     -11.736  15.026  69.184  1.00  0.00    -0.319 A  
HETATM   20  O   UNL     1     -14.134  13.543  72.212  1.00  0.00    -0.531 OA 
HETATM   21  O   UNL     1     -13.183  11.570  72.056  1.00  0.00    -0.509 OA 
HETATM   22  O   UNL     1     -13.399  15.538  70.750  1.00  0.00    -0.665 OA 
HETATM   23  H   UNL     1     -13.460  16.446  70.476  1.00  0.00     0.000 HD 
HETATM   24  O   UNL     1     -11.812  16.329  68.774  1.00  0.00    -0.278 OA 
HETATM   25  C   UNL     1     -10.842  14.167  68.546  1.00  0.00    -0.264 A  
HETATM   26  H   UNL     1     -11.252  16.629  68.067  1.00  0.00     0.000 HD 
ENDBRANCH   9  14
ENDBRANCH   5   8
ENDBRANCH   2   3
TORSDOF 5
ENDMDL
MODEL       70
REMARK 921   NORMALIZED FREE ENERGY PREDICTED BY IDOCK:   -5.36 KCAL/MOL
REMARK 922        TOTAL FREE ENERGY PREDICTED BY IDOCK:   -7.04 KCAL/MOL
REMARK 923 INTER-LIGAND FREE ENERGY PREDICTED BY IDOCK:   -7.36 KCAL/MOL
REMARK 924 INTRA-LIGAND FREE ENERGY PREDICTED BY IDOCK:    0.32 KCAL/MOL
REMARK 927      BINDING AFFINITY PREDICTED BY RF-SCORE:    0.00 PKD
ROOT
HETATM    1  C   UNL     1      -7.400  20.411  68.218  1.00  0.00    -0.153 C  
HETATM    2  C   UNL     1      -7.937  20.336  66.794  1.00  0.00    -0.283 C  
ENDROOT
BRANCH   2   3
HETATM    3  N   UNL     1      -8.304  18.974  66.375  1.00  0.00    -0.305 N  
HETATM    4  O   UNL     1     -10.498  19.465  66.835  1.00  0.00    -0.402 OA 
HETATM    5  C   UNL     1      -9.656  18.624  66.499  1.00  0.00    -0.337 C  
BRANCH   3   6
HETATM    6  C   UNL     1      -7.257  18.069  65.877  1.00  0.00    -0.243 C  
HETATM    7  C   UNL     1      -5.800  18.503  65.905  1.00  0.00    -0.218 C  
ENDBRANCH   3   6
BRANCH   5   8
HETATM    8  C   UNL     1     -10.147  17.226  66.230  1.00  0.00    -0.323 C  
HETATM    9  C   UNL     1      -9.926  16.246  67.139  1.00  0.00    -0.257 C  
BRANCH   8  10
HETATM   10  C   UNL     1     -10.897  16.822  64.970  1.00  0.00    -0.117 C  
HETATM   11  H2  UNL     1     -10.634  16.801  63.526  1.00  0.00     0.000 HD 
HETATM   12  N   UNL     1     -11.518  16.488  63.926  1.00  0.00    -1.599 NA 
HETATM   13  H1  UNL     1     -12.021  16.216  63.081  1.00  0.00     0.000 HD 
ENDBRANCH   8  10
BRANCH   9  14
HETATM   14  C   UNL     1     -10.400  14.847  66.987  1.00  0.00    -0.264 A  
HETATM   15  C   UNL     1     -11.079  14.195  68.031  1.00  0.00    -0.285 A  
HETATM   16  C   UNL     1     -11.457  12.842  67.903  1.00  0.00    -0.317 A  
HETATM   17  C   UNL     1     -11.180  12.138  66.728  1.00  0.00    -0.322 A  
HETATM   18  N   UNL     1     -12.145  12.178  69.013  1.00  0.00    -0.226 N  
HETATM   19  C   UNL     1     -10.515  12.801  65.695  1.00  0.00    -0.278 A  
HETATM   20  O   UNL     1     -12.434  10.978  68.875  1.00  0.00    -0.460 OA 
HETATM   21  O   UNL     1     -12.400  12.850  70.022  1.00  0.00    -0.234 OA 
HETATM   22  O   UNL     1     -11.497  10.825  66.476  1.00  0.00    -0.104 OA 
HETATM   23  H   UNL     1     -11.309  10.346  65.676  1.00  0.00     0.000 HD 
HETATM   24  O   UNL     1     -10.234  12.128  64.537  1.00  0.00    -0.280 OA 
HETATM   25  C   UNL     1     -10.121  14.134  65.815  1.00  0.00    -0.352 A  
HETATM   26  H   UNL     1      -9.782  12.579  63.834  1.00  0.00     0.000 HD 
ENDBRANCH   9  14
ENDBRANCH   5   8
ENDBRANCH   2   3
TORSDOF 5
ENDMDL
MODEL       71
REMARK 921   NORMALIZED FREE ENERGY PREDICTED BY IDOCK:   -5.34 KCAL/MOL
REMARK 922        TOTAL FREE ENERGY PREDICTED BY IDOCK:   -7.02 KCAL/MOL
REMARK 923 INTER-LIGAND FREE ENERGY PREDICTED BY IDOCK:   -6.67 KCAL/MOL
REMARK 924 INTRA-LIGAND FREE ENERGY PREDICTED BY IDOCK:   -0.36 KCAL/MOL
REMARK 927      BINDING AFFINITY PREDICTED BY RF-SCORE:    0.00 PKD
ROOT
HETATM    1  C   UNL     1     -10.501   7.063  73.032  1.00  0.00    -0.307 C  
HETATM    2  C   UNL     1      -9.904   8.457  72.890  1.00  0.00    -0.162 C  
ENDROOT
BRANCH   2   3
HETATM    3  N   UNL     1      -9.649   8.850  71.495  1.00  0.00    -0.283 N  
HETATM    4  O   UNL     1     -11.737   9.798  71.419  1.00  0.00    -0.365 OA 
HETATM    5  C   UNL     1     -10.701   9.488  70.821  1.00  0.00    -0.321 C  
BRANCH   3   6
HETATM    6  C   UNL     1      -8.343   8.544  70.891  1.00  0.00    -0.146 C  
HETATM    7  C   UNL     1      -8.116   7.205  70.207  1.00  0.00    -0.118 C  
ENDBRANCH   3   6
BRANCH   5   8
HETATM    8  C   UNL     1     -10.622   9.825  69.356  1.00  0.00    -0.248 C  
HETATM    9  C   UNL     1     -10.405  11.106  68.968  1.00  0.00    -0.214 C  
BRANCH   8  10
HETATM   10  C   UNL     1     -10.773   8.799  68.244  1.00  0.00    -0.067 C  
HETATM   11  H2  UNL     1     -10.236   7.468  67.934  1.00  0.00     0.000 HD 
HETATM   12  N   UNL     1     -10.897   7.948  67.323  1.00  0.00    -0.518 NA 
HETATM   13  H1  UNL     1     -10.998   7.260  66.577  1.00  0.00     0.000 HD 
ENDBRANCH   8  10
BRANCH   9  14
HETATM   14  C   UNL     1     -10.274  11.536  67.554  1.00  0.00    -0.207 A  
HETATM   15  C   UNL     1     -11.262  12.328  66.943  1.00  0.00    -0.367 A  
HETATM   16  C   UNL     1     -11.164  12.666  65.577  1.00  0.00    -0.302 A  
HETATM   17  C   UNL     1     -10.071  12.238  64.818  1.00  0.00    -0.246 A  
HETATM   18  N   UNL     1     -12.217  13.475  64.957  1.00  0.00    -0.395 N  
HETATM   19  C   UNL     1      -9.091  11.462  65.440  1.00  0.00    -0.103 A  
HETATM   20  O   UNL     1     -12.111  13.726  63.746  1.00  0.00    -0.494 OA 
HETATM   21  O   UNL     1     -13.150  13.861  65.676  1.00  0.00    -0.625 OA 
HETATM   22  O   UNL     1      -9.855  12.502  63.487  1.00  0.00    -0.638 OA 
HETATM   23  H   UNL     1      -9.112  12.211  62.971  1.00  0.00     0.000 HD 
HETATM   24  O   UNL     1      -8.015  11.032  64.713  1.00  0.00    -0.354 OA 
HETATM   25  C   UNL     1      -9.185  11.105  66.785  1.00  0.00    -0.183 A  
HETATM   26  H   UNL     1      -7.348  10.504  65.136  1.00  0.00     0.000 HD 
ENDBRANCH   9  14
ENDBRANCH   5   8
ENDBRANCH   2   3
TORSDOF 5
ENDMDL
MODEL       72
REMARK 921   NORMALIZED FREE ENERGY PREDICTED BY IDOCK:   -5.33 KCAL/MOL
REMARK 922        TOTAL FREE ENERGY PREDICTED BY IDOCK:   -7.00 KCAL/MOL
REMARK 923 INTER-LIGAND FREE ENERGY PREDICTED BY IDOCK:   -6.56 KCAL/MOL
REMARK 924 INTRA-LIGAND FREE ENERGY PREDICTED BY IDOCK:   -0.44 KCAL/MOL
REMARK 927      BINDING AFFINITY PREDICTED BY RF-SCORE:    0.00 PKD
ROOT
HETATM    1  C   UNL     1      -5.732  10.239  71.530  1.00  0.00     0.118 C  
HETATM    2  C   UNL     1      -5.791   9.726  70.097  1.00  0.00    -0.047 C  
ENDROOT
BRANCH   2   3
HETATM    3  N   UNL     1      -6.301  10.718  69.137  1.00  0.00    -0.051 N  
HETATM    4  O   UNL     1      -8.412   9.869  69.439  1.00  0.00    -0.137 OA 
HETATM    5  C   UNL     1      -7.669  10.651  68.834  1.00  0.00    -0.121 C  
BRANCH   3   6
HETATM    6  C   UNL     1      -5.370  11.691  68.546  1.00  0.00    -0.042 C  
HETATM    7  C   UNL     1      -5.280  13.099  69.114  1.00  0.00    -0.069 C  
ENDBRANCH   3   6
BRANCH   5   8
HETATM    8  C   UNL     1      -8.296  11.517  67.775  1.00  0.00    -0.136 C  
HETATM    9  C   UNL     1      -8.904  12.678  68.123  1.00  0.00    -0.194 C  
BRANCH   8  10
HETATM   10  C   UNL     1      -8.295  11.174  66.293  1.00  0.00    -0.163 C  
HETATM   11  H2  UNL     1      -8.426   9.962  65.474  1.00  0.00     0.000 HD 
HETATM   12  N   UNL     1      -8.295  10.888  65.066  1.00  0.00    -0.369 NA 
HETATM   13  H1  UNL     1      -8.294  10.657  64.072  1.00  0.00     0.000 HD 
ENDBRANCH   8  10
BRANCH   9  14
HETATM   14  C   UNL     1      -9.518  13.619  67.154  1.00  0.00    -0.244 A  
HETATM   15  C   UNL     1     -10.671  13.265  66.431  1.00  0.00    -0.291 A  
HETATM   16  C   UNL     1     -11.201  14.138  65.457  1.00  0.00    -0.317 A  
HETATM   17  C   UNL     1     -10.599  15.376  65.215  1.00  0.00    -0.428 A  
HETATM   18  N   UNL     1     -12.390  13.738  64.701  1.00  0.00    -0.390 N  
HETATM   19  C   UNL     1      -9.462  15.720  65.948  1.00  0.00    -0.342 A  
HETATM   20  O   UNL     1     -12.809  14.519  63.831  1.00  0.00    -0.685 OA 
HETATM   21  O   UNL     1     -12.910  12.647  64.973  1.00  0.00    -0.765 OA 
HETATM   22  O   UNL     1     -11.017  16.315  64.302  1.00  0.00    -1.086 OA 
HETATM   23  H   UNL     1     -10.608  17.157  64.138  1.00  0.00     0.000 HD 
HETATM   24  O   UNL     1      -8.859  16.927  65.723  1.00  0.00    -0.522 OA 
HETATM   25  C   UNL     1      -8.918  14.859  66.901  1.00  0.00    -0.277 A  
HETATM   26  H   UNL     1      -8.085  17.162  66.222  1.00  0.00     0.000 HD 
ENDBRANCH   9  14
ENDBRANCH   5   8
ENDBRANCH   2   3
TORSDOF 5
ENDMDL
MODEL       73
REMARK 921   NORMALIZED FREE ENERGY PREDICTED BY IDOCK:   -5.32 KCAL/MOL
REMARK 922        TOTAL FREE ENERGY PREDICTED BY IDOCK:   -7.00 KCAL/MOL
REMARK 923 INTER-LIGAND FREE ENERGY PREDICTED BY IDOCK:   -6.95 KCAL/MOL
REMARK 924 INTRA-LIGAND FREE ENERGY PREDICTED BY IDOCK:   -0.05 KCAL/MOL
REMARK 927      BINDING AFFINITY PREDICTED BY RF-SCORE:    0.00 PKD
ROOT
HETATM    1  C   UNL     1     -11.136  10.704  70.136  1.00  0.00    -0.341 C  
HETATM    2  C   UNL     1     -11.744  11.342  68.893  1.00  0.00    -0.343 C  
ENDROOT
BRANCH   2   3
HETATM    3  N   UNL     1     -10.936  12.442  68.341  1.00  0.00    -0.227 N  
HETATM    4  O   UNL     1     -12.452  13.935  69.203  1.00  0.00    -0.231 OA 
HETATM    5  C   UNL     1     -11.441  13.738  68.518  1.00  0.00    -0.307 C  
BRANCH   3   6
HETATM    6  C   UNL     1      -9.684  12.130  67.637  1.00  0.00    -0.188 C  
HETATM    7  C   UNL     1      -9.721  11.380  66.315  1.00  0.00    -0.239 C  
ENDBRANCH   3   6
BRANCH   5   8
HETATM    8  C   UNL     1     -10.787  14.942  67.893  1.00  0.00    -0.276 C  
HETATM    9  C   UNL     1     -10.711  16.105  68.585  1.00  0.00    -0.295 C  
BRANCH   8  10
HETATM   10  C   UNL     1     -10.184  14.946  66.497  1.00  0.00    -0.275 C  
HETATM   11  H2  UNL     1     -10.170  14.050  65.333  1.00  0.00     0.000 HD 
HETATM   12  N   UNL     1      -9.685  14.948  65.340  1.00  0.00    -0.455 NA 
HETATM   13  H1  UNL     1      -9.281  14.951  64.403  1.00  0.00     0.000 HD 
ENDBRANCH   8  10
BRANCH   9  14
HETATM   14  C   UNL     1     -10.055  17.335  68.075  1.00  0.00    -0.324 A  
HETATM   15  C   UNL     1      -8.825  17.770  68.599  1.00  0.00    -0.263 A  
HETATM   16  C   UNL     1      -8.249  18.981  68.161  1.00  0.00    -0.314 A  
HETATM   17  C   UNL     1      -8.883  19.753  67.184  1.00  0.00    -0.323 A  
HETATM   18  N   UNL     1      -6.977  19.424  68.737  1.00  0.00    -0.318 N  
HETATM   19  C   UNL     1     -10.098  19.304  66.663  1.00  0.00    -0.399 A  
HETATM   20  O   UNL     1      -6.518  20.511  68.349  1.00  0.00    -0.299 OA 
HETATM   21  O   UNL     1      -6.434  18.692  69.576  1.00  0.00    -0.269 OA 
HETATM   22  O   UNL     1      -8.428  20.944  66.669  1.00  0.00    -0.520 OA 
HETATM   23  H   UNL     1      -8.859  21.468  66.004  1.00  0.00     0.000 HD 
HETATM   24  O   UNL     1     -10.735  20.047  65.707  1.00  0.00    -0.432 OA 
HETATM   25  C   UNL     1     -10.687  18.117  67.100  1.00  0.00    -0.309 A  
HETATM   26  H   UNL     1     -11.561  19.742  65.352  1.00  0.00     0.000 HD 
ENDBRANCH   9  14
ENDBRANCH   5   8
ENDBRANCH   2   3
TORSDOF 5
ENDMDL
MODEL       74
REMARK 921   NORMALIZED FREE ENERGY PREDICTED BY IDOCK:   -5.31 KCAL/MOL
REMARK 922        TOTAL FREE ENERGY PREDICTED BY IDOCK:   -6.98 KCAL/MOL
REMARK 923 INTER-LIGAND FREE ENERGY PREDICTED BY IDOCK:   -6.65 KCAL/MOL
REMARK 924 INTRA-LIGAND FREE ENERGY PREDICTED BY IDOCK:   -0.34 KCAL/MOL
REMARK 927      BINDING AFFINITY PREDICTED BY RF-SCORE:    0.00 PKD
ROOT
HETATM    1  C   UNL     1     -10.724   7.168  73.027  1.00  0.00    -0.359 C  
HETATM    2  C   UNL     1     -10.515   8.590  72.521  1.00  0.00    -0.233 C  
ENDROOT
BRANCH   2   3
HETATM    3  N   UNL     1     -10.960   8.792  71.133  1.00  0.00    -0.249 N  
HETATM    4  O   UNL     1      -8.762   8.800  70.472  1.00  0.00    -0.144 OA 
HETATM    5  C   UNL     1      -9.952   8.946  70.170  1.00  0.00    -0.185 C  
BRANCH   3   6
HETATM    6  C   UNL     1     -12.399   8.839  70.839  1.00  0.00    -0.071 C  
HETATM    7  C   UNL     1     -13.331   9.651  71.726  1.00  0.00    -0.505 C  
ENDBRANCH   3   6
BRANCH   5   8
HETATM    8  C   UNL     1     -10.263   9.288  68.737  1.00  0.00    -0.223 C  
HETATM    9  C   UNL     1     -10.310  10.585  68.347  1.00  0.00    -0.199 C  
BRANCH   8  10
HETATM   10  C   UNL     1     -10.536   8.249  67.661  1.00  0.00    -0.235 C  
HETATM   11  H2  UNL     1     -11.650   7.893  66.773  1.00  0.00     0.000 HD 
HETATM   12  N   UNL     1     -10.763   7.389  66.768  1.00  0.00    -0.497 NA 
HETATM   13  H1  UNL     1     -10.946   6.692  66.046  1.00  0.00     0.000 HD 
ENDBRANCH   8  10
BRANCH   9  14
HETATM   14  C   UNL     1     -10.571  11.027  66.954  1.00  0.00    -0.307 A  
HETATM   15  C   UNL     1      -9.665  10.733  65.920  1.00  0.00    -0.272 A  
HETATM   16  C   UNL     1      -9.886  11.224  64.615  1.00  0.00    -0.268 A  
HETATM   17  C   UNL     1     -11.019  11.989  64.330  1.00  0.00    -0.346 A  
HETATM   18  N   UNL     1      -8.917  10.922  63.559  1.00  0.00    -0.175 N  
HETATM   19  C   UNL     1     -11.916  12.264  65.363  1.00  0.00    -0.332 A  
HETATM   20  O   UNL     1      -9.129  11.397  62.431  1.00  0.00    -0.296 OA 
HETATM   21  O   UNL     1      -7.944  10.211  63.849  1.00  0.00    -0.153 OA 
HETATM   22  O   UNL     1     -11.352  12.521  63.106  1.00  0.00    -0.693 OA 
HETATM   23  H   UNL     1     -12.123  13.041  62.912  1.00  0.00     0.000 HD 
HETATM   24  O   UNL     1     -13.031  13.014  65.103  1.00  0.00    -0.729 OA 
HETATM   25  C   UNL     1     -11.701  11.800  66.661  1.00  0.00    -0.174 A  
HETATM   26  H   UNL     1     -13.642  13.201  65.806  1.00  0.00     0.000 HD 
ENDBRANCH   9  14
ENDBRANCH   5   8
ENDBRANCH   2   3
TORSDOF 5
ENDMDL
MODEL       75
REMARK 921   NORMALIZED FREE ENERGY PREDICTED BY IDOCK:   -5.28 KCAL/MOL
REMARK 922        TOTAL FREE ENERGY PREDICTED BY IDOCK:   -6.94 KCAL/MOL
REMARK 923 INTER-LIGAND FREE ENERGY PREDICTED BY IDOCK:   -7.06 KCAL/MOL
REMARK 924 INTRA-LIGAND FREE ENERGY PREDICTED BY IDOCK:    0.12 KCAL/MOL
REMARK 927      BINDING AFFINITY PREDICTED BY RF-SCORE:    0.00 PKD
ROOT
HETATM    1  C   UNL     1     -10.603   4.932  72.687  1.00  0.00    -0.272 C  
HETATM    2  C   UNL     1     -11.076   6.308  73.139  1.00  0.00    -0.171 C  
ENDROOT
BRANCH   2   3
HETATM    3  N   UNL     1     -11.205   7.277  72.040  1.00  0.00    -0.243 N  
HETATM    4  O   UNL     1      -9.425   8.438  72.907  1.00  0.00    -0.261 OA 
HETATM    5  C   UNL     1     -10.327   8.371  72.064  1.00  0.00    -0.304 C  
BRANCH   3   6
HETATM    6  C   UNL     1     -12.232   7.063  71.010  1.00  0.00    -0.374 C  
HETATM    7  C   UNL     1     -13.696   7.314  71.332  1.00  0.00    -0.404 C  
ENDBRANCH   3   6
BRANCH   5   8
HETATM    8  C   UNL     1     -10.435   9.502  71.077  1.00  0.00    -0.377 C  
HETATM    9  C   UNL     1     -11.584  10.216  70.989  1.00  0.00    -0.462 C  
BRANCH   8  10
HETATM   10  C   UNL     1      -9.310   9.917  70.142  1.00  0.00    -0.149 C  
HETATM   11  H2  UNL     1      -8.648   9.367  68.952  1.00  0.00     0.000 HD 
HETATM   12  N   UNL     1      -8.378  10.260  69.366  1.00  0.00    -0.173 NA 
HETATM   13  H1  UNL     1      -7.623  10.538  68.738  1.00  0.00     0.000 HD 
ENDBRANCH   8  10
BRANCH   9  14
HETATM   14  C   UNL     1     -11.779  11.371  70.078  1.00  0.00    -0.416 A  
HETATM   15  C   UNL     1     -11.585  11.241  68.692  1.00  0.00    -0.384 A  
HETATM   16  C   UNL     1     -11.699  12.364  67.845  1.00  0.00    -0.360 A  
HETATM   17  C   UNL     1     -12.029  13.616  68.371  1.00  0.00    -0.356 A  
HETATM   18  N   UNL     1     -11.471  12.208  66.406  1.00  0.00    -0.363 N  
HETATM   19  C   UNL     1     -12.230  13.729  69.748  1.00  0.00    -0.310 A  
HETATM   20  O   UNL     1     -11.550  13.225  65.698  1.00  0.00    -0.317 OA 
HETATM   21  O   UNL     1     -11.215  11.073  65.980  1.00  0.00    -0.078 OA 
HETATM   22  O   UNL     1     -12.174  14.782  67.658  1.00  0.00    -0.563 OA 
HETATM   23  H   UNL     1     -12.399  15.633  68.016  1.00  0.00     0.000 HD 
HETATM   24  O   UNL     1     -12.552  14.947  70.282  1.00  0.00    -0.411 OA 
HETATM   25  C   UNL     1     -12.104  12.630  70.598  1.00  0.00    -0.315 A  
HETATM   26  H   UNL     1     -12.690  15.024  71.218  1.00  0.00     0.000 HD 
ENDBRANCH   9  14
ENDBRANCH   5   8
ENDBRANCH   2   3
TORSDOF 5
ENDMDL
MODEL       76
REMARK 921   NORMALIZED FREE ENERGY PREDICTED BY IDOCK:   -5.26 KCAL/MOL
REMARK 922        TOTAL FREE ENERGY PREDICTED BY IDOCK:   -6.91 KCAL/MOL
REMARK 923 INTER-LIGAND FREE ENERGY PREDICTED BY IDOCK:   -7.19 KCAL/MOL
REMARK 924 INTRA-LIGAND FREE ENERGY PREDICTED BY IDOCK:    0.28 KCAL/MOL
REMARK 927      BINDING AFFINITY PREDICTED BY RF-SCORE:    0.00 PKD
ROOT
HETATM    1  C   UNL     1     -10.265  10.007  65.885  1.00  0.00    -0.275 C  
HETATM    2  C   UNL     1     -10.860  10.972  66.903  1.00  0.00    -0.269 C  
ENDROOT
BRANCH   2   3
HETATM    3  N   UNL     1     -10.819  12.379  66.474  1.00  0.00    -0.243 N  
HETATM    4  O   UNL     1      -8.572  12.415  66.936  1.00  0.00    -0.195 OA 
HETATM    5  C   UNL     1      -9.585  13.035  66.595  1.00  0.00    -0.259 C  
BRANCH   3   6
HETATM    6  C   UNL     1     -12.047  13.013  65.971  1.00  0.00    -0.432 C  
HETATM    7  C   UNL     1     -12.631  12.585  64.633  1.00  0.00    -0.507 C  
ENDBRANCH   3   6
BRANCH   5   8
HETATM    8  C   UNL     1      -9.433  14.507  66.317  1.00  0.00    -0.310 C  
HETATM    9  C   UNL     1      -8.546  15.241  67.032  1.00  0.00    -0.256 C  
BRANCH   8  10
HETATM   10  C   UNL     1     -10.227  15.253  65.256  1.00  0.00    -0.364 C  
HETATM   11  H2  UNL     1     -10.922  16.542  65.147  1.00  0.00     0.000 HD 
HETATM   12  N   UNL     1     -10.885  15.872  64.378  1.00  0.00    -0.848 NA 
HETATM   13  H1  UNL     1     -11.417  16.373  63.666  1.00  0.00     0.000 HD 
ENDBRANCH   8  10
BRANCH   9  14
HETATM   14  C   UNL     1      -8.294  16.687  66.812  1.00  0.00    -0.270 A  
HETATM   15  C   UNL     1      -9.184  17.661  67.298  1.00  0.00    -0.241 A  
HETATM   16  C   UNL     1      -8.973  19.027  67.016  1.00  0.00    -0.294 A  
HETATM   17  C   UNL     1      -7.864  19.432  66.269  1.00  0.00    -0.308 A  
HETATM   18  N   UNL     1      -9.926  20.021  67.516  1.00  0.00    -0.403 N  
HETATM   19  C   UNL     1      -6.981  18.457  65.803  1.00  0.00    -0.253 A  
HETATM   20  O   UNL     1      -9.724  21.210  67.221  1.00  0.00    -0.336 OA 
HETATM   21  O   UNL     1     -10.876  19.619  68.203  1.00  0.00    -0.262 OA 
HETATM   22  O   UNL     1      -7.543  20.725  65.931  1.00  0.00    -0.494 OA 
HETATM   23  H   UNL     1      -6.788  21.001  65.423  1.00  0.00     0.000 HD 
HETATM   24  O   UNL     1      -5.891  18.834  65.068  1.00  0.00    -0.225 OA 
HETATM   25  C   UNL     1      -7.187  17.101  66.059  1.00  0.00    -0.149 A  
HETATM   26  H   UNL     1      -5.290  18.171  64.751  1.00  0.00     0.000 HD 
ENDBRANCH   9  14
ENDBRANCH   5   8
ENDBRANCH   2   3
TORSDOF 5
ENDMDL
MODEL       77
REMARK 921   NORMALIZED FREE ENERGY PREDICTED BY IDOCK:   -5.23 KCAL/MOL
REMARK 922        TOTAL FREE ENERGY PREDICTED BY IDOCK:   -6.88 KCAL/MOL
REMARK 923 INTER-LIGAND FREE ENERGY PREDICTED BY IDOCK:   -6.67 KCAL/MOL
REMARK 924 INTRA-LIGAND FREE ENERGY PREDICTED BY IDOCK:   -0.21 KCAL/MOL
REMARK 927      BINDING AFFINITY PREDICTED BY RF-SCORE:    0.00 PKD
ROOT
HETATM    1  C   UNL     1     -11.456  11.714  67.763  1.00  0.00    -0.373 C  
HETATM    2  C   UNL     1     -12.015  12.971  67.107  1.00  0.00    -0.329 C  
ENDROOT
BRANCH   2   3
HETATM    3  N   UNL     1     -10.985  13.963  66.761  1.00  0.00    -0.296 N  
HETATM    4  O   UNL     1     -11.730  15.282  68.485  1.00  0.00    -0.340 OA 
HETATM    5  C   UNL     1     -10.978  15.147  67.513  1.00  0.00    -0.310 C  
BRANCH   3   6
HETATM    6  C   UNL     1     -10.051  13.675  65.662  1.00  0.00    -0.284 C  
HETATM    7  C   UNL     1     -10.564  13.058  64.370  1.00  0.00    -0.429 C  
ENDBRANCH   3   6
BRANCH   5   8
HETATM    8  C   UNL     1     -10.066  16.297  67.182  1.00  0.00    -0.268 C  
HETATM    9  C   UNL     1      -8.821  16.349  67.717  1.00  0.00    -0.189 C  
BRANCH   8  10
HETATM   10  C   UNL     1     -10.451  17.443  66.259  1.00  0.00    -0.276 C  
HETATM   11  H2  UNL     1     -10.831  18.854  66.404  1.00  0.00     0.000 HD 
HETATM   12  N   UNL     1     -10.771  18.393  65.496  1.00  0.00    -0.501 NA 
HETATM   13  H1  UNL     1     -11.030  19.162  64.877  1.00  0.00     0.000 HD 
ENDBRANCH   8  10
BRANCH   9  14
HETATM   14  C   UNL     1      -7.833  17.417  67.426  1.00  0.00    -0.212 A  
HETATM   15  C   UNL     1      -7.382  18.283  68.438  1.00  0.00    -0.285 A  
HETATM   16  C   UNL     1      -6.502  19.342  68.134  1.00  0.00    -0.232 A  
HETATM   17  C   UNL     1      -6.049  19.532  66.826  1.00  0.00    -0.175 A  
HETATM   18  N   UNL     1      -6.062  20.243  69.202  1.00  0.00    -0.320 N  
HETATM   19  C   UNL     1      -6.496  18.659  65.832  1.00  0.00    -0.243 A  
HETATM   20  O   UNL     1      -5.313  21.183  68.890  1.00  0.00    -0.329 OA 
HETATM   21  O   UNL     1      -6.462  20.017  70.353  1.00  0.00    -0.350 OA 
HETATM   22  O   UNL     1      -5.191  20.518  66.400  1.00  0.00    -0.161 OA 
HETATM   23  H   UNL     1      -4.883  20.647  65.510  1.00  0.00     0.000 HD 
HETATM   24  O   UNL     1      -6.064  18.830  64.545  1.00  0.00    -0.420 OA 
HETATM   25  C   UNL     1      -7.380  17.618  66.116  1.00  0.00    -0.344 A  
HETATM   26  H   UNL     1      -6.368  18.236  63.868  1.00  0.00     0.000 HD 
ENDBRANCH   9  14
ENDBRANCH   5   8
ENDBRANCH   2   3
TORSDOF 5
ENDMDL
MODEL       78
REMARK 921   NORMALIZED FREE ENERGY PREDICTED BY IDOCK:   -5.22 KCAL/MOL
REMARK 922        TOTAL FREE ENERGY PREDICTED BY IDOCK:   -6.86 KCAL/MOL
REMARK 923 INTER-LIGAND FREE ENERGY PREDICTED BY IDOCK:   -6.51 KCAL/MOL
REMARK 924 INTRA-LIGAND FREE ENERGY PREDICTED BY IDOCK:   -0.35 KCAL/MOL
REMARK 927      BINDING AFFINITY PREDICTED BY RF-SCORE:    0.00 PKD
ROOT
HETATM    1  C   UNL     1     -10.428  16.800  65.235  1.00  0.00    -0.153 C  
HETATM    2  C   UNL     1     -11.410  15.691  64.880  1.00  0.00    -0.315 C  
ENDROOT
BRANCH   2   3
HETATM    3  N   UNL     1     -11.059  14.385  65.459  1.00  0.00    -0.314 N  
HETATM    4  O   UNL     1     -11.910  15.091  67.470  1.00  0.00    -0.320 OA 
HETATM    5  C   UNL     1     -11.315  14.218  66.828  1.00  0.00    -0.348 C  
BRANCH   3   6
HETATM    6  C   UNL     1     -10.457  13.356  64.598  1.00  0.00    -0.411 C  
HETATM    7  C   UNL     1     -11.347  12.412  63.805  1.00  0.00    -0.536 C  
ENDBRANCH   3   6
BRANCH   5   8
HETATM    8  C   UNL     1     -10.887  12.984  67.575  1.00  0.00    -0.264 C  
HETATM    9  C   UNL     1     -11.758  11.959  67.743  1.00  0.00    -0.362 C  
BRANCH   8  10
HETATM   10  C   UNL     1      -9.502  12.797  68.175  1.00  0.00    -0.219 C  
HETATM   11  H2  UNL     1      -8.237  13.543  68.204  1.00  0.00     0.000 HD 
HETATM   12  N   UNL     1      -8.354  12.644  68.672  1.00  0.00    -0.345 NA 
HETATM   13  H1  UNL     1      -7.425  12.519  69.075  1.00  0.00     0.000 HD 
ENDBRANCH   8  10
BRANCH   9  14
HETATM   14  C   UNL     1     -11.424  10.686  68.430  1.00  0.00    -0.330 A  
HETATM   15  C   UNL     1     -11.884  10.423  69.732  1.00  0.00    -0.278 A  
HETATM   16  C   UNL     1     -11.497   9.244  70.403  1.00  0.00    -0.213 A  
HETATM   17  C   UNL     1     -10.669   8.311  69.773  1.00  0.00    -0.221 A  
HETATM   18  N   UNL     1     -11.973   9.003  71.768  1.00  0.00    -0.343 N  
HETATM   19  C   UNL     1     -10.228   8.579  68.476  1.00  0.00    -0.198 A  
HETATM   20  O   UNL     1     -11.585   7.969  72.337  1.00  0.00    -0.339 OA 
HETATM   21  O   UNL     1     -12.732   9.841  72.274  1.00  0.00    -0.342 OA 
HETATM   22  O   UNL     1     -10.225   7.127  70.312  1.00  0.00    -0.194 OA 
HETATM   23  H   UNL     1      -9.662   6.493  69.884  1.00  0.00     0.000 HD 
HETATM   24  O   UNL     1      -9.416   7.678  67.844  1.00  0.00    -0.141 OA 
HETATM   25  C   UNL     1     -10.590   9.749  67.808  1.00  0.00    -0.320 A  
HETATM   26  H   UNL     1      -9.116   7.859  66.961  1.00  0.00     0.000 HD 
ENDBRANCH   9  14
ENDBRANCH   5   8
ENDBRANCH   2   3
TORSDOF 5
ENDMDL
MODEL       79
REMARK 921   NORMALIZED FREE ENERGY PREDICTED BY IDOCK:   -5.21 KCAL/MOL
REMARK 922        TOTAL FREE ENERGY PREDICTED BY IDOCK:   -6.86 KCAL/MOL
REMARK 923 INTER-LIGAND FREE ENERGY PREDICTED BY IDOCK:   -6.37 KCAL/MOL
REMARK 924 INTRA-LIGAND FREE ENERGY PREDICTED BY IDOCK:   -0.49 KCAL/MOL
REMARK 927      BINDING AFFINITY PREDICTED BY RF-SCORE:    0.00 PKD
ROOT
HETATM    1  C   UNL     1      -8.838   5.308  71.417  1.00  0.00    -0.145 C  
HETATM    2  C   UNL     1     -10.080   5.945  72.026  1.00  0.00    -0.189 C  
ENDROOT
BRANCH   2   3
HETATM    3  N   UNL     1     -10.653   7.022  71.203  1.00  0.00    -0.216 N  
HETATM    4  O   UNL     1      -9.295   8.521  72.288  1.00  0.00    -0.259 OA 
HETATM    5  C   UNL     1     -10.207   8.324  71.476  1.00  0.00    -0.214 C  
BRANCH   3   6
HETATM    6  C   UNL     1     -11.651   6.688  70.176  1.00  0.00    -0.386 C  
HETATM    7  C   UNL     1     -11.205   6.359  68.761  1.00  0.00    -0.358 C  
ENDBRANCH   3   6
BRANCH   5   8
HETATM    8  C   UNL     1     -10.803   9.530  70.802  1.00  0.00    -0.386 C  
HETATM    9  C   UNL     1     -10.167  10.099  69.748  1.00  0.00    -0.286 C  
BRANCH   8  10
HETATM   10  C   UNL     1     -12.111  10.177  71.230  1.00  0.00    -0.394 C  
HETATM   11  H2  UNL     1     -12.521  11.304  72.077  1.00  0.00     0.000 HD 
HETATM   12  N   UNL     1     -13.193  10.714  71.586  1.00  0.00    -0.412 NA 
HETATM   13  H1  UNL     1     -14.071  11.149  71.874  1.00  0.00     0.000 HD 
ENDBRANCH   8  10
BRANCH   9  14
HETATM   14  C   UNL     1     -10.688  11.265  68.992  1.00  0.00    -0.257 A  
HETATM   15  C   UNL     1     -10.673  12.556  69.550  1.00  0.00     0.248 A  
HETATM   16  C   UNL     1     -11.240  13.643  68.852  1.00  0.00    -0.270 A  
HETATM   17  C   UNL     1     -11.805  13.455  67.588  1.00  0.00    -0.354 A  
HETATM   18  N   UNL     1     -11.231  14.975  69.463  1.00  0.00    -0.261 N  
HETATM   19  C   UNL     1     -11.803  12.171  67.041  1.00  0.00    -0.216 A  
HETATM   20  O   UNL     1     -11.768  15.900  68.832  1.00  0.00    -0.390 OA 
HETATM   21  O   UNL     1     -10.689  15.101  70.570  1.00  0.00    -0.244 OA 
HETATM   22  O   UNL     1     -12.383  14.426  66.806  1.00  0.00    -0.535 OA 
HETATM   23  H   UNL     1     -12.767  14.298  65.946  1.00  0.00     0.000 HD 
HETATM   24  O   UNL     1     -12.353  11.967  65.805  1.00  0.00    -0.469 OA 
HETATM   25  C   UNL     1     -11.261  11.084  67.727  1.00  0.00    -0.374 A  
HETATM   26  H   UNL     1     -12.352  11.093  65.432  1.00  0.00     0.000 HD 
ENDBRANCH   9  14
ENDBRANCH   5   8
ENDBRANCH   2   3
TORSDOF 5
ENDMDL
MODEL       80
REMARK 921   NORMALIZED FREE ENERGY PREDICTED BY IDOCK:   -5.19 KCAL/MOL
REMARK 922        TOTAL FREE ENERGY PREDICTED BY IDOCK:   -6.83 KCAL/MOL
REMARK 923 INTER-LIGAND FREE ENERGY PREDICTED BY IDOCK:   -7.34 KCAL/MOL
REMARK 924 INTRA-LIGAND FREE ENERGY PREDICTED BY IDOCK:    0.51 KCAL/MOL
REMARK 927      BINDING AFFINITY PREDICTED BY RF-SCORE:    0.00 PKD
ROOT
HETATM    1  C   UNL     1      -6.888  20.843  66.947  1.00  0.00    -0.375 C  
HETATM    2  C   UNL     1      -7.528  19.671  66.215  1.00  0.00    -0.290 C  
ENDROOT
BRANCH   2   3
HETATM    3  N   UNL     1      -8.381  18.834  67.074  1.00  0.00    -0.266 N  
HETATM    4  O   UNL     1      -6.531  17.601  67.643  1.00  0.00    -0.160 OA 
HETATM    5  C   UNL     1      -7.755  17.755  67.716  1.00  0.00    -0.214 C  
BRANCH   3   6
HETATM    6  C   UNL     1      -9.811  19.154  67.197  1.00  0.00    -0.338 C  
HETATM    7  C   UNL     1     -10.496  19.998  66.133  1.00  0.00    -0.526 C  
ENDBRANCH   3   6
BRANCH   5   8
HETATM    8  C   UNL     1      -8.531  16.745  68.518  1.00  0.00    -0.244 C  
HETATM    9  C   UNL     1      -9.879  16.855  68.621  1.00  0.00    -0.270 C  
BRANCH   8  10
HETATM   10  C   UNL     1      -7.892  15.571  69.242  1.00  0.00    -0.227 C  
HETATM   11  H2  UNL     1      -6.542  15.181  69.668  1.00  0.00     0.000 HD 
HETATM   12  N   UNL     1      -7.362  14.598  69.843  1.00  0.00    -0.393 NA 
HETATM   13  H1  UNL     1      -6.933  13.811  70.330  1.00  0.00     0.000 HD 
ENDBRANCH   8  10
BRANCH   9  14
HETATM   14  C   UNL     1     -10.738  15.893  69.355  1.00  0.00    -0.272 A  
HETATM   15  C   UNL     1     -11.202  16.177  70.651  1.00  0.00    -0.371 A  
HETATM   16  C   UNL     1     -11.954  15.223  71.368  1.00  0.00    -0.368 A  
HETATM   17  C   UNL     1     -12.268  13.990  70.789  1.00  0.00    -0.367 A  
HETATM   18  N   UNL     1     -12.408  15.535  72.726  1.00  0.00    -0.379 N  
HETATM   19  C   UNL     1     -11.812  13.725  69.497  1.00  0.00    -0.339 A  
HETATM   20  O   UNL     1     -13.041  14.658  73.336  1.00  0.00    -0.570 OA 
HETATM   21  O   UNL     1     -12.135  16.653  73.186  1.00  0.00    -0.479 OA 
HETATM   22  O   UNL     1     -12.994  12.981  71.375  1.00  0.00    -0.354 OA 
HETATM   23  H   UNL     1     -13.208  12.143  70.982  1.00  0.00     0.000 HD 
HETATM   24  O   UNL     1     -12.108  12.523  68.915  1.00  0.00    -0.264 OA 
HETATM   25  C   UNL     1     -11.052  14.653  68.784  1.00  0.00    -0.274 A  
HETATM   26  H   UNL     1     -11.798  12.342  68.035  1.00  0.00     0.000 HD 
ENDBRANCH   9  14
ENDBRANCH   5   8
ENDBRANCH   2   3
TORSDOF 5
ENDMDL
MODEL       81
REMARK 921   NORMALIZED FREE ENERGY PREDICTED BY IDOCK:   -5.18 KCAL/MOL
REMARK 922        TOTAL FREE ENERGY PREDICTED BY IDOCK:   -6.82 KCAL/MOL
REMARK 923 INTER-LIGAND FREE ENERGY PREDICTED BY IDOCK:   -6.73 KCAL/MOL
REMARK 924 INTRA-LIGAND FREE ENERGY PREDICTED BY IDOCK:   -0.08 KCAL/MOL
REMARK 927      BINDING AFFINITY PREDICTED BY RF-SCORE:    0.00 PKD
ROOT
HETATM    1  C   UNL     1     -10.862   5.984  67.148  1.00  0.00    -0.414 C  
HETATM    2  C   UNL     1      -9.583   6.555  67.748  1.00  0.00    -0.122 C  
ENDROOT
BRANCH   2   3
HETATM    3  N   UNL     1      -9.575   8.024  67.827  1.00  0.00    -0.148 N  
HETATM    4  O   UNL     1     -10.558   7.880  69.896  1.00  0.00    -0.235 OA 
HETATM    5  C   UNL     1     -10.163   8.593  68.966  1.00  0.00    -0.207 C  
BRANCH   3   6
HETATM    6  C   UNL     1      -8.981   8.800  66.728  1.00  0.00    -0.135 C  
HETATM    7  C   UNL     1      -9.871   9.386  65.643  1.00  0.00    -0.294 C  
ENDBRANCH   3   6
BRANCH   5   8
HETATM    8  C   UNL     1     -10.340  10.081  69.115  1.00  0.00    -0.233 C  
HETATM    9  C   UNL     1     -11.576  10.597  69.321  1.00  0.00    -0.346 C  
BRANCH   8  10
HETATM   10  C   UNL     1      -9.194  11.078  69.048  1.00  0.00    -0.064 C  
HETATM   11  H2  UNL     1      -8.663  12.037  68.071  1.00  0.00     0.000 HD 
HETATM   12  N   UNL     1      -8.245  11.905  68.992  1.00  0.00    -0.357 NA 
HETATM   13  H1  UNL     1      -7.476  12.574  68.948  1.00  0.00     0.000 HD 
ENDBRANCH   8  10
BRANCH   9  14
HETATM   14  C   UNL     1     -11.852  12.042  69.518  1.00  0.00    -0.390 A  
HETATM   15  C   UNL     1     -12.403  12.518  70.721  1.00  0.00    -0.376 A  
HETATM   16  C   UNL     1     -12.732  13.882  70.867  1.00  0.00    -0.340 A  
HETATM   17  C   UNL     1     -12.493  14.783  69.826  1.00  0.00    -0.191 A  
HETATM   18  N   UNL     1     -13.325  14.350  72.123  1.00  0.00    -0.363 N  
HETATM   19  C   UNL     1     -11.935  14.300  68.641  1.00  0.00    -0.313 A  
HETATM   20  O   UNL     1     -13.629  15.551  72.202  1.00  0.00    -0.434 OA 
HETATM   21  O   UNL     1     -13.487  13.522  73.031  1.00  0.00    -0.552 OA 
HETATM   22  O   UNL     1     -12.762  16.131  69.842  1.00  0.00    -0.534 OA 
HETATM   23  H   UNL     1     -12.600  16.743  69.134  1.00  0.00     0.000 HD 
HETATM   24  O   UNL     1     -11.696  15.166  67.609  1.00  0.00    -0.329 OA 
HETATM   25  C   UNL     1     -11.622  12.950  68.477  1.00  0.00    -0.358 A  
HETATM   26  H   UNL     1     -11.316  14.838  66.803  1.00  0.00     0.000 HD 
ENDBRANCH   9  14
ENDBRANCH   5   8
ENDBRANCH   2   3
TORSDOF 5
ENDMDL
MODEL       82
REMARK 921   NORMALIZED FREE ENERGY PREDICTED BY IDOCK:   -5.18 KCAL/MOL
REMARK 922        TOTAL FREE ENERGY PREDICTED BY IDOCK:   -6.81 KCAL/MOL
REMARK 923 INTER-LIGAND FREE ENERGY PREDICTED BY IDOCK:   -6.40 KCAL/MOL
REMARK 924 INTRA-LIGAND FREE ENERGY PREDICTED BY IDOCK:   -0.41 KCAL/MOL
REMARK 927      BINDING AFFINITY PREDICTED BY RF-SCORE:    0.00 PKD
ROOT
HETATM    1  C   UNL     1      -9.916   9.490  65.794  1.00  0.00    -0.316 C  
HETATM    2  C   UNL     1     -10.870  10.126  66.797  1.00  0.00    -0.059 C  
ENDROOT
BRANCH   2   3
HETATM    3  N   UNL     1     -10.883  11.596  66.748  1.00  0.00    -0.264 N  
HETATM    4  O   UNL     1      -9.334  11.628  68.441  1.00  0.00    -0.189 OA 
HETATM    5  C   UNL     1     -10.088  12.261  67.692  1.00  0.00    -0.200 C  
BRANCH   3   6
HETATM    6  C   UNL     1     -11.722  12.274  65.748  1.00  0.00    -0.385 C  
HETATM    7  C   UNL     1     -11.268  12.347  64.299  1.00  0.00    -0.408 C  
ENDBRANCH   3   6
BRANCH   5   8
HETATM    8  C   UNL     1     -10.107  13.759  67.839  1.00  0.00    -0.246 C  
HETATM    9  C   UNL     1      -9.049  14.494  67.416  1.00  0.00    -0.201 C  
BRANCH   8  10
HETATM   10  C   UNL     1     -11.266  14.533  68.447  1.00  0.00    -0.271 C  
HETATM   11  H2  UNL     1     -12.522  14.215  69.139  1.00  0.00     0.000 HD 
HETATM   12  N   UNL     1     -12.227  15.174  68.952  1.00  0.00    -0.600 NA 
HETATM   13  H1  UNL     1     -13.004  15.693  69.360  1.00  0.00     0.000 HD 
ENDBRANCH   8  10
BRANCH   9  14
HETATM   14  C   UNL     1      -8.985  15.975  67.481  1.00  0.00    -0.201 A  
HETATM   15  C   UNL     1      -9.703  16.772  66.572  1.00  0.00    -0.298 A  
HETATM   16  C   UNL     1      -9.574  18.177  66.595  1.00  0.00    -0.306 A  
HETATM   17  C   UNL     1      -8.747  18.796  67.537  1.00  0.00    -0.274 A  
HETATM   18  N   UNL     1     -10.316  18.985  65.625  1.00  0.00    -0.229 N  
HETATM   19  C   UNL     1      -8.048  17.993  68.441  1.00  0.00    -0.298 A  
HETATM   20  O   UNL     1     -10.152  20.215  65.656  1.00  0.00    -0.398 OA 
HETATM   21  O   UNL     1     -11.063  18.396  64.831  1.00  0.00    -0.560 OA 
HETATM   22  O   UNL     1      -8.538  20.148  67.668  1.00  0.00    -0.323 OA 
HETATM   23  H   UNL     1      -7.976  20.569  68.308  1.00  0.00     0.000 HD 
HETATM   24  O   UNL     1      -7.233  18.581  69.369  1.00  0.00    -0.165 OA 
HETATM   25  C   UNL     1      -8.154  16.602  68.417  1.00  0.00    -0.208 A  
HETATM   26  H   UNL     1      -6.757  18.036  69.984  1.00  0.00     0.000 HD 
ENDBRANCH   9  14
ENDBRANCH   5   8
ENDBRANCH   2   3
TORSDOF 5
ENDMDL
MODEL       83
REMARK 921   NORMALIZED FREE ENERGY PREDICTED BY IDOCK:   -5.16 KCAL/MOL
REMARK 922        TOTAL FREE ENERGY PREDICTED BY IDOCK:   -6.79 KCAL/MOL
REMARK 923 INTER-LIGAND FREE ENERGY PREDICTED BY IDOCK:   -6.29 KCAL/MOL
REMARK 924 INTRA-LIGAND FREE ENERGY PREDICTED BY IDOCK:   -0.50 KCAL/MOL
REMARK 927      BINDING AFFINITY PREDICTED BY RF-SCORE:    0.00 PKD
ROOT
HETATM    1  C   UNL     1      -9.356   4.058  68.730  1.00  0.00    -0.227 C  
HETATM    2  C   UNL     1      -9.944   5.187  69.567  1.00  0.00    -0.231 C  
ENDROOT
BRANCH   2   3
HETATM    3  N   UNL     1      -9.633   6.528  69.047  1.00  0.00    -0.133 N  
HETATM    4  O   UNL     1     -11.508   6.410  67.729  1.00  0.00    -0.146 OA 
HETATM    5  C   UNL     1     -10.488   7.028  68.054  1.00  0.00    -0.208 C  
BRANCH   3   6
HETATM    6  C   UNL     1      -8.462   7.248  69.570  1.00  0.00    -0.133 C  
HETATM    7  C   UNL     1      -8.623   8.226  70.722  1.00  0.00    -0.147 C  
ENDBRANCH   3   6
BRANCH   5   8
HETATM    8  C   UNL     1     -10.213   8.327  67.344  1.00  0.00    -0.326 C  
HETATM    9  C   UNL     1     -10.726   9.484  67.828  1.00  0.00    -0.302 C  
BRANCH   8  10
HETATM   10  C   UNL     1      -9.373   8.438  66.081  1.00  0.00    -0.201 C  
HETATM   11  H2  UNL     1      -8.996   9.495  65.134  1.00  0.00     0.000 HD 
HETATM   12  N   UNL     1      -8.677   8.531  65.035  1.00  0.00    -0.358 NA 
HETATM   13  H1  UNL     1      -8.113   8.605  64.188  1.00  0.00     0.000 HD 
ENDBRANCH   8  10
BRANCH   9  14
HETATM   14  C   UNL     1     -10.484  10.819  67.226  1.00  0.00    -0.282 A  
HETATM   15  C   UNL     1     -11.446  11.427  66.401  1.00  0.00    -0.058 A  
HETATM   16  C   UNL     1     -11.174  12.660  65.772  1.00  0.00    -0.312 A  
HETATM   17  C   UNL     1      -9.952  13.305  65.980  1.00  0.00    -0.292 A  
HETATM   18  N   UNL     1     -12.185  13.263  64.900  1.00  0.00    -0.397 N  
HETATM   19  C   UNL     1      -9.009  12.696  66.811  1.00  0.00    -0.197 A  
HETATM   20  O   UNL     1     -11.896  14.334  64.340  1.00  0.00    -0.424 OA 
HETATM   21  O   UNL     1     -13.267  12.673  64.772  1.00  0.00    -0.846 OA 
HETATM   22  O   UNL     1      -9.566  14.506  65.434  1.00  0.00    -0.525 OA 
HETATM   23  H   UNL     1      -8.735  14.944  65.576  1.00  0.00     0.000 HD 
HETATM   24  O   UNL     1      -7.806  13.312  67.025  1.00  0.00    -0.378 OA 
HETATM   25  C   UNL     1      -9.259  11.469  67.424  1.00  0.00    -0.166 A  
HETATM   26  H   UNL     1      -7.165  12.898  67.590  1.00  0.00     0.000 HD 
ENDBRANCH   9  14
ENDBRANCH   5   8
ENDBRANCH   2   3
TORSDOF 5
ENDMDL
MODEL       84
REMARK 921   NORMALIZED FREE ENERGY PREDICTED BY IDOCK:   -5.13 KCAL/MOL
REMARK 922        TOTAL FREE ENERGY PREDICTED BY IDOCK:   -6.75 KCAL/MOL
REMARK 923 INTER-LIGAND FREE ENERGY PREDICTED BY IDOCK:   -6.41 KCAL/MOL
REMARK 924 INTRA-LIGAND FREE ENERGY PREDICTED BY IDOCK:   -0.34 KCAL/MOL
REMARK 927      BINDING AFFINITY PREDICTED BY RF-SCORE:    0.00 PKD
ROOT
HETATM    1  C   UNL     1     -10.921  15.394  64.873  1.00  0.00    -0.453 C  
HETATM    2  C   UNL     1     -11.963  14.540  65.585  1.00  0.00    -0.311 C  
ENDROOT
BRANCH   2   3
HETATM    3  N   UNL     1     -11.451  13.872  66.792  1.00  0.00    -0.336 N  
HETATM    4  O   UNL     1     -12.269  11.883  65.991  1.00  0.00    -0.449 OA 
HETATM    5  C   UNL     1     -11.726  12.502  66.913  1.00  0.00    -0.377 C  
BRANCH   3   6
HETATM    6  C   UNL     1     -10.713  14.659  67.790  1.00  0.00    -0.265 C  
HETATM    7  C   UNL     1     -11.449  15.664  68.662  1.00  0.00    -0.381 C  
ENDBRANCH   3   6
BRANCH   5   8
HETATM    8  C   UNL     1     -11.377  11.725  68.154  1.00  0.00    -0.348 C  
HETATM    9  C   UNL     1     -10.617  10.606  68.060  1.00  0.00    -0.248 C  
BRANCH   8  10
HETATM   10  C   UNL     1     -11.830  12.116  69.552  1.00  0.00    -0.321 C  
HETATM   11  H2  UNL     1     -11.883  13.344  70.356  1.00  0.00     0.000 HD 
HETATM   12  N   UNL     1     -12.205  12.442  70.710  1.00  0.00    -0.440 NA 
HETATM   13  H1  UNL     1     -12.509  12.705  71.648  1.00  0.00     0.000 HD 
ENDBRANCH   8  10
BRANCH   9  14
HETATM   14  C   UNL     1     -10.186   9.792  69.223  1.00  0.00    -0.216 A  
HETATM   15  C   UNL     1     -11.064   8.879  69.833  1.00  0.00    -0.146 A  
HETATM   16  C   UNL     1     -10.669   8.166  70.984  1.00  0.00    -0.217 A  
HETATM   17  C   UNL     1      -9.391   8.341  71.521  1.00  0.00    -0.180 A  
HETATM   18  N   UNL     1     -11.609   7.235  71.614  1.00  0.00    -0.264 N  
HETATM   19  C   UNL     1      -8.525   9.243  70.899  1.00  0.00    -0.149 A  
HETATM   20  O   UNL     1     -11.236   6.650  72.644  1.00  0.00    -0.256 OA 
HETATM   21  O   UNL     1     -12.720   7.086  71.084  1.00  0.00    -0.381 OA 
HETATM   22  O   UNL     1      -8.883   7.708  72.630  1.00  0.00    -0.129 OA 
HETATM   23  H   UNL     1      -8.014   7.827  72.995  1.00  0.00     0.000 HD 
HETATM   24  O   UNL     1      -7.270   9.429  71.411  1.00  0.00    -0.318 OA 
HETATM   25  C   UNL     1      -8.909   9.966  69.770  1.00  0.00    -0.229 A  
HETATM   26  H   UNL     1      -6.680  10.042  70.988  1.00  0.00     0.000 HD 
ENDBRANCH   9  14
ENDBRANCH   5   8
ENDBRANCH   2   3
TORSDOF 5
ENDMDL
MODEL       85
REMARK 921   NORMALIZED FREE ENERGY PREDICTED BY IDOCK:   -5.12 KCAL/MOL
REMARK 922        TOTAL FREE ENERGY PREDICTED BY IDOCK:   -6.73 KCAL/MOL
REMARK 923 INTER-LIGAND FREE ENERGY PREDICTED BY IDOCK:   -6.62 KCAL/MOL
REMARK 924 INTRA-LIGAND FREE ENERGY PREDICTED BY IDOCK:   -0.11 KCAL/MOL
REMARK 927      BINDING AFFINITY PREDICTED BY RF-SCORE:    0.00 PKD
ROOT
HETATM    1  C   UNL     1     -10.913  15.275  65.102  1.00  0.00    -0.428 C  
HETATM    2  C   UNL     1     -12.042  14.306  65.428  1.00  0.00    -0.396 C  
ENDROOT
BRANCH   2   3
HETATM    3  N   UNL     1     -11.593  13.092  66.128  1.00  0.00    -0.347 N  
HETATM    4  O   UNL     1     -12.106  14.100  68.125  1.00  0.00    -0.343 OA 
HETATM    5  C   UNL     1     -11.619  13.132  67.529  1.00  0.00    -0.352 C  
BRANCH   3   6
HETATM    6  C   UNL     1     -11.135  11.937  65.341  1.00  0.00    -0.306 C  
HETATM    7  C   UNL     1     -11.439  11.861  63.854  1.00  0.00    -0.511 C  
ENDBRANCH   3   6
BRANCH   5   8
HETATM    8  C   UNL     1     -11.067  12.012  68.371  1.00  0.00    -0.290 C  
HETATM    9  C   UNL     1     -11.908  11.103  68.922  1.00  0.00    -0.406 C  
BRANCH   8  10
HETATM   10  C   UNL     1      -9.586  11.821  68.655  1.00  0.00    -0.115 C  
HETATM   11  H2  UNL     1      -8.437  12.677  68.977  1.00  0.00     0.000 HD 
HETATM   12  N   UNL     1      -8.358  11.664  68.891  1.00  0.00    -0.360 NA 
HETATM   13  H1  UNL     1      -7.364  11.536  69.082  1.00  0.00     0.000 HD 
ENDBRANCH   8  10
BRANCH   9  14
HETATM   14  C   UNL     1     -11.463   9.943  69.734  1.00  0.00    -0.194 A  
HETATM   15  C   UNL     1     -10.564   8.996  69.214  1.00  0.00    -0.226 A  
HETATM   16  C   UNL     1     -10.208   7.858  69.967  1.00  0.00    -0.208 A  
HETATM   17  C   UNL     1     -10.728   7.668  71.251  1.00  0.00    -0.228 A  
HETATM   18  N   UNL     1      -9.285   6.874  69.395  1.00  0.00    -0.147 N  
HETATM   19  C   UNL     1     -11.611   8.622  71.760  1.00  0.00    -0.332 A  
HETATM   20  O   UNL     1      -9.021   5.870  70.076  1.00  0.00    -0.137 OA 
HETATM   21  O   UNL     1      -8.823   7.101  68.268  1.00  0.00    -0.128 OA 
HETATM   22  O   UNL     1     -10.459   6.610  72.086  1.00  0.00    -0.201 OA 
HETATM   23  H   UNL     1     -10.813   6.481  72.959  1.00  0.00     0.000 HD 
HETATM   24  O   UNL     1     -12.132   8.452  73.014  1.00  0.00    -0.526 OA 
HETATM   25  C   UNL     1     -11.985   9.743  71.019  1.00  0.00    -0.440 A  
HETATM   26  H   UNL     1     -12.732   9.101  73.361  1.00  0.00     0.000 HD 
ENDBRANCH   9  14
ENDBRANCH   5   8
ENDBRANCH   2   3
TORSDOF 5
ENDMDL
MODEL       86
REMARK 921   NORMALIZED FREE ENERGY PREDICTED BY IDOCK:   -5.09 KCAL/MOL
REMARK 922        TOTAL FREE ENERGY PREDICTED BY IDOCK:   -6.70 KCAL/MOL
REMARK 923 INTER-LIGAND FREE ENERGY PREDICTED BY IDOCK:   -6.23 KCAL/MOL
REMARK 924 INTRA-LIGAND FREE ENERGY PREDICTED BY IDOCK:   -0.47 KCAL/MOL
REMARK 927      BINDING AFFINITY PREDICTED BY RF-SCORE:    0.00 PKD
ROOT
HETATM    1  C   UNL     1     -11.216  12.546  63.334  1.00  0.00    -0.460 C  
HETATM    2  C   UNL     1     -10.780  12.951  64.736  1.00  0.00    -0.333 C  
ENDROOT
BRANCH   2   3
HETATM    3  N   UNL     1     -10.283  11.828  65.546  1.00  0.00    -0.242 N  
HETATM    4  O   UNL     1     -12.124  12.041  66.900  1.00  0.00    -0.608 OA 
HETATM    5  C   UNL     1     -11.040  11.490  66.677  1.00  0.00    -0.295 C  
BRANCH   3   6
HETATM    6  C   UNL     1      -9.041  11.149  65.147  1.00  0.00    -0.144 C  
HETATM    7  C   UNL     1      -9.104   9.853  64.355  1.00  0.00    -0.299 C  
ENDBRANCH   3   6
BRANCH   5   8
HETATM    8  C   UNL     1     -10.579  10.450  67.664  1.00  0.00    -0.304 C  
HETATM    9  C   UNL     1     -10.070  10.833  68.861  1.00  0.00    -0.217 C  
BRANCH   8  10
HETATM   10  C   UNL     1     -10.647   8.953  67.407  1.00  0.00    -0.235 C  
HETATM   11  H2  UNL     1     -11.517   8.031  66.665  1.00  0.00     0.000 HD 
HETATM   12  N   UNL     1     -10.704   7.712  67.193  1.00  0.00    -0.471 NA 
HETATM   13  H1  UNL     1     -10.750   6.708  67.020  1.00  0.00     0.000 HD 
ENDBRANCH   8  10
BRANCH   9  14
HETATM   14  C   UNL     1      -9.624   9.889  69.915  1.00  0.00    -0.265 A  
HETATM   15  C   UNL     1     -10.534   9.361  70.848  1.00  0.00    -0.381 A  
HETATM   16  C   UNL     1     -10.085   8.525  71.892  1.00  0.00    -0.297 A  
HETATM   17  C   UNL     1      -8.732   8.193  72.000  1.00  0.00    -0.164 A  
HETATM   18  N   UNL     1     -11.050   8.004  72.863  1.00  0.00    -0.383 N  
HETATM   19  C   UNL     1      -7.840   8.714  71.061  1.00  0.00    -0.111 A  
HETATM   20  O   UNL     1     -10.612   7.297  73.786  1.00  0.00    -0.364 OA 
HETATM   21  O   UNL     1     -12.244   8.297  72.709  1.00  0.00    -0.327 OA 
HETATM   22  O   UNL     1      -8.169   7.389  72.962  1.00  0.00    -0.105 OA 
HETATM   23  H   UNL     1      -7.249   7.163  73.035  1.00  0.00     0.000 HD 
HETATM   24  O   UNL     1      -6.511   8.402  71.151  1.00  0.00    -0.038 OA 
HETATM   25  C   UNL     1      -8.269   9.556  70.034  1.00  0.00    -0.181 A  
HETATM   26  H   UNL     1      -5.904   8.756  70.513  1.00  0.00     0.000 HD 
ENDBRANCH   9  14
ENDBRANCH   5   8
ENDBRANCH   2   3
TORSDOF 5
ENDMDL
MODEL       87
REMARK 921   NORMALIZED FREE ENERGY PREDICTED BY IDOCK:   -5.08 KCAL/MOL
REMARK 922        TOTAL FREE ENERGY PREDICTED BY IDOCK:   -6.68 KCAL/MOL
REMARK 923 INTER-LIGAND FREE ENERGY PREDICTED BY IDOCK:   -6.14 KCAL/MOL
REMARK 924 INTRA-LIGAND FREE ENERGY PREDICTED BY IDOCK:   -0.54 KCAL/MOL
REMARK 927      BINDING AFFINITY PREDICTED BY RF-SCORE:    0.00 PKD
ROOT
HETATM    1  C   UNL     1      -6.782   8.308  64.073  1.00  0.00    -0.071 C  
HETATM    2  C   UNL     1      -6.492   9.083  65.352  1.00  0.00    -0.067 C  
ENDROOT
BRANCH   2   3
HETATM    3  N   UNL     1      -7.668   9.245  66.221  1.00  0.00    -0.096 N  
HETATM    4  O   UNL     1      -6.929   7.479  67.486  1.00  0.00    -0.075 OA 
HETATM    5  C   UNL     1      -7.813   8.313  67.259  1.00  0.00    -0.105 C  
BRANCH   3   6
HETATM    6  C   UNL     1      -8.616  10.337  65.952  1.00  0.00    -0.152 C  
HETATM    7  C   UNL     1      -9.856  10.078  65.111  1.00  0.00    -0.388 C  
ENDBRANCH   3   6
BRANCH   5   8
HETATM    8  C   UNL     1      -9.033   8.282  68.141  1.00  0.00    -0.139 C  
HETATM    9  C   UNL     1      -9.042   8.974  69.306  1.00  0.00    -0.145 C  
BRANCH   8  10
HETATM   10  C   UNL     1     -10.297   7.506  67.806  1.00  0.00    -0.216 C  
HETATM   11  H2  UNL     1     -10.783   6.130  67.967  1.00  0.00     0.000 HD 
HETATM   12  N   UNL     1     -11.344   6.862  67.529  1.00  0.00    -0.650 NA 
HETATM   13  H1  UNL     1     -12.192   6.341  67.305  1.00  0.00     0.000 HD 
ENDBRANCH   8  10
BRANCH   9  14
HETATM   14  C   UNL     1     -10.205   9.039  70.226  1.00  0.00    -0.235 A  
HETATM   15  C   UNL     1     -11.010  10.190  70.296  1.00  0.00    -0.380 A  
HETATM   16  C   UNL     1     -12.066  10.268  71.229  1.00  0.00    -0.382 A  
HETATM   17  C   UNL     1     -12.339   9.195  72.080  1.00  0.00    -0.377 A  
HETATM   18  N   UNL     1     -12.878  11.486  71.297  1.00  0.00    -0.399 N  
HETATM   19  C   UNL     1     -11.540   8.054  71.993  1.00  0.00    -0.316 A  
HETATM   20  O   UNL     1     -13.778  11.530  72.151  1.00  0.00    -0.197 OA 
HETATM   21  O   UNL     1     -12.621  12.400  70.500  1.00  0.00    -0.206 OA 
HETATM   22  O   UNL     1     -13.336   9.143  73.025  1.00  0.00    -0.801 OA 
HETATM   23  H   UNL     1     -13.522   8.412  73.603  1.00  0.00     0.000 HD 
HETATM   24  O   UNL     1     -11.791   6.993  72.819  1.00  0.00    -0.512 OA 
HETATM   25  C   UNL     1     -10.482   7.970  71.087  1.00  0.00    -0.230 A  
HETATM   26  H   UNL     1     -11.247   6.216  72.760  1.00  0.00     0.000 HD 
ENDBRANCH   9  14
ENDBRANCH   5   8
ENDBRANCH   2   3
TORSDOF 5
ENDMDL
MODEL       88
REMARK 921   NORMALIZED FREE ENERGY PREDICTED BY IDOCK:   -5.06 KCAL/MOL
REMARK 922        TOTAL FREE ENERGY PREDICTED BY IDOCK:   -6.65 KCAL/MOL
REMARK 923 INTER-LIGAND FREE ENERGY PREDICTED BY IDOCK:   -6.19 KCAL/MOL
REMARK 924 INTRA-LIGAND FREE ENERGY PREDICTED BY IDOCK:   -0.46 KCAL/MOL
REMARK 927      BINDING AFFINITY PREDICTED BY RF-SCORE:    0.00 PKD
ROOT
HETATM    1  C   UNL     1      -5.772  21.192  68.951  1.00  0.00    -0.252 C  
HETATM    2  C   UNL     1      -6.472  20.908  67.628  1.00  0.00    -0.343 C  
ENDROOT
BRANCH   2   3
HETATM    3  N   UNL     1      -7.088  19.573  67.562  1.00  0.00    -0.213 N  
HETATM    4  O   UNL     1      -9.156  20.568  67.615  1.00  0.00    -0.306 OA 
HETATM    5  C   UNL     1      -8.488  19.527  67.623  1.00  0.00    -0.310 C  
BRANCH   3   6
HETATM    6  C   UNL     1      -6.225  18.388  67.457  1.00  0.00    -0.181 C  
HETATM    7  C   UNL     1      -5.896  17.805  66.091  1.00  0.00    -0.249 C  
ENDBRANCH   3   6
BRANCH   5   8
HETATM    8  C   UNL     1      -9.242  18.226  67.697  1.00  0.00    -0.271 C  
HETATM    9  C   UNL     1      -9.328  17.561  68.875  1.00  0.00    -0.169 C  
BRANCH   8  10
HETATM   10  C   UNL     1      -9.936  17.582  66.507  1.00  0.00    -0.321 C  
HETATM   11  H2  UNL     1     -10.810  18.020  65.411  1.00  0.00     0.000 HD 
HETATM   12  N   UNL     1     -10.512  17.050  65.520  1.00  0.00    -0.604 NA 
HETATM   13  H1  UNL     1     -10.977  16.619  64.722  1.00  0.00     0.000 HD 
ENDBRANCH   8  10
BRANCH   9  14
HETATM   14  C   UNL     1     -10.076  16.293  69.063  1.00  0.00    -0.259 A  
HETATM   15  C   UNL     1      -9.569  15.074  68.580  1.00  0.00    -0.219 A  
HETATM   16  C   UNL     1     -10.324  13.888  68.697  1.00  0.00    -0.237 A  
HETATM   17  C   UNL     1     -11.578  13.906  69.314  1.00  0.00    -0.309 A  
HETATM   18  N   UNL     1      -9.783  12.634  68.167  1.00  0.00    -0.216 N  
HETATM   19  C   UNL     1     -12.065  15.120  69.799  1.00  0.00    -0.319 A  
HETATM   20  O   UNL     1     -10.491  11.617  68.261  1.00  0.00    -0.189 OA 
HETATM   21  O   UNL     1      -8.653  12.659  67.659  1.00  0.00    -0.158 OA 
HETATM   22  O   UNL     1     -12.408  12.825  69.495  1.00  0.00    -0.138 OA 
HETATM   23  H   UNL     1     -13.260  12.837  69.915  1.00  0.00     0.000 HD 
HETATM   24  O   UNL     1     -13.291  15.158  70.406  1.00  0.00    -0.661 OA 
HETATM   25  C   UNL     1     -11.336  16.303  69.675  1.00  0.00    -0.266 A  
HETATM   26  H   UNL     1     -13.623  15.984  70.736  1.00  0.00     0.000 HD 
ENDBRANCH   9  14
ENDBRANCH   5   8
ENDBRANCH   2   3
TORSDOF 5
ENDMDL
MODEL       89
REMARK 921   NORMALIZED FREE ENERGY PREDICTED BY IDOCK:   -5.05 KCAL/MOL
REMARK 922        TOTAL FREE ENERGY PREDICTED BY IDOCK:   -6.65 KCAL/MOL
REMARK 923 INTER-LIGAND FREE ENERGY PREDICTED BY IDOCK:   -6.01 KCAL/MOL
REMARK 924 INTRA-LIGAND FREE ENERGY PREDICTED BY IDOCK:   -0.64 KCAL/MOL
REMARK 927      BINDING AFFINITY PREDICTED BY RF-SCORE:    0.00 PKD
ROOT
HETATM    1  C   UNL     1     -10.132  19.604  66.671  1.00  0.00    -0.555 C  
HETATM    2  C   UNL     1     -11.016  18.631  67.441  1.00  0.00    -0.179 C  
ENDROOT
BRANCH   2   3
HETATM    3  N   UNL     1     -10.683  17.218  67.202  1.00  0.00    -0.242 N  
HETATM    4  O   UNL     1     -11.508  16.712  69.283  1.00  0.00    -0.142 OA 
HETATM    5  C   UNL     1     -10.932  16.329  68.258  1.00  0.00    -0.348 C  
BRANCH   3   6
HETATM    6  C   UNL     1     -10.105  16.824  65.908  1.00  0.00    -0.304 C  
HETATM    7  C   UNL     1     -10.991  16.215  64.833  1.00  0.00    -0.364 C  
ENDBRANCH   3   6
BRANCH   5   8
HETATM    8  C   UNL     1     -10.520  14.882  68.198  1.00  0.00    -0.242 C  
HETATM    9  C   UNL     1     -11.403  13.945  67.775  1.00  0.00    -0.335 C  
BRANCH   8  10
HETATM   10  C   UNL     1      -9.139  14.381  68.589  1.00  0.00    -0.178 C  
HETATM   11  H2  UNL     1      -8.364  13.143  68.432  1.00  0.00     0.000 HD 
HETATM   12  N   UNL     1      -7.994  13.964  68.912  1.00  0.00    -0.314 NA 
HETATM   13  H1  UNL     1      -7.068  13.627  69.174  1.00  0.00     0.000 HD 
ENDBRANCH   8  10
BRANCH   9  14
HETATM   14  C   UNL     1     -11.086  12.501  67.644  1.00  0.00    -0.301 A  
HETATM   15  C   UNL     1     -10.451  12.000  66.494  1.00  0.00    -0.253 A  
HETATM   16  C   UNL     1     -10.223  10.615  66.348  1.00  0.00    -0.234 A  
HETATM   17  C   UNL     1     -10.606   9.726  67.356  1.00  0.00    -0.267 A  
HETATM   18  N   UNL     1      -9.579  10.115  65.131  1.00  0.00    -0.269 N  
HETATM   19  C   UNL     1     -11.225  10.237  68.497  1.00  0.00    -0.214 A  
HETATM   20  O   UNL     1      -9.424   8.888  65.026  1.00  0.00    -0.010 OA 
HETATM   21  O   UNL     1      -9.225  10.944  64.280  1.00  0.00    -0.207 OA 
HETATM   22  O   UNL     1     -10.438   8.361  67.339  1.00  0.00    -0.263 OA 
HETATM   23  H   UNL     1     -10.698   7.756  68.024  1.00  0.00     0.000 HD 
HETATM   24  O   UNL     1     -11.608   9.381  69.493  1.00  0.00    -0.437 OA 
HETATM   25  C   UNL     1     -11.472  11.602  68.647  1.00  0.00    -0.349 A  
HETATM   26  H   UNL     1     -12.029   9.729  70.271  1.00  0.00     0.000 HD 
ENDBRANCH   9  14
ENDBRANCH   5   8
ENDBRANCH   2   3
TORSDOF 5
ENDMDL
MODEL       90
REMARK 921   NORMALIZED FREE ENERGY PREDICTED BY IDOCK:   -5.05 KCAL/MOL
REMARK 922        TOTAL FREE ENERGY PREDICTED BY IDOCK:   -6.64 KCAL/MOL
REMARK 923 INTER-LIGAND FREE ENERGY PREDICTED BY IDOCK:   -7.00 KCAL/MOL
REMARK 924 INTRA-LIGAND FREE ENERGY PREDICTED BY IDOCK:    0.36 KCAL/MOL
REMARK 927      BINDING AFFINITY PREDICTED BY RF-SCORE:    0.00 PKD
ROOT
HETATM    1  C   UNL     1      -9.206   5.415  71.201  1.00  0.00    -0.175 C  
HETATM    2  C   UNL     1     -10.228   5.951  72.195  1.00  0.00    -0.195 C  
ENDROOT
BRANCH   2   3
HETATM    3  N   UNL     1     -10.519   7.384  72.025  1.00  0.00    -0.196 N  
HETATM    4  O   UNL     1     -12.236   6.827  70.608  1.00  0.00    -0.386 OA 
HETATM    5  C   UNL     1     -11.547   7.711  71.129  1.00  0.00    -0.280 C  
BRANCH   3   6
HETATM    6  C   UNL     1      -9.725   8.372  72.771  1.00  0.00    -0.228 C  
HETATM    7  C   UNL     1      -8.804   7.917  73.892  1.00  0.00    -0.315 C  
ENDBRANCH   3   6
BRANCH   5   8
HETATM    8  C   UNL     1     -11.862   9.137  70.762  1.00  0.00    -0.280 C  
HETATM    9  C   UNL     1     -11.258   9.709  69.692  1.00  0.00    -0.176 C  
BRANCH   8  10
HETATM   10  C   UNL     1     -12.841  10.010  71.531  1.00  0.00    -0.432 C  
HETATM   11  H2  UNL     1     -13.748   9.852  72.675  1.00  0.00     0.000 HD 
HETATM   12  N   UNL     1     -13.653  10.733  72.169  1.00  0.00    -0.444 NA 
HETATM   13  H1  UNL     1     -14.310  11.319  72.684  1.00  0.00     0.000 HD 
ENDBRANCH   8  10
BRANCH   9  14
HETATM   14  C   UNL     1     -11.526  11.092  69.225  1.00  0.00    -0.370 A  
HETATM   15  C   UNL     1     -11.654  11.383  67.856  1.00  0.00    -0.337 A  
HETATM   16  C   UNL     1     -11.833  12.713  67.420  1.00  0.00    -0.328 A  
HETATM   17  C   UNL     1     -11.907  13.756  68.347  1.00  0.00    -0.376 A  
HETATM   18  N   UNL     1     -11.942  12.993  65.986  1.00  0.00    -0.421 N  
HETATM   19  C   UNL     1     -11.790  13.453  69.704  1.00  0.00    -0.331 A  
HETATM   20  O   UNL     1     -12.067  14.179  65.640  1.00  0.00    -0.380 OA 
HETATM   21  O   UNL     1     -11.905  12.033  65.204  1.00  0.00    -0.318 OA 
HETATM   22  O   UNL     1     -12.083  15.088  68.055  1.00  0.00    -0.538 OA 
HETATM   23  H   UNL     1     -12.134  15.798  68.685  1.00  0.00     0.000 HD 
HETATM   24  O   UNL     1     -11.860  14.462  70.626  1.00  0.00    -0.293 OA 
HETATM   25  C   UNL     1     -11.596  12.144  70.147  1.00  0.00    -0.202 A  
HETATM   26  H   UNL     1     -11.780  14.255  71.550  1.00  0.00     0.000 HD 
ENDBRANCH   9  14
ENDBRANCH   5   8
ENDBRANCH   2   3
TORSDOF 5
ENDMDL
MODEL       91
REMARK 921   NORMALIZED FREE ENERGY PREDICTED BY IDOCK:   -5.05 KCAL/MOL
REMARK 922        TOTAL FREE ENERGY PREDICTED BY IDOCK:   -6.64 KCAL/MOL
REMARK 923 INTER-LIGAND FREE ENERGY PREDICTED BY IDOCK:   -6.18 KCAL/MOL
REMARK 924 INTRA-LIGAND FREE ENERGY PREDICTED BY IDOCK:   -0.45 KCAL/MOL
REMARK 927      BINDING AFFINITY PREDICTED BY RF-SCORE:    0.00 PKD
ROOT
HETATM    1  C   UNL     1     -11.253   5.347  72.384  1.00  0.00    -0.272 C  
HETATM    2  C   UNL     1     -11.366   6.866  72.385  1.00  0.00    -0.271 C  
ENDROOT
BRANCH   2   3
HETATM    3  N   UNL     1     -10.652   7.511  71.271  1.00  0.00    -0.215 N  
HETATM    4  O   UNL     1     -11.898   9.406  71.620  1.00  0.00    -0.351 OA 
HETATM    5  C   UNL     1     -11.061   8.809  70.933  1.00  0.00    -0.268 C  
BRANCH   3   6
HETATM    6  C   UNL     1      -9.586   6.772  70.578  1.00  0.00    -0.169 C  
HETATM    7  C   UNL     1      -8.129   7.042  70.916  1.00  0.00    -0.109 C  
ENDBRANCH   3   6
BRANCH   5   8
HETATM    8  C   UNL     1     -10.507   9.534  69.735  1.00  0.00    -0.253 C  
HETATM    9  C   UNL     1     -11.263   9.668  68.618  1.00  0.00    -0.007 C  
BRANCH   8  10
HETATM   10  C   UNL     1      -9.117  10.147  69.687  1.00  0.00    -0.174 C  
HETATM   11  H2  UNL     1      -8.356  11.007  68.771  1.00  0.00     0.000 HD 
HETATM   12  N   UNL     1      -7.965  10.656  69.646  1.00  0.00    -0.365 NA 
HETATM   13  H1  UNL     1      -7.032  11.068  69.614  1.00  0.00     0.000 HD 
ENDBRANCH   8  10
BRANCH   9  14
HETATM   14  C   UNL     1     -10.826  10.394  67.400  1.00  0.00    -0.344 A  
HETATM   15  C   UNL     1     -10.991  11.786  67.288  1.00  0.00    -0.318 A  
HETATM   16  C   UNL     1     -10.642  12.455  66.095  1.00  0.00    -0.254 A  
HETATM   17  C   UNL     1     -10.107  11.745  65.017  1.00  0.00    -0.263 A  
HETATM   18  N   UNL     1     -10.843  13.902  65.996  1.00  0.00    -0.288 N  
HETATM   19  C   UNL     1      -9.938  10.365  65.145  1.00  0.00    -0.322 A  
HETATM   20  O   UNL     1     -10.553  14.450  64.920  1.00  0.00    -0.405 OA 
HETATM   21  O   UNL     1     -11.288  14.496  66.989  1.00  0.00    -0.325 OA 
HETATM   22  O   UNL     1      -9.724  12.274  63.808  1.00  0.00    -0.573 OA 
HETATM   23  H   UNL     1      -9.360  11.792  63.075  1.00  0.00     0.000 HD 
HETATM   24  O   UNL     1      -9.417   9.653  64.099  1.00  0.00    -0.409 OA 
HETATM   25  C   UNL     1     -10.295   9.689  66.312  1.00  0.00    -0.230 A  
HETATM   26  H   UNL     1      -9.302   8.714  64.186  1.00  0.00     0.000 HD 
ENDBRANCH   9  14
ENDBRANCH   5   8
ENDBRANCH   2   3
TORSDOF 5
ENDMDL
MODEL       92
REMARK 921   NORMALIZED FREE ENERGY PREDICTED BY IDOCK:   -5.04 KCAL/MOL
REMARK 922        TOTAL FREE ENERGY PREDICTED BY IDOCK:   -6.63 KCAL/MOL
REMARK 923 INTER-LIGAND FREE ENERGY PREDICTED BY IDOCK:   -6.35 KCAL/MOL
REMARK 924 INTRA-LIGAND FREE ENERGY PREDICTED BY IDOCK:   -0.29 KCAL/MOL
REMARK 927      BINDING AFFINITY PREDICTED BY RF-SCORE:    0.00 PKD
ROOT
HETATM    1  C   UNL     1     -11.985  15.501  64.105  1.00  0.00    -0.083 C  
HETATM    2  C   UNL     1     -10.857  15.910  65.045  1.00  0.00    -0.426 C  
ENDROOT
BRANCH   2   3
HETATM    3  N   UNL     1     -10.744  15.055  66.236  1.00  0.00    -0.315 N  
HETATM    4  O   UNL     1      -9.949  13.366  64.900  1.00  0.00    -0.247 OA 
HETATM    5  C   UNL     1     -10.316  13.736  66.021  1.00  0.00    -0.308 C  
BRANCH   3   6
HETATM    6  C   UNL     1     -11.092  15.607  67.554  1.00  0.00    -0.289 C  
HETATM    7  C   UNL     1     -10.051  16.368  68.359  1.00  0.00    -0.245 C  
ENDBRANCH   3   6
BRANCH   5   8
HETATM    8  C   UNL     1     -10.280  12.718  67.130  1.00  0.00    -0.235 C  
HETATM    9  C   UNL     1     -11.311  11.851  67.285  1.00  0.00    -0.393 C  
BRANCH   8  10
HETATM   10  C   UNL     1      -9.133  12.587  68.120  1.00  0.00    -0.204 C  
HETATM   11  H2  UNL     1      -8.379  13.479  69.010  1.00  0.00     0.000 HD 
HETATM   12  N   UNL     1      -8.183  12.480  68.940  1.00  0.00    -0.340 NA 
HETATM   13  H1  UNL     1      -7.414  12.392  69.605  1.00  0.00     0.000 HD 
ENDBRANCH   8  10
BRANCH   9  14
HETATM   14  C   UNL     1     -11.356  10.788  68.319  1.00  0.00    -0.376 A  
HETATM   15  C   UNL     1     -12.058  10.977  69.523  1.00  0.00    -0.400 A  
HETATM   16  C   UNL     1     -12.030   9.989  70.530  1.00  0.00    -0.272 A  
HETATM   17  C   UNL     1     -11.322   8.801  70.336  1.00  0.00    -0.192 A  
HETATM   18  N   UNL     1     -12.752  10.219  71.784  1.00  0.00    -0.433 N  
HETATM   19  C   UNL     1     -10.638   8.621  69.132  1.00  0.00    -0.178 A  
HETATM   20  O   UNL     1     -12.678   9.340  72.659  1.00  0.00    -0.303 OA 
HETATM   21  O   UNL     1     -13.394  11.272  71.899  1.00  0.00    -0.429 OA 
HETATM   22  O   UNL     1     -11.219   7.763  71.231  1.00  0.00    -0.247 OA 
HETATM   23  H   UNL     1     -10.738   6.954  71.098  1.00  0.00     0.000 HD 
HETATM   24  O   UNL     1      -9.938   7.464  68.924  1.00  0.00    -0.161 OA 
HETATM   25  C   UNL     1     -10.643   9.596  68.135  1.00  0.00    -0.273 A  
HETATM   26  H   UNL     1      -9.473   7.340  68.105  1.00  0.00     0.000 HD 
ENDBRANCH   9  14
ENDBRANCH   5   8
ENDBRANCH   2   3
TORSDOF 5
ENDMDL
MODEL       93
REMARK 921   NORMALIZED FREE ENERGY PREDICTED BY IDOCK:   -5.02 KCAL/MOL
REMARK 922        TOTAL FREE ENERGY PREDICTED BY IDOCK:   -6.61 KCAL/MOL
REMARK 923 INTER-LIGAND FREE ENERGY PREDICTED BY IDOCK:   -6.17 KCAL/MOL
REMARK 924 INTRA-LIGAND FREE ENERGY PREDICTED BY IDOCK:   -0.44 KCAL/MOL
REMARK 927      BINDING AFFINITY PREDICTED BY RF-SCORE:    0.00 PKD
ROOT
HETATM    1  C   UNL     1     -11.013   3.970  72.591  1.00  0.00     0.000 C  
HETATM    2  C   UNL     1     -11.116   5.392  73.130  1.00  0.00    -0.308 C  
ENDROOT
BRANCH   2   3
HETATM    3  N   UNL     1     -10.952   6.427  72.097  1.00  0.00    -0.239 N  
HETATM    4  O   UNL     1     -10.453   7.941  73.748  1.00  0.00    -0.006 OA 
HETATM    5  C   UNL     1     -10.666   7.723  72.549  1.00  0.00    -0.314 C  
BRANCH   3   6
HETATM    6  C   UNL     1     -11.110   6.060  70.681  1.00  0.00    -0.301 C  
HETATM    7  C   UNL     1      -9.882   5.816  69.818  1.00  0.00    -0.232 C  
ENDBRANCH   3   6
BRANCH   5   8
HETATM    8  C   UNL     1     -10.602   8.900  71.613  1.00  0.00    -0.422 C  
HETATM    9  C   UNL     1     -11.743   9.526  71.235  1.00  0.00    -0.444 C  
BRANCH   8  10
HETATM   10  C   UNL     1      -9.307   9.455  71.041  1.00  0.00    -0.140 C  
HETATM   11  H2  UNL     1      -8.918  10.502  70.088  1.00  0.00     0.000 HD 
HETATM   12  N   UNL     1      -8.234   9.916  70.567  1.00  0.00    -0.399 NA 
HETATM   13  H1  UNL     1      -7.365  10.288  70.184  1.00  0.00     0.000 HD 
ENDBRANCH   8  10
BRANCH   9  14
HETATM   14  C   UNL     1     -11.786  10.715  70.348  1.00  0.00    -0.441 A  
HETATM   15  C   UNL     1     -11.981  12.004  70.873  1.00  0.00    -0.025 A  
HETATM   16  C   UNL     1     -12.096  13.117  70.013  1.00  0.00    -0.305 A  
HETATM   17  C   UNL     1     -11.995  12.955  68.628  1.00  0.00    -0.247 A  
HETATM   18  N   UNL     1     -12.319  14.448  70.583  1.00  0.00    -0.328 N  
HETATM   19  C   UNL     1     -11.791  11.671  68.121  1.00  0.00    -0.244 A  
HETATM   20  O   UNL     1     -12.447  15.398  69.793  1.00  0.00    -0.291 OA 
HETATM   21  O   UNL     1     -12.368  14.550  71.817  1.00  0.00    -0.335 OA 
HETATM   22  O   UNL     1     -12.085  13.952  67.687  1.00  0.00    -0.397 OA 
HETATM   23  H   UNL     1     -12.016  13.841  66.745  1.00  0.00     0.000 HD 
HETATM   24  O   UNL     1     -11.692  11.492  66.768  1.00  0.00    -0.510 OA 
HETATM   25  C   UNL     1     -11.692  10.560  68.959  1.00  0.00    -0.242 A  
HETATM   26  H   UNL     1     -11.552  10.618  66.422  1.00  0.00     0.000 HD 
ENDBRANCH   9  14
ENDBRANCH   5   8
ENDBRANCH   2   3
TORSDOF 5
ENDMDL
MODEL       94
REMARK 921   NORMALIZED FREE ENERGY PREDICTED BY IDOCK:   -5.01 KCAL/MOL
REMARK 922        TOTAL FREE ENERGY PREDICTED BY IDOCK:   -6.59 KCAL/MOL
REMARK 923 INTER-LIGAND FREE ENERGY PREDICTED BY IDOCK:   -6.02 KCAL/MOL
REMARK 924 INTRA-LIGAND FREE ENERGY PREDICTED BY IDOCK:   -0.58 KCAL/MOL
REMARK 927      BINDING AFFINITY PREDICTED BY RF-SCORE:    0.00 PKD
ROOT
HETATM    1  C   UNL     1     -10.243  10.919  65.677  1.00  0.00    -0.323 C  
HETATM    2  C   UNL     1     -11.174  11.643  66.641  1.00  0.00    -0.299 C  
ENDROOT
BRANCH   2   3
HETATM    3  N   UNL     1     -10.769  13.030  66.921  1.00  0.00    -0.261 N  
HETATM    4  O   UNL     1      -9.254  12.238  68.452  1.00  0.00    -0.192 OA 
HETATM    5  C   UNL     1      -9.806  13.210  67.924  1.00  0.00    -0.231 C  
BRANCH   3   6
HETATM    6  C   UNL     1     -11.393  14.127  66.166  1.00  0.00    -0.337 C  
HETATM    7  C   UNL     1     -10.695  14.700  64.942  1.00  0.00    -0.447 C  
ENDBRANCH   3   6
BRANCH   5   8
HETATM    8  C   UNL     1      -9.397  14.578  68.401  1.00  0.00    -0.208 C  
HETATM    9  C   UNL     1      -8.256  15.143  67.936  1.00  0.00    -0.152 C  
BRANCH   8  10
HETATM   10  C   UNL     1     -10.197  15.399  69.400  1.00  0.00    -0.262 C  
HETATM   11  H2  UNL     1     -11.341  15.180  70.294  1.00  0.00     0.000 HD 
HETATM   12  N   UNL     1     -10.862  16.078  70.228  1.00  0.00    -0.333 NA 
HETATM   13  H1  UNL     1     -11.399  16.628  70.898  1.00  0.00     0.000 HD 
ENDBRANCH   8  10
BRANCH   9  14
HETATM   14  C   UNL     1      -7.784  16.499  68.313  1.00  0.00    -0.176 A  
HETATM   15  C   UNL     1      -8.195  17.635  67.595  1.00  0.00    -0.225 A  
HETATM   16  C   UNL     1      -7.680  18.909  67.916  1.00  0.00    -0.261 A  
HETATM   17  C   UNL     1      -6.771  19.061  68.966  1.00  0.00    -0.299 A  
HETATM   18  N   UNL     1      -8.107  20.075  67.139  1.00  0.00    -0.307 N  
HETATM   19  C   UNL     1      -6.380  17.926  69.679  1.00  0.00    -0.171 A  
HETATM   20  O   UNL     1      -7.608  21.175  67.430  1.00  0.00    -0.380 OA 
HETATM   21  O   UNL     1      -8.940  19.899  66.239  1.00  0.00    -0.364 OA 
HETATM   22  O   UNL     1      -6.201  20.241  69.381  1.00  0.00    -0.320 OA 
HETATM   23  H   UNL     1      -5.583  20.344  70.096  1.00  0.00     0.000 HD 
HETATM   24  O   UNL     1      -5.489  18.054  70.710  1.00  0.00    -0.251 OA 
HETATM   25  C   UNL     1      -6.868  16.658  69.361  1.00  0.00    -0.218 A  
HETATM   26  H   UNL     1      -5.223  17.282  71.195  1.00  0.00     0.000 HD 
ENDBRANCH   9  14
ENDBRANCH   5   8
ENDBRANCH   2   3
TORSDOF 5
ENDMDL
MODEL       95
REMARK 921   NORMALIZED FREE ENERGY PREDICTED BY IDOCK:   -5.00 KCAL/MOL
REMARK 922        TOTAL FREE ENERGY PREDICTED BY IDOCK:   -6.58 KCAL/MOL
REMARK 923 INTER-LIGAND FREE ENERGY PREDICTED BY IDOCK:   -6.25 KCAL/MOL
REMARK 924 INTRA-LIGAND FREE ENERGY PREDICTED BY IDOCK:   -0.34 KCAL/MOL
REMARK 927      BINDING AFFINITY PREDICTED BY RF-SCORE:    0.00 PKD
ROOT
HETATM    1  C   UNL     1      -9.703   4.192  68.532  1.00  0.00    -0.148 C  
HETATM    2  C   UNL     1      -9.714   5.104  69.752  1.00  0.00    -0.193 C  
ENDROOT
BRANCH   2   3
HETATM    3  N   UNL     1      -9.723   6.537  69.416  1.00  0.00    -0.146 N  
HETATM    4  O   UNL     1     -10.316   7.002  71.584  1.00  0.00    -0.199 OA 
HETATM    5  C   UNL     1     -10.110   7.417  70.437  1.00  0.00    -0.192 C  
BRANCH   3   6
HETATM    6  C   UNL     1      -9.352   6.958  68.057  1.00  0.00    -0.123 C  
HETATM    7  C   UNL     1     -10.429   7.389  67.074  1.00  0.00    -0.404 C  
ENDBRANCH   3   6
BRANCH   5   8
HETATM    8  C   UNL     1     -10.288   8.892  70.195  1.00  0.00    -0.228 C  
HETATM    9  C   UNL     1     -11.534   9.424  70.151  1.00  0.00    -0.175 C  
BRANCH   8  10
HETATM   10  C   UNL     1      -9.133   9.860  69.990  1.00  0.00    -0.178 C  
HETATM   11  H2  UNL     1      -8.356  10.377  68.856  1.00  0.00     0.000 HD 
HETATM   12  N   UNL     1      -8.176  10.662  69.820  1.00  0.00    -0.364 NA 
HETATM   13  H1  UNL     1      -7.401  11.311  69.682  1.00  0.00     0.000 HD 
ENDBRANCH   8  10
BRANCH   9  14
HETATM   14  C   UNL     1     -11.816  10.868  69.956  1.00  0.00    -0.428 A  
HETATM   15  C   UNL     1     -11.604  11.486  68.711  1.00  0.00    -0.379 A  
HETATM   16  C   UNL     1     -11.803  12.875  68.559  1.00  0.00    -0.313 A  
HETATM   17  C   UNL     1     -12.235  13.650  69.638  1.00  0.00    -0.270 A  
HETATM   18  N   UNL     1     -11.555  13.499  67.257  1.00  0.00    -0.341 N  
HETATM   19  C   UNL     1     -12.453  13.022  70.865  1.00  0.00    -0.310 A  
HETATM   20  O   UNL     1     -11.710  14.728  67.170  1.00  0.00    -0.376 OA 
HETATM   21  O   UNL     1     -11.205  12.768  66.320  1.00  0.00    -0.279 OA 
HETATM   22  O   UNL     1     -12.470  15.004  69.620  1.00  0.00    -0.531 OA 
HETATM   23  H   UNL     1     -12.764  15.531  70.354  1.00  0.00     0.000 HD 
HETATM   24  O   UNL     1     -12.875  13.765  71.934  1.00  0.00    -0.333 OA 
HETATM   25  C   UNL     1     -12.244  11.653  71.034  1.00  0.00    -0.336 A  
HETATM   26  H   UNL     1     -13.024  13.338  72.769  1.00  0.00     0.000 HD 
ENDBRANCH   9  14
ENDBRANCH   5   8
ENDBRANCH   2   3
TORSDOF 5
ENDMDL
MODEL       96
REMARK 921   NORMALIZED FREE ENERGY PREDICTED BY IDOCK:   -5.00 KCAL/MOL
REMARK 922        TOTAL FREE ENERGY PREDICTED BY IDOCK:   -6.58 KCAL/MOL
REMARK 923 INTER-LIGAND FREE ENERGY PREDICTED BY IDOCK:   -5.96 KCAL/MOL
REMARK 924 INTRA-LIGAND FREE ENERGY PREDICTED BY IDOCK:   -0.62 KCAL/MOL
REMARK 927      BINDING AFFINITY PREDICTED BY RF-SCORE:    0.00 PKD
ROOT
HETATM    1  C   UNL     1      -9.226  10.034  62.524  1.00  0.00    -0.319 C  
HETATM    2  C   UNL     1      -8.574  10.473  63.830  1.00  0.00    -0.151 C  
ENDROOT
BRANCH   2   3
HETATM    3  N   UNL     1      -9.344  10.099  65.027  1.00  0.00    -0.220 N  
HETATM    4  O   UNL     1      -7.715   8.569  65.550  1.00  0.00    -0.087 OA 
HETATM    5  C   UNL     1      -8.822   9.057  65.807  1.00  0.00    -0.179 C  
BRANCH   3   6
HETATM    6  C   UNL     1     -10.597  10.808  65.326  1.00  0.00    -0.160 C  
HETATM    7  C   UNL     1     -10.586  12.017  66.247  1.00  0.00    -0.287 C  
ENDBRANCH   3   6
BRANCH   5   8
HETATM    8  C   UNL     1      -9.570   8.487  66.982  1.00  0.00    -0.246 C  
HETATM    9  C   UNL     1      -9.301   8.932  68.235  1.00  0.00    -0.149 C  
BRANCH   8  10
HETATM   10  C   UNL     1     -10.641   7.415  66.863  1.00  0.00    -0.305 C  
HETATM   11  H2  UNL     1     -11.912   7.245  66.146  1.00  0.00     0.000 HD 
HETATM   12  N   UNL     1     -11.530   6.527  66.763  1.00  0.00    -0.760 NA 
HETATM   13  H1  UNL     1     -12.249   5.807  66.682  1.00  0.00     0.000 HD 
ENDBRANCH   8  10
BRANCH   9  14
HETATM   14  C   UNL     1     -10.006   8.464  69.453  1.00  0.00    -0.191 A  
HETATM   15  C   UNL     1     -11.023   9.235  70.044  1.00  0.00    -0.254 A  
HETATM   16  C   UNL     1     -11.633   8.815  71.245  1.00  0.00    -0.292 A  
HETATM   17  C   UNL     1     -11.250   7.617  71.852  1.00  0.00    -0.257 A  
HETATM   18  N   UNL     1     -12.676   9.647  71.852  1.00  0.00    -0.399 N  
HETATM   19  C   UNL     1     -10.247   6.855  71.249  1.00  0.00    -0.198 A  
HETATM   20  O   UNL     1     -13.167   9.261  72.925  1.00  0.00    -0.260 OA 
HETATM   21  O   UNL     1     -13.007  10.684  71.261  1.00  0.00    -0.373 OA 
HETATM   22  O   UNL     1     -11.766   7.096  73.015  1.00  0.00    -0.543 OA 
HETATM   23  H   UNL     1     -11.506   6.280  73.427  1.00  0.00     0.000 HD 
HETATM   24  O   UNL     1      -9.858   5.678  71.830  1.00  0.00    -0.162 OA 
HETATM   25  C   UNL     1      -9.624   7.266  70.071  1.00  0.00    -0.167 A  
HETATM   26  H   UNL     1      -9.176   5.159  71.420  1.00  0.00     0.000 HD 
ENDBRANCH   9  14
ENDBRANCH   5   8
ENDBRANCH   2   3
TORSDOF 5
ENDMDL
MODEL       97
REMARK 921   NORMALIZED FREE ENERGY PREDICTED BY IDOCK:   -4.99 KCAL/MOL
REMARK 922        TOTAL FREE ENERGY PREDICTED BY IDOCK:   -6.56 KCAL/MOL
REMARK 923 INTER-LIGAND FREE ENERGY PREDICTED BY IDOCK:   -7.01 KCAL/MOL
REMARK 924 INTRA-LIGAND FREE ENERGY PREDICTED BY IDOCK:    0.45 KCAL/MOL
REMARK 927      BINDING AFFINITY PREDICTED BY RF-SCORE:    0.00 PKD
ROOT
HETATM    1  C   UNL     1     -10.631   7.478  68.960  1.00  0.00    -0.190 C  
HETATM    2  C   UNL     1      -9.766   8.442  69.762  1.00  0.00    -0.180 C  
ENDROOT
BRANCH   2   3
HETATM    3  N   UNL     1      -9.735   9.805  69.209  1.00  0.00    -0.185 N  
HETATM    4  O   UNL     1     -11.548  10.334  70.514  1.00  0.00    -0.288 OA 
HETATM    5  C   UNL     1     -10.749  10.676  69.634  1.00  0.00    -0.244 C  
BRANCH   3   6
HETATM    6  C   UNL     1      -8.680  10.169  68.252  1.00  0.00    -0.120 C  
HETATM    7  C   UNL     1      -8.434   9.303  67.027  1.00  0.00    -0.124 C  
ENDBRANCH   3   6
BRANCH   5   8
HETATM    8  C   UNL     1     -10.914  12.054  69.052  1.00  0.00    -0.260 C  
HETATM    9  C   UNL     1     -10.197  12.416  67.959  1.00  0.00    -0.219 C  
BRANCH   8  10
HETATM   10  C   UNL     1     -11.857  13.104  69.618  1.00  0.00    -0.324 C  
HETATM   11  H2  UNL     1     -11.738  14.437  70.223  1.00  0.00     0.000 HD 
HETATM   12  N   UNL     1     -12.637  13.974  70.088  1.00  0.00    -0.339 NA 
HETATM   13  H1  UNL     1     -13.270  14.679  70.468  1.00  0.00     0.000 HD 
ENDBRANCH   8  10
BRANCH   9  14
HETATM   14  C   UNL     1     -10.313  13.734  67.287  1.00  0.00    -0.253 A  
HETATM   15  C   UNL     1     -11.132  13.902  66.157  1.00  0.00    -0.299 A  
HETATM   16  C   UNL     1     -11.175  15.140  65.481  1.00  0.00    -0.320 A  
HETATM   17  C   UNL     1     -10.420  16.223  65.940  1.00  0.00    -0.345 A  
HETATM   18  N   UNL     1     -12.020  15.284  64.293  1.00  0.00    -0.341 N  
HETATM   19  C   UNL     1      -9.620  16.046  67.070  1.00  0.00    -0.219 A  
HETATM   20  O   UNL     1     -12.007  16.379  63.707  1.00  0.00    -0.964 OA 
HETATM   21  O   UNL     1     -12.698  14.308  63.942  1.00  0.00    -0.749 OA 
HETATM   22  O   UNL     1     -10.376  17.476  65.379  1.00  0.00    -0.629 OA 
HETATM   23  H   UNL     1      -9.864  18.213  65.691  1.00  0.00     0.000 HD 
HETATM   24  O   UNL     1      -8.873  17.095  67.533  1.00  0.00    -0.213 OA 
HETATM   25  C   UNL     1      -9.555  14.823  67.737  1.00  0.00    -0.209 A  
HETATM   26  H   UNL     1      -8.328  16.975  68.303  1.00  0.00     0.000 HD 
ENDBRANCH   9  14
ENDBRANCH   5   8
ENDBRANCH   2   3
TORSDOF 5
ENDMDL
MODEL       98
REMARK 921   NORMALIZED FREE ENERGY PREDICTED BY IDOCK:   -4.98 KCAL/MOL
REMARK 922        TOTAL FREE ENERGY PREDICTED BY IDOCK:   -6.55 KCAL/MOL
REMARK 923 INTER-LIGAND FREE ENERGY PREDICTED BY IDOCK:   -6.04 KCAL/MOL
REMARK 924 INTRA-LIGAND FREE ENERGY PREDICTED BY IDOCK:   -0.51 KCAL/MOL
REMARK 927      BINDING AFFINITY PREDICTED BY RF-SCORE:    0.00 PKD
ROOT
HETATM    1  C   UNL     1      -7.032   6.194  65.701  1.00  0.00    -0.057 C  
HETATM    2  C   UNL     1      -8.302   6.926  65.284  1.00  0.00    -0.098 C  
ENDROOT
BRANCH   2   3
HETATM    3  N   UNL     1      -8.865   7.779  66.342  1.00  0.00    -0.148 N  
HETATM    4  O   UNL     1      -8.913   9.526  64.854  1.00  0.00    -0.197 OA 
HETATM    5  C   UNL     1      -9.083   9.124  66.011  1.00  0.00    -0.197 C  
BRANCH   3   6
HETATM    6  C   UNL     1      -9.146   7.195  67.662  1.00  0.00    -0.127 C  
HETATM    7  C   UNL     1     -10.536   6.669  67.980  1.00  0.00    -0.300 C  
ENDBRANCH   3   6
BRANCH   5   8
HETATM    8  C   UNL     1      -9.531  10.135  67.033  1.00  0.00    -0.197 C  
HETATM    9  C   UNL     1     -10.768  10.682  66.946  1.00  0.00    -0.297 C  
BRANCH   8  10
HETATM   10  C   UNL     1      -8.668  10.601  68.195  1.00  0.00    -0.130 C  
HETATM   11  H2  UNL     1      -8.882  11.229  69.505  1.00  0.00     0.000 HD 
HETATM   12  N   UNL     1      -7.953  10.988  69.158  1.00  0.00    -0.298 NA 
HETATM   13  H1  UNL     1      -7.374  11.301  69.938  1.00  0.00     0.000 HD 
ENDBRANCH   8  10
BRANCH   9  14
HETATM   14  C   UNL     1     -11.318  11.656  67.920  1.00  0.00    -0.369 A  
HETATM   15  C   UNL     1     -11.791  11.236  69.176  1.00  0.00    -0.423 A  
HETATM   16  C   UNL     1     -12.382  12.160  70.064  1.00  0.00    -0.096 A  
HETATM   17  C   UNL     1     -12.485  13.509  69.715  1.00  0.00    -0.098 A  
HETATM   18  N   UNL     1     -12.885  11.695  71.359  1.00  0.00    -0.399 N  
HETATM   19  C   UNL     1     -12.002  13.915  68.470  1.00  0.00    -0.359 A  
HETATM   20  O   UNL     1     -13.427  12.532  72.099  1.00  0.00    -0.532 OA 
HETATM   21  O   UNL     1     -12.742  10.497  71.640  1.00  0.00    -0.405 OA 
HETATM   22  O   UNL     1     -13.032  14.507  70.487  1.00  0.00    -0.442 OA 
HETATM   23  H   UNL     1     -13.102  15.424  70.249  1.00  0.00     0.000 HD 
HETATM   24  O   UNL     1     -12.096  15.232  68.110  1.00  0.00    -0.499 OA 
HETATM   25  C   UNL     1     -11.431  13.009  67.576  1.00  0.00    -0.375 A  
HETATM   26  H   UNL     1     -11.767  15.508  67.263  1.00  0.00     0.000 HD 
ENDBRANCH   9  14
ENDBRANCH   5   8
ENDBRANCH   2   3
TORSDOF 5
ENDMDL
MODEL       99
REMARK 921   NORMALIZED FREE ENERGY PREDICTED BY IDOCK:   -4.96 KCAL/MOL
REMARK 922        TOTAL FREE ENERGY PREDICTED BY IDOCK:   -6.53 KCAL/MOL
REMARK 923 INTER-LIGAND FREE ENERGY PREDICTED BY IDOCK:   -6.04 KCAL/MOL
REMARK 924 INTRA-LIGAND FREE ENERGY PREDICTED BY IDOCK:   -0.48 KCAL/MOL
REMARK 927      BINDING AFFINITY PREDICTED BY RF-SCORE:    0.00 PKD
ROOT
HETATM    1  C   UNL     1     -10.673   5.720  66.662  1.00  0.00    -0.333 C  
HETATM    2  C   UNL     1      -9.446   6.213  67.418  1.00  0.00    -0.114 C  
ENDROOT
BRANCH   2   3
HETATM    3  N   UNL     1      -9.294   7.677  67.403  1.00  0.00    -0.138 N  
HETATM    4  O   UNL     1     -10.586   7.791  69.297  1.00  0.00    -0.220 OA 
HETATM    5  C   UNL     1      -9.983   8.387  68.397  1.00  0.00    -0.187 C  
BRANCH   3   6
HETATM    6  C   UNL     1      -8.464   8.303  66.364  1.00  0.00    -0.121 C  
HETATM    7  C   UNL     1      -9.120   9.043  65.209  1.00  0.00    -0.226 C  
ENDBRANCH   3   6
BRANCH   5   8
HETATM    8  C   UNL     1     -10.021   9.892  68.421  1.00  0.00    -0.177 C  
HETATM    9  C   UNL     1     -11.160  10.545  68.081  1.00  0.00    -0.346 C  
BRANCH   8  10
HETATM   10  C   UNL     1      -8.837  10.761  68.814  1.00  0.00    -0.163 C  
HETATM   11  H2  UNL     1      -8.231  11.247  70.060  1.00  0.00     0.000 HD 
HETATM   12  N   UNL     1      -7.856  11.481  69.140  1.00  0.00    -0.346 NA 
HETATM   13  H1  UNL     1      -7.061  12.064  69.404  1.00  0.00     0.000 HD 
ENDBRANCH   8  10
BRANCH   9  14
HETATM   14  C   UNL     1     -11.313  12.020  68.107  1.00  0.00    -0.349 A  
HETATM   15  C   UNL     1     -11.003  12.802  66.981  1.00  0.00    -0.295 A  
HETATM   16  C   UNL     1     -11.079  14.209  67.043  1.00  0.00    -0.307 A  
HETATM   17  C   UNL     1     -11.487  14.844  68.219  1.00  0.00    -0.324 A  
HETATM   18  N   UNL     1     -10.730  15.003  65.861  1.00  0.00    -0.318 N  
HETATM   19  C   UNL     1     -11.803  14.056  69.327  1.00  0.00    -0.344 A  
HETATM   20  O   UNL     1     -10.780  16.239  65.964  1.00  0.00    -0.295 OA 
HETATM   21  O   UNL     1     -10.408  14.396  64.830  1.00  0.00    -0.421 OA 
HETATM   22  O   UNL     1     -11.607  16.200  68.408  1.00  0.00    -0.355 OA 
HETATM   23  H   UNL     1     -11.884  16.632  69.208  1.00  0.00     0.000 HD 
HETATM   24  O   UNL     1     -12.202  14.660  70.488  1.00  0.00    -0.283 OA 
HETATM   25  C   UNL     1     -11.715  12.665  69.284  1.00  0.00    -0.379 A  
HETATM   26  H   UNL     1     -12.418  14.125  71.242  1.00  0.00     0.000 HD 
ENDBRANCH   9  14
ENDBRANCH   5   8
ENDBRANCH   2   3
TORSDOF 5
ENDMDL
MODEL      100
REMARK 921   NORMALIZED FREE ENERGY PREDICTED BY IDOCK:   -4.95 KCAL/MOL
REMARK 922        TOTAL FREE ENERGY PREDICTED BY IDOCK:   -6.52 KCAL/MOL
REMARK 923 INTER-LIGAND FREE ENERGY PREDICTED BY IDOCK:   -6.07 KCAL/MOL
REMARK 924 INTRA-LIGAND FREE ENERGY PREDICTED BY IDOCK:   -0.45 KCAL/MOL
REMARK 927      BINDING AFFINITY PREDICTED BY RF-SCORE:    0.00 PKD
ROOT
HETATM    1  C   UNL     1      -5.792   4.896  65.780  1.00  0.00    -0.022 C  
HETATM    2  C   UNL     1      -5.917   6.359  65.374  1.00  0.00    -0.029 C  
ENDROOT
BRANCH   2   3
HETATM    3  N   UNL     1      -6.976   7.081  66.096  1.00  0.00    -0.064 N  
HETATM    4  O   UNL     1      -7.912   7.646  64.077  1.00  0.00    -0.134 OA 
HETATM    5  C   UNL     1      -7.920   7.758  65.309  1.00  0.00    -0.127 C  
BRANCH   3   6
HETATM    6  C   UNL     1      -6.980   7.071  67.566  1.00  0.00    -0.079 C  
HETATM    7  C   UNL     1      -6.280   8.179  68.337  1.00  0.00    -0.049 C  
ENDBRANCH   3   6
BRANCH   5   8
HETATM    8  C   UNL     1      -8.978   8.642  65.914  1.00  0.00    -0.245 C  
HETATM    9  C   UNL     1      -8.926   9.983  65.726  1.00  0.00    -0.187 C  
BRANCH   8  10
HETATM   10  C   UNL     1     -10.138   8.121  66.748  1.00  0.00    -0.295 C  
HETATM   11  H2  UNL     1     -11.138   7.051  66.641  1.00  0.00     0.000 HD 
HETATM   12  N   UNL     1     -11.100   7.688  67.437  1.00  0.00    -0.511 NA 
HETATM   13  H1  UNL     1     -11.878   7.338  67.997  1.00  0.00     0.000 HD 
ENDBRANCH   8  10
BRANCH   9  14
HETATM   14  C   UNL     1      -9.938  10.936  66.247  1.00  0.00    -0.274 A  
HETATM   15  C   UNL     1     -10.888  11.523  65.394  1.00  0.00    -0.318 A  
HETATM   16  C   UNL     1     -11.795  12.485  65.886  1.00  0.00    -0.430 A  
HETATM   17  C   UNL     1     -11.776  12.850  67.235  1.00  0.00    -0.373 A  
HETATM   18  N   UNL     1     -12.762  13.098  64.972  1.00  0.00    -0.437 N  
HETATM   19  C   UNL     1     -10.835  12.251  68.075  1.00  0.00    -0.220 A  
HETATM   20  O   UNL     1     -13.523  13.963  65.436  1.00  0.00    -0.672 OA 
HETATM   21  O   UNL     1     -12.766  12.720  63.793  1.00  0.00    -0.689 OA 
HETATM   22  O   UNL     1     -12.604  13.766  67.839  1.00  0.00    -0.279 OA 
HETATM   23  H   UNL     1     -12.591  14.014  68.756  1.00  0.00     0.000 HD 
HETATM   24  O   UNL     1     -10.800  12.597  69.398  1.00  0.00    -0.440 OA 
HETATM   25  C   UNL     1      -9.921  11.312  67.597  1.00  0.00    -0.197 A  
HETATM   26  H   UNL     1     -10.160  12.190  69.970  1.00  0.00     0.000 HD 
ENDBRANCH   9  14
ENDBRANCH   5   8
ENDBRANCH   2   3
TORSDOF 5
ENDMDL
MODEL      101
REMARK 921   NORMALIZED FREE ENERGY PREDICTED BY IDOCK:   -4.95 KCAL/MOL
REMARK 922        TOTAL FREE ENERGY PREDICTED BY IDOCK:   -6.51 KCAL/MOL
REMARK 923 INTER-LIGAND FREE ENERGY PREDICTED BY IDOCK:   -6.05 KCAL/MOL
REMARK 924 INTRA-LIGAND FREE ENERGY PREDICTED BY IDOCK:   -0.47 KCAL/MOL
REMARK 927      BINDING AFFINITY PREDICTED BY RF-SCORE:    0.00 PKD
ROOT
HETATM    1  C   UNL     1      -9.313   9.865  62.651  1.00  0.00    -0.249 C  
HETATM    2  C   UNL     1      -8.966  11.132  63.423  1.00  0.00    -0.092 C  
ENDROOT
BRANCH   2   3
HETATM    3  N   UNL     1      -9.359  11.085  64.840  1.00  0.00    -0.216 N  
HETATM    4  O   UNL     1     -10.268  13.181  64.618  1.00  0.00    -0.349 OA 
HETATM    5  C   UNL     1      -9.975  12.234  65.357  1.00  0.00    -0.244 C  
BRANCH   3   6
HETATM    6  C   UNL     1      -9.076   9.873  65.624  1.00  0.00    -0.178 C  
HETATM    7  C   UNL     1      -7.690   9.652  66.208  1.00  0.00    -0.101 C  
ENDBRANCH   3   6
BRANCH   5   8
HETATM    8  C   UNL     1     -10.309  12.371  66.819  1.00  0.00    -0.239 C  
HETATM    9  C   UNL     1     -11.584  12.190  67.240  1.00  0.00    -0.404 C  
BRANCH   8  10
HETATM   10  C   UNL     1      -9.285  12.709  67.891  1.00  0.00    -0.201 C  
HETATM   11  H2  UNL     1      -8.426  13.850  68.231  1.00  0.00     0.000 HD 
HETATM   12  N   UNL     1      -8.436  12.989  68.779  1.00  0.00    -0.365 NA 
HETATM   13  H1  UNL     1      -7.749  13.216  69.499  1.00  0.00     0.000 HD 
ENDBRANCH   8  10
BRANCH   9  14
HETATM   14  C   UNL     1     -12.010  12.266  68.660  1.00  0.00    -0.276 A  
HETATM   15  C   UNL     1     -12.065  13.498  69.335  1.00  0.00    -0.340 A  
HETATM   16  C   UNL     1     -12.398  13.549  70.706  1.00  0.00    -0.363 A  
HETATM   17  C   UNL     1     -12.699  12.377  71.404  1.00  0.00    -0.243 A  
HETATM   18  N   UNL     1     -12.428  14.843  71.392  1.00  0.00    -0.314 N  
HETATM   19  C   UNL     1     -12.652  11.161  70.719  1.00  0.00    -0.352 A  
HETATM   20  O   UNL     1     -12.694  14.844  72.605  1.00  0.00    -0.335 OA 
HETATM   21  O   UNL     1     -12.187  15.859  70.725  1.00  0.00    -0.402 OA 
HETATM   22  O   UNL     1     -13.041  12.290  72.733  1.00  0.00    -0.202 OA 
HETATM   23  H   UNL     1     -13.246  11.493  73.207  1.00  0.00     0.000 HD 
HETATM   24  O   UNL     1     -12.943  10.003  71.387  1.00  0.00    -0.358 OA 
HETATM   25  C   UNL     1     -12.308  11.095  69.369  1.00  0.00    -0.224 A  
HETATM   26  H   UNL     1     -12.911   9.176  70.921  1.00  0.00     0.000 HD 
ENDBRANCH   9  14
ENDBRANCH   5   8
ENDBRANCH   2   3
TORSDOF 5
ENDMDL
MODEL      102
REMARK 921   NORMALIZED FREE ENERGY PREDICTED BY IDOCK:   -4.94 KCAL/MOL
REMARK 922        TOTAL FREE ENERGY PREDICTED BY IDOCK:   -6.50 KCAL/MOL
REMARK 923 INTER-LIGAND FREE ENERGY PREDICTED BY IDOCK:   -5.90 KCAL/MOL
REMARK 924 INTRA-LIGAND FREE ENERGY PREDICTED BY IDOCK:   -0.61 KCAL/MOL
REMARK 927      BINDING AFFINITY PREDICTED BY RF-SCORE:    0.00 PKD
ROOT
HETATM    1  C   UNL     1     -11.052   1.856  72.809  1.00  0.00    -0.089 C  
HETATM    2  C   UNL     1      -9.807   2.600  73.275  1.00  0.00    -0.102 C  
ENDROOT
BRANCH   2   3
HETATM    3  N   UNL     1      -9.691   3.959  72.721  1.00  0.00    -0.133 N  
HETATM    4  O   UNL     1     -10.882   4.750  74.517  1.00  0.00    -0.347 OA 
HETATM    5  C   UNL     1     -10.343   4.980  73.428  1.00  0.00    -0.202 C  
BRANCH   3   6
HETATM    6  C   UNL     1      -8.933   4.166  71.478  1.00  0.00    -0.119 C  
HETATM    7  C   UNL     1      -9.618   3.995  70.132  1.00  0.00    -0.270 C  
ENDBRANCH   3   6
BRANCH   5   8
HETATM    8  C   UNL     1     -10.417   6.390  72.907  1.00  0.00    -0.243 C  
HETATM    9  C   UNL     1     -11.421   6.750  72.070  1.00  0.00    -0.317 C  
BRANCH   8  10
HETATM   10  C   UNL     1      -9.414   7.476  73.263  1.00  0.00    -0.240 C  
HETATM   11  H2  UNL     1      -8.770   7.982  74.482  1.00  0.00     0.000 HD 
HETATM   12  N   UNL     1      -8.582   8.375  73.560  1.00  0.00    -0.344 NA 
HETATM   13  H1  UNL     1      -7.909   9.104  73.799  1.00  0.00     0.000 HD 
ENDBRANCH   8  10
BRANCH   9  14
HETATM   14  C   UNL     1     -11.604   8.120  71.531  1.00  0.00    -0.315 A  
HETATM   15  C   UNL     1     -10.898   8.553  70.395  1.00  0.00    -0.251 A  
HETATM   16  C   UNL     1     -11.023   9.882  69.937  1.00  0.00    -0.281 A  
HETATM   17  C   UNL     1     -11.869  10.779  70.594  1.00  0.00    -0.360 A  
HETATM   18  N   UNL     1     -10.261  10.314  68.763  1.00  0.00    -0.181 N  
HETATM   19  C   UNL     1     -12.573  10.334  71.715  1.00  0.00    -0.389 A  
HETATM   20  O   UNL     1     -10.373  11.500  68.410  1.00  0.00    -0.188 OA 
HETATM   21  O   UNL     1      -9.550   9.476  68.192  1.00  0.00    -0.137 OA 
HETATM   22  O   UNL     1     -12.082  12.093  70.250  1.00  0.00    -0.339 OA 
HETATM   23  H   UNL     1     -12.658  12.703  70.697  1.00  0.00     0.000 HD 
HETATM   24  O   UNL     1     -13.404  11.199  72.372  1.00  0.00    -0.600 OA 
HETATM   25  C   UNL     1     -12.445   9.028  72.188  1.00  0.00    -0.450 A  
HETATM   26  H   UNL     1     -13.884  10.896  73.134  1.00  0.00     0.000 HD 
ENDBRANCH   9  14
ENDBRANCH   5   8
ENDBRANCH   2   3
TORSDOF 5
ENDMDL
MODEL      103
REMARK 921   NORMALIZED FREE ENERGY PREDICTED BY IDOCK:   -4.94 KCAL/MOL
REMARK 922        TOTAL FREE ENERGY PREDICTED BY IDOCK:   -6.50 KCAL/MOL
REMARK 923 INTER-LIGAND FREE ENERGY PREDICTED BY IDOCK:   -6.06 KCAL/MOL
REMARK 924 INTRA-LIGAND FREE ENERGY PREDICTED BY IDOCK:   -0.44 KCAL/MOL
REMARK 927      BINDING AFFINITY PREDICTED BY RF-SCORE:    0.00 PKD
ROOT
HETATM    1  C   UNL     1     -11.890  12.176  63.234  1.00  0.00    -0.466 C  
HETATM    2  C   UNL     1     -12.377  11.858  64.642  1.00  0.00    -0.020 C  
ENDROOT
BRANCH   2   3
HETATM    3  N   UNL     1     -11.468  12.328  65.700  1.00  0.00    -0.355 N  
HETATM    4  O   UNL     1     -12.757  14.215  65.915  1.00  0.00    -0.487 OA 
HETATM    5  C   UNL     1     -11.738  13.594  66.240  1.00  0.00    -0.367 C  
BRANCH   3   6
HETATM    6  C   UNL     1     -10.343  11.476  66.111  1.00  0.00    -0.245 C  
HETATM    7  C   UNL     1     -10.595  10.244  66.966  1.00  0.00    -0.302 C  
ENDBRANCH   3   6
BRANCH   5   8
HETATM    8  C   UNL     1     -10.817  14.251  67.233  1.00  0.00    -0.285 C  
HETATM    9  C   UNL     1      -9.752  14.967  66.796  1.00  0.00    -0.263 C  
BRANCH   8  10
HETATM   10  C   UNL     1     -11.002  14.168  68.740  1.00  0.00    -0.257 C  
HETATM   11  H2  UNL     1     -11.090  15.110  69.863  1.00  0.00     0.000 HD 
HETATM   12  N   UNL     1     -11.155  14.100  69.989  1.00  0.00    -0.471 NA 
HETATM   13  H1  UNL     1     -11.279  14.044  71.000  1.00  0.00     0.000 HD 
ENDBRANCH   8  10
BRANCH   9  14
HETATM   14  C   UNL     1      -8.808  15.683  67.689  1.00  0.00    -0.181 A  
HETATM   15  C   UNL     1      -8.811  17.086  67.772  1.00  0.00    -0.223 A  
HETATM   16  C   UNL     1      -7.858  17.758  68.566  1.00  0.00    -0.290 A  
HETATM   17  C   UNL     1      -6.912  17.037  69.299  1.00  0.00    -0.198 A  
HETATM   18  N   UNL     1      -7.869  19.223  68.620  1.00  0.00    -0.352 N  
HETATM   19  C   UNL     1      -6.926  15.643  69.216  1.00  0.00    -0.179 A  
HETATM   20  O   UNL     1      -6.995  19.779  69.305  1.00  0.00    -0.341 OA 
HETATM   21  O   UNL     1      -8.747  19.820  67.982  1.00  0.00    -0.312 OA 
HETATM   22  O   UNL     1      -5.937  17.567  70.109  1.00  0.00    -0.237 OA 
HETATM   23  H   UNL     1      -5.294  17.076  70.608  1.00  0.00     0.000 HD 
HETATM   24  O   UNL     1      -6.006  14.919  69.925  1.00  0.00    -0.113 OA 
HETATM   25  C   UNL     1      -7.852  14.967  68.422  1.00  0.00    -0.121 A  
HETATM   26  H   UNL     1      -6.016  13.971  69.870  1.00  0.00     0.000 HD 
ENDBRANCH   9  14
ENDBRANCH   5   8
ENDBRANCH   2   3
TORSDOF 5
ENDMDL
MODEL      104
REMARK 921   NORMALIZED FREE ENERGY PREDICTED BY IDOCK:   -4.94 KCAL/MOL
REMARK 922        TOTAL FREE ENERGY PREDICTED BY IDOCK:   -6.50 KCAL/MOL
REMARK 923 INTER-LIGAND FREE ENERGY PREDICTED BY IDOCK:   -6.34 KCAL/MOL
REMARK 924 INTRA-LIGAND FREE ENERGY PREDICTED BY IDOCK:   -0.16 KCAL/MOL
REMARK 927      BINDING AFFINITY PREDICTED BY RF-SCORE:    0.00 PKD
ROOT
HETATM    1  C   UNL     1     -10.621  18.578  66.834  1.00  0.00    -0.406 C  
HETATM    2  C   UNL     1     -10.483  17.690  68.063  1.00  0.00    -0.394 C  
ENDROOT
BRANCH   2   3
HETATM    3  N   UNL     1     -10.486  16.251  67.754  1.00  0.00    -0.288 N  
HETATM    4  O   UNL     1     -12.268  15.988  69.176  1.00  0.00    -0.221 OA 
HETATM    5  C   UNL     1     -11.422  15.465  68.441  1.00  0.00    -0.355 C  
BRANCH   3   6
HETATM    6  C   UNL     1      -9.520  15.724  66.779  1.00  0.00    -0.240 C  
HETATM    7  C   UNL     1      -8.028  15.824  67.056  1.00  0.00    -0.272 C  
ENDBRANCH   3   6
BRANCH   5   8
HETATM    8  C   UNL     1     -11.448  13.965  68.319  1.00  0.00    -0.346 C  
HETATM    9  C   UNL     1     -11.070  13.194  69.368  1.00  0.00    -0.140 C  
BRANCH   8  10
HETATM   10  C   UNL     1     -11.882  13.227  67.062  1.00  0.00    -0.390 C  
HETATM   11  H2  UNL     1     -12.705  13.515  65.880  1.00  0.00     0.000 HD 
HETATM   12  N   UNL     1     -12.243  12.617  66.020  1.00  0.00    -0.597 NA 
HETATM   13  H1  UNL     1     -12.534  12.122  65.177  1.00  0.00     0.000 HD 
ENDBRANCH   8  10
BRANCH   9  14
HETATM   14  C   UNL     1     -11.095  11.710  69.363  1.00  0.00    -0.268 A  
HETATM   15  C   UNL     1     -11.878  10.995  70.286  1.00  0.00    -0.456 A  
HETATM   16  C   UNL     1     -11.834   9.585  70.321  1.00  0.00    -0.057 A  
HETATM   17  C   UNL     1     -11.028   8.880  69.424  1.00  0.00    -0.048 A  
HETATM   18  N   UNL     1     -12.644   8.864  71.306  1.00  0.00    -0.295 N  
HETATM   19  C   UNL     1     -10.264   9.602  68.505  1.00  0.00    -0.193 A  
HETATM   20  O   UNL     1     -12.554   7.625  71.327  1.00  0.00    -0.323 OA 
HETATM   21  O   UNL     1     -13.369   9.528  72.059  1.00  0.00    -0.396 OA 
HETATM   22  O   UNL     1     -10.899   7.514  69.351  1.00  0.00    -0.321 OA 
HETATM   23  H   UNL     1     -10.351   7.035  68.740  1.00  0.00     0.000 HD 
HETATM   24  O   UNL     1      -9.467   8.929  67.619  1.00  0.00    -0.135 OA 
HETATM   25  C   UNL     1     -10.285  10.997  68.471  1.00  0.00    -0.203 A  
HETATM   26  H   UNL     1      -8.947   9.420  66.994  1.00  0.00     0.000 HD 
ENDBRANCH   9  14
ENDBRANCH   5   8
ENDBRANCH   2   3
TORSDOF 5
ENDMDL
MODEL      105
REMARK 921   NORMALIZED FREE ENERGY PREDICTED BY IDOCK:   -4.93 KCAL/MOL
REMARK 922        TOTAL FREE ENERGY PREDICTED BY IDOCK:   -6.49 KCAL/MOL
REMARK 923 INTER-LIGAND FREE ENERGY PREDICTED BY IDOCK:   -7.38 KCAL/MOL
REMARK 924 INTRA-LIGAND FREE ENERGY PREDICTED BY IDOCK:    0.89 KCAL/MOL
REMARK 927      BINDING AFFINITY PREDICTED BY RF-SCORE:    0.00 PKD
ROOT
HETATM    1  C   UNL     1      -7.422  19.381  68.953  1.00  0.00    -0.399 C  
HETATM    2  C   UNL     1      -8.646  19.580  68.067  1.00  0.00    -0.325 C  
ENDROOT
BRANCH   2   3
HETATM    3  N   UNL     1      -8.843  18.503  67.084  1.00  0.00    -0.266 N  
HETATM    4  O   UNL     1     -10.586  17.717  68.354  1.00  0.00    -0.366 OA 
HETATM    5  C   UNL     1      -9.844  17.564  67.377  1.00  0.00    -0.297 C  
BRANCH   3   6
HETATM    6  C   UNL     1      -7.991  18.458  65.887  1.00  0.00    -0.005 C  
HETATM    7  C   UNL     1      -6.634  17.775  65.944  1.00  0.00    -0.271 C  
ENDBRANCH   3   6
BRANCH   5   8
HETATM    8  C   UNL     1     -10.064  16.342  66.527  1.00  0.00    -0.301 C  
HETATM    9  C   UNL     1      -9.740  15.116  67.008  1.00  0.00    -0.237 C  
BRANCH   8  10
HETATM   10  C   UNL     1     -10.644  16.383  65.122  1.00  0.00    -0.264 C  
HETATM   11  H2  UNL     1     -10.895  15.425  64.037  1.00  0.00     0.000 HD 
HETATM   12  N   UNL     1     -11.124  16.416  63.957  1.00  0.00    -1.220 NA 
HETATM   13  H1  UNL     1     -11.514  16.444  63.015  1.00  0.00     0.000 HD 
ENDBRANCH   8  10
BRANCH   9  14
HETATM   14  C   UNL     1      -9.952  13.848  66.267  1.00  0.00    -0.315 A  
HETATM   15  C   UNL     1     -10.876  13.772  65.210  1.00  0.00    -0.326 A  
HETATM   16  C   UNL     1     -11.124  12.543  64.563  1.00  0.00    -0.317 A  
HETATM   17  C   UNL     1     -10.439  11.389  64.951  1.00  0.00    -0.305 A  
HETATM   18  N   UNL     1     -12.107  12.485  63.478  1.00  0.00    -0.534 N  
HETATM   19  C   UNL     1      -9.516  11.480  65.995  1.00  0.00    -0.229 A  
HETATM   20  O   UNL     1     -12.321  11.380  62.955  1.00  0.00    -0.093 OA 
HETATM   21  O   UNL     1     -12.666  13.540  63.145  1.00  0.00    -0.718 OA 
HETATM   22  O   UNL     1     -10.584  10.137  64.403  1.00  0.00    -0.231 OA 
HETATM   23  H   UNL     1     -10.117   9.352  64.666  1.00  0.00     0.000 HD 
HETATM   24  O   UNL     1      -8.836  10.360  66.389  1.00  0.00    -0.143 OA 
HETATM   25  C   UNL     1      -9.273  12.686  66.654  1.00  0.00    -0.218 A  
HETATM   26  H   UNL     1      -8.208  10.422  67.099  1.00  0.00     0.000 HD 
ENDBRANCH   9  14
ENDBRANCH   5   8
ENDBRANCH   2   3
TORSDOF 5
ENDMDL
MODEL      106
REMARK 921   NORMALIZED FREE ENERGY PREDICTED BY IDOCK:   -4.93 KCAL/MOL
REMARK 922        TOTAL FREE ENERGY PREDICTED BY IDOCK:   -6.48 KCAL/MOL
REMARK 923 INTER-LIGAND FREE ENERGY PREDICTED BY IDOCK:   -6.06 KCAL/MOL
REMARK 924 INTRA-LIGAND FREE ENERGY PREDICTED BY IDOCK:   -0.43 KCAL/MOL
REMARK 927      BINDING AFFINITY PREDICTED BY RF-SCORE:    0.00 PKD
ROOT
HETATM    1  C   UNL     1      -6.308   5.987  70.331  1.00  0.00    -0.032 C  
HETATM    2  C   UNL     1      -5.694   6.910  69.285  1.00  0.00    -0.018 C  
ENDROOT
BRANCH   2   3
HETATM    3  N   UNL     1      -6.655   7.373  68.272  1.00  0.00    -0.048 N  
HETATM    4  O   UNL     1      -6.990   9.274  69.514  1.00  0.00    -0.049 OA 
HETATM    5  C   UNL     1      -7.305   8.588  68.535  1.00  0.00    -0.092 C  
BRANCH   3   6
HETATM    6  C   UNL     1      -6.890   6.551  67.075  1.00  0.00    -0.066 C  
HETATM    7  C   UNL     1      -7.629   5.228  67.195  1.00  0.00    -0.092 C  
ENDBRANCH   3   6
BRANCH   5   8
HETATM    8  C   UNL     1      -8.404   9.113  67.650  1.00  0.00    -0.116 C  
HETATM    9  C   UNL     1      -8.152  10.134  66.794  1.00  0.00    -0.119 C  
BRANCH   8  10
HETATM   10  C   UNL     1      -9.821   8.563  67.646  1.00  0.00    -0.174 C  
HETATM   11  H2  UNL     1     -10.946   8.492  68.588  1.00  0.00     0.000 HD 
HETATM   12  N   UNL     1     -10.996   8.107  67.644  1.00  0.00    -0.502 NA 
HETATM   13  H1  UNL     1     -11.948   7.739  67.642  1.00  0.00     0.000 HD 
ENDBRANCH   8  10
BRANCH   9  14
HETATM   14  C   UNL     1      -9.153  10.698  65.855  1.00  0.00    -0.201 A  
HETATM   15  C   UNL     1     -10.126  11.612  66.296  1.00  0.00    -0.254 A  
HETATM   16  C   UNL     1     -11.119  12.083  65.411  1.00  0.00    -0.320 A  
HETATM   17  C   UNL     1     -11.135  11.665  64.078  1.00  0.00    -0.384 A  
HETATM   18  N   UNL     1     -12.135  13.019  65.900  1.00  0.00    -0.433 N  
HETATM   19  C   UNL     1     -10.156  10.766  63.650  1.00  0.00    -0.312 A  
HETATM   20  O   UNL     1     -13.011  13.386  65.100  1.00  0.00    -0.710 OA 
HETATM   21  O   UNL     1     -12.062  13.389  67.080  1.00  0.00    -0.368 OA 
HETATM   22  O   UNL     1     -12.040  12.050  63.118  1.00  0.00    -0.730 OA 
HETATM   23  H   UNL     1     -12.050  11.765  62.211  1.00  0.00     0.000 HD 
HETATM   24  O   UNL     1     -10.156  10.343  62.348  1.00  0.00    -0.743 OA 
HETATM   25  C   UNL     1      -9.179  10.279  64.519  1.00  0.00    -0.295 A  
HETATM   26  H   UNL     1      -9.490   9.732  62.056  1.00  0.00     0.000 HD 
ENDBRANCH   9  14
ENDBRANCH   5   8
ENDBRANCH   2   3
TORSDOF 5
ENDMDL
MODEL      107
REMARK 921   NORMALIZED FREE ENERGY PREDICTED BY IDOCK:   -4.92 KCAL/MOL
REMARK 922        TOTAL FREE ENERGY PREDICTED BY IDOCK:   -6.48 KCAL/MOL
REMARK 923 INTER-LIGAND FREE ENERGY PREDICTED BY IDOCK:   -6.31 KCAL/MOL
REMARK 924 INTRA-LIGAND FREE ENERGY PREDICTED BY IDOCK:   -0.17 KCAL/MOL
REMARK 927      BINDING AFFINITY PREDICTED BY RF-SCORE:    0.00 PKD
ROOT
HETATM    1  C   UNL     1     -10.229   2.594  72.114  1.00  0.00    -0.163 C  
HETATM    2  C   UNL     1      -9.454   3.906  72.105  1.00  0.00    -0.132 C  
ENDROOT
BRANCH   2   3
HETATM    3  N   UNL     1     -10.315   5.099  72.147  1.00  0.00    -0.209 N  
HETATM    4  O   UNL     1     -10.146   5.253  69.863  1.00  0.00    -0.217 OA 
HETATM    5  C   UNL     1     -10.552   5.742  70.923  1.00  0.00    -0.262 C  
BRANCH   3   6
HETATM    6  C   UNL     1     -10.854   5.551  73.438  1.00  0.00    -0.288 C  
HETATM    7  C   UNL     1     -10.041   6.492  74.313  1.00  0.00    -0.379 C  
ENDBRANCH   3   6
BRANCH   5   8
HETATM    8  C   UNL     1     -11.305   7.043  70.838  1.00  0.00    -0.334 C  
HETATM    9  C   UNL     1     -10.632   8.201  70.627  1.00  0.00    -0.229 C  
BRANCH   8  10
HETATM   10  C   UNL     1     -12.815   7.156  70.975  1.00  0.00    -0.212 C  
HETATM   11  H2  UNL     1     -13.932   6.256  71.287  1.00  0.00     0.000 HD 
HETATM   12  N   UNL     1     -14.066   7.248  71.089  1.00  0.00    -0.561 NA 
HETATM   13  H1  UNL     1     -15.079   7.323  71.182  1.00  0.00     0.000 HD 
ENDBRANCH   8  10
BRANCH   9  14
HETATM   14  C   UNL     1     -11.281   9.528  70.491  1.00  0.00    -0.345 A  
HETATM   15  C   UNL     1     -11.091  10.313  69.340  1.00  0.00    -0.299 A  
HETATM   16  C   UNL     1     -11.652  11.605  69.254  1.00  0.00    -0.320 A  
HETATM   17  C   UNL     1     -12.422  12.113  70.303  1.00  0.00    -0.087 A  
HETATM   18  N   UNL     1     -11.422  12.412  68.053  1.00  0.00    -0.299 N  
HETATM   19  C   UNL     1     -12.612  11.319  71.436  1.00  0.00    -0.351 A  
HETATM   20  O   UNL     1     -11.905  13.556  68.028  1.00  0.00    -0.341 OA 
HETATM   21  O   UNL     1     -10.761  11.908  67.134  1.00  0.00    -0.223 OA 
HETATM   22  O   UNL     1     -13.024  13.348  70.343  1.00  0.00    -0.029 OA 
HETATM   23  H   UNL     1     -13.549  13.693  71.057  1.00  0.00     0.000 HD 
HETATM   24  O   UNL     1     -13.362  11.800  72.474  1.00  0.00    -0.556 OA 
HETATM   25  C   UNL     1     -12.050  10.047  71.541  1.00  0.00    -0.475 A  
HETATM   26  H   UNL     1     -13.493  11.260  73.245  1.00  0.00     0.000 HD 
ENDBRANCH   9  14
ENDBRANCH   5   8
ENDBRANCH   2   3
TORSDOF 5
ENDMDL
MODEL      108
REMARK 921   NORMALIZED FREE ENERGY PREDICTED BY IDOCK:   -4.91 KCAL/MOL
REMARK 922        TOTAL FREE ENERGY PREDICTED BY IDOCK:   -6.47 KCAL/MOL
REMARK 923 INTER-LIGAND FREE ENERGY PREDICTED BY IDOCK:   -5.99 KCAL/MOL
REMARK 924 INTRA-LIGAND FREE ENERGY PREDICTED BY IDOCK:   -0.48 KCAL/MOL
REMARK 927      BINDING AFFINITY PREDICTED BY RF-SCORE:    0.00 PKD
ROOT
HETATM    1  C   UNL     1     -10.534   2.691  72.919  1.00  0.00    -0.236 C  
HETATM    2  C   UNL     1      -9.451   3.701  72.559  1.00  0.00    -0.124 C  
ENDROOT
BRANCH   2   3
HETATM    3  N   UNL     1      -9.920   4.776  71.670  1.00  0.00    -0.183 N  
HETATM    4  O   UNL     1     -10.219   6.113  73.511  1.00  0.00    -0.193 OA 
HETATM    5  C   UNL     1     -10.347   5.959  72.291  1.00  0.00    -0.198 C  
BRANCH   3   6
HETATM    6  C   UNL     1      -9.932   4.553  70.217  1.00  0.00    -0.218 C  
HETATM    7  C   UNL     1      -8.978   3.547  69.594  1.00  0.00    -0.174 C  
ENDBRANCH   3   6
BRANCH   5   8
HETATM    8  C   UNL     1     -10.970   7.088  71.515  1.00  0.00    -0.260 C  
HETATM    9  C   UNL     1     -10.191   8.084  71.026  1.00  0.00    -0.217 C  
BRANCH   8  10
HETATM   10  C   UNL     1     -12.460   7.194  71.229  1.00  0.00    -0.386 C  
HETATM   11  H2  UNL     1     -13.692   6.557  71.711  1.00  0.00     0.000 HD 
HETATM   12  N   UNL     1     -13.695   7.281  70.992  1.00  0.00    -0.570 NA 
HETATM   13  H1  UNL     1     -14.694   7.353  70.801  1.00  0.00     0.000 HD 
ENDBRANCH   8  10
BRANCH   9  14
HETATM   14  C   UNL     1     -10.701   9.219  70.219  1.00  0.00    -0.284 A  
HETATM   15  C   UNL     1     -10.509   9.262  68.827  1.00  0.00    -0.233 A  
HETATM   16  C   UNL     1     -10.931  10.383  68.080  1.00  0.00    -0.281 A  
HETATM   17  C   UNL     1     -11.566  11.456  68.712  1.00  0.00    -0.313 A  
HETATM   18  N   UNL     1     -10.701  10.413  66.634  1.00  0.00    -0.174 N  
HETATM   19  C   UNL     1     -11.760  11.395  70.093  1.00  0.00    -0.328 A  
HETATM   20  O   UNL     1     -11.057  11.430  66.016  1.00  0.00    -0.262 OA 
HETATM   21  O   UNL     1     -10.165   9.426  66.111  1.00  0.00    -0.279 OA 
HETATM   22  O   UNL     1     -12.026  12.598  68.103  1.00  0.00    -0.322 OA 
HETATM   23  H   UNL     1     -12.458  13.327  68.533  1.00  0.00     0.000 HD 
HETATM   24  O   UNL     1     -12.379  12.437  70.730  1.00  0.00    -0.377 OA 
HETATM   25  C   UNL     1     -11.333  10.301  70.845  1.00  0.00    -0.376 A  
HETATM   26  H   UNL     1     -12.512  12.396  71.669  1.00  0.00     0.000 HD 
ENDBRANCH   9  14
ENDBRANCH   5   8
ENDBRANCH   2   3
TORSDOF 5
ENDMDL
MODEL      109
REMARK 921   NORMALIZED FREE ENERGY PREDICTED BY IDOCK:   -4.89 KCAL/MOL
REMARK 922        TOTAL FREE ENERGY PREDICTED BY IDOCK:   -6.44 KCAL/MOL
REMARK 923 INTER-LIGAND FREE ENERGY PREDICTED BY IDOCK:   -6.19 KCAL/MOL
REMARK 924 INTRA-LIGAND FREE ENERGY PREDICTED BY IDOCK:   -0.25 KCAL/MOL
REMARK 927      BINDING AFFINITY PREDICTED BY RF-SCORE:    0.00 PKD
ROOT
HETATM    1  C   UNL     1      -9.272   9.827  62.373  1.00  0.00    -0.294 C  
HETATM    2  C   UNL     1      -8.549  10.296  63.629  1.00  0.00    -0.195 C  
ENDROOT
BRANCH   2   3
HETATM    3  N   UNL     1      -9.327  10.104  64.863  1.00  0.00    -0.230 N  
HETATM    4  O   UNL     1      -7.695   8.683  65.627  1.00  0.00    -0.087 OA 
HETATM    5  C   UNL     1      -8.807   9.197  65.797  1.00  0.00    -0.175 C  
BRANCH   3   6
HETATM    6  C   UNL     1     -10.587  10.843  65.040  1.00  0.00    -0.217 C  
HETATM    7  C   UNL     1     -10.559  12.300  65.473  1.00  0.00    -0.304 C  
ENDBRANCH   3   6
BRANCH   5   8
HETATM    8  C   UNL     1      -9.563   8.808  67.040  1.00  0.00    -0.236 C  
HETATM    9  C   UNL     1      -9.391   9.515  68.184  1.00  0.00    -0.141 C  
BRANCH   8  10
HETATM   10  C   UNL     1     -10.538   7.643  67.106  1.00  0.00    -0.340 C  
HETATM   11  H2  UNL     1     -11.855   7.315  66.546  1.00  0.00     0.000 HD 
HETATM   12  N   UNL     1     -11.346   6.678  67.160  1.00  0.00    -0.779 NA 
HETATM   13  H1  UNL     1     -12.001   5.897  67.205  1.00  0.00     0.000 HD 
ENDBRANCH   8  10
BRANCH   9  14
HETATM   14  C   UNL     1     -10.114   9.238  69.450  1.00  0.00    -0.200 A  
HETATM   15  C   UNL     1      -9.997   7.994  70.095  1.00  0.00    -0.191 A  
HETATM   16  C   UNL     1     -10.748   7.716  71.256  1.00  0.00    -0.228 A  
HETATM   17  C   UNL     1     -11.603   8.682  71.793  1.00  0.00    -0.332 A  
HETATM   18  N   UNL     1     -10.625   6.405  71.897  1.00  0.00    -0.210 N  
HETATM   19  C   UNL     1     -11.702   9.917  71.150  1.00  0.00    -0.396 A  
HETATM   20  O   UNL     1     -11.326   6.186  72.899  1.00  0.00    -0.242 OA 
HETATM   21  O   UNL     1      -9.830   5.591  71.406  1.00  0.00    -0.157 OA 
HETATM   22  O   UNL     1     -12.383   8.540  72.916  1.00  0.00    -0.539 OA 
HETATM   23  H   UNL     1     -12.964   9.197  73.282  1.00  0.00     0.000 HD 
HETATM   24  O   UNL     1     -12.535  10.875  71.661  1.00  0.00    -0.335 OA 
HETATM   25  C   UNL     1     -10.977  10.199  69.992  1.00  0.00    -0.364 A  
HETATM   26  H   UNL     1     -12.602  11.716  71.224  1.00  0.00     0.000 HD 
ENDBRANCH   9  14
ENDBRANCH   5   8
ENDBRANCH   2   3
TORSDOF 5
ENDMDL
MODEL      110
REMARK 921   NORMALIZED FREE ENERGY PREDICTED BY IDOCK:   -4.89 KCAL/MOL
REMARK 922        TOTAL FREE ENERGY PREDICTED BY IDOCK:   -6.44 KCAL/MOL
REMARK 923 INTER-LIGAND FREE ENERGY PREDICTED BY IDOCK:   -6.64 KCAL/MOL
REMARK 924 INTRA-LIGAND FREE ENERGY PREDICTED BY IDOCK:    0.21 KCAL/MOL
REMARK 927      BINDING AFFINITY PREDICTED BY RF-SCORE:    0.00 PKD
ROOT
HETATM    1  C   UNL     1      -8.841   5.040  70.913  1.00  0.00    -0.156 C  
HETATM    2  C   UNL     1     -10.156   5.517  70.310  1.00  0.00    -0.237 C  
ENDROOT
BRANCH   2   3
HETATM    3  N   UNL     1     -10.459   6.927  70.600  1.00  0.00    -0.208 N  
HETATM    4  O   UNL     1     -10.488   7.345  68.343  1.00  0.00    -0.195 OA 
HETATM    5  C   UNL     1     -10.549   7.788  69.496  1.00  0.00    -0.221 C  
BRANCH   3   6
HETATM    6  C   UNL     1     -10.631   7.353  71.997  1.00  0.00    -0.208 C  
HETATM    7  C   UNL     1      -9.487   8.035  72.730  1.00  0.00    -0.336 C  
ENDBRANCH   3   6
BRANCH   5   8
HETATM    8  C   UNL     1     -10.724   9.275  69.655  1.00  0.00    -0.244 C  
HETATM    9  C   UNL     1     -11.942   9.782  69.967  1.00  0.00    -0.006 C  
BRANCH   8  10
HETATM   10  C   UNL     1      -9.597  10.281  69.488  1.00  0.00    -0.202 C  
HETATM   11  H2  UNL     1      -9.448  11.648  68.971  1.00  0.00     0.000 HD 
HETATM   12  N   UNL     1      -8.663  11.116  69.348  1.00  0.00    -0.356 NA 
HETATM   13  H1  UNL     1      -7.907  11.791  69.236  1.00  0.00     0.000 HD 
ENDBRANCH   8  10
BRANCH   9  14
HETATM   14  C   UNL     1     -12.212  11.226  70.182  1.00  0.00    -0.410 A  
HETATM   15  C   UNL     1     -11.790  12.189  69.249  1.00  0.00    -0.370 A  
HETATM   16  C   UNL     1     -11.985  13.563  69.502  1.00  0.00    -0.334 A  
HETATM   17  C   UNL     1     -12.621  13.984  70.673  1.00  0.00    -0.344 A  
HETATM   18  N   UNL     1     -11.517  14.549  68.524  1.00  0.00    -0.285 N  
HETATM   19  C   UNL     1     -13.045  13.017  71.585  1.00  0.00    -0.347 A  
HETATM   20  O   UNL     1     -11.679  15.750  68.796  1.00  0.00    -0.382 OA 
HETATM   21  O   UNL     1     -10.990  14.129  67.484  1.00  0.00    -0.274 OA 
HETATM   22  O   UNL     1     -12.875  15.285  71.035  1.00  0.00    -0.372 OA 
HETATM   23  H   UNL     1     -13.308  15.571  71.831  1.00  0.00     0.000 HD 
HETATM   24  O   UNL     1     -13.669  13.410  72.738  1.00  0.00    -0.697 OA 
HETATM   25  C   UNL     1     -12.844  11.656  71.356  1.00  0.00    -0.461 A  
HETATM   26  H   UNL     1     -13.958  12.752  73.359  1.00  0.00     0.000 HD 
ENDBRANCH   9  14
ENDBRANCH   5   8
ENDBRANCH   2   3
TORSDOF 5
ENDMDL
MODEL      111
REMARK 921   NORMALIZED FREE ENERGY PREDICTED BY IDOCK:   -4.88 KCAL/MOL
REMARK 922        TOTAL FREE ENERGY PREDICTED BY IDOCK:   -6.42 KCAL/MOL
REMARK 923 INTER-LIGAND FREE ENERGY PREDICTED BY IDOCK:   -5.96 KCAL/MOL
REMARK 924 INTRA-LIGAND FREE ENERGY PREDICTED BY IDOCK:   -0.46 KCAL/MOL
REMARK 927      BINDING AFFINITY PREDICTED BY RF-SCORE:    0.00 PKD
ROOT
HETATM    1  C   UNL     1      -5.470   4.852  66.208  1.00  0.00    -0.017 C  
HETATM    2  C   UNL     1      -5.763   6.089  67.047  1.00  0.00    -0.017 C  
ENDROOT
BRANCH   2   3
HETATM    3  N   UNL     1      -7.102   6.085  67.656  1.00  0.00    -0.072 N  
HETATM    4  O   UNL     1      -7.321   8.300  67.098  1.00  0.00    -0.085 OA 
HETATM    5  C   UNL     1      -7.786   7.309  67.672  1.00  0.00    -0.113 C  
BRANCH   3   6
HETATM    6  C   UNL     1      -7.632   4.833  68.217  1.00  0.00    -0.077 C  
HETATM    7  C   UNL     1      -7.672   4.632  69.723  1.00  0.00    -0.058 C  
ENDBRANCH   3   6
BRANCH   5   8
HETATM    8  C   UNL     1      -9.106   7.477  68.377  1.00  0.00    -0.133 C  
HETATM    9  C   UNL     1      -9.151   8.076  69.593  1.00  0.00    -0.152 C  
BRANCH   8  10
HETATM   10  C   UNL     1     -10.435   7.010  67.805  1.00  0.00    -0.223 C  
HETATM   11  H2  UNL     1     -11.145   7.111  66.523  1.00  0.00     0.000 HD 
HETATM   12  N   UNL     1     -11.536   6.623  67.330  1.00  0.00    -0.749 NA 
HETATM   13  H1  UNL     1     -12.427   6.309  66.946  1.00  0.00     0.000 HD 
ENDBRANCH   8  10
BRANCH   9  14
HETATM   14  C   UNL     1     -10.402   8.323  70.353  1.00  0.00    -0.214 A  
HETATM   15  C   UNL     1     -10.951   9.614  70.445  1.00  0.00    -0.356 A  
HETATM   16  C   UNL     1     -12.097   9.849  71.233  1.00  0.00    -0.394 A  
HETATM   17  C   UNL     1     -12.715   8.798  71.914  1.00  0.00    -0.374 A  
HETATM   18  N   UNL     1     -12.638  11.207  71.330  1.00  0.00    -0.401 N  
HETATM   19  C   UNL     1     -12.166   7.519  71.806  1.00  0.00    -0.314 A  
HETATM   20  O   UNL     1     -13.629  11.381  72.058  1.00  0.00    -0.288 OA 
HETATM   21  O   UNL     1     -12.078  12.102  70.681  1.00  0.00    -0.365 OA 
HETATM   22  O   UNL     1     -13.833   8.892  72.708  1.00  0.00    -0.776 OA 
HETATM   23  H   UNL     1     -14.254   8.177  73.171  1.00  0.00     0.000 HD 
HETATM   24  O   UNL     1     -12.757   6.477  72.467  1.00  0.00    -0.509 OA 
HETATM   25  C   UNL     1     -11.023   7.275  71.044  1.00  0.00    -0.272 A  
HETATM   26  H   UNL     1     -12.384   5.606  72.393  1.00  0.00     0.000 HD 
ENDBRANCH   9  14
ENDBRANCH   5   8
ENDBRANCH   2   3
TORSDOF 5
ENDMDL
MODEL      112
REMARK 921   NORMALIZED FREE ENERGY PREDICTED BY IDOCK:   -4.86 KCAL/MOL
REMARK 922        TOTAL FREE ENERGY PREDICTED BY IDOCK:   -6.40 KCAL/MOL
REMARK 923 INTER-LIGAND FREE ENERGY PREDICTED BY IDOCK:   -6.10 KCAL/MOL
REMARK 924 INTRA-LIGAND FREE ENERGY PREDICTED BY IDOCK:   -0.30 KCAL/MOL
REMARK 927      BINDING AFFINITY PREDICTED BY RF-SCORE:    0.00 PKD
ROOT
HETATM    1  C   UNL     1      -9.336   3.921  68.746  1.00  0.00    -0.231 C  
HETATM    2  C   UNL     1      -9.462   5.077  69.731  1.00  0.00    -0.150 C  
ENDROOT
BRANCH   2   3
HETATM    3  N   UNL     1      -9.095   6.382  69.158  1.00  0.00    -0.132 N  
HETATM    4  O   UNL     1     -11.237   7.110  69.546  1.00  0.00    -0.188 OA 
HETATM    5  C   UNL     1     -10.121   7.334  69.063  1.00  0.00    -0.186 C  
BRANCH   3   6
HETATM    6  C   UNL     1      -7.713   6.607  68.710  1.00  0.00    -0.109 C  
HETATM    7  C   UNL     1      -6.563   6.479  69.697  1.00  0.00    -0.048 C  
ENDBRANCH   3   6
BRANCH   5   8
HETATM    8  C   UNL     1      -9.918   8.660  68.379  1.00  0.00    -0.204 C  
HETATM    9  C   UNL     1     -10.465   8.882  67.159  1.00  0.00    -0.344 C  
BRANCH   8  10
HETATM   10  C   UNL     1      -9.119   9.806  68.979  1.00  0.00    -0.157 C  
HETATM   11  H2  UNL     1      -9.410  11.089  69.632  1.00  0.00     0.000 HD 
HETATM   12  N   UNL     1      -8.458  10.756  69.477  1.00  0.00    -0.385 NA 
HETATM   13  H1  UNL     1      -7.922  11.525  69.880  1.00  0.00     0.000 HD 
ENDBRANCH   8  10
BRANCH   9  14
HETATM   14  C   UNL     1     -10.356  10.163  66.419  1.00  0.00    -0.258 A  
HETATM   15  C   UNL     1     -10.975  11.331  66.897  1.00  0.00    -0.348 A  
HETATM   16  C   UNL     1     -10.929  12.525  66.146  1.00  0.00    -0.284 A  
HETATM   17  C   UNL     1     -10.247  12.567  64.927  1.00  0.00    -0.278 A  
HETATM   18  N   UNL     1     -11.600  13.723  66.655  1.00  0.00    -0.351 N  
HETATM   19  C   UNL     1      -9.627  11.404  64.469  1.00  0.00    -0.192 A  
HETATM   20  O   UNL     1     -11.564  14.745  65.951  1.00  0.00    -0.348 OA 
HETATM   21  O   UNL     1     -12.164  13.648  67.756  1.00  0.00    -0.321 OA 
HETATM   22  O   UNL     1     -10.124  13.662  64.105  1.00  0.00    -0.757 OA 
HETATM   23  H   UNL     1      -9.660  13.691  63.276  1.00  0.00     0.000 HD 
HETATM   24  O   UNL     1      -8.956  11.426  63.277  1.00  0.00    -0.460 OA 
HETATM   25  C   UNL     1      -9.679  10.213  65.193  1.00  0.00    -0.370 A  
HETATM   26  H   UNL     1      -8.533  10.634  62.965  1.00  0.00     0.000 HD 
ENDBRANCH   9  14
ENDBRANCH   5   8
ENDBRANCH   2   3
TORSDOF 5
ENDMDL
MODEL      113
REMARK 921   NORMALIZED FREE ENERGY PREDICTED BY IDOCK:   -4.86 KCAL/MOL
REMARK 922        TOTAL FREE ENERGY PREDICTED BY IDOCK:   -6.39 KCAL/MOL
REMARK 923 INTER-LIGAND FREE ENERGY PREDICTED BY IDOCK:   -6.02 KCAL/MOL
REMARK 924 INTRA-LIGAND FREE ENERGY PREDICTED BY IDOCK:   -0.37 KCAL/MOL
REMARK 927      BINDING AFFINITY PREDICTED BY RF-SCORE:    0.00 PKD
ROOT
HETATM    1  C   UNL     1      -7.415  20.671  66.626  1.00  0.00    -0.222 C  
HETATM    2  C   UNL     1      -7.440  19.347  65.872  1.00  0.00    -0.279 C  
ENDROOT
BRANCH   2   3
HETATM    3  N   UNL     1      -8.148  18.275  66.589  1.00  0.00    -0.251 N  
HETATM    4  O   UNL     1      -6.339  16.905  66.246  1.00  0.00    -0.234 OA 
HETATM    5  C   UNL     1      -7.495  17.036  66.665  1.00  0.00    -0.265 C  
BRANCH   3   6
HETATM    6  C   UNL     1      -9.476  18.547  67.159  1.00  0.00    -0.289 C  
HETATM    7  C   UNL     1      -9.628  18.786  68.653  1.00  0.00    -0.432 C  
ENDBRANCH   3   6
BRANCH   5   8
HETATM    8  C   UNL     1      -8.158  15.819  67.254  1.00  0.00    -0.217 C  
HETATM    9  C   UNL     1      -9.107  15.158  66.547  1.00  0.00    -0.328 C  
BRANCH   8  10
HETATM   10  C   UNL     1      -7.828  15.260  68.629  1.00  0.00    -0.142 C  
HETATM   11  H2  UNL     1      -8.568  14.673  69.753  1.00  0.00     0.000 HD 
HETATM   12  N   UNL     1      -7.556  14.796  69.768  1.00  0.00    -0.390 NA 
HETATM   13  H1  UNL     1      -7.335  14.421  70.691  1.00  0.00     0.000 HD 
ENDBRANCH   8  10
BRANCH   9  14
HETATM   14  C   UNL     1      -9.792  13.929  67.020  1.00  0.00    -0.257 A  
HETATM   15  C   UNL     1      -9.484  12.671  66.473  1.00  0.00    -0.247 A  
HETATM   16  C   UNL     1     -10.196  11.522  66.877  1.00  0.00    -0.217 A  
HETATM   17  C   UNL     1     -11.201  11.616  67.843  1.00  0.00    -0.269 A  
HETATM   18  N   UNL     1      -9.871  10.225  66.277  1.00  0.00    -0.208 N  
HETATM   19  C   UNL     1     -11.489  12.869  68.386  1.00  0.00    -0.312 A  
HETATM   20  O   UNL     1     -10.540   9.243  66.635  1.00  0.00    -0.197 OA 
HETATM   21  O   UNL     1      -8.949  10.184  65.450  1.00  0.00    -0.158 OA 
HETATM   22  O   UNL     1     -11.963  10.577  68.324  1.00  0.00    -0.790 OA 
HETATM   23  H   UNL     1     -12.646  10.641  68.981  1.00  0.00     0.000 HD 
HETATM   24  O   UNL     1     -12.472  12.980  69.332  1.00  0.00    -0.058 OA 
HETATM   25  C   UNL     1     -10.805  14.016  67.983  1.00  0.00    -0.257 A  
HETATM   26  H   UNL     1     -12.668  13.833  69.702  1.00  0.00     0.000 HD 
ENDBRANCH   9  14
ENDBRANCH   5   8
ENDBRANCH   2   3
TORSDOF 5
ENDMDL
MODEL      114
REMARK 921   NORMALIZED FREE ENERGY PREDICTED BY IDOCK:   -4.85 KCAL/MOL
REMARK 922        TOTAL FREE ENERGY PREDICTED BY IDOCK:   -6.38 KCAL/MOL
REMARK 923 INTER-LIGAND FREE ENERGY PREDICTED BY IDOCK:   -6.05 KCAL/MOL
REMARK 924 INTRA-LIGAND FREE ENERGY PREDICTED BY IDOCK:   -0.33 KCAL/MOL
REMARK 927      BINDING AFFINITY PREDICTED BY RF-SCORE:    0.00 PKD
ROOT
HETATM    1  C   UNL     1     -12.436  13.932  66.217  1.00  0.00    -0.454 C  
HETATM    2  C   UNL     1     -11.486  13.752  67.395  1.00  0.00    -0.345 C  
ENDROOT
BRANCH   2   3
HETATM    3  N   UNL     1     -11.483  12.387  67.945  1.00  0.00    -0.305 N  
HETATM    4  O   UNL     1     -11.861  13.268  70.030  1.00  0.00    -0.319 OA 
HETATM    5  C   UNL     1     -11.628  12.272  69.335  1.00  0.00    -0.314 C  
BRANCH   3   6
HETATM    6  C   UNL     1     -11.314  11.246  67.034  1.00  0.00    -0.187 C  
HETATM    7  C   UNL     1     -10.017  11.076  66.260  1.00  0.00    -0.269 C  
ENDBRANCH   3   6
BRANCH   5   8
HETATM    8  C   UNL     1     -11.511  10.949  70.044  1.00  0.00    -0.411 C  
HETATM    9  C   UNL     1     -10.379  10.214  69.922  1.00  0.00    -0.308 C  
BRANCH   8  10
HETATM   10  C   UNL     1     -12.609  10.358  70.915  1.00  0.00    -0.383 C  
HETATM   11  H2  UNL     1     -12.747   9.232  71.848  1.00  0.00     0.000 HD 
HETATM   12  N   UNL     1     -13.517   9.867  71.637  1.00  0.00    -0.361 NA 
HETATM   13  H1  UNL     1     -14.253   9.470  72.221  1.00  0.00     0.000 HD 
ENDBRANCH   8  10
BRANCH   9  14
HETATM   14  C   UNL     1     -10.149   8.918  70.607  1.00  0.00    -0.262 A  
HETATM   15  C   UNL     1      -9.469   8.858  71.836  1.00  0.00    -0.301 A  
HETATM   16  C   UNL     1      -9.191   7.614  72.440  1.00  0.00    -0.151 A  
HETATM   17  C   UNL     1      -9.607   6.425  71.835  1.00  0.00    -0.151 A  
HETATM   18  N   UNL     1      -8.462   7.576  73.710  1.00  0.00    -0.170 N  
HETATM   19  C   UNL     1     -10.291   6.499  70.620  1.00  0.00    -0.201 A  
HETATM   20  O   UNL     1      -8.208   6.461  74.195  1.00  0.00    -0.116 OA 
HETATM   21  O   UNL     1      -8.142   8.656  74.227  1.00  0.00    -0.356 OA 
HETATM   22  O   UNL     1      -9.404   5.155  72.318  1.00  0.00    -0.137 OA 
HETATM   23  H   UNL     1      -9.688   4.346  71.907  1.00  0.00     0.000 HD 
HETATM   24  O   UNL     1     -10.706   5.346  70.012  1.00  0.00    -0.308 OA 
HETATM   25  C   UNL     1     -10.558   7.722  70.004  1.00  0.00    -0.238 A  
HETATM   26  H   UNL     1     -11.172   5.395  69.186  1.00  0.00     0.000 HD 
ENDBRANCH   9  14
ENDBRANCH   5   8
ENDBRANCH   2   3
TORSDOF 5
ENDMDL
MODEL      115
REMARK 921   NORMALIZED FREE ENERGY PREDICTED BY IDOCK:   -4.81 KCAL/MOL
REMARK 922        TOTAL FREE ENERGY PREDICTED BY IDOCK:   -6.34 KCAL/MOL
REMARK 923 INTER-LIGAND FREE ENERGY PREDICTED BY IDOCK:   -6.52 KCAL/MOL
REMARK 924 INTRA-LIGAND FREE ENERGY PREDICTED BY IDOCK:    0.18 KCAL/MOL
REMARK 927      BINDING AFFINITY PREDICTED BY RF-SCORE:    0.00 PKD
ROOT
HETATM    1  C   UNL     1     -10.615  15.217  67.712  1.00  0.00    -0.264 C  
HETATM    2  C   UNL     1     -11.960  14.502  67.737  1.00  0.00    -0.310 C  
ENDROOT
BRANCH   2   3
HETATM    3  N   UNL     1     -11.876  13.103  68.184  1.00  0.00    -0.352 N  
HETATM    4  O   UNL     1     -12.276  13.805  70.332  1.00  0.00    -0.325 OA 
HETATM    5  C   UNL     1     -11.997  12.878  69.563  1.00  0.00    -0.285 C  
BRANCH   3   6
HETATM    6  C   UNL     1     -11.656  12.043  67.188  1.00  0.00    -0.316 C  
HETATM    7  C   UNL     1     -11.809  12.348  65.707  1.00  0.00    -0.467 C  
ENDBRANCH   3   6
BRANCH   5   8
HETATM    8  C   UNL     1     -11.801  11.514  70.169  1.00  0.00    -0.440 C  
HETATM    9  C   UNL     1     -10.763  10.739  69.769  1.00  0.00    -0.241 C  
BRANCH   8  10
HETATM   10  C   UNL     1     -12.712  10.924  71.234  1.00  0.00    -0.437 C  
HETATM   11  H2  UNL     1     -12.912  11.082  72.680  1.00  0.00     0.000 HD 
HETATM   12  N   UNL     1     -13.466  10.435  72.117  1.00  0.00    -0.538 NA 
HETATM   13  H1  UNL     1     -14.077  10.039  72.832  1.00  0.00     0.000 HD 
ENDBRANCH   8  10
BRANCH   9  14
HETATM   14  C   UNL     1     -10.460   9.399  70.329  1.00  0.00    -0.298 A  
HETATM   15  C   UNL     1     -10.605   8.238  69.549  1.00  0.00    -0.216 A  
HETATM   16  C   UNL     1     -10.387   6.964  70.116  1.00  0.00    -0.199 A  
HETATM   17  C   UNL     1     -10.003   6.841  71.453  1.00  0.00    -0.179 A  
HETATM   18  N   UNL     1     -10.565   5.768  69.289  1.00  0.00    -0.286 N  
HETATM   19  C   UNL     1      -9.851   8.002  72.213  1.00  0.00    -0.236 A  
HETATM   20  O   UNL     1     -10.395   4.664  69.831  1.00  0.00    -0.195 OA 
HETATM   21  O   UNL     1     -10.874   5.926  68.099  1.00  0.00    -0.271 OA 
HETATM   22  O   UNL     1      -9.756   5.665  72.121  1.00  0.00    -0.153 OA 
HETATM   23  H   UNL     1      -9.494   5.582  73.031  1.00  0.00     0.000 HD 
HETATM   24  O   UNL     1      -9.476   7.901  73.525  1.00  0.00    -0.281 OA 
HETATM   25  C   UNL     1     -10.079   9.267  71.671  1.00  0.00    -0.232 A  
HETATM   26  H   UNL     1      -9.372   8.691  74.043  1.00  0.00     0.000 HD 
ENDBRANCH   9  14
ENDBRANCH   5   8
ENDBRANCH   2   3
TORSDOF 5
ENDMDL
MODEL      116
REMARK 921   NORMALIZED FREE ENERGY PREDICTED BY IDOCK:   -4.81 KCAL/MOL
REMARK 922        TOTAL FREE ENERGY PREDICTED BY IDOCK:   -6.33 KCAL/MOL
REMARK 923 INTER-LIGAND FREE ENERGY PREDICTED BY IDOCK:   -5.87 KCAL/MOL
REMARK 924 INTRA-LIGAND FREE ENERGY PREDICTED BY IDOCK:   -0.47 KCAL/MOL
REMARK 927      BINDING AFFINITY PREDICTED BY RF-SCORE:    0.00 PKD
ROOT
HETATM    1  C   UNL     1     -11.181  16.068  64.723  1.00  0.00    -0.348 C  
HETATM    2  C   UNL     1     -12.180  14.926  64.856  1.00  0.00    -0.227 C  
ENDROOT
BRANCH   2   3
HETATM    3  N   UNL     1     -11.549  13.613  65.069  1.00  0.00    -0.321 N  
HETATM    4  O   UNL     1     -11.721  13.941  67.334  1.00  0.00    -0.345 OA 
HETATM    5  C   UNL     1     -11.311  13.242  66.400  1.00  0.00    -0.312 C  
BRANCH   3   6
HETATM    6  C   UNL     1     -11.195  12.789  63.904  1.00  0.00    -0.440 C  
HETATM    7  C   UNL     1     -12.199  11.796  63.341  1.00  0.00    -0.461 C  
ENDBRANCH   3   6
BRANCH   5   8
HETATM    8  C   UNL     1     -10.557  11.989  66.757  1.00  0.00    -0.260 C  
HETATM    9  C   UNL     1     -11.205  10.954  67.345  1.00  0.00    -0.345 C  
BRANCH   8  10
HETATM   10  C   UNL     1      -9.071  11.794  66.496  1.00  0.00    -0.203 C  
HETATM   11  H2  UNL     1      -7.847  11.692  67.300  1.00  0.00     0.000 HD 
HETATM   12  N   UNL     1      -7.840  11.632  66.281  1.00  0.00    -0.379 NA 
HETATM   13  H1  UNL     1      -6.844  11.501  66.106  1.00  0.00     0.000 HD 
ENDBRANCH   8  10
BRANCH   9  14
HETATM   14  C   UNL     1     -10.564   9.664  67.701  1.00  0.00    -0.334 A  
HETATM   15  C   UNL     1      -9.807   9.532  68.878  1.00  0.00    -0.179 A  
HETATM   16  C   UNL     1      -9.139   8.324  69.168  1.00  0.00    -0.148 A  
HETATM   17  C   UNL     1      -9.239   7.234  68.299  1.00  0.00    -0.133 A  
HETATM   18  N   UNL     1      -8.339   8.218  70.391  1.00  0.00    -0.116 N  
HETATM   19  C   UNL     1     -10.003   7.374  67.139  1.00  0.00    -0.215 A  
HETATM   20  O   UNL     1      -7.740   7.149  70.595  1.00  0.00    -0.091 OA 
HETATM   21  O   UNL     1      -8.306   9.197  71.149  1.00  0.00    -0.241 OA 
HETATM   22  O   UNL     1      -8.645   6.006  68.466  1.00  0.00    -0.112 OA 
HETATM   23  H   UNL     1      -8.713   5.265  67.875  1.00  0.00     0.000 HD 
HETATM   24  O   UNL     1     -10.112   6.319  66.275  1.00  0.00    -0.383 OA 
HETATM   25  C   UNL     1     -10.655   8.569  66.832  1.00  0.00    -0.279 A  
HETATM   26  H   UNL     1     -10.632   6.414  65.486  1.00  0.00     0.000 HD 
ENDBRANCH   9  14
ENDBRANCH   5   8
ENDBRANCH   2   3
TORSDOF 5
ENDMDL
MODEL      117
REMARK 921   NORMALIZED FREE ENERGY PREDICTED BY IDOCK:   -4.81 KCAL/MOL
REMARK 922        TOTAL FREE ENERGY PREDICTED BY IDOCK:   -6.33 KCAL/MOL
REMARK 923 INTER-LIGAND FREE ENERGY PREDICTED BY IDOCK:   -6.96 KCAL/MOL
REMARK 924 INTRA-LIGAND FREE ENERGY PREDICTED BY IDOCK:    0.63 KCAL/MOL
REMARK 927      BINDING AFFINITY PREDICTED BY RF-SCORE:    0.00 PKD
ROOT
HETATM    1  C   UNL     1     -12.236  12.805  63.362  1.00  0.00    -0.594 C  
HETATM    2  C   UNL     1     -10.857  12.957  63.992  1.00  0.00    -0.410 C  
ENDROOT
BRANCH   2   3
HETATM    3  N   UNL     1     -10.690  12.191  65.237  1.00  0.00    -0.278 N  
HETATM    4  O   UNL     1     -12.159  13.621  66.270  1.00  0.00    -0.395 OA 
HETATM    5  C   UNL     1     -11.373  12.671  66.364  1.00  0.00    -0.331 C  
BRANCH   3   6
HETATM    6  C   UNL     1      -9.825  11.002  65.238  1.00  0.00    -0.259 C  
HETATM    7  C   UNL     1      -9.413  10.360  63.923  1.00  0.00    -0.354 C  
ENDBRANCH   3   6
BRANCH   5   8
HETATM    8  C   UNL     1     -11.189  12.062  67.729  1.00  0.00    -0.331 C  
HETATM    9  C   UNL     1     -10.799  10.768  67.844  1.00  0.00    -0.313 C  
BRANCH   8  10
HETATM   10  C   UNL     1     -11.415  12.817  69.029  1.00  0.00    -0.309 C  
HETATM   11  H2  UNL     1     -12.520  13.012  69.976  1.00  0.00     0.000 HD 
HETATM   12  N   UNL     1     -11.604  13.443  70.106  1.00  0.00    -0.518 NA 
HETATM   13  H1  UNL     1     -11.756  13.949  70.979  1.00  0.00     0.000 HD 
ENDBRANCH   8  10
BRANCH   9  14
HETATM   14  C   UNL     1     -10.554  10.085  69.139  1.00  0.00    -0.240 A  
HETATM   15  C   UNL     1     -11.622   9.685  69.961  1.00  0.00    -0.137 A  
HETATM   16  C   UNL     1     -11.375   9.106  71.223  1.00  0.00    -0.336 A  
HETATM   17  C   UNL     1     -10.064   8.902  71.664  1.00  0.00    -0.341 A  
HETATM   18  N   UNL     1     -12.505   8.716  72.071  1.00  0.00    -0.348 N  
HETATM   19  C   UNL     1      -9.013   9.294  70.834  1.00  0.00    -0.209 A  
HETATM   20  O   UNL     1     -12.247   8.238  73.188  1.00  0.00    -0.123 OA 
HETATM   21  O   UNL     1     -13.649   8.883  71.625  1.00  0.00    -0.365 OA 
HETATM   22  O   UNL     1      -9.690   8.347  72.864  1.00  0.00    -0.263 OA 
HETATM   23  H   UNL     1      -8.799   8.208  73.164  1.00  0.00     0.000 HD 
HETATM   24  O   UNL     1      -7.723   9.104  71.249  1.00  0.00    -0.266 OA 
HETATM   25  C   UNL     1      -9.243   9.884  69.590  1.00  0.00    -0.246 A  
HETATM   26  H   UNL     1      -7.007   9.371  70.684  1.00  0.00     0.000 HD 
ENDBRANCH   9  14
ENDBRANCH   5   8
ENDBRANCH   2   3
TORSDOF 5
ENDMDL
MODEL      118
REMARK 921   NORMALIZED FREE ENERGY PREDICTED BY IDOCK:   -4.81 KCAL/MOL
REMARK 922        TOTAL FREE ENERGY PREDICTED BY IDOCK:   -6.33 KCAL/MOL
REMARK 923 INTER-LIGAND FREE ENERGY PREDICTED BY IDOCK:   -5.90 KCAL/MOL
REMARK 924 INTRA-LIGAND FREE ENERGY PREDICTED BY IDOCK:   -0.43 KCAL/MOL
REMARK 927      BINDING AFFINITY PREDICTED BY RF-SCORE:    0.00 PKD
ROOT
HETATM    1  C   UNL     1     -11.081  10.957  66.796  1.00  0.00    -0.196 C  
HETATM    2  C   UNL     1      -9.663  11.507  66.885  1.00  0.00    -0.186 C  
ENDROOT
BRANCH   2   3
HETATM    3  N   UNL     1      -9.599  12.977  66.866  1.00  0.00    -0.236 N  
HETATM    4  O   UNL     1      -7.607  12.866  68.001  1.00  0.00    -0.111 OA 
HETATM    5  C   UNL     1      -8.512  13.564  67.531  1.00  0.00    -0.192 C  
BRANCH   3   6
HETATM    6  C   UNL     1     -10.659  13.733  66.185  1.00  0.00    -0.291 C  
HETATM    7  C   UNL     1     -10.501  14.115  64.721  1.00  0.00    -0.432 C  
ENDBRANCH   3   6
BRANCH   5   8
HETATM    8  C   UNL     1      -8.392  15.055  67.701  1.00  0.00    -0.175 C  
HETATM    9  C   UNL     1      -7.325  15.711  67.184  1.00  0.00    -0.247 C  
BRANCH   8  10
HETATM   10  C   UNL     1      -9.416  15.906  68.435  1.00  0.00    -0.201 C  
HETATM   11  H2  UNL     1     -10.824  15.783  68.835  1.00  0.00     0.000 HD 
HETATM   12  N   UNL     1     -10.265  16.611  69.044  1.00  0.00    -0.283 NA 
HETATM   13  H1  UNL     1     -10.952  17.182  69.537  1.00  0.00     0.000 HD 
ENDBRANCH   8  10
BRANCH   9  14
HETATM   14  C   UNL     1      -7.131  17.180  67.264  1.00  0.00    -0.193 A  
HETATM   15  C   UNL     1      -6.561  17.775  68.403  1.00  0.00    -0.202 A  
HETATM   16  C   UNL     1      -6.452  19.178  68.499  1.00  0.00    -0.247 A  
HETATM   17  C   UNL     1      -6.890  19.995  67.453  1.00  0.00    -0.226 A  
HETATM   18  N   UNL     1      -5.873  19.775  69.705  1.00  0.00    -0.262 N  
HETATM   19  C   UNL     1      -7.444  19.391  66.323  1.00  0.00    -0.274 A  
HETATM   20  O   UNL     1      -5.823  21.014  69.766  1.00  0.00    -0.405 OA 
HETATM   21  O   UNL     1      -5.468  19.011  70.593  1.00  0.00    -0.219 OA 
HETATM   22  O   UNL     1      -6.837  21.368  67.420  1.00  0.00    -0.573 OA 
HETATM   23  H   UNL     1      -7.134  21.923  66.708  1.00  0.00     0.000 HD 
HETATM   24  O   UNL     1      -7.879  20.174  65.289  1.00  0.00    -0.439 OA 
HETATM   25  C   UNL     1      -7.573  18.005  66.222  1.00  0.00    -0.306 A  
HETATM   26  H   UNL     1      -8.256  19.764  64.519  1.00  0.00     0.000 HD 
ENDBRANCH   9  14
ENDBRANCH   5   8
ENDBRANCH   2   3
TORSDOF 5
ENDMDL
MODEL      119
REMARK 921   NORMALIZED FREE ENERGY PREDICTED BY IDOCK:   -4.80 KCAL/MOL
REMARK 922        TOTAL FREE ENERGY PREDICTED BY IDOCK:   -6.33 KCAL/MOL
REMARK 923 INTER-LIGAND FREE ENERGY PREDICTED BY IDOCK:   -6.14 KCAL/MOL
REMARK 924 INTRA-LIGAND FREE ENERGY PREDICTED BY IDOCK:   -0.18 KCAL/MOL
REMARK 927      BINDING AFFINITY PREDICTED BY RF-SCORE:    0.00 PKD
ROOT
HETATM    1  C   UNL     1      -5.449  21.036  69.014  1.00  0.00    -0.373 C  
HETATM    2  C   UNL     1      -6.117  20.003  69.913  1.00  0.00    -0.355 C  
ENDROOT
BRANCH   2   3
HETATM    3  N   UNL     1      -7.109  19.169  69.215  1.00  0.00    -0.307 N  
HETATM    4  O   UNL     1      -6.069  17.301  70.051  1.00  0.00    -0.235 OA 
HETATM    5  C   UNL     1      -6.941  17.780  69.316  1.00  0.00    -0.152 C  
BRANCH   3   6
HETATM    6  C   UNL     1      -8.186  19.819  68.455  1.00  0.00    -0.261 C  
HETATM    7  C   UNL     1      -9.629  19.687  68.915  1.00  0.00    -0.421 C  
ENDBRANCH   3   6
BRANCH   5   8
HETATM    8  C   UNL     1      -7.803  16.814  68.549  1.00  0.00    -0.229 C  
HETATM    9  C   UNL     1      -8.366  15.758  69.185  1.00  0.00    -0.249 C  
BRANCH   8  10
HETATM   10  C   UNL     1      -8.098  16.942  67.063  1.00  0.00    -0.198 C  
HETATM   11  H2  UNL     1      -7.382  17.395  65.863  1.00  0.00     0.000 HD 
HETATM   12  N   UNL     1      -8.341  17.049  65.831  1.00  0.00    -0.512 NA 
HETATM   13  H1  UNL     1      -8.539  17.134  64.833  1.00  0.00     0.000 HD 
ENDBRANCH   8  10
BRANCH   9  14
HETATM   14  C   UNL     1      -9.260  14.772  68.530  1.00  0.00    -0.194 A  
HETATM   15  C   UNL     1      -8.753  13.569  68.006  1.00  0.00    -0.181 A  
HETATM   16  C   UNL     1      -9.600  12.675  67.318  1.00  0.00    -0.203 A  
HETATM   17  C   UNL     1     -10.959  12.962  67.167  1.00  0.00    -0.262 A  
HETATM   18  N   UNL     1      -9.043  11.438  66.764  1.00  0.00    -0.171 N  
HETATM   19  C   UNL     1     -11.452  14.153  67.702  1.00  0.00    -0.338 A  
HETATM   20  O   UNL     1      -9.813  10.691  66.138  1.00  0.00    -0.200 OA 
HETATM   21  O   UNL     1      -7.840  11.209  66.951  1.00  0.00    -0.137 OA 
HETATM   22  O   UNL     1     -11.887  12.176  66.526  1.00  0.00    -0.569 OA 
HETATM   23  H   UNL     1     -12.811  12.371  66.424  1.00  0.00     0.000 HD 
HETATM   24  O   UNL     1     -12.780  14.452  67.562  1.00  0.00    -0.358 OA 
HETATM   25  C   UNL     1     -10.623  15.055  68.369  1.00  0.00    -0.239 A  
HETATM   26  H   UNL     1     -13.116  15.263  67.926  1.00  0.00     0.000 HD 
ENDBRANCH   9  14
ENDBRANCH   5   8
ENDBRANCH   2   3
TORSDOF 5
ENDMDL
MODEL      120
REMARK 921   NORMALIZED FREE ENERGY PREDICTED BY IDOCK:   -4.80 KCAL/MOL
REMARK 922        TOTAL FREE ENERGY PREDICTED BY IDOCK:   -6.32 KCAL/MOL
REMARK 923 INTER-LIGAND FREE ENERGY PREDICTED BY IDOCK:   -5.99 KCAL/MOL
REMARK 924 INTRA-LIGAND FREE ENERGY PREDICTED BY IDOCK:   -0.33 KCAL/MOL
REMARK 927      BINDING AFFINITY PREDICTED BY RF-SCORE:    0.00 PKD
ROOT
HETATM    1  C   UNL     1     -12.379  14.512  64.539  1.00  0.00    -0.434 C  
HETATM    2  C   UNL     1     -11.101  14.897  65.274  1.00  0.00    -0.378 C  
ENDROOT
BRANCH   2   3
HETATM    3  N   UNL     1     -10.810  14.042  66.436  1.00  0.00    -0.297 N  
HETATM    4  O   UNL     1      -9.988  12.445  65.007  1.00  0.00    -0.265 OA 
HETATM    5  C   UNL     1     -10.288  12.770  66.162  1.00  0.00    -0.269 C  
BRANCH   3   6
HETATM    6  C   UNL     1     -11.090  14.549  67.787  1.00  0.00    -0.285 C  
HETATM    7  C   UNL     1     -11.182  16.046  68.035  1.00  0.00    -0.303 C  
ENDBRANCH   3   6
BRANCH   5   8
HETATM    8  C   UNL     1     -10.067  11.748  67.245  1.00  0.00    -0.211 C  
HETATM    9  C   UNL     1     -10.922  10.703  67.373  1.00  0.00    -0.361 C  
BRANCH   8  10
HETATM   10  C   UNL     1      -8.916  11.803  68.237  1.00  0.00    -0.180 C  
HETATM   11  H2  UNL     1      -8.603  11.222  69.548  1.00  0.00     0.000 HD 
HETATM   12  N   UNL     1      -7.963  11.849  69.060  1.00  0.00    -0.351 NA 
HETATM   13  H1  UNL     1      -7.191  11.886  69.726  1.00  0.00     0.000 HD 
ENDBRANCH   8  10
BRANCH   9  14
HETATM   14  C   UNL     1     -10.773   9.624  68.381  1.00  0.00    -0.251 A  
HETATM   15  C   UNL     1     -11.350   9.739  69.657  1.00  0.00    -0.165 A  
HETATM   16  C   UNL     1     -11.137   8.742  70.632  1.00  0.00    -0.246 A  
HETATM   17  C   UNL     1     -10.367   7.615  70.334  1.00  0.00    -0.214 A  
HETATM   18  N   UNL     1     -11.733   8.895  71.962  1.00  0.00    -0.367 N  
HETATM   19  C   UNL     1      -9.808   7.507  69.059  1.00  0.00    -0.170 A  
HETATM   20  O   UNL     1     -11.497   8.011  72.802  1.00  0.00    -0.402 OA 
HETATM   21  O   UNL     1     -12.436   9.893  72.171  1.00  0.00    -0.318 OA 
HETATM   22  O   UNL     1     -10.088   6.574  71.187  1.00  0.00    -0.183 OA 
HETATM   23  H   UNL     1      -9.564   5.807  70.984  1.00  0.00     0.000 HD 
HETATM   24  O   UNL     1      -9.050   6.411  68.749  1.00  0.00    -0.126 OA 
HETATM   25  C   UNL     1      -9.997   8.494  68.092  1.00  0.00    -0.214 A  
HETATM   26  H   UNL     1      -8.670   6.337  67.882  1.00  0.00     0.000 HD 
ENDBRANCH   9  14
ENDBRANCH   5   8
ENDBRANCH   2   3
TORSDOF 5
ENDMDL
MODEL      121
REMARK 921   NORMALIZED FREE ENERGY PREDICTED BY IDOCK:   -4.79 KCAL/MOL
REMARK 922        TOTAL FREE ENERGY PREDICTED BY IDOCK:   -6.30 KCAL/MOL
REMARK 923 INTER-LIGAND FREE ENERGY PREDICTED BY IDOCK:   -6.98 KCAL/MOL
REMARK 924 INTRA-LIGAND FREE ENERGY PREDICTED BY IDOCK:    0.68 KCAL/MOL
REMARK 927      BINDING AFFINITY PREDICTED BY RF-SCORE:    0.00 PKD
ROOT
HETATM    1  C   UNL     1     -10.820  15.847  68.546  1.00  0.00    -0.298 C  
HETATM    2  C   UNL     1     -11.502  14.929  67.540  1.00  0.00    -0.348 C  
ENDROOT
BRANCH   2   3
HETATM    3  N   UNL     1     -11.352  13.498  67.851  1.00  0.00    -0.273 N  
HETATM    4  O   UNL     1     -12.755  13.781  69.645  1.00  0.00    -0.116 OA 
HETATM    5  C   UNL     1     -12.005  13.037  69.004  1.00  0.00    -0.267 C  
BRANCH   3   6
HETATM    6  C   UNL     1     -10.531  12.654  66.970  1.00  0.00    -0.232 C  
HETATM    7  C   UNL     1     -10.989  12.368  65.549  1.00  0.00    -0.328 C  
ENDBRANCH   3   6
BRANCH   5   8
HETATM    8  C   UNL     1     -11.830  11.630  69.510  1.00  0.00    -0.414 C  
HETATM    9  C   UNL     1     -12.164  11.326  70.789  1.00  0.00    -0.479 C  
BRANCH   8  10
HETATM   10  C   UNL     1     -11.289  10.488  68.664  1.00  0.00    -0.252 C  
HETATM   11  H2  UNL     1     -10.869   9.098  68.883  1.00  0.00     0.000 HD 
HETATM   12  N   UNL     1     -10.841   9.541  67.964  1.00  0.00    -0.439 NA 
HETATM   13  H1  UNL     1     -10.478   8.775  67.396  1.00  0.00     0.000 HD 
ENDBRANCH   8  10
BRANCH   9  14
HETATM   14  C   UNL     1     -12.066   9.965  71.373  1.00  0.00    -0.501 A  
HETATM   15  C   UNL     1     -10.831   9.448  71.802  1.00  0.00    -0.244 A  
HETATM   16  C   UNL     1     -10.737   8.126  72.286  1.00  0.00    -0.313 A  
HETATM   17  C   UNL     1     -11.876   7.320  72.365  1.00  0.00    -0.208 A  
HETATM   18  N   UNL     1      -9.435   7.603  72.707  1.00  0.00    -0.169 N  
HETATM   19  C   UNL     1     -13.098   7.849  71.946  1.00  0.00    -0.289 A  
HETATM   20  O   UNL     1      -9.388   6.425  73.097  1.00  0.00    -0.135 OA 
HETATM   21  O   UNL     1      -8.459   8.364  72.651  1.00  0.00    -0.219 OA 
HETATM   22  O   UNL     1     -11.921   6.023  72.819  1.00  0.00    -0.520 OA 
HETATM   23  H   UNL     1     -12.696   5.475  72.873  1.00  0.00     0.000 HD 
HETATM   24  O   UNL     1     -14.224   7.074  72.015  1.00  0.00    -0.577 OA 
HETATM   25  C   UNL     1     -13.201   9.149  71.451  1.00  0.00    -0.359 A  
HETATM   26  H   UNL     1     -15.056   7.434  71.731  1.00  0.00     0.000 HD 
ENDBRANCH   9  14
ENDBRANCH   5   8
ENDBRANCH   2   3
TORSDOF 5
ENDMDL
MODEL      122
REMARK 921   NORMALIZED FREE ENERGY PREDICTED BY IDOCK:   -4.77 KCAL/MOL
REMARK 922        TOTAL FREE ENERGY PREDICTED BY IDOCK:   -6.28 KCAL/MOL
REMARK 923 INTER-LIGAND FREE ENERGY PREDICTED BY IDOCK:   -7.03 KCAL/MOL
REMARK 924 INTRA-LIGAND FREE ENERGY PREDICTED BY IDOCK:    0.75 KCAL/MOL
REMARK 927      BINDING AFFINITY PREDICTED BY RF-SCORE:    0.00 PKD
ROOT
HETATM    1  C   UNL     1     -11.431  15.913  70.234  1.00  0.00    -0.376 C  
HETATM    2  C   UNL     1     -12.513  14.903  69.873  1.00  0.00    -0.232 C  
ENDROOT
BRANCH   2   3
HETATM    3  N   UNL     1     -12.406  13.635  70.612  1.00  0.00    -0.361 N  
HETATM    4  O   UNL     1     -11.547  12.652  68.724  1.00  0.00    -0.269 OA 
HETATM    5  C   UNL     1     -11.946  12.526  69.887  1.00  0.00    -0.301 C  
BRANCH   3   6
HETATM    6  C   UNL     1     -12.793  13.595  72.029  1.00  0.00    -0.270 C  
HETATM    7  C   UNL     1     -14.200  13.993  72.445  1.00  0.00    -0.500 C  
ENDBRANCH   3   6
BRANCH   5   8
HETATM    8  C   UNL     1     -11.911  11.143  70.481  1.00  0.00    -0.475 C  
HETATM    9  C   UNL     1     -10.931  10.278  70.123  1.00  0.00    -0.377 C  
BRANCH   8  10
HETATM   10  C   UNL     1     -12.929  10.630  71.488  1.00  0.00    -0.461 C  
HETATM   11  H2  UNL     1     -14.338  10.214  71.470  1.00  0.00     0.000 HD 
HETATM   12  N   UNL     1     -13.774  10.206  72.321  1.00  0.00    -0.500 NA 
HETATM   13  H1  UNL     1     -14.457   9.861  72.996  1.00  0.00     0.000 HD 
ENDBRANCH   8  10
BRANCH   9  14
HETATM   14  C   UNL     1     -10.786   8.909  70.677  1.00  0.00    -0.282 A  
HETATM   15  C   UNL     1     -10.551   7.807  69.836  1.00  0.00    -0.239 A  
HETATM   16  C   UNL     1     -10.492   6.501  70.366  1.00  0.00    -0.212 A  
HETATM   17  C   UNL     1     -10.642   6.288  71.739  1.00  0.00    -0.225 A  
HETATM   18  N   UNL     1     -10.267   5.368  69.466  1.00  0.00    -0.243 N  
HETATM   19  C   UNL     1     -10.863   7.391  72.565  1.00  0.00    -0.283 A  
HETATM   20  O   UNL     1     -10.252   4.231  69.966  1.00  0.00    -0.113 OA 
HETATM   21  O   UNL     1     -10.105   5.607  68.261  1.00  0.00    -0.146 OA 
HETATM   22  O   UNL     1     -10.601   5.073  72.380  1.00  0.00    -0.211 OA 
HETATM   23  H   UNL     1     -10.703   4.927  73.313  1.00  0.00     0.000 HD 
HETATM   24  O   UNL     1     -11.015   7.201  73.912  1.00  0.00    -0.526 OA 
HETATM   25  C   UNL     1     -10.942   8.686  72.051  1.00  0.00    -0.432 A  
HETATM   26  H   UNL     1     -11.165   7.952  74.474  1.00  0.00     0.000 HD 
ENDBRANCH   9  14
ENDBRANCH   5   8
ENDBRANCH   2   3
TORSDOF 5
ENDMDL
MODEL      123
REMARK 921   NORMALIZED FREE ENERGY PREDICTED BY IDOCK:   -4.75 KCAL/MOL
REMARK 922        TOTAL FREE ENERGY PREDICTED BY IDOCK:   -6.25 KCAL/MOL
REMARK 923 INTER-LIGAND FREE ENERGY PREDICTED BY IDOCK:   -5.74 KCAL/MOL
REMARK 924 INTRA-LIGAND FREE ENERGY PREDICTED BY IDOCK:   -0.51 KCAL/MOL
REMARK 927      BINDING AFFINITY PREDICTED BY RF-SCORE:    0.00 PKD
ROOT
HETATM    1  C   UNL     1     -12.026  14.642  64.582  1.00  0.00    -0.472 C  
HETATM    2  C   UNL     1     -10.572  14.214  64.744  1.00  0.00    -0.418 C  
ENDROOT
BRANCH   2   3
HETATM    3  N   UNL     1     -10.332  13.384  65.935  1.00  0.00    -0.285 N  
HETATM    4  O   UNL     1     -10.821  11.520  64.688  1.00  0.00    -0.309 OA 
HETATM    5  C   UNL     1     -10.552  12.006  65.793  1.00  0.00    -0.263 C  
BRANCH   3   6
HETATM    6  C   UNL     1      -9.902  14.028  67.184  1.00  0.00    -0.240 C  
HETATM    7  C   UNL     1     -10.938  14.547  68.169  1.00  0.00    -0.261 C  
ENDBRANCH   3   6
BRANCH   5   8
HETATM    8  C   UNL     1     -10.470  11.060  66.960  1.00  0.00    -0.284 C  
HETATM    9  C   UNL     1      -9.404  10.231  67.086  1.00  0.00    -0.175 C  
BRANCH   8  10
HETATM   10  C   UNL     1     -11.531  10.964  68.046  1.00  0.00    -0.281 C  
HETATM   11  H2  UNL     1     -12.936  11.358  68.208  1.00  0.00     0.000 HD 
HETATM   12  N   UNL     1     -12.411  10.885  68.944  1.00  0.00    -0.759 NA 
HETATM   13  H1  UNL     1     -13.123  10.820  69.672  1.00  0.00     0.000 HD 
ENDBRANCH   8  10
BRANCH   9  14
HETATM   14  C   UNL     1      -9.210   9.290  68.216  1.00  0.00    -0.134 A  
HETATM   15  C   UNL     1      -9.734   7.986  68.172  1.00  0.00    -0.179 A  
HETATM   16  C   UNL     1      -9.609   7.126  69.284  1.00  0.00    -0.155 A  
HETATM   17  C   UNL     1      -8.943   7.552  70.436  1.00  0.00    -0.152 A  
HETATM   18  N   UNL     1     -10.182   5.779  69.221  1.00  0.00    -0.203 N  
HETATM   19  C   UNL     1      -8.418   8.845  70.463  1.00  0.00    -0.177 A  
HETATM   20  O   UNL     1     -10.079   5.063  70.230  1.00  0.00    -0.235 OA 
HETATM   21  O   UNL     1     -10.734   5.432  68.167  1.00  0.00    -0.137 OA 
HETATM   22  O   UNL     1      -8.750   6.815  71.580  1.00  0.00    -0.127 OA 
HETATM   23  H   UNL     1      -8.296   7.105  72.363  1.00  0.00     0.000 HD 
HETATM   24  O   UNL     1      -7.764   9.280  71.583  1.00  0.00    -0.336 OA 
HETATM   25  C   UNL     1      -8.549   9.711  69.377  1.00  0.00    -0.160 A  
HETATM   26  H   UNL     1      -7.406  10.160  71.602  1.00  0.00     0.000 HD 
ENDBRANCH   9  14
ENDBRANCH   5   8
ENDBRANCH   2   3
TORSDOF 5
ENDMDL
MODEL      124
REMARK 921   NORMALIZED FREE ENERGY PREDICTED BY IDOCK:   -4.75 KCAL/MOL
REMARK 922        TOTAL FREE ENERGY PREDICTED BY IDOCK:   -6.25 KCAL/MOL
REMARK 923 INTER-LIGAND FREE ENERGY PREDICTED BY IDOCK:   -5.85 KCAL/MOL
REMARK 924 INTRA-LIGAND FREE ENERGY PREDICTED BY IDOCK:   -0.40 KCAL/MOL
REMARK 927      BINDING AFFINITY PREDICTED BY RF-SCORE:    0.00 PKD
ROOT
HETATM    1  C   UNL     1      -7.465  19.727  65.392  1.00  0.00    -0.064 C  
HETATM    2  C   UNL     1      -7.166  19.271  66.815  1.00  0.00    -0.210 C  
ENDROOT
BRANCH   2   3
HETATM    3  N   UNL     1      -7.883  18.046  67.204  1.00  0.00    -0.213 N  
HETATM    4  O   UNL     1      -8.013  18.851  69.349  1.00  0.00    -0.038 OA 
HETATM    5  C   UNL     1      -8.217  17.921  68.560  1.00  0.00    -0.295 C  
BRANCH   3   6
HETATM    6  C   UNL     1      -8.189  17.037  66.179  1.00  0.00    -0.249 C  
HETATM    7  C   UNL     1      -9.632  16.769  65.782  1.00  0.00    -0.114 C  
ENDBRANCH   3   6
BRANCH   5   8
HETATM    8  C   UNL     1      -8.834  16.666  69.118  1.00  0.00    -0.136 C  
HETATM    9  C   UNL     1     -10.180  16.573  69.243  1.00  0.00    -0.290 C  
BRANCH   8  10
HETATM   10  C   UNL     1      -8.029  15.455  69.565  1.00  0.00    -0.204 C  
HETATM   11  H2  UNL     1      -8.058  14.005  69.335  1.00  0.00     0.000 HD 
HETATM   12  N   UNL     1      -7.363  14.451  69.934  1.00  0.00    -0.387 NA 
HETATM   13  H1  UNL     1      -6.823  13.639  70.234  1.00  0.00     0.000 HD 
ENDBRANCH   8  10
BRANCH   9  14
HETATM   14  C   UNL     1     -10.888  15.369  69.744  1.00  0.00    -0.297 A  
HETATM   15  C   UNL     1     -10.989  14.207  68.959  1.00  0.00    -0.286 A  
HETATM   16  C   UNL     1     -11.730  13.096  69.415  1.00  0.00    -0.327 A  
HETATM   17  C   UNL     1     -12.355  13.128  70.664  1.00  0.00    -0.326 A  
HETATM   18  N   UNL     1     -11.837  11.905  68.569  1.00  0.00    -0.319 N  
HETATM   19  C   UNL     1     -12.238  14.283  71.439  1.00  0.00    -0.331 A  
HETATM   20  O   UNL     1     -12.523  10.960  68.991  1.00  0.00    -0.425 OA 
HETATM   21  O   UNL     1     -11.238  11.908  67.484  1.00  0.00    -0.257 OA 
HETATM   22  O   UNL     1     -13.098  12.117  71.225  1.00  0.00    -0.280 OA 
HETATM   23  H   UNL     1     -13.523  12.139  72.075  1.00  0.00     0.000 HD 
HETATM   24  O   UNL     1     -12.845  14.334  72.665  1.00  0.00    -0.393 OA 
HETATM   25  C   UNL     1     -11.523  15.395  70.993  1.00  0.00    -0.407 A  
HETATM   26  H   UNL     1     -12.765  15.119  73.192  1.00  0.00     0.000 HD 
ENDBRANCH   9  14
ENDBRANCH   5   8
ENDBRANCH   2   3
TORSDOF 5
ENDMDL
MODEL      125
REMARK 921   NORMALIZED FREE ENERGY PREDICTED BY IDOCK:   -4.73 KCAL/MOL
REMARK 922        TOTAL FREE ENERGY PREDICTED BY IDOCK:   -6.23 KCAL/MOL
REMARK 923 INTER-LIGAND FREE ENERGY PREDICTED BY IDOCK:   -5.93 KCAL/MOL
REMARK 924 INTRA-LIGAND FREE ENERGY PREDICTED BY IDOCK:   -0.30 KCAL/MOL
REMARK 927      BINDING AFFINITY PREDICTED BY RF-SCORE:    0.00 PKD
ROOT
HETATM    1  C   UNL     1     -14.207  14.873  71.529  1.00  0.00    -0.617 C  
HETATM    2  C   UNL     1     -12.948  14.039  71.726  1.00  0.00    -0.353 C  
ENDROOT
BRANCH   2   3
HETATM    3  N   UNL     1     -12.267  13.695  70.468  1.00  0.00    -0.358 N  
HETATM    4  O   UNL     1     -12.641  11.475  70.918  1.00  0.00    -0.369 OA 
HETATM    5  C   UNL     1     -12.118  12.328  70.190  1.00  0.00    -0.287 C  
BRANCH   3   6
HETATM    6  C   UNL     1     -11.774  14.774  69.599  1.00  0.00    -0.314 C  
HETATM    7  C   UNL     1     -10.999  15.937  70.197  1.00  0.00    -0.369 C  
ENDBRANCH   3   6
BRANCH   5   8
HETATM    8  C   UNL     1     -11.329  11.835  69.007  1.00  0.00    -0.338 C  
HETATM    9  C   UNL     1     -10.172  11.155  69.202  1.00  0.00    -0.163 C  
BRANCH   8  10
HETATM   10  C   UNL     1     -11.750  12.050  67.562  1.00  0.00    -0.280 C  
HETATM   11  H2  UNL     1     -11.202  11.756  66.231  1.00  0.00     0.000 HD 
HETATM   12  N   UNL     1     -12.097  12.228  66.364  1.00  0.00    -0.612 NA 
HETATM   13  H1  UNL     1     -12.380  12.372  65.394  1.00  0.00     0.000 HD 
ENDBRANCH   8  10
BRANCH   9  14
HETATM   14  C   UNL     1      -9.341  10.596  68.108  1.00  0.00    -0.152 A  
HETATM   15  C   UNL     1      -8.147  11.223  67.712  1.00  0.00    -0.119 A  
HETATM   16  C   UNL     1      -7.405  10.724  66.620  1.00  0.00    -0.134 A  
HETATM   17  C   UNL     1      -7.836   9.587  65.932  1.00  0.00    -0.100 A  
HETATM   18  N   UNL     1      -6.174  11.408  66.213  1.00  0.00    -0.071 N  
HETATM   19  C   UNL     1      -9.018   8.968  66.342  1.00  0.00    -0.155 A  
HETATM   20  O   UNL     1      -5.566  10.958  65.228  1.00  0.00    -0.135 OA 
HETATM   21  O   UNL     1      -5.812  12.392  66.873  1.00  0.00    -0.298 OA 
HETATM   22  O   UNL     1      -7.206   9.001  64.860  1.00  0.00    -0.093 OA 
HETATM   23  H   UNL     1      -7.500   8.228  64.392  1.00  0.00     0.000 HD 
HETATM   24  O   UNL     1      -9.457   7.854  65.679  1.00  0.00    -0.409 OA 
HETATM   25  C   UNL     1      -9.770   9.460  67.409  1.00  0.00    -0.205 A  
HETATM   26  H   UNL     1     -10.260   7.432  65.958  1.00  0.00     0.000 HD 
ENDBRANCH   9  14
ENDBRANCH   5   8
ENDBRANCH   2   3
TORSDOF 5
ENDMDL
MODEL      126
REMARK 921   NORMALIZED FREE ENERGY PREDICTED BY IDOCK:   -4.73 KCAL/MOL
REMARK 922        TOTAL FREE ENERGY PREDICTED BY IDOCK:   -6.23 KCAL/MOL
REMARK 923 INTER-LIGAND FREE ENERGY PREDICTED BY IDOCK:   -5.58 KCAL/MOL
REMARK 924 INTRA-LIGAND FREE ENERGY PREDICTED BY IDOCK:   -0.65 KCAL/MOL
REMARK 927      BINDING AFFINITY PREDICTED BY RF-SCORE:    0.00 PKD
ROOT
HETATM    1  C   UNL     1      -8.061   6.590  69.273  1.00  0.00    -0.112 C  
HETATM    2  C   UNL     1      -8.572   7.257  68.003  1.00  0.00    -0.125 C  
ENDROOT
BRANCH   2   3
HETATM    3  N   UNL     1      -8.698   8.719  68.115  1.00  0.00    -0.134 N  
HETATM    4  O   UNL     1      -8.996   8.828  65.841  1.00  0.00    -0.171 OA 
HETATM    5  C   UNL     1      -8.857   9.427  66.914  1.00  0.00    -0.127 C  
BRANCH   3   6
HETATM    6  C   UNL     1      -8.636   9.345  69.443  1.00  0.00    -0.148 C  
HETATM    7  C   UNL     1      -9.919   9.688  70.183  1.00  0.00    -0.309 C  
ENDBRANCH   3   6
BRANCH   5   8
HETATM    8  C   UNL     1      -8.867  10.932  66.871  1.00  0.00    -0.145 C  
HETATM    9  C   UNL     1     -10.047  11.598  66.831  1.00  0.00    -0.238 C  
BRANCH   8  10
HETATM   10  C   UNL     1      -7.610  11.786  66.869  1.00  0.00    -0.119 C  
HETATM   11  H2  UNL     1      -6.187  11.598  66.555  1.00  0.00     0.000 HD 
HETATM   12  N   UNL     1      -6.566  12.493  66.867  1.00  0.00    -0.457 NA 
HETATM   13  H1  UNL     1      -5.722  13.066  66.865  1.00  0.00     0.000 HD 
ENDBRANCH   8  10
BRANCH   9  14
HETATM   14  C   UNL     1     -10.168  13.077  66.824  1.00  0.00    -0.246 A  
HETATM   15  C   UNL     1     -10.170  13.810  68.024  1.00  0.00    -0.248 A  
HETATM   16  C   UNL     1     -10.362  15.208  68.009  1.00  0.00    -0.240 A  
HETATM   17  C   UNL     1     -10.530  15.885  66.798  1.00  0.00    -0.309 A  
HETATM   18  N   UNL     1     -10.381  15.946  69.274  1.00  0.00    -0.230 N  
HETATM   19  C   UNL     1     -10.515  15.147  65.613  1.00  0.00    -0.359 A  
HETATM   20  O   UNL     1     -10.584  17.170  69.222  1.00  0.00    -0.326 OA 
HETATM   21  O   UNL     1     -10.194  15.309  70.320  1.00  0.00    -0.232 OA 
HETATM   22  O   UNL     1     -10.721  17.238  66.646  1.00  0.00    -0.220 OA 
HETATM   23  H   UNL     1     -10.834  17.699  65.823  1.00  0.00     0.000 HD 
HETATM   24  O   UNL     1     -10.680  15.793  64.418  1.00  0.00    -0.765 OA 
HETATM   25  C   UNL     1     -10.343  13.763  65.616  1.00  0.00    -0.321 A  
HETATM   26  H   UNL     1     -10.669  15.292  63.612  1.00  0.00     0.000 HD 
ENDBRANCH   9  14
ENDBRANCH   5   8
ENDBRANCH   2   3
TORSDOF 5
ENDMDL
MODEL      127
REMARK 921   NORMALIZED FREE ENERGY PREDICTED BY IDOCK:   -4.73 KCAL/MOL
REMARK 922        TOTAL FREE ENERGY PREDICTED BY IDOCK:   -6.23 KCAL/MOL
REMARK 923 INTER-LIGAND FREE ENERGY PREDICTED BY IDOCK:   -6.03 KCAL/MOL
REMARK 924 INTRA-LIGAND FREE ENERGY PREDICTED BY IDOCK:   -0.20 KCAL/MOL
REMARK 927      BINDING AFFINITY PREDICTED BY RF-SCORE:    0.00 PKD
ROOT
HETATM    1  C   UNL     1      -9.897   5.611  72.729  1.00  0.00    -0.183 C  
HETATM    2  C   UNL     1     -10.735   6.864  72.955  1.00  0.00    -0.297 C  
ENDROOT
BRANCH   2   3
HETATM    3  N   UNL     1     -11.017   7.614  71.721  1.00  0.00    -0.235 N  
HETATM    4  O   UNL     1      -9.225   8.972  72.183  1.00  0.00    -0.365 OA 
HETATM    5  C   UNL     1     -10.199   8.723  71.463  1.00  0.00    -0.300 C  
BRANCH   3   6
HETATM    6  C   UNL     1     -12.125   7.184  70.856  1.00  0.00    -0.326 C  
HETATM    7  C   UNL     1     -13.556   7.239  71.368  1.00  0.00    -0.399 C  
ENDBRANCH   3   6
BRANCH   5   8
HETATM    8  C   UNL     1     -10.458   9.654  70.308  1.00  0.00    -0.338 C  
HETATM    9  C   UNL     1      -9.430  10.057  69.521  1.00  0.00    -0.245 C  
BRANCH   8  10
HETATM   10  C   UNL     1     -11.834  10.193  69.950  1.00  0.00    -0.135 C  
HETATM   11  H2  UNL     1     -12.791  11.150  70.518  1.00  0.00     0.000 HD 
HETATM   12  N   UNL     1     -12.974  10.640  69.653  1.00  0.00    -0.492 NA 
HETATM   13  H1  UNL     1     -13.897  11.002  69.413  1.00  0.00     0.000 HD 
ENDBRANCH   8  10
BRANCH   9  14
HETATM   14  C   UNL     1      -9.584  10.941  68.339  1.00  0.00    -0.177 A  
HETATM   15  C   UNL     1      -9.540  10.420  67.034  1.00  0.00    -0.197 A  
HETATM   16  C   UNL     1      -9.611  11.280  65.917  1.00  0.00    -0.221 A  
HETATM   17  C   UNL     1      -9.748  12.660  66.095  1.00  0.00    -0.251 A  
HETATM   18  N   UNL     1      -9.543  10.716  64.567  1.00  0.00    -0.258 N  
HETATM   19  C   UNL     1      -9.801  13.163  67.396  1.00  0.00    -0.226 A  
HETATM   20  O   UNL     1      -9.576  11.507  63.611  1.00  0.00    -0.268 OA 
HETATM   21  O   UNL     1      -9.456   9.484  64.458  1.00  0.00    -0.200 OA 
HETATM   22  O   UNL     1      -9.832  13.601  65.097  1.00  0.00    -0.549 OA 
HETATM   23  H   UNL     1      -9.926  14.539  65.217  1.00  0.00     0.000 HD 
HETATM   24  O   UNL     1      -9.934  14.511  67.589  1.00  0.00    -0.222 OA 
HETATM   25  C   UNL     1      -9.715  12.325  68.508  1.00  0.00    -0.142 A  
HETATM   26  H   UNL     1      -9.970  14.854  68.474  1.00  0.00     0.000 HD 
ENDBRANCH   9  14
ENDBRANCH   5   8
ENDBRANCH   2   3
TORSDOF 5
ENDMDL
MODEL      128
REMARK 921   NORMALIZED FREE ENERGY PREDICTED BY IDOCK:   -4.73 KCAL/MOL
REMARK 922        TOTAL FREE ENERGY PREDICTED BY IDOCK:   -6.22 KCAL/MOL
REMARK 923 INTER-LIGAND FREE ENERGY PREDICTED BY IDOCK:   -7.02 KCAL/MOL
REMARK 924 INTRA-LIGAND FREE ENERGY PREDICTED BY IDOCK:    0.79 KCAL/MOL
REMARK 927      BINDING AFFINITY PREDICTED BY RF-SCORE:    0.00 PKD
ROOT
HETATM    1  C   UNL     1      -7.475  20.000  67.765  1.00  0.00    -0.330 C  
HETATM    2  C   UNL     1      -8.684  19.476  67.002  1.00  0.00    -0.305 C  
ENDROOT
BRANCH   2   3
HETATM    3  N   UNL     1      -9.097  18.123  67.409  1.00  0.00    -0.252 N  
HETATM    4  O   UNL     1     -11.235  18.906  67.703  1.00  0.00    -0.207 OA 
HETATM    5  C   UNL     1     -10.434  17.970  67.806  1.00  0.00    -0.408 C  
BRANCH   3   6
HETATM    6  C   UNL     1      -8.108  17.035  67.395  1.00  0.00    -0.176 C  
HETATM    7  C   UNL     1      -7.699  16.362  68.696  1.00  0.00    -0.204 C  
ENDBRANCH   3   6
BRANCH   5   8
HETATM    8  C   UNL     1     -10.955  16.675  68.369  1.00  0.00    -0.345 C  
HETATM    9  C   UNL     1     -11.034  16.504  69.712  1.00  0.00    -0.292 C  
BRANCH   8  10
HETATM   10  C   UNL     1     -11.417  15.507  67.513  1.00  0.00    -0.183 C  
HETATM   11  H2  UNL     1     -11.494  14.046  67.644  1.00  0.00     0.000 HD 
HETATM   12  N   UNL     1     -11.799  14.538  66.803  1.00  0.00    -0.392 NA 
HETATM   13  H1  UNL     1     -12.109  13.753  66.229  1.00  0.00     0.000 HD 
ENDBRANCH   8  10
BRANCH   9  14
HETATM   14  C   UNL     1     -11.567  15.284  70.366  1.00  0.00    -0.341 A  
HETATM   15  C   UNL     1     -11.420  14.019  69.770  1.00  0.00    -0.293 A  
HETATM   16  C   UNL     1     -11.997  12.877  70.364  1.00  0.00    -0.249 A  
HETATM   17  C   UNL     1     -12.704  12.984  71.564  1.00  0.00    -0.251 A  
HETATM   18  N   UNL     1     -11.848  11.573  69.712  1.00  0.00    -0.329 N  
HETATM   19  C   UNL     1     -12.833  14.244  72.152  1.00  0.00    -0.344 A  
HETATM   20  O   UNL     1     -12.397  10.596  70.249  1.00  0.00    -0.304 OA 
HETATM   21  O   UNL     1     -11.184  11.519  68.667  1.00  0.00    -0.205 OA 
HETATM   22  O   UNL     1     -13.308  11.954  72.245  1.00  0.00    -0.601 OA 
HETATM   23  H   UNL     1     -13.788  12.027  73.061  1.00  0.00     0.000 HD 
HETATM   24  O   UNL     1     -13.523  14.369  73.327  1.00  0.00    -0.574 OA 
HETATM   25  C   UNL     1     -12.282  15.384  71.566  1.00  0.00    -0.433 A  
HETATM   26  H   UNL     1     -13.611  15.226  73.727  1.00  0.00     0.000 HD 
ENDBRANCH   9  14
ENDBRANCH   5   8
ENDBRANCH   2   3
TORSDOF 5
ENDMDL
MODEL      129
REMARK 921   NORMALIZED FREE ENERGY PREDICTED BY IDOCK:   -4.71 KCAL/MOL
REMARK 922        TOTAL FREE ENERGY PREDICTED BY IDOCK:   -6.20 KCAL/MOL
REMARK 923 INTER-LIGAND FREE ENERGY PREDICTED BY IDOCK:   -5.70 KCAL/MOL
REMARK 924 INTRA-LIGAND FREE ENERGY PREDICTED BY IDOCK:   -0.50 KCAL/MOL
REMARK 927      BINDING AFFINITY PREDICTED BY RF-SCORE:    0.00 PKD
ROOT
HETATM    1  C   UNL     1     -10.623  15.794  65.241  1.00  0.00    -0.446 C  
HETATM    2  C   UNL     1     -11.716  15.062  66.009  1.00  0.00    -0.094 C  
ENDROOT
BRANCH   2   3
HETATM    3  N   UNL     1     -11.216  13.947  66.828  1.00  0.00    -0.310 N  
HETATM    4  O   UNL     1     -12.446  12.499  65.540  1.00  0.00    -0.646 OA 
HETATM    5  C   UNL     1     -11.715  12.672  66.522  1.00  0.00    -0.400 C  
BRANCH   3   6
HETATM    6  C   UNL     1     -10.256  14.222  67.907  1.00  0.00    -0.237 C  
HETATM    7  C   UNL     1     -10.755  14.660  69.275  1.00  0.00    -0.254 C  
ENDBRANCH   3   6
BRANCH   5   8
HETATM    8  C   UNL     1     -11.389  11.465  67.360  1.00  0.00    -0.359 C  
HETATM    9  C   UNL     1     -10.474  10.565  66.922  1.00  0.00    -0.303 C  
BRANCH   8  10
HETATM   10  C   UNL     1     -12.032  11.173  68.706  1.00  0.00    -0.268 C  
HETATM   11  H2  UNL     1     -11.799  11.543  70.108  1.00  0.00     0.000 HD 
HETATM   12  N   UNL     1     -12.564  10.931  69.823  1.00  0.00    -0.378 NA 
HETATM   13  H1  UNL     1     -12.996  10.736  70.726  1.00  0.00     0.000 HD 
ENDBRANCH   8  10
BRANCH   9  14
HETATM   14  C   UNL     1     -10.055   9.365  67.687  1.00  0.00    -0.262 A  
HETATM   15  C   UNL     1      -9.250   9.481  68.834  1.00  0.00    -0.145 A  
HETATM   16  C   UNL     1      -8.795   8.328  69.508  1.00  0.00    -0.149 A  
HETATM   17  C   UNL     1      -9.158   7.056  69.058  1.00  0.00    -0.135 A  
HETATM   18  N   UNL     1      -7.940   8.474  70.689  1.00  0.00    -0.094 N  
HETATM   19  C   UNL     1      -9.967   6.955  67.925  1.00  0.00    -0.147 A  
HETATM   20  O   UNL     1      -7.534   7.436  71.237  1.00  0.00    -0.078 OA 
HETATM   21  O   UNL     1      -7.672   9.622  71.072  1.00  0.00    -0.323 OA 
HETATM   22  O   UNL     1      -8.788   5.859  69.625  1.00  0.00    -0.128 OA 
HETATM   23  H   UNL     1      -9.035   4.994  69.319  1.00  0.00     0.000 HD 
HETATM   24  O   UNL     1     -10.331   5.717  67.469  1.00  0.00    -0.176 OA 
HETATM   25  C   UNL     1     -10.409   8.086  67.239  1.00  0.00    -0.371 A  
HETATM   26  H   UNL     1     -10.882   5.648  66.698  1.00  0.00     0.000 HD 
ENDBRANCH   9  14
ENDBRANCH   5   8
ENDBRANCH   2   3
TORSDOF 5
ENDMDL
MODEL      130
REMARK 921   NORMALIZED FREE ENERGY PREDICTED BY IDOCK:   -4.70 KCAL/MOL
REMARK 922        TOTAL FREE ENERGY PREDICTED BY IDOCK:   -6.18 KCAL/MOL
REMARK 923 INTER-LIGAND FREE ENERGY PREDICTED BY IDOCK:   -5.57 KCAL/MOL
REMARK 924 INTRA-LIGAND FREE ENERGY PREDICTED BY IDOCK:   -0.61 KCAL/MOL
REMARK 927      BINDING AFFINITY PREDICTED BY RF-SCORE:    0.00 PKD
ROOT
HETATM    1  C   UNL     1     -11.380  15.678  64.595  1.00  0.00    -0.355 C  
HETATM    2  C   UNL     1     -12.064  14.363  64.944  1.00  0.00    -0.436 C  
ENDROOT
BRANCH   2   3
HETATM    3  N   UNL     1     -11.293  13.528  65.879  1.00  0.00    -0.305 N  
HETATM    4  O   UNL     1     -11.409  11.801  64.372  1.00  0.00    -0.330 OA 
HETATM    5  C   UNL     1     -11.069  12.198  65.492  1.00  0.00    -0.316 C  
BRANCH   3   6
HETATM    6  C   UNL     1     -10.825  14.111  67.145  1.00  0.00    -0.290 C  
HETATM    7  C   UNL     1     -11.781  14.249  68.319  1.00  0.00    -0.377 C  
ENDBRANCH   3   6
BRANCH   5   8
HETATM    8  C   UNL     1     -10.410  11.201  66.407  1.00  0.00    -0.300 C  
HETATM    9  C   UNL     1     -11.144  10.563  67.352  1.00  0.00    -0.322 C  
BRANCH   8  10
HETATM   10  C   UNL     1      -8.933  10.845  66.345  1.00  0.00    -0.175 C  
HETATM   11  H2  UNL     1      -7.733  11.363  65.675  1.00  0.00     0.000 HD 
HETATM   12  N   UNL     1      -7.709  10.552  66.293  1.00  0.00    -0.130 NA 
HETATM   13  H1  UNL     1      -6.717  10.314  66.252  1.00  0.00     0.000 HD 
ENDBRANCH   8  10
BRANCH   9  14
HETATM   14  C   UNL     1     -10.599   9.537  68.276  1.00  0.00    -0.260 A  
HETATM   15  C   UNL     1     -10.490   8.192  67.883  1.00  0.00    -0.259 A  
HETATM   16  C   UNL     1     -10.043   7.213  68.796  1.00  0.00    -0.173 A  
HETATM   17  C   UNL     1      -9.681   7.573  70.096  1.00  0.00    -0.172 A  
HETATM   18  N   UNL     1      -9.958   5.814  68.369  1.00  0.00    -0.143 N  
HETATM   19  C   UNL     1      -9.782   8.914  70.471  1.00  0.00    -0.203 A  
HETATM   20  O   UNL     1      -9.590   4.978  69.210  1.00  0.00    -0.135 OA 
HETATM   21  O   UNL     1     -10.258   5.547  67.196  1.00  0.00    -0.172 OA 
HETATM   22  O   UNL     1      -9.227   6.722  71.076  1.00  0.00    -0.156 OA 
HETATM   23  H   UNL     1      -8.980   6.967  71.961  1.00  0.00     0.000 HD 
HETATM   24  O   UNL     1      -9.433   9.285  71.741  1.00  0.00    -0.302 OA 
HETATM   25  C   UNL     1     -10.239   9.888  69.583  1.00  0.00    -0.261 A  
HETATM   26  H   UNL     1      -9.502  10.197  71.995  1.00  0.00     0.000 HD 
ENDBRANCH   9  14
ENDBRANCH   5   8
ENDBRANCH   2   3
TORSDOF 5
ENDMDL
MODEL      131
REMARK 921   NORMALIZED FREE ENERGY PREDICTED BY IDOCK:   -4.69 KCAL/MOL
REMARK 922        TOTAL FREE ENERGY PREDICTED BY IDOCK:   -6.18 KCAL/MOL
REMARK 923 INTER-LIGAND FREE ENERGY PREDICTED BY IDOCK:   -5.77 KCAL/MOL
REMARK 924 INTRA-LIGAND FREE ENERGY PREDICTED BY IDOCK:   -0.41 KCAL/MOL
REMARK 927      BINDING AFFINITY PREDICTED BY RF-SCORE:    0.00 PKD
ROOT
HETATM    1  C   UNL     1     -10.896   4.250  73.773  1.00  0.00    -0.354 C  
HETATM    2  C   UNL     1     -10.888   5.773  73.737  1.00  0.00    -0.134 C  
ENDROOT
BRANCH   2   3
HETATM    3  N   UNL     1     -10.264   6.330  72.526  1.00  0.00    -0.182 N  
HETATM    4  O   UNL     1     -11.414   8.285  72.881  1.00  0.00    -0.347 OA 
HETATM    5  C   UNL     1     -10.664   7.622  72.154  1.00  0.00    -0.241 C  
BRANCH   3   6
HETATM    6  C   UNL     1      -9.292   5.518  71.779  1.00  0.00    -0.142 C  
HETATM    7  C   UNL     1      -9.764   4.611  70.654  1.00  0.00    -0.277 C  
ENDBRANCH   3   6
BRANCH   5   8
HETATM    8  C   UNL     1     -10.206   8.261  70.870  1.00  0.00    -0.224 C  
HETATM    9  C   UNL     1     -10.858   7.993  69.712  1.00  0.00    -0.194 C  
BRANCH   8  10
HETATM   10  C   UNL     1      -9.027   9.217  70.776  1.00  0.00    -0.242 C  
HETATM   11  H2  UNL     1      -8.829  10.670  70.717  1.00  0.00     0.000 HD 
HETATM   12  N   UNL     1      -8.051  10.010  70.698  1.00  0.00    -0.386 NA 
HETATM   13  H1  UNL     1      -7.260  10.651  70.635  1.00  0.00     0.000 HD 
ENDBRANCH   8  10
BRANCH   9  14
HETATM   14  C   UNL     1     -10.510   8.598  68.402  1.00  0.00    -0.220 A  
HETATM   15  C   UNL     1     -11.035   9.845  68.018  1.00  0.00    -0.269 A  
HETATM   16  C   UNL     1     -10.759  10.374  66.739  1.00  0.00    -0.168 A  
HETATM   17  C   UNL     1      -9.941   9.676  65.847  1.00  0.00    -0.281 A  
HETATM   18  N   UNL     1     -11.335  11.665  66.354  1.00  0.00    -0.301 N  
HETATM   19  C   UNL     1      -9.417   8.445  66.245  1.00  0.00    -0.224 A  
HETATM   20  O   UNL     1     -11.094  12.083  65.210  1.00  0.00    -0.303 OA 
HETATM   21  O   UNL     1     -12.026  12.264  67.190  1.00  0.00    -0.564 OA 
HETATM   22  O   UNL     1      -9.592  10.081  64.581  1.00  0.00    -0.289 OA 
HETATM   23  H   UNL     1      -9.035   9.607  63.974  1.00  0.00     0.000 HD 
HETATM   24  O   UNL     1      -8.615   7.747  65.384  1.00  0.00    -0.229 OA 
HETATM   25  C   UNL     1      -9.696   7.903  67.500  1.00  0.00    -0.204 A  
HETATM   26  H   UNL     1      -8.257   6.909  65.655  1.00  0.00     0.000 HD 
ENDBRANCH   9  14
ENDBRANCH   5   8
ENDBRANCH   2   3
TORSDOF 5
ENDMDL
MODEL      132
REMARK 921   NORMALIZED FREE ENERGY PREDICTED BY IDOCK:   -4.68 KCAL/MOL
REMARK 922        TOTAL FREE ENERGY PREDICTED BY IDOCK:   -6.17 KCAL/MOL
REMARK 923 INTER-LIGAND FREE ENERGY PREDICTED BY IDOCK:   -5.93 KCAL/MOL
REMARK 924 INTRA-LIGAND FREE ENERGY PREDICTED BY IDOCK:   -0.24 KCAL/MOL
REMARK 927      BINDING AFFINITY PREDICTED BY RF-SCORE:    0.00 PKD
ROOT
HETATM    1  C   UNL     1     -10.540  15.355  68.782  1.00  0.00    -0.235 C  
HETATM    2  C   UNL     1     -11.925  14.723  68.816  1.00  0.00    -0.257 C  
ENDROOT
BRANCH   2   3
HETATM    3  N   UNL     1     -11.902  13.252  68.800  1.00  0.00    -0.326 N  
HETATM    4  O   UNL     1     -12.298  13.260  71.061  1.00  0.00    -0.362 OA 
HETATM    5  C   UNL     1     -12.048  12.611  70.039  1.00  0.00    -0.269 C  
BRANCH   3   6
HETATM    6  C   UNL     1     -11.715  12.550  67.522  1.00  0.00    -0.374 C  
HETATM    7  C   UNL     1     -12.157  13.204  66.223  1.00  0.00    -0.460 C  
ENDBRANCH   3   6
BRANCH   5   8
HETATM    8  C   UNL     1     -11.914  11.118  70.186  1.00  0.00    -0.449 C  
HETATM    9  C   UNL     1     -10.721  10.521  69.947  1.00  0.00    -0.301 C  
BRANCH   8  10
HETATM   10  C   UNL     1     -13.056  10.204  70.599  1.00  0.00    -0.210 C  
HETATM   11  H2  UNL     1     -13.357   8.768  70.532  1.00  0.00     0.000 HD 
HETATM   12  N   UNL     1     -14.002   9.445  70.940  1.00  0.00    -0.450 NA 
HETATM   13  H1  UNL     1     -14.769   8.831  71.216  1.00  0.00     0.000 HD 
ENDBRANCH   8  10
BRANCH   9  14
HETATM   14  C   UNL     1     -10.474   9.065  70.099  1.00  0.00    -0.240 A  
HETATM   15  C   UNL     1     -10.406   8.471  71.371  1.00  0.00    -0.307 A  
HETATM   16  C   UNL     1     -10.094   7.101  71.506  1.00  0.00    -0.186 A  
HETATM   17  C   UNL     1      -9.872   6.312  70.374  1.00  0.00    -0.176 A  
HETATM   18  N   UNL     1     -10.009   6.510  72.843  1.00  0.00    -0.171 N  
HETATM   19  C   UNL     1      -9.953   6.912  69.116  1.00  0.00    -0.162 A  
HETATM   20  O   UNL     1      -9.702   5.309  72.922  1.00  0.00    -0.143 OA 
HETATM   21  O   UNL     1     -10.247   7.239  73.816  1.00  0.00    -0.343 OA 
HETATM   22  O   UNL     1      -9.566   4.972  70.368  1.00  0.00    -0.165 OA 
HETATM   23  H   UNL     1      -9.416   4.436  69.598  1.00  0.00     0.000 HD 
HETATM   24  O   UNL     1      -9.737   6.156  67.997  1.00  0.00    -0.118 OA 
HETATM   25  C   UNL     1     -10.243   8.269  68.970  1.00  0.00    -0.226 A  
HETATM   26  H   UNL     1      -9.793   6.564  67.141  1.00  0.00     0.000 HD 
ENDBRANCH   9  14
ENDBRANCH   5   8
ENDBRANCH   2   3
TORSDOF 5
ENDMDL
MODEL      133
REMARK 921   NORMALIZED FREE ENERGY PREDICTED BY IDOCK:   -4.68 KCAL/MOL
REMARK 922        TOTAL FREE ENERGY PREDICTED BY IDOCK:   -6.16 KCAL/MOL
REMARK 923 INTER-LIGAND FREE ENERGY PREDICTED BY IDOCK:   -6.83 KCAL/MOL
REMARK 924 INTRA-LIGAND FREE ENERGY PREDICTED BY IDOCK:    0.67 KCAL/MOL
REMARK 927      BINDING AFFINITY PREDICTED BY RF-SCORE:    0.00 PKD
ROOT
HETATM    1  C   UNL     1      -8.092   9.816  63.004  1.00  0.00    -0.146 C  
HETATM    2  C   UNL     1      -9.523  10.284  63.235  1.00  0.00    -0.300 C  
ENDROOT
BRANCH   2   3
HETATM    3  N   UNL     1      -9.653  11.264  64.325  1.00  0.00    -0.237 N  
HETATM    4  O   UNL     1     -11.205  12.397  63.071  1.00  0.00    -0.272 OA 
HETATM    5  C   UNL     1     -10.513  12.347  64.095  1.00  0.00    -0.389 C  
BRANCH   3   6
HETATM    6  C   UNL     1      -8.881  11.069  65.561  1.00  0.00    -0.169 C  
HETATM    7  C   UNL     1      -9.247   9.947  66.519  1.00  0.00    -0.190 C  
ENDBRANCH   3   6
BRANCH   5   8
HETATM    8  C   UNL     1     -10.641  13.487  65.069  1.00  0.00    -0.382 C  
HETATM    9  C   UNL     1     -10.486  13.261  66.397  1.00  0.00    -0.286 C  
BRANCH   8  10
HETATM   10  C   UNL     1     -10.939  14.920  64.658  1.00  0.00    -0.306 C  
HETATM   11  H2  UNL     1     -10.171  16.089  64.212  1.00  0.00     0.000 HD 
HETATM   12  N   UNL     1     -11.186  16.108  64.318  1.00  0.00    -1.138 NA 
HETATM   13  H1  UNL     1     -11.386  17.070  64.042  1.00  0.00     0.000 HD 
ENDBRANCH   8  10
BRANCH   9  14
HETATM   14  C   UNL     1     -10.555  14.320  67.435  1.00  0.00    -0.276 A  
HETATM   15  C   UNL     1     -11.474  14.237  68.495  1.00  0.00    -0.329 A  
HETATM   16  C   UNL     1     -11.582  15.286  69.432  1.00  0.00    -0.330 A  
HETATM   17  C   UNL     1     -10.761  16.413  69.331  1.00  0.00    -0.324 A  
HETATM   18  N   UNL     1     -12.563  15.186  70.516  1.00  0.00    -0.369 N  
HETATM   19  C   UNL     1      -9.845  16.477  68.280  1.00  0.00    -0.243 A  
HETATM   20  O   UNL     1     -12.650  16.143  71.303  1.00  0.00    -0.328 OA 
HETATM   21  O   UNL     1     -13.246  14.154  70.587  1.00  0.00    -0.254 OA 
HETATM   22  O   UNL     1     -10.764  17.496  70.177  1.00  0.00    -0.099 OA 
HETATM   23  H   UNL     1     -10.205  18.262  70.108  1.00  0.00     0.000 HD 
HETATM   24  O   UNL     1      -9.033  17.573  68.164  1.00  0.00    -0.251 OA 
HETATM   25  C   UNL     1      -9.739  15.455  67.337  1.00  0.00    -0.215 A  
HETATM   26  H   UNL     1      -8.409  17.618  67.449  1.00  0.00     0.000 HD 
ENDBRANCH   9  14
ENDBRANCH   5   8
ENDBRANCH   2   3
TORSDOF 5
ENDMDL
MODEL      134
REMARK 921   NORMALIZED FREE ENERGY PREDICTED BY IDOCK:   -4.66 KCAL/MOL
REMARK 922        TOTAL FREE ENERGY PREDICTED BY IDOCK:   -6.14 KCAL/MOL
REMARK 923 INTER-LIGAND FREE ENERGY PREDICTED BY IDOCK:   -5.74 KCAL/MOL
REMARK 924 INTRA-LIGAND FREE ENERGY PREDICTED BY IDOCK:   -0.41 KCAL/MOL
REMARK 927      BINDING AFFINITY PREDICTED BY RF-SCORE:    0.00 PKD
ROOT
HETATM    1  C   UNL     1      -8.145   7.229  64.129  1.00  0.00    -0.036 C  
HETATM    2  C   UNL     1      -8.015   7.791  65.539  1.00  0.00    -0.121 C  
ENDROOT
BRANCH   2   3
HETATM    3  N   UNL     1      -9.012   8.826  65.855  1.00  0.00    -0.184 N  
HETATM    4  O   UNL     1      -7.700  10.365  64.768  1.00  0.00    -0.139 OA 
HETATM    5  C   UNL     1      -8.704  10.134  65.452  1.00  0.00    -0.161 C  
BRANCH   3   6
HETATM    6  C   UNL     1     -10.238   8.448  66.573  1.00  0.00    -0.207 C  
HETATM    7  C   UNL     1     -10.444   7.009  67.019  1.00  0.00    -0.386 C  
ENDBRANCH   3   6
BRANCH   5   8
HETATM    8  C   UNL     1      -9.570  11.308  65.824  1.00  0.00    -0.256 C  
HETATM    9  C   UNL     1      -9.284  12.035  66.931  1.00  0.00    -0.197 C  
BRANCH   8  10
HETATM   10  C   UNL     1     -10.782  11.752  65.020  1.00  0.00    -0.292 C  
HETATM   11  H2  UNL     1     -12.198  12.037  65.285  1.00  0.00     0.000 HD 
HETATM   12  N   UNL     1     -11.788  12.119  64.355  1.00  0.00    -0.365 NA 
HETATM   13  H1  UNL     1     -12.601  12.417  63.816  1.00  0.00     0.000 HD 
ENDBRANCH   8  10
BRANCH   9  14
HETATM   14  C   UNL     1     -10.051  13.230  67.364  1.00  0.00    -0.233 A  
HETATM   15  C   UNL     1      -9.747  14.507  66.860  1.00  0.00    -0.257 A  
HETATM   16  C   UNL     1     -10.432  15.646  67.336  1.00  0.00    -0.291 A  
HETATM   17  C   UNL     1     -11.437  15.515  68.298  1.00  0.00    -0.353 A  
HETATM   18  N   UNL     1     -10.082  16.968  66.812  1.00  0.00    -0.290 N  
HETATM   19  C   UNL     1     -11.737  14.240  68.781  1.00  0.00    -0.343 A  
HETATM   20  O   UNL     1     -10.685  17.949  67.277  1.00  0.00    -0.354 OA 
HETATM   21  O   UNL     1      -9.209  17.032  65.935  1.00  0.00    -0.504 OA 
HETATM   22  O   UNL     1     -12.179  16.538  68.838  1.00  0.00    -0.019 OA 
HETATM   23  H   UNL     1     -12.863  16.450  69.492  1.00  0.00     0.000 HD 
HETATM   24  O   UNL     1     -12.717  14.094  69.724  1.00  0.00    -0.449 OA 
HETATM   25  C   UNL     1     -11.056  13.109  68.332  1.00  0.00    -0.298 A  
HETATM   26  H   UNL     1     -12.922  13.226  70.053  1.00  0.00     0.000 HD 
ENDBRANCH   9  14
ENDBRANCH   5   8
ENDBRANCH   2   3
TORSDOF 5
ENDMDL
MODEL      135
REMARK 921   NORMALIZED FREE ENERGY PREDICTED BY IDOCK:   -4.66 KCAL/MOL
REMARK 922        TOTAL FREE ENERGY PREDICTED BY IDOCK:   -6.14 KCAL/MOL
REMARK 923 INTER-LIGAND FREE ENERGY PREDICTED BY IDOCK:   -5.57 KCAL/MOL
REMARK 924 INTRA-LIGAND FREE ENERGY PREDICTED BY IDOCK:   -0.57 KCAL/MOL
REMARK 927      BINDING AFFINITY PREDICTED BY RF-SCORE:    0.00 PKD
ROOT
HETATM    1  C   UNL     1      -6.560  19.612  69.769  1.00  0.00    -0.336 C  
HETATM    2  C   UNL     1      -7.658  19.590  68.713  1.00  0.00    -0.351 C  
ENDROOT
BRANCH   2   3
HETATM    3  N   UNL     1      -7.866  18.265  68.107  1.00  0.00    -0.279 N  
HETATM    4  O   UNL     1     -10.035  18.306  68.858  1.00  0.00    -0.375 OA 
HETATM    5  C   UNL     1      -9.125  17.679  68.303  1.00  0.00    -0.276 C  
BRANCH   3   6
HETATM    6  C   UNL     1      -6.766  17.635  67.362  1.00  0.00    -0.160 C  
HETATM    7  C   UNL     1      -6.578  17.935  65.884  1.00  0.00    -0.304 C  
ENDBRANCH   3   6
BRANCH   5   8
HETATM    8  C   UNL     1      -9.431  16.275  67.852  1.00  0.00    -0.218 C  
HETATM    9  C   UNL     1      -9.145  15.227  68.663  1.00  0.00    -0.193 C  
BRANCH   8  10
HETATM   10  C   UNL     1     -10.058  15.938  66.508  1.00  0.00    -0.282 C  
HETATM   11  H2  UNL     1      -9.693  16.071  65.092  1.00  0.00     0.000 HD 
HETATM   12  N   UNL     1     -10.576  15.659  65.394  1.00  0.00    -0.390 NA 
HETATM   13  H1  UNL     1     -10.997  15.432  64.492  1.00  0.00     0.000 HD 
ENDBRANCH   8  10
BRANCH   9  14
HETATM   14  C   UNL     1      -9.441  13.812  68.328  1.00  0.00    -0.214 A  
HETATM   15  C   UNL     1      -8.484  13.003  67.691  1.00  0.00    -0.187 A  
HETATM   16  C   UNL     1      -8.803  11.682  67.310  1.00  0.00    -0.164 A  
HETATM   17  C   UNL     1     -10.068  11.154  67.581  1.00  0.00    -0.179 A  
HETATM   18  N   UNL     1      -7.796  10.866  66.627  1.00  0.00    -0.140 N  
HETATM   19  C   UNL     1     -11.005  11.964  68.225  1.00  0.00    -0.230 A  
HETATM   20  O   UNL     1      -8.124   9.720  66.280  1.00  0.00    -0.111 OA 
HETATM   21  O   UNL     1      -6.677  11.364  66.438  1.00  0.00    -0.109 OA 
HETATM   22  O   UNL     1     -10.501   9.888  67.268  1.00  0.00    -0.231 OA 
HETATM   23  H   UNL     1     -11.361   9.528  67.453  1.00  0.00     0.000 HD 
HETATM   24  O   UNL     1     -12.249  11.464  68.498  1.00  0.00    -0.557 OA 
HETATM   25  C   UNL     1     -10.708  13.276  68.592  1.00  0.00    -0.281 A  
HETATM   26  H   UNL     1     -12.887  12.014  68.936  1.00  0.00     0.000 HD 
ENDBRANCH   9  14
ENDBRANCH   5   8
ENDBRANCH   2   3
TORSDOF 5
ENDMDL
MODEL      136
REMARK 921   NORMALIZED FREE ENERGY PREDICTED BY IDOCK:   -4.65 KCAL/MOL
REMARK 922        TOTAL FREE ENERGY PREDICTED BY IDOCK:   -6.13 KCAL/MOL
REMARK 923 INTER-LIGAND FREE ENERGY PREDICTED BY IDOCK:   -6.10 KCAL/MOL
REMARK 924 INTRA-LIGAND FREE ENERGY PREDICTED BY IDOCK:   -0.02 KCAL/MOL
REMARK 927      BINDING AFFINITY PREDICTED BY RF-SCORE:    0.00 PKD
ROOT
HETATM    1  C   UNL     1     -14.376  15.179  71.426  1.00  0.00    -0.601 C  
HETATM    2  C   UNL     1     -13.527  14.129  72.131  1.00  0.00    -0.454 C  
ENDROOT
BRANCH   2   3
HETATM    3  N   UNL     1     -12.701  13.327  71.214  1.00  0.00    -0.358 N  
HETATM    4  O   UNL     1     -13.658  11.427  72.075  1.00  0.00    -0.288 OA 
HETATM    5  C   UNL     1     -12.817  11.934  71.323  1.00  0.00    -0.290 C  
BRANCH   3   6
HETATM    6  C   UNL     1     -11.808  14.011  70.267  1.00  0.00    -0.303 C  
HETATM    7  C   UNL     1     -11.166  15.336  70.648  1.00  0.00    -0.353 C  
ENDBRANCH   3   6
BRANCH   5   8
HETATM    8  C   UNL     1     -11.939  10.995  70.540  1.00  0.00    -0.474 C  
HETATM    9  C   UNL     1     -11.201  10.060  71.188  1.00  0.00    -0.339 C  
BRANCH   8  10
HETATM   10  C   UNL     1     -11.815  11.021  69.024  1.00  0.00    -0.329 C  
HETATM   11  H2  UNL     1     -11.764  10.036  67.937  1.00  0.00     0.000 HD 
HETATM   12  N   UNL     1     -11.713  11.041  67.769  1.00  0.00    -0.614 NA 
HETATM   13  H1  UNL     1     -11.630  11.058  66.752  1.00  0.00     0.000 HD 
ENDBRANCH   8  10
BRANCH   9  14
HETATM   14  C   UNL     1     -10.334   9.066  70.508  1.00  0.00    -0.266 A  
HETATM   15  C   UNL     1      -9.024   9.394  70.119  1.00  0.00    -0.256 A  
HETATM   16  C   UNL     1      -8.236   8.465  69.405  1.00  0.00    -0.116 A  
HETATM   17  C   UNL     1      -8.741   7.200  69.096  1.00  0.00    -0.133 A  
HETATM   18  N   UNL     1      -6.880   8.838  68.992  1.00  0.00    -0.059 N  
HETATM   19  C   UNL     1     -10.039   6.883  69.498  1.00  0.00    -0.173 A  
HETATM   20  O   UNL     1      -6.230   8.006  68.339  1.00  0.00    -0.046 OA 
HETATM   21  O   UNL     1      -6.462   9.958  69.318  1.00  0.00    -0.046 OA 
HETATM   22  O   UNL     1      -8.078   6.207  68.414  1.00  0.00    -0.106 OA 
HETATM   23  H   UNL     1      -8.421   5.346  68.204  1.00  0.00     0.000 HD 
HETATM   24  O   UNL     1     -10.551   5.649  69.203  1.00  0.00    -0.253 OA 
HETATM   25  C   UNL     1     -10.835   7.798  70.189  1.00  0.00    -0.248 A  
HETATM   26  H   UNL     1     -11.435   5.433  69.477  1.00  0.00     0.000 HD 
ENDBRANCH   9  14
ENDBRANCH   5   8
ENDBRANCH   2   3
TORSDOF 5
ENDMDL
MODEL      137
REMARK 921   NORMALIZED FREE ENERGY PREDICTED BY IDOCK:   -4.64 KCAL/MOL
REMARK 922        TOTAL FREE ENERGY PREDICTED BY IDOCK:   -6.11 KCAL/MOL
REMARK 923 INTER-LIGAND FREE ENERGY PREDICTED BY IDOCK:   -5.80 KCAL/MOL
REMARK 924 INTRA-LIGAND FREE ENERGY PREDICTED BY IDOCK:   -0.32 KCAL/MOL
REMARK 927      BINDING AFFINITY PREDICTED BY RF-SCORE:    0.00 PKD
ROOT
HETATM    1  C   UNL     1      -9.923   4.617  70.408  1.00  0.00    -0.300 C  
HETATM    2  C   UNL     1     -10.122   6.076  70.798  1.00  0.00    -0.197 C  
ENDROOT
BRANCH   2   3
HETATM    3  N   UNL     1      -9.663   7.027  69.772  1.00  0.00    -0.168 N  
HETATM    4  O   UNL     1     -11.433   8.390  70.300  1.00  0.00    -0.198 OA 
HETATM    5  C   UNL     1     -10.463   8.161  69.569  1.00  0.00    -0.227 C  
BRANCH   3   6
HETATM    6  C   UNL     1      -8.432   6.737  69.022  1.00  0.00    -0.128 C  
HETATM    7  C   UNL     1      -7.077   6.895  69.694  1.00  0.00    -0.068 C  
ENDBRANCH   3   6
BRANCH   5   8
HETATM    8  C   UNL     1     -10.184   9.147  68.466  1.00  0.00    -0.223 C  
HETATM    9  C   UNL     1     -10.353   8.779  67.172  1.00  0.00    -0.364 C  
BRANCH   8  10
HETATM   10  C   UNL     1      -9.712  10.572  68.706  1.00  0.00    -0.184 C  
HETATM   11  H2  UNL     1     -10.302  11.916  68.673  1.00  0.00     0.000 HD 
HETATM   12  N   UNL     1      -9.322  11.754  68.905  1.00  0.00    -0.406 NA 
HETATM   13  H1  UNL     1      -9.006  12.710  69.066  1.00  0.00     0.000 HD 
ENDBRANCH   8  10
BRANCH   9  14
HETATM   14  C   UNL     1     -10.141   9.684  66.015  1.00  0.00    -0.318 A  
HETATM   15  C   UNL     1     -11.070  10.693  65.704  1.00  0.00     0.250 A  
HETATM   16  C   UNL     1     -10.897  11.497  64.558  1.00  0.00    -0.327 A  
HETATM   17  C   UNL     1      -9.788  11.316  63.728  1.00  0.00    -0.322 A  
HETATM   18  N   UNL     1     -11.890  12.527  64.244  1.00  0.00    -0.368 N  
HETATM   19  C   UNL     1      -8.867  10.318  64.053  1.00  0.00    -0.221 A  
HETATM   20  O   UNL     1     -11.720  13.194  63.210  1.00  0.00    -0.444 OA 
HETATM   21  O   UNL     1     -12.839  12.675  65.027  1.00  0.00    -0.765 OA 
HETATM   22  O   UNL     1      -9.502  12.031  62.590  1.00  0.00    -0.422 OA 
HETATM   23  H   UNL     1      -8.747  11.908  62.025  1.00  0.00     0.000 HD 
HETATM   24  O   UNL     1      -7.776  10.125  63.251  1.00  0.00    -0.148 OA 
HETATM   25  C   UNL     1      -9.035   9.505  65.174  1.00  0.00    -0.253 A  
HETATM   26  H   UNL     1      -7.149   9.447  63.473  1.00  0.00     0.000 HD 
ENDBRANCH   9  14
ENDBRANCH   5   8
ENDBRANCH   2   3
TORSDOF 5
ENDMDL
MODEL      138
REMARK 921   NORMALIZED FREE ENERGY PREDICTED BY IDOCK:   -4.64 KCAL/MOL
REMARK 922        TOTAL FREE ENERGY PREDICTED BY IDOCK:   -6.11 KCAL/MOL
REMARK 923 INTER-LIGAND FREE ENERGY PREDICTED BY IDOCK:   -5.78 KCAL/MOL
REMARK 924 INTRA-LIGAND FREE ENERGY PREDICTED BY IDOCK:   -0.33 KCAL/MOL
REMARK 927      BINDING AFFINITY PREDICTED BY RF-SCORE:    0.00 PKD
ROOT
HETATM    1  C   UNL     1      -8.021   5.947  69.073  1.00  0.00    -0.099 C  
HETATM    2  C   UNL     1      -7.301   5.883  67.732  1.00  0.00    -0.077 C  
ENDROOT
BRANCH   2   3
HETATM    3  N   UNL     1      -7.783   6.874  66.757  1.00  0.00    -0.100 N  
HETATM    4  O   UNL     1      -6.692   8.511  67.939  1.00  0.00    -0.063 OA 
HETATM    5  C   UNL     1      -7.448   8.213  67.008  1.00  0.00    -0.088 C  
BRANCH   3   6
HETATM    6  C   UNL     1      -8.584   6.422  65.610  1.00  0.00    -0.133 C  
HETATM    7  C   UNL     1      -8.823   4.937  65.387  1.00  0.00    -0.149 C  
ENDBRANCH   3   6
BRANCH   5   8
HETATM    8  C   UNL     1      -7.983   9.341  66.167  1.00  0.00    -0.107 C  
HETATM    9  C   UNL     1      -9.191   9.885  66.454  1.00  0.00    -0.195 C  
BRANCH   8  10
HETATM   10  C   UNL     1      -7.242   9.933  64.979  1.00  0.00    -0.135 C  
HETATM   11  H2  UNL     1      -6.832  11.270  64.530  1.00  0.00     0.000 HD 
HETATM   12  N   UNL     1      -6.628  10.426  63.994  1.00  0.00    -0.321 NA 
HETATM   13  H1  UNL     1      -6.131  10.824  63.198  1.00  0.00     0.000 HD 
ENDBRANCH   8  10
BRANCH   9  14
HETATM   14  C   UNL     1      -9.791  11.021  65.712  1.00  0.00    -0.282 A  
HETATM   15  C   UNL     1      -9.549  12.350  66.102  1.00  0.00    -0.238 A  
HETATM   16  C   UNL     1     -10.185  13.419  65.436  1.00  0.00    -0.298 A  
HETATM   17  C   UNL     1     -11.047  13.171  64.364  1.00  0.00    -0.381 A  
HETATM   18  N   UNL     1      -9.933  14.793  65.875  1.00  0.00    -0.308 N  
HETATM   19  C   UNL     1     -11.270  11.848  63.979  1.00  0.00    -0.396 A  
HETATM   20  O   UNL     1     -10.535  15.705  65.284  1.00  0.00    -0.379 OA 
HETATM   21  O   UNL     1      -9.135  14.968  66.807  1.00  0.00    -0.229 OA 
HETATM   22  O   UNL     1     -11.722  14.118  63.632  1.00  0.00    -0.618 OA 
HETATM   23  H   UNL     1     -12.308  13.950  62.903  1.00  0.00     0.000 HD 
HETATM   24  O   UNL     1     -12.112  11.586  62.933  1.00  0.00    -0.913 OA 
HETATM   25  C   UNL     1     -10.661  10.781  64.641  1.00  0.00    -0.269 A  
HETATM   26  H   UNL     1     -12.264  10.686  62.671  1.00  0.00     0.000 HD 
ENDBRANCH   9  14
ENDBRANCH   5   8
ENDBRANCH   2   3
TORSDOF 5
ENDMDL
MODEL      139
REMARK 921   NORMALIZED FREE ENERGY PREDICTED BY IDOCK:   -4.62 KCAL/MOL
REMARK 922        TOTAL FREE ENERGY PREDICTED BY IDOCK:   -6.09 KCAL/MOL
REMARK 923 INTER-LIGAND FREE ENERGY PREDICTED BY IDOCK:   -5.51 KCAL/MOL
REMARK 924 INTRA-LIGAND FREE ENERGY PREDICTED BY IDOCK:   -0.59 KCAL/MOL
REMARK 927      BINDING AFFINITY PREDICTED BY RF-SCORE:    0.00 PKD
ROOT
HETATM    1  C   UNL     1     -11.091   3.610  73.081  1.00  0.00    -0.188 C  
HETATM    2  C   UNL     1     -11.245   5.126  73.045  1.00  0.00    -0.322 C  
ENDROOT
BRANCH   2   3
HETATM    3  N   UNL     1     -10.636   5.751  71.860  1.00  0.00    -0.225 N  
HETATM    4  O   UNL     1     -12.415   7.199  71.758  1.00  0.00    -0.328 OA 
HETATM    5  C   UNL     1     -11.370   6.778  71.248  1.00  0.00    -0.289 C  
BRANCH   3   6
HETATM    6  C   UNL     1      -9.332   5.268  71.383  1.00  0.00    -0.148 C  
HETATM    7  C   UNL     1      -8.053   5.745  72.053  1.00  0.00    -0.112 C  
ENDBRANCH   3   6
BRANCH   5   8
HETATM    8  C   UNL     1     -10.928   7.415  69.958  1.00  0.00    -0.264 C  
HETATM    9  C   UNL     1     -10.301   8.617  69.977  1.00  0.00    -0.213 C  
BRANCH   8  10
HETATM   10  C   UNL     1     -11.140   6.786  68.589  1.00  0.00    -0.153 C  
HETATM   11  H2  UNL     1     -11.667   5.521  68.062  1.00  0.00     0.000 HD 
HETATM   12  N   UNL     1     -11.316   6.263  67.456  1.00  0.00    -0.637 NA 
HETATM   13  H1  UNL     1     -11.458   5.841  66.538  1.00  0.00     0.000 HD 
ENDBRANCH   8  10
BRANCH   9  14
HETATM   14  C   UNL     1      -9.794   9.310  68.767  1.00  0.00    -0.174 A  
HETATM   15  C   UNL     1     -10.608  10.203  68.048  1.00  0.00    -0.273 A  
HETATM   16  C   UNL     1     -10.140  10.797  66.857  1.00  0.00    -0.212 A  
HETATM   17  C   UNL     1      -8.853  10.523  66.387  1.00  0.00    -0.153 A  
HETATM   18  N   UNL     1     -11.016  11.707  66.114  1.00  0.00    -0.293 N  
HETATM   19  C   UNL     1      -8.050   9.644  67.117  1.00  0.00    -0.110 A  
HETATM   20  O   UNL     1     -10.580  12.186  65.054  1.00  0.00    -0.271 OA 
HETATM   21  O   UNL     1     -12.136  11.948  66.585  1.00  0.00    -0.587 OA 
HETATM   22  O   UNL     1      -8.278  11.037  65.250  1.00  0.00    -0.349 OA 
HETATM   23  H   UNL     1      -7.403  10.851  64.931  1.00  0.00     0.000 HD 
HETATM   24  O   UNL     1      -6.787   9.363  66.672  1.00  0.00    -0.078 OA 
HETATM   25  C   UNL     1      -8.507   9.036  68.287  1.00  0.00    -0.129 A  
HETATM   26  H   UNL     1      -6.241   8.765  67.168  1.00  0.00     0.000 HD 
ENDBRANCH   9  14
ENDBRANCH   5   8
ENDBRANCH   2   3
TORSDOF 5
ENDMDL
MODEL      140
REMARK 921   NORMALIZED FREE ENERGY PREDICTED BY IDOCK:   -4.62 KCAL/MOL
REMARK 922        TOTAL FREE ENERGY PREDICTED BY IDOCK:   -6.08 KCAL/MOL
REMARK 923 INTER-LIGAND FREE ENERGY PREDICTED BY IDOCK:   -5.61 KCAL/MOL
REMARK 924 INTRA-LIGAND FREE ENERGY PREDICTED BY IDOCK:   -0.47 KCAL/MOL
REMARK 927      BINDING AFFINITY PREDICTED BY RF-SCORE:    0.00 PKD
ROOT
HETATM    1  C   UNL     1      -7.114   3.899  70.071  1.00  0.00    -0.042 C  
HETATM    2  C   UNL     1      -6.987   5.397  70.318  1.00  0.00    -0.060 C  
ENDROOT
BRANCH   2   3
HETATM    3  N   UNL     1      -8.103   6.182  69.766  1.00  0.00    -0.116 N  
HETATM    4  O   UNL     1      -7.030   6.209  67.738  1.00  0.00    -0.067 OA 
HETATM    5  C   UNL     1      -7.979   6.593  68.431  1.00  0.00    -0.111 C  
BRANCH   3   6
HETATM    6  C   UNL     1      -9.252   6.501  70.627  1.00  0.00    -0.162 C  
HETATM    7  C   UNL     1     -10.291   5.435  70.934  1.00  0.00    -0.312 C  
ENDBRANCH   3   6
BRANCH   5   8
HETATM    8  C   UNL     1      -8.982   7.509  67.781  1.00  0.00    -0.131 C  
HETATM    9  C   UNL     1      -8.702   8.828  67.642  1.00  0.00    -0.135 C  
BRANCH   8  10
HETATM   10  C   UNL     1     -10.330   7.045  67.252  1.00  0.00    -0.261 C  
HETATM   11  H2  UNL     1     -11.033   7.045  65.963  1.00  0.00     0.000 HD 
HETATM   12  N   UNL     1     -11.447   6.661  66.813  1.00  0.00    -0.727 NA 
HETATM   13  H1  UNL     1     -12.351   6.350  66.458  1.00  0.00     0.000 HD 
ENDBRANCH   8  10
BRANCH   9  14
HETATM   14  C   UNL     1      -9.605   9.805  66.984  1.00  0.00    -0.218 A  
HETATM   15  C   UNL     1      -9.500  10.075  65.608  1.00  0.00    -0.278 A  
HETATM   16  C   UNL     1     -10.312  11.062  65.009  1.00  0.00    -0.295 A  
HETATM   17  C   UNL     1     -11.247  11.767  65.772  1.00  0.00    -0.281 A  
HETATM   18  N   UNL     1     -10.170  11.340  63.578  1.00  0.00    -0.366 N  
HETATM   19  C   UNL     1     -11.348  11.481  67.134  1.00  0.00    -0.284 A  
HETATM   20  O   UNL     1     -10.880  12.237  63.093  1.00  0.00    -0.377 OA 
HETATM   21  O   UNL     1      -9.353  10.667  62.934  1.00  0.00    -0.263 OA 
HETATM   22  O   UNL     1     -12.097  12.744  65.311  1.00  0.00    -0.405 OA 
HETATM   23  H   UNL     1     -12.733  13.224  65.830  1.00  0.00     0.000 HD 
HETATM   24  O   UNL     1     -12.257  12.162  67.897  1.00  0.00    -0.438 OA 
HETATM   25  C   UNL     1     -10.540  10.520  67.742  1.00  0.00    -0.285 A  
HETATM   26  H   UNL     1     -12.327  11.968  68.824  1.00  0.00     0.000 HD 
ENDBRANCH   9  14
ENDBRANCH   5   8
ENDBRANCH   2   3
TORSDOF 5
ENDMDL
MODEL      141
REMARK 921   NORMALIZED FREE ENERGY PREDICTED BY IDOCK:   -4.60 KCAL/MOL
REMARK 922        TOTAL FREE ENERGY PREDICTED BY IDOCK:   -6.06 KCAL/MOL
REMARK 923 INTER-LIGAND FREE ENERGY PREDICTED BY IDOCK:   -5.62 KCAL/MOL
REMARK 924 INTRA-LIGAND FREE ENERGY PREDICTED BY IDOCK:   -0.44 KCAL/MOL
REMARK 927      BINDING AFFINITY PREDICTED BY RF-SCORE:    0.00 PKD
ROOT
HETATM    1  C   UNL     1     -11.226   7.995  72.782  1.00  0.00    -0.448 C  
HETATM    2  C   UNL     1     -11.935   7.979  71.434  1.00  0.00    -0.298 C  
ENDROOT
BRANCH   2   3
HETATM    3  N   UNL     1     -11.060   8.327  70.303  1.00  0.00    -0.247 N  
HETATM    4  O   UNL     1     -11.866  10.474  70.390  1.00  0.00    -0.284 OA 
HETATM    5  C   UNL     1     -11.160   9.638  69.815  1.00  0.00    -0.217 C  
BRANCH   3   6
HETATM    6  C   UNL     1     -10.163   7.303  69.748  1.00  0.00    -0.210 C  
HETATM    7  C   UNL     1      -8.817   7.035  70.403  1.00  0.00    -0.155 C  
ENDBRANCH   3   6
BRANCH   5   8
HETATM    8  C   UNL     1     -10.421  10.089  68.584  1.00  0.00    -0.228 C  
HETATM    9  C   UNL     1     -10.884   9.752  67.355  1.00  0.00    -0.265 C  
BRANCH   8  10
HETATM   10  C   UNL     1      -9.151  10.925  68.620  1.00  0.00    -0.175 C  
HETATM   11  H2  UNL     1      -8.310  11.638  67.650  1.00  0.00     0.000 HD 
HETATM   12  N   UNL     1      -8.099  11.618  68.648  1.00  0.00    -0.232 NA 
HETATM   13  H1  UNL     1      -7.247  12.178  68.672  1.00  0.00     0.000 HD 
ENDBRANCH   8  10
BRANCH   9  14
HETATM   14  C   UNL     1     -10.253  10.177  66.082  1.00  0.00    -0.285 A  
HETATM   15  C   UNL     1      -9.255   9.396  65.472  1.00  0.00    -0.292 A  
HETATM   16  C   UNL     1      -8.608   9.848  64.302  1.00  0.00    -0.188 A  
HETATM   17  C   UNL     1      -8.966  11.067  63.722  1.00  0.00    -0.064 A  
HETATM   18  N   UNL     1      -7.557   9.026  63.697  1.00  0.00    -0.111 N  
HETATM   19  C   UNL     1      -9.967  11.827  64.331  1.00  0.00    -0.251 A  
HETATM   20  O   UNL     1      -6.989   9.472  62.687  1.00  0.00    -0.099 OA 
HETATM   21  O   UNL     1      -7.295   7.937  64.226  1.00  0.00    -0.078 OA 
HETATM   22  O   UNL     1      -8.420  11.616  62.586  1.00  0.00    -0.636 OA 
HETATM   23  H   UNL     1      -8.664  12.446  62.191  1.00  0.00     0.000 HD 
HETATM   24  O   UNL     1     -10.330  13.025  63.778  1.00  0.00    -0.532 OA 
HETATM   25  C   UNL     1     -10.602  11.400  65.497  1.00  0.00    -0.328 A  
HETATM   26  H   UNL     1     -11.011  13.542  64.192  1.00  0.00     0.000 HD 
ENDBRANCH   9  14
ENDBRANCH   5   8
ENDBRANCH   2   3
TORSDOF 5
ENDMDL
MODEL      142
REMARK 921   NORMALIZED FREE ENERGY PREDICTED BY IDOCK:   -4.59 KCAL/MOL
REMARK 922        TOTAL FREE ENERGY PREDICTED BY IDOCK:   -6.05 KCAL/MOL
REMARK 923 INTER-LIGAND FREE ENERGY PREDICTED BY IDOCK:   -5.77 KCAL/MOL
REMARK 924 INTRA-LIGAND FREE ENERGY PREDICTED BY IDOCK:   -0.28 KCAL/MOL
REMARK 927      BINDING AFFINITY PREDICTED BY RF-SCORE:    0.00 PKD
ROOT
HETATM    1  C   UNL     1     -10.334  16.584  65.700  1.00  0.00    -0.342 C  
HETATM    2  C   UNL     1     -10.874  16.169  67.063  1.00  0.00    -0.194 C  
ENDROOT
BRANCH   2   3
HETATM    3  N   UNL     1     -10.462  14.817  67.472  1.00  0.00    -0.243 N  
HETATM    4  O   UNL     1     -12.464  14.012  66.689  1.00  0.00    -0.420 OA 
HETATM    5  C   UNL     1     -11.400  13.792  67.279  1.00  0.00    -0.321 C  
BRANCH   3   6
HETATM    6  C   UNL     1      -9.130  14.620  68.063  1.00  0.00    -0.189 C  
HETATM    7  C   UNL     1      -8.671  15.501  69.214  1.00  0.00    -0.260 C  
ENDBRANCH   3   6
BRANCH   5   8
HETATM    8  C   UNL     1     -11.161  12.389  67.771  1.00  0.00    -0.327 C  
HETATM    9  C   UNL     1     -11.286  12.105  69.091  1.00  0.00    -0.333 C  
BRANCH   8  10
HETATM   10  C   UNL     1     -10.778  11.230  66.864  1.00  0.00    -0.273 C  
HETATM   11  H2  UNL     1     -11.254  10.656  65.599  1.00  0.00     0.000 HD 
HETATM   12  N   UNL     1     -10.461  10.270  66.113  1.00  0.00    -0.176 NA 
HETATM   13  H1  UNL     1     -10.204   9.492  65.504  1.00  0.00     0.000 HD 
ENDBRANCH   8  10
BRANCH   9  14
HETATM   14  C   UNL     1     -11.110  10.751  69.671  1.00  0.00    -0.339 A  
HETATM   15  C   UNL     1     -12.187  10.072  70.268  1.00  0.00    -0.186 A  
HETATM   16  C   UNL     1     -11.989   8.818  70.883  1.00  0.00    -0.201 A  
HETATM   17  C   UNL     1     -10.724   8.224  70.889  1.00  0.00    -0.218 A  
HETATM   18  N   UNL     1     -13.123   8.140  71.517  1.00  0.00    -0.311 N  
HETATM   19  C   UNL     1      -9.666   8.903  70.283  1.00  0.00    -0.185 A  
HETATM   20  O   UNL     1     -12.903   7.053  72.076  1.00  0.00    -0.270 OA 
HETATM   21  O   UNL     1     -14.233   8.688  71.459  1.00  0.00    -0.410 OA 
HETATM   22  O   UNL     1     -10.401   7.011  71.447  1.00  0.00    -0.198 OA 
HETATM   23  H   UNL     1      -9.541   6.606  71.450  1.00  0.00     0.000 HD 
HETATM   24  O   UNL     1      -8.420   8.338  70.279  1.00  0.00    -0.120 OA 
HETATM   25  C   UNL     1      -9.844  10.151  69.685  1.00  0.00    -0.254 A  
HETATM   26  H   UNL     1      -7.700   8.799  69.866  1.00  0.00     0.000 HD 
ENDBRANCH   9  14
ENDBRANCH   5   8
ENDBRANCH   2   3
TORSDOF 5
ENDMDL
MODEL      143
REMARK 921   NORMALIZED FREE ENERGY PREDICTED BY IDOCK:   -4.58 KCAL/MOL
REMARK 922        TOTAL FREE ENERGY PREDICTED BY IDOCK:   -6.04 KCAL/MOL
REMARK 923 INTER-LIGAND FREE ENERGY PREDICTED BY IDOCK:   -6.01 KCAL/MOL
REMARK 924 INTRA-LIGAND FREE ENERGY PREDICTED BY IDOCK:   -0.03 KCAL/MOL
REMARK 927      BINDING AFFINITY PREDICTED BY RF-SCORE:    0.00 PKD
ROOT
HETATM    1  C   UNL     1      -5.698  20.796  68.732  1.00  0.00    -0.398 C  
HETATM    2  C   UNL     1      -6.321  19.848  69.748  1.00  0.00    -0.367 C  
ENDROOT
BRANCH   2   3
HETATM    3  N   UNL     1      -7.244  18.869  69.152  1.00  0.00    -0.286 N  
HETATM    4  O   UNL     1      -5.649  17.244  69.448  1.00  0.00    -0.175 OA 
HETATM    5  C   UNL     1      -6.756  17.563  68.996  1.00  0.00    -0.247 C  
BRANCH   3   6
HETATM    6  C   UNL     1      -8.588  19.304  68.746  1.00  0.00    -0.340 C  
HETATM    7  C   UNL     1      -8.782  20.048  67.434  1.00  0.00    -0.417 C  
ENDBRANCH   3   6
BRANCH   5   8
HETATM    8  C   UNL     1      -7.543  16.496  68.284  1.00  0.00    -0.170 C  
HETATM    9  C   UNL     1      -7.669  15.265  68.839  1.00  0.00    -0.167 C  
BRANCH   8  10
HETATM   10  C   UNL     1      -8.231  16.706  66.945  1.00  0.00    -0.212 C  
HETATM   11  H2  UNL     1      -7.970  17.461  65.712  1.00  0.00     0.000 HD 
HETATM   12  N   UNL     1      -8.801  16.881  65.834  1.00  0.00    -0.529 NA 
HETATM   13  H1  UNL     1      -9.262  17.022  64.935  1.00  0.00     0.000 HD 
ENDBRANCH   8  10
BRANCH   9  14
HETATM   14  C   UNL     1      -8.453  14.158  68.238  1.00  0.00    -0.169 A  
HETATM   15  C   UNL     1      -9.748  13.855  68.695  1.00  0.00    -0.160 A  
HETATM   16  C   UNL     1     -10.453  12.752  68.169  1.00  0.00    -0.236 A  
HETATM   17  C   UNL     1      -9.883  11.960  67.169  1.00  0.00    -0.194 A  
HETATM   18  N   UNL     1     -11.793  12.445  68.677  1.00  0.00    -0.317 N  
HETATM   19  C   UNL     1      -8.602  12.278  66.716  1.00  0.00    -0.149 A  
HETATM   20  O   UNL     1     -12.369  11.448  68.211  1.00  0.00    -0.506 OA 
HETATM   21  O   UNL     1     -12.273  13.195  69.538  1.00  0.00    -0.258 OA 
HETATM   22  O   UNL     1     -10.463  10.866  66.572  1.00  0.00    -0.243 OA 
HETATM   23  H   UNL     1     -10.075  10.327  65.892  1.00  0.00     0.000 HD 
HETATM   24  O   UNL     1      -8.026  11.512  65.739  1.00  0.00    -0.365 OA 
HETATM   25  C   UNL     1      -7.886  13.355  67.240  1.00  0.00    -0.107 A  
HETATM   26  H   UNL     1      -7.154  11.728  65.430  1.00  0.00     0.000 HD 
ENDBRANCH   9  14
ENDBRANCH   5   8
ENDBRANCH   2   3
TORSDOF 5
ENDMDL
MODEL      144
REMARK 921   NORMALIZED FREE ENERGY PREDICTED BY IDOCK:   -4.58 KCAL/MOL
REMARK 922        TOTAL FREE ENERGY PREDICTED BY IDOCK:   -6.04 KCAL/MOL
REMARK 923 INTER-LIGAND FREE ENERGY PREDICTED BY IDOCK:   -5.42 KCAL/MOL
REMARK 924 INTRA-LIGAND FREE ENERGY PREDICTED BY IDOCK:   -0.62 KCAL/MOL
REMARK 927      BINDING AFFINITY PREDICTED BY RF-SCORE:    0.00 PKD
ROOT
HETATM    1  C   UNL     1     -11.410  12.126  63.452  1.00  0.00    -0.495 C  
HETATM    2  C   UNL     1     -10.499  12.546  64.599  1.00  0.00    -0.319 C  
ENDROOT
BRANCH   2   3
HETATM    3  N   UNL     1     -10.613  11.685  65.787  1.00  0.00    -0.264 N  
HETATM    4  O   UNL     1      -8.703  10.594  65.132  1.00  0.00    -0.187 OA 
HETATM    5  C   UNL     1      -9.653  10.671  65.920  1.00  0.00    -0.205 C  
BRANCH   3   6
HETATM    6  C   UNL     1     -11.709  11.917  66.739  1.00  0.00    -0.202 C  
HETATM    7  C   UNL     1     -11.606  13.039  67.760  1.00  0.00    -0.385 C  
ENDBRANCH   3   6
BRANCH   5   8
HETATM    8  C   UNL     1      -9.727   9.640  67.014  1.00  0.00    -0.232 C  
HETATM    9  C   UNL     1      -9.122   9.874  68.205  1.00  0.00    -0.121 C  
BRANCH   8  10
HETATM   10  C   UNL     1     -10.456   8.313  66.877  1.00  0.00    -0.295 C  
HETATM   11  H2  UNL     1     -11.514   7.592  67.595  1.00  0.00     0.000 HD 
HETATM   12  N   UNL     1     -11.060   7.213  66.764  1.00  0.00    -0.548 NA 
HETATM   13  H1  UNL     1     -11.549   6.323  66.672  1.00  0.00     0.000 HD 
ENDBRANCH   8  10
BRANCH   9  14
HETATM   14  C   UNL     1      -9.167   8.942  69.358  1.00  0.00    -0.146 A  
HETATM   15  C   UNL     1     -10.234   8.971  70.273  1.00  0.00    -0.235 A  
HETATM   16  C   UNL     1     -10.227   8.132  71.408  1.00  0.00    -0.198 A  
HETATM   17  C   UNL     1      -9.170   7.245  71.625  1.00  0.00    -0.146 A  
HETATM   18  N   UNL     1     -11.341   8.196  72.357  1.00  0.00    -0.365 N  
HETATM   19  C   UNL     1      -8.122   7.218  70.704  1.00  0.00    -0.108 A  
HETATM   20  O   UNL     1     -11.284   7.465  73.360  1.00  0.00    -0.285 OA 
HETATM   21  O   UNL     1     -12.274   8.973  72.106  1.00  0.00    -0.365 OA 
HETATM   22  O   UNL     1      -9.046   6.376  72.683  1.00  0.00    -0.136 OA 
HETATM   23  H   UNL     1      -8.327   5.772  72.830  1.00  0.00     0.000 HD 
HETATM   24  O   UNL     1      -7.077   6.357  70.901  1.00  0.00    -0.066 OA 
HETATM   25  C   UNL     1      -8.108   8.054  69.587  1.00  0.00    -0.119 A  
HETATM   26  H   UNL     1      -6.364   6.338  70.274  1.00  0.00     0.000 HD 
ENDBRANCH   9  14
ENDBRANCH   5   8
ENDBRANCH   2   3
TORSDOF 5
ENDMDL
MODEL      145
REMARK 921   NORMALIZED FREE ENERGY PREDICTED BY IDOCK:   -4.57 KCAL/MOL
REMARK 922        TOTAL FREE ENERGY PREDICTED BY IDOCK:   -6.03 KCAL/MOL
REMARK 923 INTER-LIGAND FREE ENERGY PREDICTED BY IDOCK:   -6.39 KCAL/MOL
REMARK 924 INTRA-LIGAND FREE ENERGY PREDICTED BY IDOCK:    0.36 KCAL/MOL
REMARK 927      BINDING AFFINITY PREDICTED BY RF-SCORE:    0.00 PKD
ROOT
HETATM    1  C   UNL     1     -10.487  15.092  65.023  1.00  0.00    -0.418 C  
HETATM    2  C   UNL     1     -11.297  15.004  66.310  1.00  0.00    -0.273 C  
ENDROOT
BRANCH   2   3
HETATM    3  N   UNL     1     -10.759  14.034  67.278  1.00  0.00    -0.276 N  
HETATM    4  O   UNL     1     -12.078  12.413  66.328  1.00  0.00    -0.612 OA 
HETATM    5  C   UNL     1     -11.288  12.737  67.223  1.00  0.00    -0.314 C  
BRANCH   3   6
HETATM    6  C   UNL     1      -9.735  14.471  68.239  1.00  0.00    -0.218 C  
HETATM    7  C   UNL     1     -10.063  15.543  69.266  1.00  0.00    -0.256 C  
ENDBRANCH   3   6
BRANCH   5   8
HETATM    8  C   UNL     1     -10.925  11.683  68.236  1.00  0.00    -0.273 C  
HETATM    9  C   UNL     1     -11.895  10.911  68.785  1.00  0.00    -0.305 C  
BRANCH   8  10
HETATM   10  C   UNL     1      -9.503  11.414  68.702  1.00  0.00    -0.163 C  
HETATM   11  H2  UNL     1      -8.208  12.103  68.642  1.00  0.00     0.000 HD 
HETATM   12  N   UNL     1      -8.324  11.192  69.088  1.00  0.00    -0.366 NA 
HETATM   13  H1  UNL     1      -7.370  11.012  69.401  1.00  0.00     0.000 HD 
ENDBRANCH   8  10
BRANCH   9  14
HETATM   14  C   UNL     1     -11.639   9.823  69.761  1.00  0.00    -0.081 A  
HETATM   15  C   UNL     1     -10.733   8.787  69.471  1.00  0.00    -0.196 A  
HETATM   16  C   UNL     1     -10.556   7.718  70.374  1.00  0.00    -0.227 A  
HETATM   17  C   UNL     1     -11.261   7.686  71.580  1.00  0.00    -0.247 A  
HETATM   18  N   UNL     1      -9.622   6.639  70.040  1.00  0.00    -0.157 N  
HETATM   19  C   UNL     1     -12.149   8.726  71.861  1.00  0.00    -0.363 A  
HETATM   20  O   UNL     1      -9.516   5.700  70.846  1.00  0.00    -0.160 OA 
HETATM   21  O   UNL     1      -8.993   6.726  68.976  1.00  0.00    -0.132 OA 
HETATM   22  O   UNL     1     -11.177   6.709  72.543  1.00  0.00    -0.253 OA 
HETATM   23  H   UNL     1     -11.656   6.688  73.363  1.00  0.00     0.000 HD 
HETATM   24  O   UNL     1     -12.850   8.711  73.036  1.00  0.00    -0.677 OA 
HETATM   25  C   UNL     1     -12.347   9.780  70.969  1.00  0.00    -0.422 A  
HETATM   26  H   UNL     1     -13.454   9.419  73.228  1.00  0.00     0.000 HD 
ENDBRANCH   9  14
ENDBRANCH   5   8
ENDBRANCH   2   3
TORSDOF 5
ENDMDL
MODEL      146
REMARK 921   NORMALIZED FREE ENERGY PREDICTED BY IDOCK:   -4.57 KCAL/MOL
REMARK 922        TOTAL FREE ENERGY PREDICTED BY IDOCK:   -6.03 KCAL/MOL
REMARK 923 INTER-LIGAND FREE ENERGY PREDICTED BY IDOCK:   -5.48 KCAL/MOL
REMARK 924 INTRA-LIGAND FREE ENERGY PREDICTED BY IDOCK:   -0.55 KCAL/MOL
REMARK 927      BINDING AFFINITY PREDICTED BY RF-SCORE:    0.00 PKD
ROOT
HETATM    1  C   UNL     1     -12.240  14.649  64.565  1.00  0.00    -0.473 C  
HETATM    2  C   UNL     1     -10.778  14.301  64.819  1.00  0.00    -0.416 C  
ENDROOT
BRANCH   2   3
HETATM    3  N   UNL     1     -10.586  12.974  65.425  1.00  0.00    -0.286 N  
HETATM    4  O   UNL     1      -9.697  13.993  67.280  1.00  0.00    -0.227 OA 
HETATM    5  C   UNL     1      -9.960  12.944  66.680  1.00  0.00    -0.251 C  
BRANCH   3   6
HETATM    6  C   UNL     1     -11.032  11.779  64.694  1.00  0.00    -0.310 C  
HETATM    7  C   UNL     1     -10.403  11.427  63.355  1.00  0.00    -0.458 C  
ENDBRANCH   3   6
BRANCH   5   8
HETATM    8  C   UNL     1      -9.585  11.651  67.354  1.00  0.00    -0.173 C  
HETATM    9  C   UNL     1     -10.328  11.187  68.388  1.00  0.00    -0.201 C  
BRANCH   8  10
HETATM   10  C   UNL     1      -8.393  10.800  66.944  1.00  0.00    -0.132 C  
HETATM   11  H2  UNL     1      -8.176   9.466  66.370  1.00  0.00     0.000 HD 
HETATM   12  N   UNL     1      -7.406  10.094  66.603  1.00  0.00    -0.103 NA 
HETATM   13  H1  UNL     1      -6.607   9.523  66.328  1.00  0.00     0.000 HD 
ENDBRANCH   8  10
BRANCH   9  14
HETATM   14  C   UNL     1     -10.065   9.909  69.094  1.00  0.00    -0.210 A  
HETATM   15  C   UNL     1     -10.486   8.682  68.552  1.00  0.00    -0.209 A  
HETATM   16  C   UNL     1     -10.298   7.481  69.269  1.00  0.00    -0.209 A  
HETATM   17  C   UNL     1      -9.670   7.493  70.517  1.00  0.00    -0.179 A  
HETATM   18  N   UNL     1     -10.764   6.217  68.692  1.00  0.00    -0.266 N  
HETATM   19  C   UNL     1      -9.247   8.716  71.039  1.00  0.00    -0.203 A  
HETATM   20  O   UNL     1     -10.609   5.186  69.367  1.00  0.00    -0.212 OA 
HETATM   21  O   UNL     1     -11.284   6.250  67.568  1.00  0.00    -0.328 OA 
HETATM   22  O   UNL     1      -9.424   6.398  71.312  1.00  0.00    -0.165 OA 
HETATM   23  H   UNL     1      -8.997   6.407  72.160  1.00  0.00     0.000 HD 
HETATM   24  O   UNL     1      -8.632   8.748  72.261  1.00  0.00    -0.377 OA 
HETATM   25  C   UNL     1      -9.442   9.913  70.349  1.00  0.00    -0.088 A  
HETATM   26  H   UNL     1      -8.343   9.581  72.616  1.00  0.00     0.000 HD 
ENDBRANCH   9  14
ENDBRANCH   5   8
ENDBRANCH   2   3
TORSDOF 5
ENDMDL
MODEL      147
REMARK 921   NORMALIZED FREE ENERGY PREDICTED BY IDOCK:   -4.54 KCAL/MOL
REMARK 922        TOTAL FREE ENERGY PREDICTED BY IDOCK:   -5.98 KCAL/MOL
REMARK 923 INTER-LIGAND FREE ENERGY PREDICTED BY IDOCK:   -5.41 KCAL/MOL
REMARK 924 INTRA-LIGAND FREE ENERGY PREDICTED BY IDOCK:   -0.57 KCAL/MOL
REMARK 927      BINDING AFFINITY PREDICTED BY RF-SCORE:    0.00 PKD
ROOT
HETATM    1  C   UNL     1     -11.041  15.927  64.661  1.00  0.00    -0.368 C  
HETATM    2  C   UNL     1     -11.889  14.761  65.156  1.00  0.00    -0.313 C  
ENDROOT
BRANCH   2   3
HETATM    3  N   UNL     1     -11.105  13.695  65.800  1.00  0.00    -0.287 N  
HETATM    4  O   UNL     1     -12.799  12.220  65.329  1.00  0.00    -0.464 OA 
HETATM    5  C   UNL     1     -11.713  12.433  65.880  1.00  0.00    -0.419 C  
BRANCH   3   6
HETATM    6  C   UNL     1      -9.769  14.005  66.329  1.00  0.00    -0.295 C  
HETATM    7  C   UNL     1      -9.612  14.493  67.760  1.00  0.00    -0.215 C  
ENDBRANCH   3   6
BRANCH   5   8
HETATM    8  C   UNL     1     -11.081  11.289  66.626  1.00  0.00    -0.299 C  
HETATM    9  C   UNL     1     -11.219  11.201  67.972  1.00  0.00    -0.359 C  
BRANCH   8  10
HETATM   10  C   UNL     1     -10.273  10.188  65.957  1.00  0.00    -0.218 C  
HETATM   11  H2  UNL     1      -9.100  10.102  65.078  1.00  0.00     0.000 HD 
HETATM   12  N   UNL     1      -9.603   9.276  65.403  1.00  0.00    -0.439 NA 
HETATM   13  H1  UNL     1      -9.061   8.537  64.954  1.00  0.00     0.000 HD 
ENDBRANCH   8  10
BRANCH   9  14
HETATM   14  C   UNL     1     -10.668  10.096  68.795  1.00  0.00    -0.247 A  
HETATM   15  C   UNL     1      -9.399  10.199  69.390  1.00  0.00    -0.235 A  
HETATM   16  C   UNL     1      -8.854   9.112  70.106  1.00  0.00    -0.197 A  
HETATM   17  C   UNL     1      -9.579   7.926  70.252  1.00  0.00    -0.171 A  
HETATM   18  N   UNL     1      -7.520   9.236  70.699  1.00  0.00    -0.123 N  
HETATM   19  C   UNL     1     -10.843   7.841  69.666  1.00  0.00    -0.184 A  
HETATM   20  O   UNL     1      -7.062   8.247  71.295  1.00  0.00    -0.052 OA 
HETATM   21  O   UNL     1      -6.928  10.317  70.574  1.00  0.00    -0.282 OA 
HETATM   22  O   UNL     1      -9.167   6.801  70.926  1.00  0.00    -0.156 OA 
HETATM   23  H   UNL     1      -9.661   5.995  71.025  1.00  0.00     0.000 HD 
HETATM   24  O   UNL     1     -11.568   6.688  69.797  1.00  0.00    -0.550 OA 
HETATM   25  C   UNL     1     -11.386   8.902  68.941  1.00  0.00     0.463 A  
HETATM   26  H   UNL     1     -12.428   6.630  69.399  1.00  0.00     0.000 HD 
ENDBRANCH   9  14
ENDBRANCH   5   8
ENDBRANCH   2   3
TORSDOF 5
ENDMDL
MODEL      148
REMARK 921   NORMALIZED FREE ENERGY PREDICTED BY IDOCK:   -4.53 KCAL/MOL
REMARK 922        TOTAL FREE ENERGY PREDICTED BY IDOCK:   -5.98 KCAL/MOL
REMARK 923 INTER-LIGAND FREE ENERGY PREDICTED BY IDOCK:   -5.39 KCAL/MOL
REMARK 924 INTRA-LIGAND FREE ENERGY PREDICTED BY IDOCK:   -0.58 KCAL/MOL
REMARK 927      BINDING AFFINITY PREDICTED BY RF-SCORE:    0.00 PKD
ROOT
HETATM    1  C   UNL     1      -7.261   5.265  65.067  1.00  0.00    -0.066 C  
HETATM    2  C   UNL     1      -6.646   5.786  66.360  1.00  0.00    -0.055 C  
ENDROOT
BRANCH   2   3
HETATM    3  N   UNL     1      -7.626   5.987  67.439  1.00  0.00    -0.092 N  
HETATM    4  O   UNL     1      -7.412   8.255  67.157  1.00  0.00    -0.087 OA 
HETATM    5  C   UNL     1      -7.895   7.315  67.800  1.00  0.00    -0.114 C  
BRANCH   3   6
HETATM    6  C   UNL     1      -8.243   4.815  68.077  1.00  0.00    -0.095 C  
HETATM    7  C   UNL     1      -9.623   4.350  67.641  1.00  0.00    -0.212 C  
ENDBRANCH   3   6
BRANCH   5   8
HETATM    8  C   UNL     1      -8.775   7.662  68.971  1.00  0.00    -0.136 C  
HETATM    9  C   UNL     1     -10.103   7.859  68.783  1.00  0.00    -0.203 C  
BRANCH   8  10
HETATM   10  C   UNL     1      -8.266   7.810  70.396  1.00  0.00    -0.121 C  
HETATM   11  H2  UNL     1      -8.158   8.887  71.389  1.00  0.00     0.000 HD 
HETATM   12  N   UNL     1      -7.844   7.934  71.577  1.00  0.00    -0.089 NA 
HETATM   13  H1  UNL     1      -7.502   8.034  72.533  1.00  0.00     0.000 HD 
ENDBRANCH   8  10
BRANCH   9  14
HETATM   14  C   UNL     1     -11.061   8.167  69.874  1.00  0.00    -0.102 A  
HETATM   15  C   UNL     1     -11.443   9.491  70.151  1.00  0.00    -0.205 A  
HETATM   16  C   UNL     1     -12.295   9.778  71.239  1.00  0.00    -0.371 A  
HETATM   17  C   UNL     1     -12.788   8.746  72.041  1.00  0.00    -0.390 A  
HETATM   18  N   UNL     1     -12.661  11.168  71.520  1.00  0.00    -0.407 N  
HETATM   19  C   UNL     1     -12.411   7.435  71.748  1.00  0.00    -0.336 A  
HETATM   20  O   UNL     1     -13.387  11.383  72.504  1.00  0.00    -0.095 OA 
HETATM   21  O   UNL     1     -12.227  12.047  70.762  1.00  0.00    -0.377 OA 
HETATM   22  O   UNL     1     -13.625   8.890  73.122  1.00  0.00    -0.997 OA 
HETATM   23  H   UNL     1     -13.961   8.188  73.668  1.00  0.00     0.000 HD 
HETATM   24  O   UNL     1     -12.883   6.411  72.524  1.00  0.00    -0.489 OA 
HETATM   25  C   UNL     1     -11.556   7.139  70.686  1.00  0.00    -0.354 A  
HETATM   26  H   UNL     1     -12.627   5.518  72.325  1.00  0.00     0.000 HD 
ENDBRANCH   9  14
ENDBRANCH   5   8
ENDBRANCH   2   3
TORSDOF 5
ENDMDL
MODEL      149
REMARK 921   NORMALIZED FREE ENERGY PREDICTED BY IDOCK:   -4.53 KCAL/MOL
REMARK 922        TOTAL FREE ENERGY PREDICTED BY IDOCK:   -5.97 KCAL/MOL
REMARK 923 INTER-LIGAND FREE ENERGY PREDICTED BY IDOCK:   -6.06 KCAL/MOL
REMARK 924 INTRA-LIGAND FREE ENERGY PREDICTED BY IDOCK:    0.10 KCAL/MOL
REMARK 927      BINDING AFFINITY PREDICTED BY RF-SCORE:    0.00 PKD
ROOT
HETATM    1  C   UNL     1     -11.046  15.713  70.375  1.00  0.00    -0.369 C  
HETATM    2  C   UNL     1     -12.252  14.932  69.868  1.00  0.00    -0.309 C  
ENDROOT
BRANCH   2   3
HETATM    3  N   UNL     1     -12.176  13.488  70.140  1.00  0.00    -0.340 N  
HETATM    4  O   UNL     1     -11.299  13.179  68.041  1.00  0.00    -0.259 OA 
HETATM    5  C   UNL     1     -11.719  12.677  69.090  1.00  0.00    -0.321 C  
BRANCH   3   6
HETATM    6  C   UNL     1     -12.588  12.982  71.457  1.00  0.00    -0.178 C  
HETATM    7  C   UNL     1     -13.798  13.579  72.157  1.00  0.00    -0.628 C  
ENDBRANCH   3   6
BRANCH   5   8
HETATM    8  C   UNL     1     -11.714  11.175  69.186  1.00  0.00    -0.408 C  
HETATM    9  C   UNL     1     -10.747  10.461  68.560  1.00  0.00    -0.255 C  
BRANCH   8  10
HETATM   10  C   UNL     1     -12.749  10.375  69.961  1.00  0.00    -0.007 C  
HETATM   11  H2  UNL     1     -12.889   9.000  70.458  1.00  0.00     0.000 HD 
HETATM   12  N   UNL     1     -13.606   9.710  70.603  1.00  0.00    -0.551 NA 
HETATM   13  H1  UNL     1     -14.300   9.173  71.123  1.00  0.00     0.000 HD 
ENDBRANCH   8  10
BRANCH   9  14
HETATM   14  C   UNL     1     -10.631   8.983  68.623  1.00  0.00    -0.194 A  
HETATM   15  C   UNL     1     -10.229   8.337  69.805  1.00  0.00    -0.204 A  
HETATM   16  C   UNL     1     -10.049   6.938  69.830  1.00  0.00    -0.188 A  
HETATM   17  C   UNL     1     -10.290   6.173  68.686  1.00  0.00    -0.206 A  
HETATM   18  N   UNL     1      -9.609   6.290  71.069  1.00  0.00    -0.175 N  
HETATM   19  C   UNL     1     -10.699   6.825  67.522  1.00  0.00    -0.311 A  
HETATM   20  O   UNL     1      -9.431   5.061  71.043  1.00  0.00    -0.148 OA 
HETATM   21  O   UNL     1      -9.441   7.004  72.068  1.00  0.00    -0.141 OA 
HETATM   22  O   UNL     1     -10.157   4.809  68.580  1.00  0.00    -0.130 OA 
HETATM   23  H   UNL     1     -10.321   4.289  67.802  1.00  0.00     0.000 HD 
HETATM   24  O   UNL     1     -10.938   6.093  66.391  1.00  0.00    -0.632 OA 
HETATM   25  C   UNL     1     -10.865   8.209  67.478  1.00  0.00    -0.109 A  
HETATM   26  H   UNL     1     -11.218   6.536  65.599  1.00  0.00     0.000 HD 
ENDBRANCH   9  14
ENDBRANCH   5   8
ENDBRANCH   2   3
TORSDOF 5
ENDMDL
MODEL      150
REMARK 921   NORMALIZED FREE ENERGY PREDICTED BY IDOCK:   -4.51 KCAL/MOL
REMARK 922        TOTAL FREE ENERGY PREDICTED BY IDOCK:   -5.94 KCAL/MOL
REMARK 923 INTER-LIGAND FREE ENERGY PREDICTED BY IDOCK:   -5.48 KCAL/MOL
REMARK 924 INTRA-LIGAND FREE ENERGY PREDICTED BY IDOCK:   -0.46 KCAL/MOL
REMARK 927      BINDING AFFINITY PREDICTED BY RF-SCORE:    0.00 PKD
ROOT
HETATM    1  C   UNL     1     -10.145   1.973  71.849  1.00  0.00    -0.203 C  
HETATM    2  C   UNL     1      -9.988   2.994  72.970  1.00  0.00    -0.125 C  
ENDROOT
BRANCH   2   3
HETATM    3  N   UNL     1      -9.629   4.339  72.495  1.00  0.00    -0.133 N  
HETATM    4  O   UNL     1     -11.642   5.112  73.282  1.00  0.00    -0.297 OA 
HETATM    5  C   UNL     1     -10.597   5.341  72.663  1.00  0.00    -0.228 C  
BRANCH   3   6
HETATM    6  C   UNL     1      -8.316   4.554  71.870  1.00  0.00    -0.108 C  
HETATM    7  C   UNL     1      -8.192   4.603  70.356  1.00  0.00    -0.075 C  
ENDBRANCH   3   6
BRANCH   5   8
HETATM    8  C   UNL     1     -10.414   6.728  72.107  1.00  0.00    -0.231 C  
HETATM    9  C   UNL     1     -11.231   7.175  71.122  1.00  0.00    -0.291 C  
BRANCH   8  10
HETATM   10  C   UNL     1      -9.345   7.696  72.588  1.00  0.00    -0.172 C  
HETATM   11  H2  UNL     1      -9.238   8.763  73.592  1.00  0.00     0.000 HD 
HETATM   12  N   UNL     1      -8.459   8.499  72.987  1.00  0.00    -0.395 NA 
HETATM   13  H1  UNL     1      -7.742   9.149  73.310  1.00  0.00     0.000 HD 
ENDBRANCH   8  10
BRANCH   9  14
HETATM   14  C   UNL     1     -11.159   8.535  70.534  1.00  0.00    -0.265 A  
HETATM   15  C   UNL     1     -11.851   9.613  71.114  1.00  0.00    -0.448 A  
HETATM   16  C   UNL     1     -11.837  10.885  70.502  1.00  0.00    -0.360 A  
HETATM   17  C   UNL     1     -11.115  11.095  69.324  1.00  0.00    -0.259 A  
HETATM   18  N   UNL     1     -12.583  11.987  71.114  1.00  0.00    -0.336 N  
HETATM   19  C   UNL     1     -10.423  10.019  68.765  1.00  0.00    -0.208 A  
HETATM   20  O   UNL     1     -12.572  13.083  70.530  1.00  0.00    -0.248 OA 
HETATM   21  O   UNL     1     -13.180  11.764  72.176  1.00  0.00    -0.498 OA 
HETATM   22  O   UNL     1     -11.017  12.279  68.634  1.00  0.00    -0.218 OA 
HETATM   23  H   UNL     1     -10.526  12.422  67.833  1.00  0.00     0.000 HD 
HETATM   24  O   UNL     1      -9.713  10.205  67.611  1.00  0.00    -0.157 OA 
HETATM   25  C   UNL     1     -10.443   8.753  69.350  1.00  0.00    -0.228 A  
HETATM   26  H   UNL     1      -9.241   9.473  67.230  1.00  0.00     0.000 HD 
ENDBRANCH   9  14
ENDBRANCH   5   8
ENDBRANCH   2   3
TORSDOF 5
ENDMDL
MODEL      151
REMARK 921   NORMALIZED FREE ENERGY PREDICTED BY IDOCK:   -4.50 KCAL/MOL
REMARK 922        TOTAL FREE ENERGY PREDICTED BY IDOCK:   -5.93 KCAL/MOL
REMARK 923 INTER-LIGAND FREE ENERGY PREDICTED BY IDOCK:   -5.30 KCAL/MOL
REMARK 924 INTRA-LIGAND FREE ENERGY PREDICTED BY IDOCK:   -0.63 KCAL/MOL
REMARK 927      BINDING AFFINITY PREDICTED BY RF-SCORE:    0.00 PKD
ROOT
HETATM    1  C   UNL     1      -7.771   5.507  65.160  1.00  0.00    -0.091 C  
HETATM    2  C   UNL     1      -7.149   6.549  66.081  1.00  0.00    -0.067 C  
ENDROOT
BRANCH   2   3
HETATM    3  N   UNL     1      -8.040   6.981  67.169  1.00  0.00    -0.116 N  
HETATM    4  O   UNL     1      -7.601   9.163  66.610  1.00  0.00    -0.089 OA 
HETATM    5  C   UNL     1      -8.145   8.363  67.381  1.00  0.00    -0.106 C  
BRANCH   3   6
HETATM    6  C   UNL     1      -8.742   5.966  67.968  1.00  0.00    -0.111 C  
HETATM    7  C   UNL     1      -8.062   5.346  69.179  1.00  0.00    -0.094 C  
ENDBRANCH   3   6
BRANCH   5   8
HETATM    8  C   UNL     1      -8.916   8.938  68.539  1.00  0.00    -0.134 C  
HETATM    9  C   UNL     1     -10.206   9.320  68.368  1.00  0.00    -0.231 C  
BRANCH   8  10
HETATM   10  C   UNL     1      -8.335   9.125  69.931  1.00  0.00    -0.144 C  
HETATM   11  H2  UNL     1      -8.805   8.990  71.316  1.00  0.00     0.000 HD 
HETATM   12  N   UNL     1      -7.855   9.281  71.086  1.00  0.00    -0.329 NA 
HETATM   13  H1  UNL     1      -7.465   9.406  72.020  1.00  0.00     0.000 HD 
ENDBRANCH   8  10
BRANCH   9  14
HETATM   14  C   UNL     1     -11.064   9.861  69.452  1.00  0.00    -0.237 A  
HETATM   15  C   UNL     1     -11.812   9.006  70.279  1.00  0.00     0.076 A  
HETATM   16  C   UNL     1     -12.682   9.536  71.255  1.00  0.00    -0.332 A  
HETATM   17  C   UNL     1     -12.795  10.918  71.427  1.00  0.00    -0.449 A  
HETATM   18  N   UNL     1     -13.468   8.625  72.091  1.00  0.00    -0.386 N  
HETATM   19  C   UNL     1     -12.037  11.756  70.607  1.00  0.00    -0.311 A  
HETATM   20  O   UNL     1     -14.246   9.129  72.917  1.00  0.00    -0.512 OA 
HETATM   21  O   UNL     1     -13.311   7.407  71.927  1.00  0.00    -0.308 OA 
HETATM   22  O   UNL     1     -13.598  11.559  72.340  1.00  0.00    -0.544 OA 
HETATM   23  H   UNL     1     -13.674  12.499  72.457  1.00  0.00     0.000 HD 
HETATM   24  O   UNL     1     -12.135  13.112  70.760  1.00  0.00    -0.466 OA 
HETATM   25  C   UNL     1     -11.186  11.246  69.626  1.00  0.00    -0.321 A  
HETATM   26  H   UNL     1     -11.619  13.683  70.202  1.00  0.00     0.000 HD 
ENDBRANCH   9  14
ENDBRANCH   5   8
ENDBRANCH   2   3
TORSDOF 5
ENDMDL
MODEL      152
REMARK 921   NORMALIZED FREE ENERGY PREDICTED BY IDOCK:   -4.49 KCAL/MOL
REMARK 922        TOTAL FREE ENERGY PREDICTED BY IDOCK:   -5.92 KCAL/MOL
REMARK 923 INTER-LIGAND FREE ENERGY PREDICTED BY IDOCK:   -5.64 KCAL/MOL
REMARK 924 INTRA-LIGAND FREE ENERGY PREDICTED BY IDOCK:   -0.29 KCAL/MOL
REMARK 927      BINDING AFFINITY PREDICTED BY RF-SCORE:    0.00 PKD
ROOT
HETATM    1  C   UNL     1     -11.391  15.175  64.937  1.00  0.00    -0.402 C  
HETATM    2  C   UNL     1     -12.313  14.212  65.673  1.00  0.00    -0.456 C  
ENDROOT
BRANCH   2   3
HETATM    3  N   UNL     1     -11.683  12.922  65.994  1.00  0.00    -0.382 N  
HETATM    4  O   UNL     1     -11.846  13.440  68.224  1.00  0.00    -0.333 OA 
HETATM    5  C   UNL     1     -11.440  12.664  67.351  1.00  0.00    -0.337 C  
BRANCH   3   6
HETATM    6  C   UNL     1     -11.333  12.002  64.902  1.00  0.00    -0.310 C  
HETATM    7  C   UNL     1     -12.132  12.019  63.608  1.00  0.00    -0.627 C  
ENDBRANCH   3   6
BRANCH   5   8
HETATM    8  C   UNL     1     -10.686  11.445  67.810  1.00  0.00    -0.254 C  
HETATM    9  C   UNL     1     -11.250  10.217  67.693  1.00  0.00    -0.232 C  
BRANCH   8  10
HETATM   10  C   UNL     1      -9.291  11.492  68.413  1.00  0.00    -0.194 C  
HETATM   11  H2  UNL     1      -8.307  12.526  68.759  1.00  0.00     0.000 HD 
HETATM   12  N   UNL     1      -8.135  11.532  68.913  1.00  0.00    -0.322 NA 
HETATM   13  H1  UNL     1      -7.199  11.564  69.318  1.00  0.00     0.000 HD 
ENDBRANCH   8  10
BRANCH   9  14
HETATM   14  C   UNL     1     -10.577   8.952  68.079  1.00  0.00    -0.226 A  
HETATM   15  C   UNL     1      -9.869   8.190  67.134  1.00  0.00    -0.281 A  
HETATM   16  C   UNL     1      -9.299   6.951  67.496  1.00  0.00    -0.122 A  
HETATM   17  C   UNL     1      -9.412   6.476  68.805  1.00  0.00    -0.128 A  
HETATM   18  N   UNL     1      -8.583   6.165  66.487  1.00  0.00    -0.122 N  
HETATM   19  C   UNL     1     -10.108   7.248  69.737  1.00  0.00    -0.194 A  
HETATM   20  O   UNL     1      -8.122   5.066  66.836  1.00  0.00    -0.107 OA 
HETATM   21  O   UNL     1      -8.478   6.642  65.348  1.00  0.00    -0.150 OA 
HETATM   22  O   UNL     1      -8.901   5.294  69.285  1.00  0.00    -0.099 OA 
HETATM   23  H   UNL     1      -8.977   4.971  70.176  1.00  0.00     0.000 HD 
HETATM   24  O   UNL     1     -10.230   6.798  71.023  1.00  0.00    -0.197 OA 
HETATM   25  C   UNL     1     -10.691   8.466  69.388  1.00  0.00    -0.162 A  
HETATM   26  H   UNL     1     -10.704   7.323  71.658  1.00  0.00     0.000 HD 
ENDBRANCH   9  14
ENDBRANCH   5   8
ENDBRANCH   2   3
TORSDOF 5
ENDMDL
MODEL      153
REMARK 921   NORMALIZED FREE ENERGY PREDICTED BY IDOCK:   -4.49 KCAL/MOL
REMARK 922        TOTAL FREE ENERGY PREDICTED BY IDOCK:   -5.92 KCAL/MOL
REMARK 923 INTER-LIGAND FREE ENERGY PREDICTED BY IDOCK:   -5.39 KCAL/MOL
REMARK 924 INTRA-LIGAND FREE ENERGY PREDICTED BY IDOCK:   -0.52 KCAL/MOL
REMARK 927      BINDING AFFINITY PREDICTED BY RF-SCORE:    0.00 PKD
ROOT
HETATM    1  C   UNL     1     -10.813   4.046  73.080  1.00  0.00    -0.274 C  
HETATM    2  C   UNL     1     -11.140   5.531  73.183  1.00  0.00    -0.287 C  
ENDROOT
BRANCH   2   3
HETATM    3  N   UNL     1     -10.604   6.330  72.070  1.00  0.00    -0.211 N  
HETATM    4  O   UNL     1     -11.665   8.173  72.934  1.00  0.00    -0.373 OA 
HETATM    5  C   UNL     1     -10.998   7.675  72.019  1.00  0.00    -0.246 C  
BRANCH   3   6
HETATM    6  C   UNL     1      -9.722   5.688  71.084  1.00  0.00    -0.172 C  
HETATM    7  C   UNL     1     -10.289   5.198  69.761  1.00  0.00    -0.332 C  
ENDBRANCH   3   6
BRANCH   5   8
HETATM    8  C   UNL     1     -10.632   8.572  70.867  1.00  0.00    -0.252 C  
HETATM    9  C   UNL     1     -11.511   8.763  69.853  1.00  0.00     0.126 C  
BRANCH   8  10
HETATM   10  C   UNL     1      -9.303   9.302  70.754  1.00  0.00    -0.258 C  
HETATM   11  H2  UNL     1      -7.946   8.994  70.284  1.00  0.00     0.000 HD 
HETATM   12  N   UNL     1      -8.201   9.907  70.661  1.00  0.00    -0.400 NA 
HETATM   13  H1  UNL     1      -7.310  10.397  70.585  1.00  0.00     0.000 HD 
ENDBRANCH   8  10
BRANCH   9  14
HETATM   14  C   UNL     1     -11.263   9.653  68.692  1.00  0.00    -0.007 A  
HETATM   15  C   UNL     1     -10.523   9.208  67.582  1.00  0.00    -0.323 A  
HETATM   16  C   UNL     1     -10.229  10.088  66.519  1.00  0.00    -0.224 A  
HETATM   17  C   UNL     1     -10.687  11.408  66.545  1.00  0.00    -0.277 A  
HETATM   18  N   UNL     1      -9.439   9.606  65.383  1.00  0.00    -0.262 N  
HETATM   19  C   UNL     1     -11.430  11.834  67.648  1.00  0.00    -0.300 A  
HETATM   20  O   UNL     1      -9.174  10.418  64.482  1.00  0.00    -0.203 OA 
HETATM   21  O   UNL     1      -9.082   8.419  65.386  1.00  0.00    -0.119 OA 
HETATM   22  O   UNL     1     -10.474  12.359  65.577  1.00  0.00    -0.261 OA 
HETATM   23  H   UNL     1     -10.787  13.257  65.594  1.00  0.00     0.000 HD 
HETATM   24  O   UNL     1     -11.886  13.123  67.692  1.00  0.00    -0.354 OA 
HETATM   25  C   UNL     1     -11.714  10.979  68.714  1.00  0.00    -0.383 A  
HETATM   26  H   UNL     1     -12.392  13.413  68.442  1.00  0.00     0.000 HD 
ENDBRANCH   9  14
ENDBRANCH   5   8
ENDBRANCH   2   3
TORSDOF 5
ENDMDL
MODEL      154
REMARK 921   NORMALIZED FREE ENERGY PREDICTED BY IDOCK:   -4.45 KCAL/MOL
REMARK 922        TOTAL FREE ENERGY PREDICTED BY IDOCK:   -5.87 KCAL/MOL
REMARK 923 INTER-LIGAND FREE ENERGY PREDICTED BY IDOCK:   -5.53 KCAL/MOL
REMARK 924 INTRA-LIGAND FREE ENERGY PREDICTED BY IDOCK:   -0.34 KCAL/MOL
REMARK 927      BINDING AFFINITY PREDICTED BY RF-SCORE:    0.00 PKD
ROOT
HETATM    1  C   UNL     1     -10.085  10.718  64.316  1.00  0.00    -0.427 C  
HETATM    2  C   UNL     1      -9.566  11.548  65.484  1.00  0.00    -0.227 C  
ENDROOT
BRANCH   2   3
HETATM    3  N   UNL     1      -9.916  10.994  66.801  1.00  0.00    -0.197 N  
HETATM    4  O   UNL     1      -7.965   9.786  66.769  1.00  0.00    -0.105 OA 
HETATM    5  C   UNL     1      -9.033  10.044  67.336  1.00  0.00    -0.131 C  
BRANCH   3   6
HETATM    6  C   UNL     1     -11.151  11.440  67.463  1.00  0.00    -0.281 C  
HETATM    7  C   UNL     1     -11.848  12.709  66.998  1.00  0.00    -0.415 C  
ENDBRANCH   3   6
BRANCH   5   8
HETATM    8  C   UNL     1      -9.335   9.303  68.611  1.00  0.00    -0.139 C  
HETATM    9  C   UNL     1     -10.331   8.384  68.639  1.00  0.00    -0.222 C  
BRANCH   8  10
HETATM   10  C   UNL     1      -8.577   9.517  69.912  1.00  0.00    -0.204 C  
HETATM   11  H2  UNL     1      -7.815   8.691  70.856  1.00  0.00     0.000 HD 
HETATM   12  N   UNL     1      -7.949   9.693  70.990  1.00  0.00    -0.339 NA 
HETATM   13  H1  UNL     1      -7.440   9.837  71.863  1.00  0.00     0.000 HD 
ENDBRANCH   8  10
BRANCH   9  14
HETATM   14  C   UNL     1     -10.682   7.574  69.832  1.00  0.00    -0.254 A  
HETATM   15  C   UNL     1      -9.938   6.432  70.177  1.00  0.00    -0.201 A  
HETATM   16  C   UNL     1     -10.329   5.627  71.269  1.00  0.00    -0.228 A  
HETATM   17  C   UNL     1     -11.447   5.967  72.034  1.00  0.00    -0.287 A  
HETATM   18  N   UNL     1      -9.549   4.430  71.596  1.00  0.00    -0.153 N  
HETATM   19  C   UNL     1     -12.170   7.110  71.687  1.00  0.00    -0.350 A  
HETATM   20  O   UNL     1      -9.942   3.730  72.544  1.00  0.00    -0.149 OA 
HETATM   21  O   UNL     1      -8.546   4.186  70.911  1.00  0.00    -0.074 OA 
HETATM   22  O   UNL     1     -11.928   5.274  73.120  1.00  0.00    -0.550 OA 
HETATM   23  H   UNL     1     -12.688   5.506  73.640  1.00  0.00     0.000 HD 
HETATM   24  O   UNL     1     -13.269   7.458  72.425  1.00  0.00    -0.485 OA 
HETATM   25  C   UNL     1     -11.805   7.905  70.601  1.00  0.00    -0.116 A  
HETATM   26  H   UNL     1     -13.761   8.235  72.189  1.00  0.00     0.000 HD 
ENDBRANCH   9  14
ENDBRANCH   5   8
ENDBRANCH   2   3
TORSDOF 5
ENDMDL
MODEL      155
REMARK 921   NORMALIZED FREE ENERGY PREDICTED BY IDOCK:   -4.43 KCAL/MOL
REMARK 922        TOTAL FREE ENERGY PREDICTED BY IDOCK:   -5.84 KCAL/MOL
REMARK 923 INTER-LIGAND FREE ENERGY PREDICTED BY IDOCK:   -5.25 KCAL/MOL
REMARK 924 INTRA-LIGAND FREE ENERGY PREDICTED BY IDOCK:   -0.59 KCAL/MOL
REMARK 927      BINDING AFFINITY PREDICTED BY RF-SCORE:    0.00 PKD
ROOT
HETATM    1  C   UNL     1      -5.707  20.084  71.219  1.00  0.00    -0.371 C  
HETATM    2  C   UNL     1      -5.138  18.824  70.580  1.00  0.00    -0.225 C  
ENDROOT
BRANCH   2   3
HETATM    3  N   UNL     1      -6.005  18.247  69.540  1.00  0.00    -0.244 N  
HETATM    4  O   UNL     1      -6.534  16.542  70.983  1.00  0.00     1.175 OA 
HETATM    5  C   UNL     1      -6.628  17.029  69.850  1.00  0.00     0.130 C  
BRANCH   3   6
HETATM    6  C   UNL     1      -6.155  18.950  68.258  1.00  0.00    -0.211 C  
HETATM    7  C   UNL     1      -7.336  19.881  68.034  1.00  0.00    -0.332 C  
ENDBRANCH   3   6
BRANCH   5   8
HETATM    8  C   UNL     1      -7.436  16.265  68.836  1.00  0.00    -0.209 C  
HETATM    9  C   UNL     1      -8.772  16.472  68.740  1.00  0.00    -0.259 C  
BRANCH   8  10
HETATM   10  C   UNL     1      -6.841  15.244  67.878  1.00  0.00    -0.151 C  
HETATM   11  H2  UNL     1      -5.510  14.917  67.352  1.00  0.00     0.000 HD 
HETATM   12  N   UNL     1      -6.347  14.399  67.085  1.00  0.00    -0.293 NA 
HETATM   13  H1  UNL     1      -5.948  13.714  66.443  1.00  0.00     0.000 HD 
ENDBRANCH   8  10
BRANCH   9  14
HETATM   14  C   UNL     1      -9.650  15.799  67.751  1.00  0.00    -0.214 A  
HETATM   15  C   UNL     1     -10.160  14.511  67.993  1.00  0.00    -0.226 A  
HETATM   16  C   UNL     1     -10.931  13.852  67.012  1.00  0.00    -0.295 A  
HETATM   17  C   UNL     1     -11.217  14.479  65.797  1.00  0.00    -0.334 A  
HETATM   18  N   UNL     1     -11.433  12.501  67.279  1.00  0.00    -0.331 N  
HETATM   19  C   UNL     1     -10.714  15.762  65.574  1.00  0.00    -0.383 A  
HETATM   20  O   UNL     1     -12.081  11.941  66.380  1.00  0.00    -0.552 OA 
HETATM   21  O   UNL     1     -11.184  11.998  68.383  1.00  0.00    -0.221 OA 
HETATM   22  O   UNL     1     -11.956  13.950  64.766  1.00  0.00    -0.367 OA 
HETATM   23  H   UNL     1     -12.151  14.377  63.939  1.00  0.00     0.000 HD 
HETATM   24  O   UNL     1     -10.982  16.392  64.389  1.00  0.00    -1.045 OA 
HETATM   25  C   UNL     1      -9.937  16.419  66.528  1.00  0.00    -0.294 A  
HETATM   26  H   UNL     1     -10.641  17.265  64.238  1.00  0.00     0.000 HD 
ENDBRANCH   9  14
ENDBRANCH   5   8
ENDBRANCH   2   3
TORSDOF 5
ENDMDL
MODEL      156
REMARK 921   NORMALIZED FREE ENERGY PREDICTED BY IDOCK:   -4.43 KCAL/MOL
REMARK 922        TOTAL FREE ENERGY PREDICTED BY IDOCK:   -5.84 KCAL/MOL
REMARK 923 INTER-LIGAND FREE ENERGY PREDICTED BY IDOCK:   -5.37 KCAL/MOL
REMARK 924 INTRA-LIGAND FREE ENERGY PREDICTED BY IDOCK:   -0.47 KCAL/MOL
REMARK 927      BINDING AFFINITY PREDICTED BY RF-SCORE:    0.00 PKD
ROOT
HETATM    1  C   UNL     1      -6.143  19.884  69.508  1.00  0.00    -0.357 C  
HETATM    2  C   UNL     1      -6.537  19.426  68.109  1.00  0.00    -0.246 C  
ENDROOT
BRANCH   2   3
HETATM    3  N   UNL     1      -7.574  18.382  68.102  1.00  0.00    -0.265 N  
HETATM    4  O   UNL     1      -6.101  16.981  67.036  1.00  0.00    -0.152 OA 
HETATM    5  C   UNL     1      -7.245  17.178  67.463  1.00  0.00    -0.157 C  
BRANCH   3   6
HETATM    6  C   UNL     1      -8.873  18.656  68.734  1.00  0.00    -0.255 C  
HETATM    7  C   UNL     1      -9.656  19.903  68.353  1.00  0.00    -0.406 C  
ENDBRANCH   3   6
BRANCH   5   8
HETATM    8  C   UNL     1      -8.253  16.077  67.268  1.00  0.00    -0.209 C  
HETATM    9  C   UNL     1      -8.928  15.978  66.096  1.00  0.00    -0.381 C  
BRANCH   8  10
HETATM   10  C   UNL     1      -8.578  15.033  68.324  1.00  0.00    -0.156 C  
HETATM   11  H2  UNL     1      -7.827  14.176  69.251  1.00  0.00     0.000 HD 
HETATM   12  N   UNL     1      -8.846  14.167  69.200  1.00  0.00    -0.368 NA 
HETATM   13  H1  UNL     1      -9.064  13.467  69.909  1.00  0.00     0.000 HD 
ENDBRANCH   8  10
BRANCH   9  14
HETATM   14  C   UNL     1      -9.912  14.911  65.790  1.00  0.00    -0.376 A  
HETATM   15  C   UNL     1      -9.599  13.870  64.899  1.00  0.00     0.443 A  
HETATM   16  C   UNL     1     -10.569  12.903  64.557  1.00  0.00    -0.382 A  
HETATM   17  C   UNL     1     -11.847  12.956  65.118  1.00  0.00    -0.380 A  
HETATM   18  N   UNL     1     -10.224  11.841  63.610  1.00  0.00    -0.386 N  
HETATM   19  C   UNL     1     -12.142  13.988  66.011  1.00  0.00    -0.439 A  
HETATM   20  O   UNL     1     -11.114  11.027  63.310  1.00  0.00    -0.086 OA 
HETATM   21  O   UNL     1      -9.068  11.814  63.163  1.00  0.00    -0.156 OA 
HETATM   22  O   UNL     1     -12.876  12.078  64.874  1.00  0.00    -0.376 OA 
HETATM   23  H   UNL     1     -13.746  12.113  65.256  1.00  0.00     0.000 HD 
HETATM   24  O   UNL     1     -13.390  14.056  66.569  1.00  0.00     0.050 OA 
HETATM   25  C   UNL     1     -11.198  14.959  66.344  1.00  0.00    -0.331 A  
HETATM   26  H   UNL     1     -13.591  14.758  67.177  1.00  0.00     0.000 HD 
ENDBRANCH   9  14
ENDBRANCH   5   8
ENDBRANCH   2   3
TORSDOF 5
ENDMDL
MODEL      157
REMARK 921   NORMALIZED FREE ENERGY PREDICTED BY IDOCK:   -4.42 KCAL/MOL
REMARK 922        TOTAL FREE ENERGY PREDICTED BY IDOCK:   -5.83 KCAL/MOL
REMARK 923 INTER-LIGAND FREE ENERGY PREDICTED BY IDOCK:   -5.79 KCAL/MOL
REMARK 924 INTRA-LIGAND FREE ENERGY PREDICTED BY IDOCK:   -0.04 KCAL/MOL
REMARK 927      BINDING AFFINITY PREDICTED BY RF-SCORE:    0.00 PKD
ROOT
HETATM    1  C   UNL     1     -12.425  11.241  71.225  1.00  0.00    -0.441 C  
HETATM    2  C   UNL     1     -12.320  10.956  69.732  1.00  0.00    -0.256 C  
ENDROOT
BRANCH   2   3
HETATM    3  N   UNL     1     -11.380  11.842  69.028  1.00  0.00    -0.257 N  
HETATM    4  O   UNL     1     -12.703  13.630  69.593  1.00  0.00    -0.078 OA 
HETATM    5  C   UNL     1     -11.721  13.202  68.976  1.00  0.00    -0.321 C  
BRANCH   3   6
HETATM    6  C   UNL     1     -10.171  11.269  68.417  1.00  0.00    -0.195 C  
HETATM    7  C   UNL     1     -10.233   9.907  67.744  1.00  0.00    -0.241 C  
ENDBRANCH   3   6
BRANCH   5   8
HETATM    8  C   UNL     1     -10.920  14.196  68.179  1.00  0.00    -0.264 C  
HETATM    9  C   UNL     1      -9.995  14.970  68.799  1.00  0.00    -0.228 C  
BRANCH   8  10
HETATM   10  C   UNL     1     -11.077  14.401  66.681  1.00  0.00    -0.326 C  
HETATM   11  H2  UNL     1     -11.247  15.538  65.767  1.00  0.00     0.000 HD 
HETATM   12  N   UNL     1     -11.208  14.573  65.439  1.00  0.00    -0.329 NA 
HETATM   13  H1  UNL     1     -11.313  14.711  64.434  1.00  0.00     0.000 HD 
ENDBRANCH   8  10
BRANCH   9  14
HETATM   14  C   UNL     1      -9.129  15.952  68.100  1.00  0.00    -0.182 A  
HETATM   15  C   UNL     1      -9.622  17.212  67.718  1.00  0.00    -0.256 A  
HETATM   16  C   UNL     1      -8.812  18.106  66.988  1.00  0.00    -0.262 A  
HETATM   17  C   UNL     1      -7.500  17.761  66.653  1.00  0.00    -0.228 A  
HETATM   18  N   UNL     1      -9.357  19.405  66.583  1.00  0.00    -0.331 N  
HETATM   19  C   UNL     1      -7.018  16.511  67.048  1.00  0.00    -0.215 A  
HETATM   20  O   UNL     1      -8.624  20.152  65.914  1.00  0.00    -0.263 OA 
HETATM   21  O   UNL     1     -10.513  19.683  66.931  1.00  0.00    -0.429 OA 
HETATM   22  O   UNL     1      -6.611  18.539  65.952  1.00  0.00    -0.221 OA 
HETATM   23  H   UNL     1      -5.718  18.304  65.725  1.00  0.00     0.000 HD 
HETATM   24  O   UNL     1      -5.737  16.155  66.729  1.00  0.00    -0.306 OA 
HETATM   25  C   UNL     1      -7.814  15.611  67.756  1.00  0.00    -0.158 A  
HETATM   26  H   UNL     1      -5.408  15.305  66.998  1.00  0.00     0.000 HD 
ENDBRANCH   9  14
ENDBRANCH   5   8
ENDBRANCH   2   3
TORSDOF 5
ENDMDL
MODEL      158
REMARK 921   NORMALIZED FREE ENERGY PREDICTED BY IDOCK:   -4.41 KCAL/MOL
REMARK 922        TOTAL FREE ENERGY PREDICTED BY IDOCK:   -5.81 KCAL/MOL
REMARK 923 INTER-LIGAND FREE ENERGY PREDICTED BY IDOCK:   -5.98 KCAL/MOL
REMARK 924 INTRA-LIGAND FREE ENERGY PREDICTED BY IDOCK:    0.17 KCAL/MOL
REMARK 927      BINDING AFFINITY PREDICTED BY RF-SCORE:    0.00 PKD
ROOT
HETATM    1  C   UNL     1     -10.254   7.681  66.710  1.00  0.00    -0.333 C  
HETATM    2  C   UNL     1      -9.375   8.312  65.638  1.00  0.00     0.052 C  
ENDROOT
BRANCH   2   3
HETATM    3  N   UNL     1      -9.425   9.782  65.625  1.00  0.00    -0.226 N  
HETATM    4  O   UNL     1      -8.135   9.805  67.523  1.00  0.00    -0.112 OA 
HETATM    5  C   UNL     1      -8.793  10.440  66.690  1.00  0.00    -0.134 C  
BRANCH   3   6
HETATM    6  C   UNL     1     -10.133  10.467  64.533  1.00  0.00    -0.332 C  
HETATM    7  C   UNL     1      -9.551  10.462  63.128  1.00  0.00    -0.346 C  
ENDBRANCH   3   6
BRANCH   5   8
HETATM    8  C   UNL     1      -8.879  11.932  66.871  1.00  0.00    -0.197 C  
HETATM    9  C   UNL     1     -10.082  12.553  66.802  1.00  0.00    -0.233 C  
BRANCH   8  10
HETATM   10  C   UNL     1      -7.674  12.822  67.135  1.00  0.00    -0.067 C  
HETATM   11  H2  UNL     1      -7.427  14.251  67.365  1.00  0.00     0.000 HD 
HETATM   12  N   UNL     1      -6.676  13.560  67.353  1.00  0.00    -0.370 NA 
HETATM   13  H1  UNL     1      -5.868  14.157  67.530  1.00  0.00     0.000 HD 
ENDBRANCH   8  10
BRANCH   9  14
HETATM   14  C   UNL     1     -10.279  14.010  67.003  1.00  0.00    -0.261 A  
HETATM   15  C   UNL     1     -10.541  14.863  65.916  1.00  0.00    -0.334 A  
HETATM   16  C   UNL     1     -10.651  16.256  66.110  1.00  0.00    -0.267 A  
HETATM   17  C   UNL     1     -10.522  16.805  67.389  1.00  0.00    -0.310 A  
HETATM   18  N   UNL     1     -10.903  17.126  64.958  1.00  0.00    -0.126 N  
HETATM   19  C   UNL     1     -10.273  15.946  68.461  1.00  0.00    -0.226 A  
HETATM   20  O   UNL     1     -10.962  18.349  65.164  1.00  0.00    -0.604 OA 
HETATM   21  O   UNL     1     -11.044  16.592  63.849  1.00  0.00    -0.729 OA 
HETATM   22  O   UNL     1     -10.612  18.138  67.711  1.00  0.00    -0.400 OA 
HETATM   23  H   UNL     1     -10.525  18.511  68.581  1.00  0.00     0.000 HD 
HETATM   24  O   UNL     1     -10.143  16.465  69.720  1.00  0.00    -0.194 OA 
HETATM   25  C   UNL     1     -10.146  14.569  68.281  1.00  0.00    -0.232 A  
HETATM   26  H   UNL     1      -9.974  15.882  70.450  1.00  0.00     0.000 HD 
ENDBRANCH   9  14
ENDBRANCH   5   8
ENDBRANCH   2   3
TORSDOF 5
ENDMDL
MODEL      159
REMARK 921   NORMALIZED FREE ENERGY PREDICTED BY IDOCK:   -4.40 KCAL/MOL
REMARK 922        TOTAL FREE ENERGY PREDICTED BY IDOCK:   -5.80 KCAL/MOL
REMARK 923 INTER-LIGAND FREE ENERGY PREDICTED BY IDOCK:   -5.18 KCAL/MOL
REMARK 924 INTRA-LIGAND FREE ENERGY PREDICTED BY IDOCK:   -0.62 KCAL/MOL
REMARK 927      BINDING AFFINITY PREDICTED BY RF-SCORE:    0.00 PKD
ROOT
HETATM    1  C   UNL     1     -12.082  14.065  64.972  1.00  0.00    -0.427 C  
HETATM    2  C   UNL     1     -10.585  13.860  65.168  1.00  0.00    -0.379 C  
ENDROOT
BRANCH   2   3
HETATM    3  N   UNL     1     -10.257  12.785  66.118  1.00  0.00    -0.269 N  
HETATM    4  O   UNL     1      -9.803  11.406  64.341  1.00  0.00    -0.242 OA 
HETATM    5  C   UNL     1      -9.923  11.541  65.564  1.00  0.00    -0.242 C  
BRANCH   3   6
HETATM    6  C   UNL     1     -10.313  13.060  67.561  1.00  0.00    -0.224 C  
HETATM    7  C   UNL     1     -11.603  12.826  68.331  1.00  0.00    -0.365 C  
ENDBRANCH   3   6
BRANCH   5   8
HETATM    8  C   UNL     1      -9.693  10.323  66.418  1.00  0.00    -0.252 C  
HETATM    9  C   UNL     1     -10.744   9.554  66.796  1.00  0.00    -0.136 C  
BRANCH   8  10
HETATM   10  C   UNL     1      -8.323   9.877  66.903  1.00  0.00    -0.124 C  
HETATM   11  H2  UNL     1      -6.999   9.647  66.310  1.00  0.00     0.000 HD 
HETATM   12  N   UNL     1      -7.186   9.508  67.303  1.00  0.00    -0.086 NA 
HETATM   13  H1  UNL     1      -6.267   9.209  67.628  1.00  0.00     0.000 HD 
ENDBRANCH   8  10
BRANCH   9  14
HETATM   14  C   UNL     1     -10.622   8.315  67.604  1.00  0.00    -0.264 A  
HETATM   15  C   UNL     1     -10.691   8.356  69.008  1.00  0.00    -0.101 A  
HETATM   16  C   UNL     1     -10.497   7.183  69.768  1.00  0.00    -0.225 A  
HETATM   17  C   UNL     1     -10.255   5.962  69.134  1.00  0.00    -0.215 A  
HETATM   18  N   UNL     1     -10.553   7.255  71.230  1.00  0.00    -0.220 N  
HETATM   19  C   UNL     1     -10.200   5.933  67.740  1.00  0.00    -0.182 A  
HETATM   20  O   UNL     1     -10.346   6.208  71.865  1.00  0.00    -0.201 OA 
HETATM   21  O   UNL     1     -10.804   8.352  71.748  1.00  0.00    -0.245 OA 
HETATM   22  O   UNL     1     -10.054   4.752  69.755  1.00  0.00    -0.233 OA 
HETATM   23  H   UNL     1      -9.890   3.921  69.324  1.00  0.00     0.000 HD 
HETATM   24  O   UNL     1      -9.962   4.746  67.102  1.00  0.00    -0.186 OA 
HETATM   25  C   UNL     1     -10.373   7.088  66.977  1.00  0.00    -0.360 A  
HETATM   26  H   UNL     1      -9.925   4.726  66.153  1.00  0.00     0.000 HD 
ENDBRANCH   9  14
ENDBRANCH   5   8
ENDBRANCH   2   3
TORSDOF 5
ENDMDL
MODEL      160
REMARK 921   NORMALIZED FREE ENERGY PREDICTED BY IDOCK:   -4.38 KCAL/MOL
REMARK 922        TOTAL FREE ENERGY PREDICTED BY IDOCK:   -5.78 KCAL/MOL
REMARK 923 INTER-LIGAND FREE ENERGY PREDICTED BY IDOCK:   -5.76 KCAL/MOL
REMARK 924 INTRA-LIGAND FREE ENERGY PREDICTED BY IDOCK:   -0.02 KCAL/MOL
REMARK 927      BINDING AFFINITY PREDICTED BY RF-SCORE:    0.00 PKD
ROOT
HETATM    1  C   UNL     1     -10.967  16.144  64.710  1.00  0.00    -0.330 C  
HETATM    2  C   UNL     1     -12.012  15.043  64.586  1.00  0.00    -0.358 C  
ENDROOT
BRANCH   2   3
HETATM    3  N   UNL     1     -11.560  13.742  65.104  1.00  0.00    -0.321 N  
HETATM    4  O   UNL     1     -12.075  14.451  67.225  1.00  0.00    -0.406 OA 
HETATM    5  C   UNL     1     -11.587  13.579  66.497  1.00  0.00    -0.359 C  
BRANCH   3   6
HETATM    6  C   UNL     1     -11.100  12.713  64.160  1.00  0.00    -0.382 C  
HETATM    7  C   UNL     1     -12.105  11.978  63.286  1.00  0.00    -0.509 C  
ENDBRANCH   3   6
BRANCH   5   8
HETATM    8  C   UNL     1     -11.032  12.351  67.169  1.00  0.00    -0.304 C  
HETATM    9  C   UNL     1      -9.752  11.972  66.933  1.00  0.00    -0.213 C  
BRANCH   8  10
HETATM   10  C   UNL     1     -11.830  11.477  68.123  1.00  0.00    -0.236 C  
HETATM   11  H2  UNL     1     -13.233  11.347  68.537  1.00  0.00     0.000 HD 
HETATM   12  N   UNL     1     -12.493  10.754  68.914  1.00  0.00    -0.731 NA 
HETATM   13  H1  UNL     1     -13.029  10.167  69.554  1.00  0.00     0.000 HD 
ENDBRANCH   8  10
BRANCH   9  14
HETATM   14  C   UNL     1      -9.100  10.802  67.572  1.00  0.00    -0.143 A  
HETATM   15  C   UNL     1      -8.878   9.614  66.854  1.00  0.00    -0.143 A  
HETATM   16  C   UNL     1      -8.327   8.484  67.493  1.00  0.00    -0.128 A  
HETATM   17  C   UNL     1      -7.973   8.537  68.844  1.00  0.00    -0.118 A  
HETATM   18  N   UNL     1      -8.126   7.250  66.728  1.00  0.00    -0.117 N  
HETATM   19  C   UNL     1      -8.188   9.727  69.543  1.00  0.00    -0.144 A  
HETATM   20  O   UNL     1      -7.668   6.267  67.333  1.00  0.00    -0.095 OA 
HETATM   21  O   UNL     1      -8.422   7.259  65.525  1.00  0.00    -0.141 OA 
HETATM   22  O   UNL     1      -7.426   7.513  69.580  1.00  0.00    -0.088 OA 
HETATM   23  H   UNL     1      -7.185   7.550  70.498  1.00  0.00     0.000 HD 
HETATM   24  O   UNL     1      -7.849   9.798  70.866  1.00  0.00    -0.350 OA 
HETATM   25  C   UNL     1      -8.748  10.846  68.927  1.00  0.00    -0.144 A  
HETATM   26  H   UNL     1      -7.994  10.607  71.342  1.00  0.00     0.000 HD 
ENDBRANCH   9  14
ENDBRANCH   5   8
ENDBRANCH   2   3
TORSDOF 5
ENDMDL
MODEL      161
REMARK 921   NORMALIZED FREE ENERGY PREDICTED BY IDOCK:   -4.37 KCAL/MOL
REMARK 922        TOTAL FREE ENERGY PREDICTED BY IDOCK:   -5.76 KCAL/MOL
REMARK 923 INTER-LIGAND FREE ENERGY PREDICTED BY IDOCK:   -5.16 KCAL/MOL
REMARK 924 INTRA-LIGAND FREE ENERGY PREDICTED BY IDOCK:   -0.61 KCAL/MOL
REMARK 927      BINDING AFFINITY PREDICTED BY RF-SCORE:    0.00 PKD
ROOT
HETATM    1  C   UNL     1      -8.951   2.975  66.736  1.00  0.00    -0.174 C  
HETATM    2  C   UNL     1      -8.675   4.141  67.678  1.00  0.00    -0.107 C  
ENDROOT
BRANCH   2   3
HETATM    3  N   UNL     1      -8.473   5.423  66.984  1.00  0.00    -0.107 N  
HETATM    4  O   UNL     1      -9.103   6.516  68.901  1.00  0.00    -0.131 OA 
HETATM    5  C   UNL     1      -8.786   6.582  67.708  1.00  0.00    -0.115 C  
BRANCH   3   6
HETATM    6  C   UNL     1      -7.981   5.420  65.598  1.00  0.00    -0.107 C  
HETATM    7  C   UNL     1      -6.489   5.505  65.320  1.00  0.00    -0.039 C  
ENDBRANCH   3   6
BRANCH   5   8
HETATM    8  C   UNL     1      -8.750   7.950  67.080  1.00  0.00    -0.132 C  
HETATM    9  C   UNL     1      -9.869   8.463  66.513  1.00  0.00    -0.338 C  
BRANCH   8  10
HETATM   10  C   UNL     1      -7.508   8.826  67.034  1.00  0.00    -0.091 C  
HETATM   11  H2  UNL     1      -7.107  10.144  67.541  1.00  0.00     0.000 HD 
HETATM   12  N   UNL     1      -6.479   9.553  66.997  1.00  0.00    -0.066 NA 
HETATM   13  H1  UNL     1      -5.646  10.141  66.966  1.00  0.00     0.000 HD 
ENDBRANCH   8  10
BRANCH   9  14
HETATM   14  C   UNL     1      -9.949   9.813  65.902  1.00  0.00    -0.345 A  
HETATM   15  C   UNL     1     -10.233  10.947  66.684  1.00  0.00    -0.282 A  
HETATM   16  C   UNL     1     -10.382  12.213  66.080  1.00  0.00    -0.237 A  
HETATM   17  C   UNL     1     -10.226  12.361  64.699  1.00  0.00    -0.287 A  
HETATM   18  N   UNL     1     -10.699  13.376  66.913  1.00  0.00    -0.272 N  
HETATM   19  C   UNL     1      -9.933  11.230  63.936  1.00  0.00    -0.321 A  
HETATM   20  O   UNL     1     -10.853  14.468  66.341  1.00  0.00    -0.306 OA 
HETATM   21  O   UNL     1     -10.794  13.204  68.136  1.00  0.00    -0.236 OA 
HETATM   22  O   UNL     1     -10.340  13.534  63.991  1.00  0.00    -0.647 OA 
HETATM   23  H   UNL     1     -10.234  13.634  63.052  1.00  0.00     0.000 HD 
HETATM   24  O   UNL     1      -9.779  11.354  62.582  1.00  0.00    -0.573 OA 
HETATM   25  C   UNL     1      -9.801   9.969  64.518  1.00  0.00    -0.244 A  
HETATM   26  H   UNL     1      -9.579  10.585  62.063  1.00  0.00     0.000 HD 
ENDBRANCH   9  14
ENDBRANCH   5   8
ENDBRANCH   2   3
TORSDOF 5
ENDMDL
MODEL      162
REMARK 921   NORMALIZED FREE ENERGY PREDICTED BY IDOCK:   -4.35 KCAL/MOL
REMARK 922        TOTAL FREE ENERGY PREDICTED BY IDOCK:   -5.74 KCAL/MOL
REMARK 923 INTER-LIGAND FREE ENERGY PREDICTED BY IDOCK:   -5.27 KCAL/MOL
REMARK 924 INTRA-LIGAND FREE ENERGY PREDICTED BY IDOCK:   -0.47 KCAL/MOL
REMARK 927      BINDING AFFINITY PREDICTED BY RF-SCORE:    0.00 PKD
ROOT
HETATM    1  C   UNL     1     -10.656  12.668  64.062  1.00  0.00    -0.457 C  
HETATM    2  C   UNL     1     -10.464  12.751  65.571  1.00  0.00    -0.287 C  
ENDROOT
BRANCH   2   3
HETATM    3  N   UNL     1     -10.029  11.484  66.180  1.00  0.00    -0.216 N  
HETATM    4  O   UNL     1     -11.835  11.588  67.593  1.00  0.00    -0.595 OA 
HETATM    5  C   UNL     1     -10.791  11.015  67.260  1.00  0.00    -0.281 C  
BRANCH   3   6
HETATM    6  C   UNL     1      -8.839  10.804  65.649  1.00  0.00    -0.190 C  
HETATM    7  C   UNL     1      -8.995   9.584  64.755  1.00  0.00    -0.263 C  
ENDBRANCH   3   6
BRANCH   5   8
HETATM    8  C   UNL     1     -10.384   9.804  68.057  1.00  0.00    -0.250 C  
HETATM    9  C   UNL     1     -10.902   8.589  67.752  1.00  0.00    -0.065 C  
BRANCH   8  10
HETATM   10  C   UNL     1      -9.402   9.848  69.217  1.00  0.00    -0.206 C  
HETATM   11  H2  UNL     1      -8.844  10.870  70.111  1.00  0.00     0.000 HD 
HETATM   12  N   UNL     1      -8.589   9.885  70.179  1.00  0.00    -0.321 NA 
HETATM   13  H1  UNL     1      -7.930   9.914  70.957  1.00  0.00     0.000 HD 
ENDBRANCH   8  10
BRANCH   9  14
HETATM   14  C   UNL     1     -10.539   7.331  68.450  1.00  0.00    -0.209 A  
HETATM   15  C   UNL     1     -11.006   7.062  69.748  1.00  0.00    -0.283 A  
HETATM   16  C   UNL     1     -10.593   5.898  70.431  1.00  0.00    -0.286 A  
HETATM   17  C   UNL     1      -9.731   4.986  69.816  1.00  0.00    -0.196 A  
HETATM   18  N   UNL     1     -11.076   5.651  71.792  1.00  0.00    -0.236 N  
HETATM   19  C   UNL     1      -9.284   5.259  68.522  1.00  0.00    -0.113 A  
HETATM   20  O   UNL     1     -10.666   4.632  72.371  1.00  0.00    -0.190 OA 
HETATM   21  O   UNL     1     -11.865   6.469  72.284  1.00  0.00    -0.294 OA 
HETATM   22  O   UNL     1      -9.259   3.819  70.367  1.00  0.00    -0.112 OA 
HETATM   23  H   UNL     1      -8.674   3.198  69.948  1.00  0.00     0.000 HD 
HETATM   24  O   UNL     1      -8.439   4.378  67.904  1.00  0.00    -0.097 OA 
HETATM   25  C   UNL     1      -9.671   6.414  67.843  1.00  0.00    -0.124 A  
HETATM   26  H   UNL     1      -8.134   4.564  67.024  1.00  0.00     0.000 HD 
ENDBRANCH   9  14
ENDBRANCH   5   8
ENDBRANCH   2   3
TORSDOF 5
ENDMDL
MODEL      163
REMARK 921   NORMALIZED FREE ENERGY PREDICTED BY IDOCK:   -4.34 KCAL/MOL
REMARK 922        TOTAL FREE ENERGY PREDICTED BY IDOCK:   -5.73 KCAL/MOL
REMARK 923 INTER-LIGAND FREE ENERGY PREDICTED BY IDOCK:   -6.21 KCAL/MOL
REMARK 924 INTRA-LIGAND FREE ENERGY PREDICTED BY IDOCK:    0.48 KCAL/MOL
REMARK 927      BINDING AFFINITY PREDICTED BY RF-SCORE:    0.00 PKD
ROOT
HETATM    1  C   UNL     1      -6.791   7.584  64.961  1.00  0.00    -0.047 C  
HETATM    2  C   UNL     1      -6.779   8.502  66.177  1.00  0.00    -0.068 C  
ENDROOT
BRANCH   2   3
HETATM    3  N   UNL     1      -8.061   8.543  66.897  1.00  0.00    -0.098 N  
HETATM    4  O   UNL     1      -8.030  10.833  66.743  1.00  0.00    -0.126 OA 
HETATM    5  C   UNL     1      -8.578   9.815  67.182  1.00  0.00    -0.128 C  
BRANCH   3   6
HETATM    6  C   UNL     1      -8.708   7.281  67.285  1.00  0.00    -0.121 C  
HETATM    7  C   UNL     1      -9.967   6.820  66.568  1.00  0.00    -0.146 C  
ENDBRANCH   3   6
BRANCH   5   8
HETATM    8  C   UNL     1      -9.812  10.005  68.024  1.00  0.00    -0.164 C  
HETATM    9  C   UNL     1      -9.917   9.377  69.221  1.00  0.00    -0.182 C  
BRANCH   8  10
HETATM   10  C   UNL     1     -10.986  10.881  67.616  1.00  0.00    -0.293 C  
HETATM   11  H2  UNL     1     -12.292  11.252  68.176  1.00  0.00     0.000 HD 
HETATM   12  N   UNL     1     -11.960  11.606  67.279  1.00  0.00    -0.602 NA 
HETATM   13  H1  UNL     1     -12.748  12.193  67.005  1.00  0.00     0.000 HD 
ENDBRANCH   8  10
BRANCH   9  14
HETATM   14  C   UNL     1     -11.072   9.526  70.141  1.00  0.00    -0.294 A  
HETATM   15  C   UNL     1     -11.560  10.798  70.490  1.00  0.00    -0.425 A  
HETATM   16  C   UNL     1     -12.608  10.929  71.425  1.00  0.00    -0.403 A  
HETATM   17  C   UNL     1     -13.191   9.796  71.999  1.00  0.00    -0.460 A  
HETATM   18  N   UNL     1     -13.085  12.266  71.789  1.00  0.00    -0.408 N  
HETATM   19  C   UNL     1     -12.705   8.540  71.635  1.00  0.00    -0.332 A  
HETATM   20  O   UNL     1     -13.988  12.343  72.638  1.00  0.00    -0.159 OA 
HETATM   21  O   UNL     1     -12.563  13.241  71.230  1.00  0.00    -0.358 OA 
HETATM   22  O   UNL     1     -14.217   9.787  72.914  1.00  0.00    -0.643 OA 
HETATM   23  H   UNL     1     -14.613   9.017  73.304  1.00  0.00     0.000 HD 
HETATM   24  O   UNL     1     -13.262   7.419  72.187  1.00  0.00    -0.502 OA 
HETATM   25  C   UNL     1     -11.657   8.396  70.725  1.00  0.00    -0.252 A  
HETATM   26  H   UNL     1     -12.932   6.563  71.939  1.00  0.00     0.000 HD 
ENDBRANCH   9  14
ENDBRANCH   5   8
ENDBRANCH   2   3
TORSDOF 5
ENDMDL
MODEL      164
REMARK 921   NORMALIZED FREE ENERGY PREDICTED BY IDOCK:   -4.34 KCAL/MOL
REMARK 922        TOTAL FREE ENERGY PREDICTED BY IDOCK:   -5.72 KCAL/MOL
REMARK 923 INTER-LIGAND FREE ENERGY PREDICTED BY IDOCK:   -5.39 KCAL/MOL
REMARK 924 INTRA-LIGAND FREE ENERGY PREDICTED BY IDOCK:   -0.34 KCAL/MOL
REMARK 927      BINDING AFFINITY PREDICTED BY RF-SCORE:    0.00 PKD
ROOT
HETATM    1  C   UNL     1     -10.991  10.959  64.797  1.00  0.00    -0.036 C  
HETATM    2  C   UNL     1     -10.835  11.006  66.312  1.00  0.00    -0.170 C  
ENDROOT
BRANCH   2   3
HETATM    3  N   UNL     1     -10.033  12.146  66.785  1.00  0.00    -0.201 N  
HETATM    4  O   UNL     1     -11.979  13.269  67.256  1.00  0.00    -0.367 OA 
HETATM    5  C   UNL     1     -10.744  13.284  67.194  1.00  0.00    -0.259 C  
BRANCH   3   6
HETATM    6  C   UNL     1      -8.567  12.041  66.788  1.00  0.00    -0.177 C  
HETATM    7  C   UNL     1      -7.899  10.734  67.186  1.00  0.00    -0.124 C  
ENDBRANCH   3   6
BRANCH   5   8
HETATM    8  C   UNL     1     -10.050  14.564  67.578  1.00  0.00    -0.228 C  
HETATM    9  C   UNL     1     -10.307  15.704  66.891  1.00  0.00    -0.293 C  
BRANCH   8  10
HETATM   10  C   UNL     1      -9.049  14.673  68.717  1.00  0.00    -0.178 C  
HETATM   11  H2  UNL     1      -8.595  13.829  69.829  1.00  0.00     0.000 HD 
HETATM   12  N   UNL     1      -8.220  14.763  69.662  1.00  0.00    -0.416 NA 
HETATM   13  H1  UNL     1      -7.548  14.836  70.426  1.00  0.00     0.000 HD 
ENDBRANCH   8  10
BRANCH   9  14
HETATM   14  C   UNL     1      -9.705  17.022  67.211  1.00  0.00    -0.253 A  
HETATM   15  C   UNL     1      -8.487  17.422  66.636  1.00  0.00    -0.291 A  
HETATM   16  C   UNL     1      -7.887  18.644  67.006  1.00  0.00    -0.233 A  
HETATM   17  C   UNL     1      -8.508  19.484  67.934  1.00  0.00    -0.316 A  
HETATM   18  N   UNL     1      -6.606  19.029  66.408  1.00  0.00    -0.189 N  
HETATM   19  C   UNL     1      -9.723  19.080  68.490  1.00  0.00    -0.400 A  
HETATM   20  O   UNL     1      -6.094  20.096  66.783  1.00  0.00    -0.174 OA 
HETATM   21  O   UNL     1      -6.109  18.269  65.564  1.00  0.00    -0.216 OA 
HETATM   22  O   UNL     1      -8.033  20.696  68.375  1.00  0.00     0.164 OA 
HETATM   23  H   UNL     1      -8.456  21.267  69.006  1.00  0.00     0.000 HD 
HETATM   24  O   UNL     1     -10.345  19.889  69.402  1.00  0.00    -0.636 OA 
HETATM   25  C   UNL     1     -10.318  17.867  68.145  1.00  0.00    -0.395 A  
HETATM   26  H   UNL     1     -11.173  19.615  69.780  1.00  0.00     0.000 HD 
ENDBRANCH   9  14
ENDBRANCH   5   8
ENDBRANCH   2   3
TORSDOF 5
ENDMDL
MODEL      165
REMARK 921   NORMALIZED FREE ENERGY PREDICTED BY IDOCK:   -4.33 KCAL/MOL
REMARK 922        TOTAL FREE ENERGY PREDICTED BY IDOCK:   -5.72 KCAL/MOL
REMARK 923 INTER-LIGAND FREE ENERGY PREDICTED BY IDOCK:   -5.20 KCAL/MOL
REMARK 924 INTRA-LIGAND FREE ENERGY PREDICTED BY IDOCK:   -0.51 KCAL/MOL
REMARK 927      BINDING AFFINITY PREDICTED BY RF-SCORE:    0.00 PKD
ROOT
HETATM    1  C   UNL     1      -7.409   5.333  67.505  1.00  0.00    -0.079 C  
HETATM    2  C   UNL     1      -8.811   5.915  67.373  1.00  0.00    -0.106 C  
ENDROOT
BRANCH   2   3
HETATM    3  N   UNL     1      -8.901   7.330  67.765  1.00  0.00    -0.125 N  
HETATM    4  O   UNL     1     -11.095   7.337  67.091  1.00  0.00    -0.295 OA 
HETATM    5  C   UNL     1     -10.122   7.973  67.513  1.00  0.00    -0.219 C  
BRANCH   3   6
HETATM    6  C   UNL     1      -7.730   7.984  68.368  1.00  0.00    -0.117 C  
HETATM    7  C   UNL     1      -7.635   8.129  69.879  1.00  0.00    -0.089 C  
ENDBRANCH   3   6
BRANCH   5   8
HETATM    8  C   UNL     1     -10.309   9.449  67.743  1.00  0.00    -0.291 C  
HETATM    9  C   UNL     1     -10.154  10.318  66.715  1.00  0.00    -0.272 C  
BRANCH   8  10
HETATM   10  C   UNL     1     -10.673  10.054  69.090  1.00  0.00    -0.220 C  
HETATM   11  H2  UNL     1      -9.956  10.620  70.239  1.00  0.00     0.000 HD 
HETATM   12  N   UNL     1     -10.974  10.556  70.206  1.00  0.00    -0.421 NA 
HETATM   13  H1  UNL     1     -11.218  10.962  71.109  1.00  0.00     0.000 HD 
ENDBRANCH   8  10
BRANCH   9  14
HETATM   14  C   UNL     1     -10.352  11.785  66.828  1.00  0.00    -0.251 A  
HETATM   15  C   UNL     1      -9.361  12.609  67.389  1.00  0.00    -0.189 A  
HETATM   16  C   UNL     1      -9.592  13.990  67.561  1.00  0.00    -0.228 A  
HETATM   17  C   UNL     1     -10.801  14.561  67.154  1.00  0.00    -0.296 A  
HETATM   18  N   UNL     1      -8.552  14.825  68.168  1.00  0.00    -0.153 N  
HETATM   19  C   UNL     1     -11.772  13.734  66.587  1.00  0.00    -0.394 A  
HETATM   20  O   UNL     1      -8.805  16.030  68.331  1.00  0.00    -0.177 OA 
HETATM   21  O   UNL     1      -7.484  14.282  68.482  1.00  0.00    -0.107 OA 
HETATM   22  O   UNL     1     -11.148  15.887  67.260  1.00  0.00    -0.281 OA 
HETATM   23  H   UNL     1     -11.970  16.275  66.983  1.00  0.00     0.000 HD 
HETATM   24  O   UNL     1     -12.963  14.274  66.184  1.00  0.00    -0.454 OA 
HETATM   25  C   UNL     1     -11.563  12.363  66.428  1.00  0.00    -0.442 A  
HETATM   26  H   UNL     1     -13.623  13.712  65.798  1.00  0.00     0.000 HD 
ENDBRANCH   9  14
ENDBRANCH   5   8
ENDBRANCH   2   3
TORSDOF 5
ENDMDL
MODEL      166
REMARK 921   NORMALIZED FREE ENERGY PREDICTED BY IDOCK:   -4.31 KCAL/MOL
REMARK 922        TOTAL FREE ENERGY PREDICTED BY IDOCK:   -5.68 KCAL/MOL
REMARK 923 INTER-LIGAND FREE ENERGY PREDICTED BY IDOCK:   -5.09 KCAL/MOL
REMARK 924 INTRA-LIGAND FREE ENERGY PREDICTED BY IDOCK:   -0.60 KCAL/MOL
REMARK 927      BINDING AFFINITY PREDICTED BY RF-SCORE:    0.00 PKD
ROOT
HETATM    1  C   UNL     1      -7.660   4.997  66.602  1.00  0.00    -0.088 C  
HETATM    2  C   UNL     1      -8.788   5.847  66.030  1.00  0.00    -0.149 C  
ENDROOT
BRANCH   2   3
HETATM    3  N   UNL     1      -9.207   6.943  66.917  1.00  0.00    -0.140 N  
HETATM    4  O   UNL     1      -8.785   8.428  65.218  1.00  0.00    -0.170 OA 
HETATM    5  C   UNL     1      -9.104   8.242  66.398  1.00  0.00    -0.182 C  
BRANCH   3   6
HETATM    6  C   UNL     1      -9.683   6.628  68.272  1.00  0.00    -0.132 C  
HETATM    7  C   UNL     1     -11.161   6.367  68.517  1.00  0.00    -0.385 C  
ENDBRANCH   3   6
BRANCH   5   8
HETATM    8  C   UNL     1      -9.374   9.461  67.239  1.00  0.00    -0.159 C  
HETATM    9  C   UNL     1     -10.564  10.103  67.136  1.00  0.00    -0.308 C  
BRANCH   8  10
HETATM   10  C   UNL     1      -8.377  10.042  68.230  1.00  0.00    -0.110 C  
HETATM   11  H2  UNL     1      -7.333  11.075  68.218  1.00  0.00     0.000 HD 
HETATM   12  N   UNL     1      -7.551  10.525  69.049  1.00  0.00    -0.106 NA 
HETATM   13  H1  UNL     1      -6.882  10.915  69.713  1.00  0.00     0.000 HD 
ENDBRANCH   8  10
BRANCH   9  14
HETATM   14  C   UNL     1     -10.943  11.288  67.945  1.00  0.00    -0.302 A  
HETATM   15  C   UNL     1     -10.550  12.583  67.562  1.00  0.00    -0.238 A  
HETATM   16  C   UNL     1     -10.851  13.693  68.379  1.00  0.00    -0.256 A  
HETATM   17  C   UNL     1     -11.564  13.523  69.569  1.00  0.00    -0.294 A  
HETATM   18  N   UNL     1     -10.412  15.029  67.969  1.00  0.00    -0.240 N  
HETATM   19  C   UNL     1     -11.958  12.234  69.932  1.00  0.00    -0.306 A  
HETATM   20  O   UNL     1     -10.669  15.977  68.730  1.00  0.00    -0.251 OA 
HETATM   21  O   UNL     1      -9.813  15.137  66.890  1.00  0.00    -0.229 OA 
HETATM   22  O   UNL     1     -11.923  14.517  70.448  1.00  0.00    -0.280 OA 
HETATM   23  H   UNL     1     -12.408  14.401  71.257  1.00  0.00     0.000 HD 
HETATM   24  O   UNL     1     -12.655  12.047  71.094  1.00  0.00    -0.367 OA 
HETATM   25  C   UNL     1     -11.652  11.126  69.142  1.00  0.00    -0.393 A  
HETATM   26  H   UNL     1     -12.924  11.171  71.341  1.00  0.00     0.000 HD 
ENDBRANCH   9  14
ENDBRANCH   5   8
ENDBRANCH   2   3
TORSDOF 5
ENDMDL
MODEL      167
REMARK 921   NORMALIZED FREE ENERGY PREDICTED BY IDOCK:   -4.30 KCAL/MOL
REMARK 922        TOTAL FREE ENERGY PREDICTED BY IDOCK:   -5.67 KCAL/MOL
REMARK 923 INTER-LIGAND FREE ENERGY PREDICTED BY IDOCK:   -5.30 KCAL/MOL
REMARK 924 INTRA-LIGAND FREE ENERGY PREDICTED BY IDOCK:   -0.37 KCAL/MOL
REMARK 927      BINDING AFFINITY PREDICTED BY RF-SCORE:    0.00 PKD
ROOT
HETATM    1  C   UNL     1      -6.314  20.434  68.786  1.00  0.00    -0.338 C  
HETATM    2  C   UNL     1      -7.577  19.755  68.270  1.00  0.00    -0.303 C  
ENDROOT
BRANCH   2   3
HETATM    3  N   UNL     1      -7.570  18.293  68.438  1.00  0.00    -0.281 N  
HETATM    4  O   UNL     1      -9.450  18.172  67.128  1.00  0.00    -0.256 OA 
HETATM    5  C   UNL     1      -8.629  17.590  67.846  1.00  0.00    -0.239 C  
BRANCH   3   6
HETATM    6  C   UNL     1      -6.490  17.664  69.214  1.00  0.00    -0.240 C  
HETATM    7  C   UNL     1      -5.319  17.012  68.496  1.00  0.00    -0.131 C  
ENDBRANCH   3   6
BRANCH   5   8
HETATM    8  C   UNL     1      -8.817  16.110  68.048  1.00  0.00    -0.181 C  
HETATM    9  C   UNL     1      -8.314  15.235  67.143  1.00  0.00    -0.244 C  
BRANCH   8  10
HETATM   10  C   UNL     1      -9.553  15.506  69.233  1.00  0.00    -0.266 C  
HETATM   11  H2  UNL     1     -10.948  15.228  69.599  1.00  0.00     0.000 HD 
HETATM   12  N   UNL     1     -10.165  15.005  70.214  1.00  0.00    -0.504 NA 
HETATM   13  H1  UNL     1     -10.660  14.600  71.009  1.00  0.00     0.000 HD 
ENDBRANCH   8  10
BRANCH   9  14
HETATM   14  C   UNL     1      -8.411  13.759  67.268  1.00  0.00    -0.204 A  
HETATM   15  C   UNL     1      -9.652  13.105  67.178  1.00  0.00    -0.235 A  
HETATM   16  C   UNL     1      -9.742  11.711  67.375  1.00  0.00    -0.176 A  
HETATM   17  C   UNL     1      -8.595  10.958  67.639  1.00  0.00    -0.124 A  
HETATM   18  N   UNL     1     -11.050  11.055  67.298  1.00  0.00    -0.301 N  
HETATM   19  C   UNL     1      -7.367  11.619  67.714  1.00  0.00    -0.106 A  
HETATM   20  O   UNL     1     -11.093   9.832  67.508  1.00  0.00    -0.234 OA 
HETATM   21  O   UNL     1     -12.035  11.756  67.027  1.00  0.00    -0.610 OA 
HETATM   22  O   UNL     1      -8.545   9.600  67.845  1.00  0.00    -0.122 OA 
HETATM   23  H   UNL     1      -7.765   9.089  68.024  1.00  0.00     0.000 HD 
HETATM   24  O   UNL     1      -6.233  10.899  67.974  1.00  0.00    -0.053 OA 
HETATM   25  C   UNL     1      -7.267  12.999  67.539  1.00  0.00    -0.154 A  
HETATM   26  H   UNL     1      -5.397  11.348  68.025  1.00  0.00     0.000 HD 
ENDBRANCH   9  14
ENDBRANCH   5   8
ENDBRANCH   2   3
TORSDOF 5
ENDMDL
MODEL      168
REMARK 921   NORMALIZED FREE ENERGY PREDICTED BY IDOCK:   -4.26 KCAL/MOL
REMARK 922        TOTAL FREE ENERGY PREDICTED BY IDOCK:   -5.62 KCAL/MOL
REMARK 923 INTER-LIGAND FREE ENERGY PREDICTED BY IDOCK:   -5.24 KCAL/MOL
REMARK 924 INTRA-LIGAND FREE ENERGY PREDICTED BY IDOCK:   -0.38 KCAL/MOL
REMARK 927      BINDING AFFINITY PREDICTED BY RF-SCORE:    0.00 PKD
ROOT
HETATM    1  C   UNL     1     -10.995  16.084  64.883  1.00  0.00    -0.399 C  
HETATM    2  C   UNL     1     -11.853  14.831  64.766  1.00  0.00    -0.423 C  
ENDROOT
BRANCH   2   3
HETATM    3  N   UNL     1     -11.412  13.731  65.639  1.00  0.00    -0.306 N  
HETATM    4  O   UNL     1      -9.874  13.134  64.043  1.00  0.00    -0.209 OA 
HETATM    5  C   UNL     1     -10.419  12.885  65.125  1.00  0.00    -0.309 C  
BRANCH   3   6
HETATM    6  C   UNL     1     -12.033  13.571  66.962  1.00  0.00    -0.394 C  
HETATM    7  C   UNL     1     -11.676  14.526  68.090  1.00  0.00    -0.369 C  
ENDBRANCH   3   6
BRANCH   5   8
HETATM    8  C   UNL     1      -9.969  11.647  65.855  1.00  0.00    -0.264 C  
HETATM    9  C   UNL     1     -10.292  10.423  65.372  1.00  0.00    -0.270 C  
BRANCH   8  10
HETATM   10  C   UNL     1      -9.152  11.673  67.137  1.00  0.00    -0.171 C  
HETATM   11  H2  UNL     1      -7.731  11.753  67.500  1.00  0.00     0.000 HD 
HETATM   12  N   UNL     1      -8.473  11.695  68.198  1.00  0.00    -0.150 NA 
HETATM   13  H1  UNL     1      -7.924  11.712  69.058  1.00  0.00     0.000 HD 
ENDBRANCH   8  10
BRANCH   9  14
HETATM   14  C   UNL     1      -9.867   9.144  65.993  1.00  0.00    -0.342 A  
HETATM   15  C   UNL     1      -8.743   8.445  65.518  1.00  0.00    -0.196 A  
HETATM   16  C   UNL     1      -8.394   7.193  66.067  1.00  0.00    -0.134 A  
HETATM   17  C   UNL     1      -9.148   6.642  67.106  1.00  0.00    -0.128 A  
HETATM   18  N   UNL     1      -7.232   6.474  65.540  1.00  0.00    -0.071 N  
HETATM   19  C   UNL     1     -10.254   7.351  67.577  1.00  0.00    -0.224 A  
HETATM   20  O   UNL     1      -6.975   5.361  66.027  1.00  0.00    -0.063 OA 
HETATM   21  O   UNL     1      -6.573   7.016  64.642  1.00  0.00    -0.041 OA 
HETATM   22  O   UNL     1      -8.913   5.439  67.729  1.00  0.00    -0.109 OA 
HETATM   23  H   UNL     1      -9.425   5.064  68.436  1.00  0.00     0.000 HD 
HETATM   24  O   UNL     1     -11.005   6.826  68.593  1.00  0.00    -0.363 OA 
HETATM   25  C   UNL     1     -10.620   8.582  67.032  1.00  0.00    -0.305 A  
HETATM   26  H   UNL     1     -11.758   7.309  68.914  1.00  0.00     0.000 HD 
ENDBRANCH   9  14
ENDBRANCH   5   8
ENDBRANCH   2   3
TORSDOF 5
ENDMDL
MODEL      169
REMARK 921   NORMALIZED FREE ENERGY PREDICTED BY IDOCK:   -4.26 KCAL/MOL
REMARK 922        TOTAL FREE ENERGY PREDICTED BY IDOCK:   -5.62 KCAL/MOL
REMARK 923 INTER-LIGAND FREE ENERGY PREDICTED BY IDOCK:   -5.50 KCAL/MOL
REMARK 924 INTRA-LIGAND FREE ENERGY PREDICTED BY IDOCK:   -0.12 KCAL/MOL
REMARK 927      BINDING AFFINITY PREDICTED BY RF-SCORE:    0.00 PKD
ROOT
HETATM    1  C   UNL     1     -12.611  14.156  65.940  1.00  0.00    -0.447 C  
HETATM    2  C   UNL     1     -11.143  13.788  65.764  1.00  0.00    -0.289 C  
ENDROOT
BRANCH   2   3
HETATM    3  N   UNL     1     -10.898  12.337  65.737  1.00  0.00    -0.269 N  
HETATM    4  O   UNL     1     -10.234  12.447  67.931  1.00  0.00    -0.202 OA 
HETATM    5  C   UNL     1     -10.371  11.770  66.906  1.00  0.00    -0.217 C  
BRANCH   3   6
HETATM    6  C   UNL     1     -11.196  11.582  64.511  1.00  0.00    -0.231 C  
HETATM    7  C   UNL     1     -12.298  12.053  63.576  1.00  0.00    -0.661 C  
ENDBRANCH   3   6
BRANCH   5   8
HETATM    8  C   UNL     1      -9.952  10.325  66.973  1.00  0.00    -0.249 C  
HETATM    9  C   UNL     1     -10.693   9.439  67.682  1.00  0.00    -0.295 C  
BRANCH   8  10
HETATM   10  C   UNL     1      -8.717   9.771  66.280  1.00  0.00    -0.139 C  
HETATM   11  H2  UNL     1      -7.313  10.167  66.113  1.00  0.00     0.000 HD 
HETATM   12  N   UNL     1      -7.694   9.312  65.706  1.00  0.00    -0.097 NA 
HETATM   13  H1  UNL     1      -6.865   8.940  65.241  1.00  0.00     0.000 HD 
ENDBRANCH   8  10
BRANCH   9  14
HETATM   14  C   UNL     1     -10.388   7.990  67.781  1.00  0.00    -0.294 A  
HETATM   15  C   UNL     1      -9.504   7.500  68.757  1.00  0.00    -0.148 A  
HETATM   16  C   UNL     1      -9.163   6.131  68.793  1.00  0.00    -0.124 A  
HETATM   17  C   UNL     1      -9.718   5.240  67.870  1.00  0.00    -0.141 A  
HETATM   18  N   UNL     1      -8.222   5.649  69.807  1.00  0.00    -0.105 N  
HETATM   19  C   UNL     1     -10.604   5.738  66.913  1.00  0.00    -0.308 A  
HETATM   20  O   UNL     1      -7.923   4.444  69.786  1.00  0.00    -0.057 OA 
HETATM   21  O   UNL     1      -7.782   6.468  70.626  1.00  0.00    -0.100 OA 
HETATM   22  O   UNL     1      -9.473   3.890  67.800  1.00  0.00    -0.174 OA 
HETATM   23  H   UNL     1      -9.851   3.284  67.173  1.00  0.00     0.000 HD 
HETATM   24  O   UNL     1     -11.156   4.880  66.000  1.00  0.00    -0.685 OA 
HETATM   25  C   UNL     1     -10.936   7.091  66.856  1.00  0.00    -0.271 A  
HETATM   26  H   UNL     1     -11.759   5.218  65.349  1.00  0.00     0.000 HD 
ENDBRANCH   9  14
ENDBRANCH   5   8
ENDBRANCH   2   3
TORSDOF 5
ENDMDL
MODEL      170
REMARK 921   NORMALIZED FREE ENERGY PREDICTED BY IDOCK:   -4.24 KCAL/MOL
REMARK 922        TOTAL FREE ENERGY PREDICTED BY IDOCK:   -5.60 KCAL/MOL
REMARK 923 INTER-LIGAND FREE ENERGY PREDICTED BY IDOCK:   -5.01 KCAL/MOL
REMARK 924 INTRA-LIGAND FREE ENERGY PREDICTED BY IDOCK:   -0.59 KCAL/MOL
REMARK 927      BINDING AFFINITY PREDICTED BY RF-SCORE:    0.00 PKD
ROOT
HETATM    1  C   UNL     1      -9.356   4.058  68.730  1.00  0.00    -0.227 C  
HETATM    2  C   UNL     1      -9.944   5.188  69.567  1.00  0.00    -0.231 C  
ENDROOT
BRANCH   2   3
HETATM    3  N   UNL     1      -9.633   6.528  69.046  1.00  0.00    -0.133 N  
HETATM    4  O   UNL     1     -11.508   6.411  67.729  1.00  0.00    -0.146 OA 
HETATM    5  C   UNL     1     -10.487   7.029  68.053  1.00  0.00    -0.208 C  
BRANCH   3   6
HETATM    6  C   UNL     1      -8.461   7.248  69.569  1.00  0.00    -0.133 C  
HETATM    7  C   UNL     1      -8.622   8.227  70.721  1.00  0.00    -0.147 C  
ENDBRANCH   3   6
BRANCH   5   8
HETATM    8  C   UNL     1     -10.212   8.327  67.343  1.00  0.00    -0.326 C  
HETATM    9  C   UNL     1     -10.725   9.484  67.827  1.00  0.00    -0.302 C  
BRANCH   8  10
HETATM   10  C   UNL     1      -9.372   8.437  66.080  1.00  0.00    -0.201 C  
HETATM   11  H2  UNL     1      -8.996   9.494  65.133  1.00  0.00     0.000 HD 
HETATM   12  N   UNL     1      -8.677   8.530  65.034  1.00  0.00    -0.358 NA 
HETATM   13  H1  UNL     1      -8.113   8.604  64.186  1.00  0.00     0.000 HD 
ENDBRANCH   8  10
BRANCH   9  14
HETATM   14  C   UNL     1     -10.483  10.819  67.225  1.00  0.00    -0.282 A  
HETATM   15  C   UNL     1      -9.373  11.594  67.603  1.00  0.00    -0.178 A  
HETATM   16  C   UNL     1      -9.196  12.892  67.079  1.00  0.00    -0.226 A  
HETATM   17  C   UNL     1     -10.109  13.416  66.161  1.00  0.00    -0.302 A  
HETATM   18  N   UNL     1      -8.042  13.689  67.505  1.00  0.00    -0.172 N  
HETATM   19  C   UNL     1     -11.201  12.631  65.785  1.00  0.00    -0.312 A  
HETATM   20  O   UNL     1      -7.937  14.839  67.047  1.00  0.00    -0.200 OA 
HETATM   21  O   UNL     1      -7.239  13.172  68.295  1.00  0.00    -0.087 OA 
HETATM   22  O   UNL     1     -10.049  14.658  65.576  1.00  0.00    -0.336 OA 
HETATM   23  H   UNL     1     -10.670  15.014  64.951  1.00  0.00     0.000 HD 
HETATM   24  O   UNL     1     -12.107  13.128  64.888  1.00  0.00    -0.359 OA 
HETATM   25  C   UNL     1     -11.398  11.353  66.308  1.00  0.00    -0.140 A  
HETATM   26  H   UNL     1     -12.850  12.594  64.632  1.00  0.00     0.000 HD 
ENDBRANCH   9  14
ENDBRANCH   5   8
ENDBRANCH   2   3
TORSDOF 5
ENDMDL
MODEL      171
REMARK 921   NORMALIZED FREE ENERGY PREDICTED BY IDOCK:   -4.24 KCAL/MOL
REMARK 922        TOTAL FREE ENERGY PREDICTED BY IDOCK:   -5.60 KCAL/MOL
REMARK 923 INTER-LIGAND FREE ENERGY PREDICTED BY IDOCK:   -6.81 KCAL/MOL
REMARK 924 INTRA-LIGAND FREE ENERGY PREDICTED BY IDOCK:    1.22 KCAL/MOL
REMARK 927      BINDING AFFINITY PREDICTED BY RF-SCORE:    0.00 PKD
ROOT
HETATM    1  C   UNL     1     -10.692  19.569  67.602  1.00  0.00    -0.527 C  
HETATM    2  C   UNL     1     -10.348  18.206  68.192  1.00  0.00    -0.379 C  
ENDROOT
BRANCH   2   3
HETATM    3  N   UNL     1     -10.232  17.141  67.184  1.00  0.00    -0.309 N  
HETATM    4  O   UNL     1     -11.804  15.930  68.338  1.00  0.00    -0.322 OA 
HETATM    5  C   UNL     1     -10.996  15.985  67.404  1.00  0.00    -0.237 C  
BRANCH   3   6
HETATM    6  C   UNL     1      -9.332  17.332  66.037  1.00  0.00    -0.097 C  
HETATM    7  C   UNL     1      -7.835  17.120  66.201  1.00  0.00    -0.303 C  
ENDBRANCH   3   6
BRANCH   5   8
HETATM    8  C   UNL     1     -10.875  14.769  66.525  1.00  0.00    -0.319 C  
HETATM    9  C   UNL     1      -9.922  13.839  66.784  1.00  0.00    -0.270 C  
BRANCH   8  10
HETATM   10  C   UNL     1     -11.773  14.498  65.329  1.00  0.00    -0.361 C  
HETATM   11  H2  UNL     1     -12.133  15.185  64.081  1.00  0.00     0.000 HD 
HETATM   12  N   UNL     1     -12.518  14.275  64.337  1.00  0.00    -0.674 NA 
HETATM   13  H1  UNL     1     -13.120  14.094  63.534  1.00  0.00     0.000 HD 
ENDBRANCH   8  10
BRANCH   9  14
HETATM   14  C   UNL     1      -9.744  12.590  66.004  1.00  0.00    -0.247 A  
HETATM   15  C   UNL     1      -8.810  11.616  66.398  1.00  0.00    -0.182 A  
HETATM   16  C   UNL     1      -8.595  10.468  65.606  1.00  0.00    -0.175 A  
HETATM   17  C   UNL     1      -9.324  10.274  64.430  1.00  0.00    -0.277 A  
HETATM   18  N   UNL     1      -7.602   9.478  66.027  1.00  0.00    -0.099 N  
HETATM   19  C   UNL     1     -10.257  11.243  64.055  1.00  0.00    -0.348 A  
HETATM   20  O   UNL     1      -7.418   8.497  65.288  1.00  0.00    -0.082 OA 
HETATM   21  O   UNL     1      -7.003   9.674  67.094  1.00  0.00    -0.083 OA 
HETATM   22  O   UNL     1      -9.214   9.203  63.576  1.00  0.00    -0.394 OA 
HETATM   23  H   UNL     1      -9.711   9.071  62.776  1.00  0.00     0.000 HD 
HETATM   24  O   UNL     1     -10.979  11.071  62.906  1.00  0.00    -0.793 OA 
HETATM   25  C   UNL     1     -10.467  12.391  64.820  1.00  0.00    -0.333 A  
HETATM   26  H   UNL     1     -11.614  11.730  62.651  1.00  0.00     0.000 HD 
ENDBRANCH   9  14
ENDBRANCH   5   8
ENDBRANCH   2   3
TORSDOF 5
ENDMDL
MODEL      172
REMARK 921   NORMALIZED FREE ENERGY PREDICTED BY IDOCK:   -4.24 KCAL/MOL
REMARK 922        TOTAL FREE ENERGY PREDICTED BY IDOCK:   -5.59 KCAL/MOL
REMARK 923 INTER-LIGAND FREE ENERGY PREDICTED BY IDOCK:   -5.05 KCAL/MOL
REMARK 924 INTRA-LIGAND FREE ENERGY PREDICTED BY IDOCK:   -0.55 KCAL/MOL
REMARK 927      BINDING AFFINITY PREDICTED BY RF-SCORE:    0.00 PKD
ROOT
HETATM    1  C   UNL     1      -9.009   7.822  73.559  1.00  0.00    -0.327 C  
HETATM    2  C   UNL     1      -9.694   6.985  72.486  1.00  0.00    -0.149 C  
ENDROOT
BRANCH   2   3
HETATM    3  N   UNL     1      -9.434   7.456  71.117  1.00  0.00    -0.156 N  
HETATM    4  O   UNL     1     -11.625   8.123  70.972  1.00  0.00    -0.278 OA 
HETATM    5  C   UNL     1     -10.532   7.973  70.414  1.00  0.00    -0.218 C  
BRANCH   3   6
HETATM    6  C   UNL     1      -8.076   7.346  70.565  1.00  0.00    -0.104 C  
HETATM    7  C   UNL     1      -7.106   8.510  70.694  1.00  0.00    -0.047 C  
ENDBRANCH   3   6
BRANCH   5   8
HETATM    8  C   UNL     1     -10.438   8.369  68.964  1.00  0.00    -0.216 C  
HETATM    9  C   UNL     1      -9.967   9.595  68.628  1.00  0.00    -0.179 C  
BRANCH   8  10
HETATM   10  C   UNL     1     -10.845   7.463  67.813  1.00  0.00    -0.116 C  
HETATM   11  H2  UNL     1     -11.571   7.603  66.544  1.00  0.00     0.000 HD 
HETATM   12  N   UNL     1     -11.183   6.713  66.858  1.00  0.00    -0.784 NA 
HETATM   13  H1  UNL     1     -11.456   6.106  66.085  1.00  0.00     0.000 HD 
ENDBRANCH   8  10
BRANCH   9  14
HETATM   14  C   UNL     1      -9.799  10.067  67.231  1.00  0.00    -0.225 A  
HETATM   15  C   UNL     1      -8.646   9.752  66.493  1.00  0.00    -0.135 A  
HETATM   16  C   UNL     1      -8.463  10.270  65.193  1.00  0.00    -0.168 A  
HETATM   17  C   UNL     1      -9.439  11.087  64.614  1.00  0.00    -0.234 A  
HETATM   18  N   UNL     1      -7.243   9.944  64.452  1.00  0.00    -0.130 N  
HETATM   19  C   UNL     1     -10.585  11.383  65.354  1.00  0.00    -0.275 A  
HETATM   20  O   UNL     1      -7.104  10.445  63.324  1.00  0.00    -0.124 OA 
HETATM   21  O   UNL     1      -6.421   9.189  64.991  1.00  0.00    -0.065 OA 
HETATM   22  O   UNL     1      -9.385  11.650  63.362  1.00  0.00    -0.495 OA 
HETATM   23  H   UNL     1     -10.049  12.204  62.968  1.00  0.00     0.000 HD 
HETATM   24  O   UNL     1     -11.550  12.182  64.804  1.00  0.00    -0.331 OA 
HETATM   25  C   UNL     1     -10.770  10.891  66.646  1.00  0.00    -0.289 A  
HETATM   26  H   UNL     1     -12.330  12.384  65.307  1.00  0.00     0.000 HD 
ENDBRANCH   9  14
ENDBRANCH   5   8
ENDBRANCH   2   3
TORSDOF 5
ENDMDL
MODEL      173
REMARK 921   NORMALIZED FREE ENERGY PREDICTED BY IDOCK:   -4.23 KCAL/MOL
REMARK 922        TOTAL FREE ENERGY PREDICTED BY IDOCK:   -5.59 KCAL/MOL
REMARK 923 INTER-LIGAND FREE ENERGY PREDICTED BY IDOCK:   -5.80 KCAL/MOL
REMARK 924 INTRA-LIGAND FREE ENERGY PREDICTED BY IDOCK:    0.21 KCAL/MOL
REMARK 927      BINDING AFFINITY PREDICTED BY RF-SCORE:    0.00 PKD
ROOT
HETATM    1  C   UNL     1     -10.939   8.139  68.491  1.00  0.00     0.172 C  
HETATM    2  C   UNL     1      -9.849   8.909  69.226  1.00  0.00    -0.176 C  
ENDROOT
BRANCH   2   3
HETATM    3  N   UNL     1      -9.432  10.140  68.537  1.00  0.00    -0.153 N  
HETATM    4  O   UNL     1     -11.038  11.292  69.704  1.00  0.00    -0.249 OA 
HETATM    5  C   UNL     1     -10.166  11.300  68.827  1.00  0.00    -0.202 C  
BRANCH   3   6
HETATM    6  C   UNL     1      -8.307  10.088  67.592  1.00  0.00    -0.114 C  
HETATM    7  C   UNL     1      -8.311   9.074  66.460  1.00  0.00    -0.115 C  
ENDBRANCH   3   6
BRANCH   5   8
HETATM    8  C   UNL     1      -9.931  12.596  68.099  1.00  0.00    -0.225 C  
HETATM    9  C   UNL     1     -10.967  13.442  67.874  1.00  0.00    -0.276 C  
BRANCH   8  10
HETATM   10  C   UNL     1      -8.572  13.041  67.582  1.00  0.00    -0.190 C  
HETATM   11  H2  UNL     1      -7.255  12.428  67.366  1.00  0.00     0.000 HD 
HETATM   12  N   UNL     1      -7.446  13.408  67.153  1.00  0.00    -0.370 NA 
HETATM   13  H1  UNL     1      -6.534  13.705  66.806  1.00  0.00     0.000 HD 
ENDBRANCH   8  10
BRANCH   9  14
HETATM   14  C   UNL     1     -10.835  14.758  67.201  1.00  0.00    -0.311 A  
HETATM   15  C   UNL     1     -10.654  15.937  67.944  1.00  0.00    -0.300 A  
HETATM   16  C   UNL     1     -10.608  17.191  67.297  1.00  0.00    -0.270 A  
HETATM   17  C   UNL     1     -10.718  17.273  65.907  1.00  0.00    -0.126 A  
HETATM   18  N   UNL     1     -10.439  18.408  68.095  1.00  0.00    -0.358 N  
HETATM   19  C   UNL     1     -10.885  16.094  65.179  1.00  0.00    -0.361 A  
HETATM   20  O   UNL     1     -10.434  19.494  67.493  1.00  0.00    -0.418 OA 
HETATM   21  O   UNL     1     -10.312  18.284  69.322  1.00  0.00    -0.215 OA 
HETATM   22  O   UNL     1     -10.683  18.425  65.158  1.00  0.00    -0.562 OA 
HETATM   23  H   UNL     1     -10.758  18.482  64.212  1.00  0.00     0.000 HD 
HETATM   24  O   UNL     1     -10.997  16.155  63.817  1.00  0.00    -0.633 OA 
HETATM   25  C   UNL     1     -10.951  14.850  65.808  1.00  0.00    -0.345 A  
HETATM   26  H   UNL     1     -11.110  15.352  63.322  1.00  0.00     0.000 HD 
ENDBRANCH   9  14
ENDBRANCH   5   8
ENDBRANCH   2   3
TORSDOF 5
ENDMDL
MODEL      174
REMARK 921   NORMALIZED FREE ENERGY PREDICTED BY IDOCK:   -4.23 KCAL/MOL
REMARK 922        TOTAL FREE ENERGY PREDICTED BY IDOCK:   -5.59 KCAL/MOL
REMARK 923 INTER-LIGAND FREE ENERGY PREDICTED BY IDOCK:   -5.04 KCAL/MOL
REMARK 924 INTRA-LIGAND FREE ENERGY PREDICTED BY IDOCK:   -0.54 KCAL/MOL
REMARK 927      BINDING AFFINITY PREDICTED BY RF-SCORE:    0.00 PKD
ROOT
HETATM    1  C   UNL     1      -8.790   1.793  70.868  1.00  0.00    -0.114 C  
HETATM    2  C   UNL     1      -8.365   2.677  72.033  1.00  0.00    -0.058 C  
ENDROOT
BRANCH   2   3
HETATM    3  N   UNL     1      -8.964   4.021  72.001  1.00  0.00    -0.115 N  
HETATM    4  O   UNL     1      -7.132   4.768  70.838  1.00  0.00    -0.039 OA 
HETATM    5  C   UNL     1      -8.199   5.034  71.405  1.00  0.00    -0.113 C  
BRANCH   3   6
HETATM    6  C   UNL     1     -10.292   4.230  72.597  1.00  0.00    -0.178 C  
HETATM    7  C   UNL     1     -10.416   4.600  74.067  1.00  0.00    -0.322 C  
ENDBRANCH   3   6
BRANCH   5   8
HETATM    8  C   UNL     1      -8.632   6.475  71.419  1.00  0.00    -0.126 C  
HETATM    9  C   UNL     1      -9.482   6.935  70.470  1.00  0.00    -0.169 C  
BRANCH   8  10
HETATM   10  C   UNL     1      -8.169   7.486  72.457  1.00  0.00    -0.108 C  
HETATM   11  H2  UNL     1      -7.464   7.452  73.746  1.00  0.00     0.000 HD 
HETATM   12  N   UNL     1      -7.785   8.322  73.318  1.00  0.00    -0.262 NA 
HETATM   13  H1  UNL     1      -7.474   9.000  74.015  1.00  0.00     0.000 HD 
ENDBRANCH   8  10
BRANCH   9  14
HETATM   14  C   UNL     1      -9.998   8.326  70.417  1.00  0.00    -0.196 A  
HETATM   15  C   UNL     1     -11.151   8.699  71.130  1.00  0.00    -0.324 A  
HETATM   16  C   UNL     1     -11.675  10.004  71.011  1.00  0.00    -0.392 A  
HETATM   17  C   UNL     1     -11.041  10.949  70.201  1.00  0.00    -0.161 A  
HETATM   18  N   UNL     1     -12.890  10.362  71.747  1.00  0.00    -0.448 N  
HETATM   19  C   UNL     1      -9.890  10.570  69.508  1.00  0.00    -0.142 A  
HETATM   20  O   UNL     1     -13.338  11.510  71.593  1.00  0.00    -0.342 OA 
HETATM   21  O   UNL     1     -13.399   9.502  72.480  1.00  0.00    -0.418 OA 
HETATM   22  O   UNL     1     -11.444  12.248  70.004  1.00  0.00    -0.505 OA 
HETATM   23  H   UNL     1     -11.013  12.892  69.453  1.00  0.00     0.000 HD 
HETATM   24  O   UNL     1      -9.257  11.482  68.709  1.00  0.00    -0.320 OA 
HETATM   25  C   UNL     1      -9.372   9.278  69.603  1.00  0.00    -0.187 A  
HETATM   26  H   UNL     1      -8.474  11.224  68.237  1.00  0.00     0.000 HD 
ENDBRANCH   9  14
ENDBRANCH   5   8
ENDBRANCH   2   3
TORSDOF 5
ENDMDL
MODEL      175
REMARK 921   NORMALIZED FREE ENERGY PREDICTED BY IDOCK:   -4.22 KCAL/MOL
REMARK 922        TOTAL FREE ENERGY PREDICTED BY IDOCK:   -5.57 KCAL/MOL
REMARK 923 INTER-LIGAND FREE ENERGY PREDICTED BY IDOCK:   -5.03 KCAL/MOL
REMARK 924 INTRA-LIGAND FREE ENERGY PREDICTED BY IDOCK:   -0.54 KCAL/MOL
REMARK 927      BINDING AFFINITY PREDICTED BY RF-SCORE:    0.00 PKD
ROOT
HETATM    1  C   UNL     1     -12.212  14.291  65.756  1.00  0.00    -0.415 C  
HETATM    2  C   UNL     1     -10.723  14.256  66.078  1.00  0.00    -0.304 C  
ENDROOT
BRANCH   2   3
HETATM    3  N   UNL     1     -10.329  13.116  66.920  1.00  0.00    -0.245 N  
HETATM    4  O   UNL     1      -9.787  11.949  65.020  1.00  0.00    -0.247 OA 
HETATM    5  C   UNL     1      -9.916  11.955  66.250  1.00  0.00    -0.220 C  
BRANCH   3   6
HETATM    6  C   UNL     1     -10.404  13.244  68.383  1.00  0.00    -0.251 C  
HETATM    7  C   UNL     1     -11.616  12.715  69.133  1.00  0.00    -0.374 C  
ENDBRANCH   3   6
BRANCH   5   8
HETATM    8  C   UNL     1      -9.611  10.676  66.982  1.00  0.00    -0.196 C  
HETATM    9  C   UNL     1     -10.571   9.728  67.115  1.00  0.00    -0.298 C  
BRANCH   8  10
HETATM   10  C   UNL     1      -8.260  10.360  67.603  1.00  0.00    -0.110 C  
HETATM   11  H2  UNL     1      -7.093   9.533  67.267  1.00  0.00     0.000 HD 
HETATM   12  N   UNL     1      -7.139  10.097  68.116  1.00  0.00    -0.078 NA 
HETATM   13  H1  UNL     1      -6.232   9.885  68.533  1.00  0.00     0.000 HD 
ENDBRANCH   8  10
BRANCH   9  14
HETATM   14  C   UNL     1     -10.362   8.420  67.785  1.00  0.00    -0.297 A  
HETATM   15  C   UNL     1     -10.287   7.230  67.041  1.00  0.00    -0.376 A  
HETATM   16  C   UNL     1     -10.164   5.985  67.695  1.00  0.00    -0.181 A  
HETATM   17  C   UNL     1     -10.094   5.921  69.089  1.00  0.00    -0.190 A  
HETATM   18  N   UNL     1     -10.109   4.756  66.899  1.00  0.00    -0.216 N  
HETATM   19  C   UNL     1     -10.159   7.112  69.814  1.00  0.00    -0.195 A  
HETATM   20  O   UNL     1     -10.033   3.678  67.510  1.00  0.00    -0.029 OA 
HETATM   21  O   UNL     1     -10.140   4.863  65.664  1.00  0.00    -0.177 OA 
HETATM   22  O   UNL     1      -9.971   4.779  69.843  1.00  0.00    -0.208 OA 
HETATM   23  H   UNL     1      -9.923   4.736  70.791  1.00  0.00     0.000 HD 
HETATM   24  O   UNL     1     -10.094   7.069  71.181  1.00  0.00    -0.188 OA 
HETATM   25  C   UNL     1     -10.297   8.348  69.182  1.00  0.00    -0.229 A  
HETATM   26  H   UNL     1     -10.138   7.879  71.675  1.00  0.00     0.000 HD 
ENDBRANCH   9  14
ENDBRANCH   5   8
ENDBRANCH   2   3
TORSDOF 5
ENDMDL
MODEL      176
REMARK 921   NORMALIZED FREE ENERGY PREDICTED BY IDOCK:   -4.22 KCAL/MOL
REMARK 922        TOTAL FREE ENERGY PREDICTED BY IDOCK:   -5.57 KCAL/MOL
REMARK 923 INTER-LIGAND FREE ENERGY PREDICTED BY IDOCK:   -4.97 KCAL/MOL
REMARK 924 INTRA-LIGAND FREE ENERGY PREDICTED BY IDOCK:   -0.59 KCAL/MOL
REMARK 927      BINDING AFFINITY PREDICTED BY RF-SCORE:    0.00 PKD
ROOT
HETATM    1  C   UNL     1     -11.948  15.084  64.371  1.00  0.00    -0.366 C  
HETATM    2  C   UNL     1     -12.299  14.180  65.545  1.00  0.00    -0.458 C  
ENDROOT
BRANCH   2   3
HETATM    3  N   UNL     1     -11.428  12.999  65.661  1.00  0.00    -0.321 N  
HETATM    4  O   UNL     1     -12.357  12.563  67.714  1.00  0.00    -0.266 OA 
HETATM    5  C   UNL     1     -11.510  12.276  66.860  1.00  0.00    -0.356 C  
BRANCH   3   6
HETATM    6  C   UNL     1     -10.529  12.659  64.549  1.00  0.00    -0.355 C  
HETATM    7  C   UNL     1     -10.929  11.587  63.547  1.00  0.00    -0.453 C  
ENDBRANCH   3   6
BRANCH   5   8
HETATM    8  C   UNL     1     -10.586  11.127  67.164  1.00  0.00    -0.286 C  
HETATM    9  C   UNL     1     -10.972   9.858  66.886  1.00  0.00    -0.047 C  
BRANCH   8  10
HETATM   10  C   UNL     1      -9.205  11.294  67.778  1.00  0.00    -0.156 C  
HETATM   11  H2  UNL     1      -8.316  12.409  68.130  1.00  0.00     0.000 HD 
HETATM   12  N   UNL     1      -8.061  11.433  68.288  1.00  0.00    -0.136 NA 
HETATM   13  H1  UNL     1      -7.135  11.545  68.700  1.00  0.00     0.000 HD 
ENDBRANCH   8  10
BRANCH   9  14
HETATM   14  C   UNL     1     -10.123   8.662  67.112  1.00  0.00    -0.329 A  
HETATM   15  C   UNL     1     -10.240   7.901  68.289  1.00  0.00    -0.240 A  
HETATM   16  C   UNL     1      -9.376   6.812  68.527  1.00  0.00    -0.126 A  
HETATM   17  C   UNL     1      -8.405   6.461  67.584  1.00  0.00    -0.117 A  
HETATM   18  N   UNL     1      -9.504   6.048  69.770  1.00  0.00    -0.148 N  
HETATM   19  C   UNL     1      -8.307   7.216  66.415  1.00  0.00    -0.125 A  
HETATM   20  O   UNL     1      -8.705   5.116  69.957  1.00  0.00    -0.104 OA 
HETATM   21  O   UNL     1     -10.400   6.374  70.561  1.00  0.00    -0.192 OA 
HETATM   22  O   UNL     1      -7.509   5.424  67.692  1.00  0.00    -0.081 OA 
HETATM   23  H   UNL     1      -6.849   5.185  67.051  1.00  0.00     0.000 HD 
HETATM   24  O   UNL     1      -7.362   6.888  65.482  1.00  0.00    -0.074 OA 
HETATM   25  C   UNL     1      -9.144   8.306  66.176  1.00  0.00    -0.238 A  
HETATM   26  H   UNL     1      -7.295   7.402  64.685  1.00  0.00     0.000 HD 
ENDBRANCH   9  14
ENDBRANCH   5   8
ENDBRANCH   2   3
TORSDOF 5
ENDMDL
MODEL      177
REMARK 921   NORMALIZED FREE ENERGY PREDICTED BY IDOCK:   -4.18 KCAL/MOL
REMARK 922        TOTAL FREE ENERGY PREDICTED BY IDOCK:   -5.52 KCAL/MOL
REMARK 923 INTER-LIGAND FREE ENERGY PREDICTED BY IDOCK:   -5.02 KCAL/MOL
REMARK 924 INTRA-LIGAND FREE ENERGY PREDICTED BY IDOCK:   -0.50 KCAL/MOL
REMARK 927      BINDING AFFINITY PREDICTED BY RF-SCORE:    0.00 PKD
ROOT
HETATM    1  C   UNL     1      -8.278   4.097  67.862  1.00  0.00    -0.093 C  
HETATM    2  C   UNL     1      -8.264   4.925  69.141  1.00  0.00    -0.078 C  
ENDROOT
BRANCH   2   3
HETATM    3  N   UNL     1      -8.169   6.374  68.903  1.00  0.00    -0.117 N  
HETATM    4  O   UNL     1      -9.794   6.702  70.490  1.00  0.00    -0.175 OA 
HETATM    5  C   UNL     1      -9.058   7.186  69.622  1.00  0.00    -0.140 C  
BRANCH   3   6
HETATM    6  C   UNL     1      -7.183   6.880  67.936  1.00  0.00    -0.095 C  
HETATM    7  C   UNL     1      -7.634   7.326  66.554  1.00  0.00    -0.092 C  
ENDBRANCH   3   6
BRANCH   5   8
HETATM    8  C   UNL     1      -9.158   8.668  69.381  1.00  0.00    -0.149 C  
HETATM    9  C   UNL     1     -10.164   9.162  68.618  1.00  0.00    -0.225 C  
BRANCH   8  10
HETATM   10  C   UNL     1      -8.182   9.685  69.951  1.00  0.00    -0.174 C  
HETATM   11  H2  UNL     1      -8.107  10.553  71.133  1.00  0.00     0.000 HD 
HETATM   12  N   UNL     1      -7.373  10.527  70.424  1.00  0.00    -0.454 NA 
HETATM   13  H1  UNL     1      -6.718  11.209  70.807  1.00  0.00     0.000 HD 
ENDBRANCH   8  10
BRANCH   9  14
HETATM   14  C   UNL     1     -10.373  10.607  68.351  1.00  0.00    -0.197 A  
HETATM   15  C   UNL     1     -11.055  11.423  69.270  1.00  0.00    -0.313 A  
HETATM   16  C   UNL     1     -11.315  12.777  68.971  1.00  0.00    -0.294 A  
HETATM   17  C   UNL     1     -10.878  13.331  67.764  1.00  0.00    -0.252 A  
HETATM   18  N   UNL     1     -12.046  13.601  69.936  1.00  0.00    -0.337 N  
HETATM   19  C   UNL     1     -10.192  12.513  66.865  1.00  0.00    -0.226 A  
HETATM   20  O   UNL     1     -12.283  14.779  69.623  1.00  0.00    -0.306 OA 
HETATM   21  O   UNL     1     -12.384  13.077  71.007  1.00  0.00    -0.355 OA 
HETATM   22  O   UNL     1     -11.061  14.630  67.355  1.00  0.00    -0.304 OA 
HETATM   23  H   UNL     1     -10.763  15.006  66.535  1.00  0.00     0.000 HD 
HETATM   24  O   UNL     1      -9.757  13.037  65.678  1.00  0.00    -0.423 OA 
HETATM   25  C   UNL     1      -9.944  11.168  67.141  1.00  0.00    -0.215 A  
HETATM   26  H   UNL     1      -9.290  12.481  65.066  1.00  0.00     0.000 HD 
ENDBRANCH   9  14
ENDBRANCH   5   8
ENDBRANCH   2   3
TORSDOF 5
ENDMDL
MODEL      178
REMARK 921   NORMALIZED FREE ENERGY PREDICTED BY IDOCK:   -4.18 KCAL/MOL
REMARK 922        TOTAL FREE ENERGY PREDICTED BY IDOCK:   -5.51 KCAL/MOL
REMARK 923 INTER-LIGAND FREE ENERGY PREDICTED BY IDOCK:   -5.36 KCAL/MOL
REMARK 924 INTRA-LIGAND FREE ENERGY PREDICTED BY IDOCK:   -0.15 KCAL/MOL
REMARK 927      BINDING AFFINITY PREDICTED BY RF-SCORE:    0.00 PKD
ROOT
HETATM    1  C   UNL     1     -13.214  12.633  71.603  1.00  0.00    -0.394 C  
HETATM    2  C   UNL     1     -13.275  11.183  72.066  1.00  0.00    -0.323 C  
ENDROOT
BRANCH   2   3
HETATM    3  N   UNL     1     -12.558  10.251  71.181  1.00  0.00    -0.365 N  
HETATM    4  O   UNL     1     -12.319   8.813  72.954  1.00  0.00    -0.236 OA 
HETATM    5  C   UNL     1     -12.060   9.083  71.775  1.00  0.00    -0.368 C  
BRANCH   3   6
HETATM    6  C   UNL     1     -12.391  10.594  69.761  1.00  0.00    -0.194 C  
HETATM    7  C   UNL     1     -11.325  11.592  69.340  1.00  0.00    -0.342 C  
ENDBRANCH   3   6
BRANCH   5   8
HETATM    8  C   UNL     1     -11.198   8.108  71.018  1.00  0.00    -0.284 C  
HETATM    9  C   UNL     1     -11.761   7.027  70.425  1.00  0.00    -0.326 C  
BRANCH   8  10
HETATM   10  C   UNL     1      -9.692   8.253  70.866  1.00  0.00    -0.172 C  
HETATM   11  H2  UNL     1      -8.674   7.876  69.877  1.00  0.00     0.000 HD 
HETATM   12  N   UNL     1      -8.444   8.374  70.738  1.00  0.00    -0.129 NA 
HETATM   13  H1  UNL     1      -7.434   8.471  70.635  1.00  0.00     0.000 HD 
ENDBRANCH   8  10
BRANCH   9  14
HETATM   14  C   UNL     1     -11.007   6.029  69.627  1.00  0.00    -0.470 A  
HETATM   15  C   UNL     1     -10.399   4.919  70.240  1.00  0.00    -0.252 A  
HETATM   16  C   UNL     1      -9.621   4.019  69.481  1.00  0.00    -0.195 A  
HETATM   17  C   UNL     1      -9.463   4.206  68.106  1.00  0.00    -0.158 A  
HETATM   18  N   UNL     1      -8.981   2.882  70.147  1.00  0.00    -0.091 N  
HETATM   19  C   UNL     1     -10.081   5.305  67.507  1.00  0.00    -0.179 A  
HETATM   20  O   UNL     1      -8.279   2.130  69.452  1.00  0.00    -0.044 OA 
HETATM   21  O   UNL     1      -9.176   2.736  71.362  1.00  0.00    -0.097 OA 
HETATM   22  O   UNL     1      -8.739   3.404  67.256  1.00  0.00    -0.103 OA 
HETATM   23  H   UNL     1      -8.632   3.531  66.321  1.00  0.00     0.000 HD 
HETATM   24  O   UNL     1      -9.937   5.506  66.161  1.00  0.00    -0.253 OA 
HETATM   25  C   UNL     1     -10.839   6.212  68.248  1.00  0.00    -0.387 A  
HETATM   26  H   UNL     1     -10.358   6.254  65.753  1.00  0.00     0.000 HD 
ENDBRANCH   9  14
ENDBRANCH   5   8
ENDBRANCH   2   3
TORSDOF 5
ENDMDL
MODEL      179
REMARK 921   NORMALIZED FREE ENERGY PREDICTED BY IDOCK:   -4.18 KCAL/MOL
REMARK 922        TOTAL FREE ENERGY PREDICTED BY IDOCK:   -5.51 KCAL/MOL
REMARK 923 INTER-LIGAND FREE ENERGY PREDICTED BY IDOCK:   -5.88 KCAL/MOL
REMARK 924 INTRA-LIGAND FREE ENERGY PREDICTED BY IDOCK:    0.37 KCAL/MOL
REMARK 927      BINDING AFFINITY PREDICTED BY RF-SCORE:    0.00 PKD
ROOT
HETATM    1  C   UNL     1      -7.171   4.652  66.448  1.00  0.00    -0.076 C  
HETATM    2  C   UNL     1      -8.388   5.143  65.673  1.00  0.00    -0.123 C  
ENDROOT
BRANCH   2   3
HETATM    3  N   UNL     1      -8.598   6.596  65.764  1.00  0.00    -0.151 N  
HETATM    4  O   UNL     1      -9.956   6.247  67.581  1.00  0.00    -0.120 OA 
HETATM    5  C   UNL     1      -9.480   7.040  66.760  1.00  0.00    -0.163 C  
BRANCH   3   6
HETATM    6  C   UNL     1      -7.902   7.483  64.820  1.00  0.00    -0.126 C  
HETATM    7  C   UNL     1      -7.358   6.926  63.514  1.00  0.00    -0.081 C  
ENDBRANCH   3   6
BRANCH   5   8
HETATM    8  C   UNL     1      -9.886   8.484  66.881  1.00  0.00    -0.310 C  
HETATM    9  C   UNL     1      -9.565   9.361  65.898  1.00  0.00    -0.338 C  
BRANCH   8  10
HETATM   10  C   UNL     1     -10.656   9.050  68.064  1.00  0.00    -0.186 C  
HETATM   11  H2  UNL     1     -10.423   9.240  69.502  1.00  0.00     0.000 HD 
HETATM   12  N   UNL     1     -11.293   9.518  69.046  1.00  0.00    -0.455 NA 
HETATM   13  H1  UNL     1     -11.809   9.897  69.840  1.00  0.00     0.000 HD 
ENDBRANCH   8  10
BRANCH   9  14
HETATM   14  C   UNL     1      -9.950  10.795  65.903  1.00  0.00    -0.304 A  
HETATM   15  C   UNL     1     -11.121  11.233  65.262  1.00  0.00    -0.146 A  
HETATM   16  C   UNL     1     -11.436  12.607  65.208  1.00  0.00    -0.331 A  
HETATM   17  C   UNL     1     -10.599  13.549  65.811  1.00  0.00    -0.283 A  
HETATM   18  N   UNL     1     -12.653  13.041  64.516  1.00  0.00    -0.355 N  
HETATM   19  C   UNL     1      -9.444  13.100  66.454  1.00  0.00    -0.220 A  
HETATM   20  O   UNL     1     -12.880  14.261  64.462  1.00  0.00    -0.637 OA 
HETATM   21  O   UNL     1     -13.383  12.169  64.025  1.00  0.00    -0.706 OA 
HETATM   22  O   UNL     1     -10.793  14.910  65.834  1.00  0.00    -0.315 OA 
HETATM   23  H   UNL     1     -10.223  15.550  66.245  1.00  0.00     0.000 HD 
HETATM   24  O   UNL     1      -8.611  14.007  67.049  1.00  0.00    -0.255 OA 
HETATM   25  C   UNL     1      -9.112  11.745  66.500  1.00  0.00    -0.203 A  
HETATM   26  H   UNL     1      -7.825  13.702  67.487  1.00  0.00     0.000 HD 
ENDBRANCH   9  14
ENDBRANCH   5   8
ENDBRANCH   2   3
TORSDOF 5
ENDMDL
MODEL      180
REMARK 921   NORMALIZED FREE ENERGY PREDICTED BY IDOCK:   -4.17 KCAL/MOL
REMARK 922        TOTAL FREE ENERGY PREDICTED BY IDOCK:   -5.50 KCAL/MOL
REMARK 923 INTER-LIGAND FREE ENERGY PREDICTED BY IDOCK:   -5.81 KCAL/MOL
REMARK 924 INTRA-LIGAND FREE ENERGY PREDICTED BY IDOCK:    0.31 KCAL/MOL
REMARK 927      BINDING AFFINITY PREDICTED BY RF-SCORE:    0.00 PKD
ROOT
HETATM    1  C   UNL     1     -14.353  15.089  71.540  1.00  0.00    -0.651 C  
HETATM    2  C   UNL     1     -13.313  14.109  72.070  1.00  0.00    -0.415 C  
ENDROOT
BRANCH   2   3
HETATM    3  N   UNL     1     -12.501  13.485  71.014  1.00  0.00    -0.373 N  
HETATM    4  O   UNL     1     -13.384  11.447  71.593  1.00  0.00    -0.356 OA 
HETATM    5  C   UNL     1     -12.581  12.089  70.906  1.00  0.00    -0.253 C  
BRANCH   3   6
HETATM    6  C   UNL     1     -11.656  14.334  70.161  1.00  0.00    -0.246 C  
HETATM    7  C   UNL     1     -12.142  15.711  69.738  1.00  0.00    -0.346 C  
ENDBRANCH   3   6
BRANCH   5   8
HETATM    8  C   UNL     1     -11.708  11.310  69.959  1.00  0.00    -0.428 C  
HETATM    9  C   UNL     1     -10.806  10.422  70.446  1.00  0.00    -0.257 C  
BRANCH   8  10
HETATM   10  C   UNL     1     -11.766  11.451  68.446  1.00  0.00    -0.303 C  
HETATM   11  H2  UNL     1     -12.546  12.224  67.471  1.00  0.00     0.000 HD 
HETATM   12  N   UNL     1     -11.815  11.569  67.192  1.00  0.00    -0.572 NA 
HETATM   13  H1  UNL     1     -11.855  11.664  66.177  1.00  0.00     0.000 HD 
ENDBRANCH   8  10
BRANCH   9  14
HETATM   14  C   UNL     1      -9.926   9.580  69.598  1.00  0.00    -0.220 A  
HETATM   15  C   UNL     1     -10.363   8.335  69.113  1.00  0.00    -0.225 A  
HETATM   16  C   UNL     1      -9.491   7.509  68.373  1.00  0.00    -0.148 A  
HETATM   17  C   UNL     1      -8.188   7.928  68.093  1.00  0.00    -0.123 A  
HETATM   18  N   UNL     1      -9.963   6.207  67.896  1.00  0.00    -0.126 N  
HETATM   19  C   UNL     1      -7.770   9.171  68.571  1.00  0.00    -0.093 A  
HETATM   20  O   UNL     1      -9.157   5.495  67.274  1.00  0.00    -0.112 OA 
HETATM   21  O   UNL     1     -11.137   5.891  68.138  1.00  0.00    -0.251 OA 
HETATM   22  O   UNL     1      -7.245   7.224  67.382  1.00  0.00    -0.084 OA 
HETATM   23  H   UNL     1      -6.359   7.510  67.191  1.00  0.00     0.000 HD 
HETATM   24  O   UNL     1      -6.496   9.598  68.308  1.00  0.00    -0.056 OA 
HETATM   25  C   UNL     1      -8.616   9.990  69.319  1.00  0.00    -0.172 A  
HETATM   26  H   UNL     1      -6.212  10.444  68.633  1.00  0.00     0.000 HD 
ENDBRANCH   9  14
ENDBRANCH   5   8
ENDBRANCH   2   3
TORSDOF 5
ENDMDL
MODEL      181
REMARK 921   NORMALIZED FREE ENERGY PREDICTED BY IDOCK:   -4.13 KCAL/MOL
REMARK 922        TOTAL FREE ENERGY PREDICTED BY IDOCK:   -5.46 KCAL/MOL
REMARK 923 INTER-LIGAND FREE ENERGY PREDICTED BY IDOCK:   -5.06 KCAL/MOL
REMARK 924 INTRA-LIGAND FREE ENERGY PREDICTED BY IDOCK:   -0.40 KCAL/MOL
REMARK 927      BINDING AFFINITY PREDICTED BY RF-SCORE:    0.00 PKD
ROOT
HETATM    1  C   UNL     1     -12.988  13.330  71.806  1.00  0.00    -0.430 C  
HETATM    2  C   UNL     1     -12.901  11.900  71.286  1.00  0.00    -0.290 C  
ENDROOT
BRANCH   2   3
HETATM    3  N   UNL     1     -12.090  11.766  70.066  1.00  0.00    -0.323 N  
HETATM    4  O   UNL     1     -11.713   9.567  70.606  1.00  0.00    -0.270 OA 
HETATM    5  C   UNL     1     -11.478  10.521  69.855  1.00  0.00    -0.310 C  
BRANCH   3   6
HETATM    6  C   UNL     1     -11.954  12.918  69.163  1.00  0.00    -0.259 C  
HETATM    7  C   UNL     1     -10.673  13.737  69.163  1.00  0.00    -0.154 C  
ENDBRANCH   3   6
BRANCH   5   8
HETATM    8  C   UNL     1     -10.519  10.286  68.720  1.00  0.00    -0.222 C  
HETATM    9  C   UNL     1     -10.987   9.897  67.509  1.00  0.00    -0.239 C  
BRANCH   8  10
HETATM   10  C   UNL     1      -9.012  10.459  68.836  1.00  0.00    -0.169 C  
HETATM   11  H2  UNL     1      -8.070  11.576  68.981  1.00  0.00     0.000 HD 
HETATM   12  N   UNL     1      -7.764  10.604  68.933  1.00  0.00    -0.112 NA 
HETATM   13  H1  UNL     1      -6.754  10.720  69.012  1.00  0.00     0.000 HD 
ENDBRANCH   8  10
BRANCH   9  14
HETATM   14  C   UNL     1     -10.132   9.674  66.317  1.00  0.00    -0.322 A  
HETATM   15  C   UNL     1      -9.416   8.475  66.151  1.00  0.00    -0.286 A  
HETATM   16  C   UNL     1      -8.547   8.307  65.053  1.00  0.00    -0.075 A  
HETATM   17  C   UNL     1      -8.402   9.321  64.103  1.00  0.00    -0.176 A  
HETATM   18  N   UNL     1      -7.796   7.056  64.914  1.00  0.00    -0.120 N  
HETATM   19  C   UNL     1      -9.127  10.502  64.273  1.00  0.00    -0.228 A  
HETATM   20  O   UNL     1      -7.017   6.957  63.952  1.00  0.00    -0.051 OA 
HETATM   21  O   UNL     1      -7.981   6.171  65.762  1.00  0.00    -0.104 OA 
HETATM   22  O   UNL     1      -7.595   9.281  62.991  1.00  0.00    -0.105 OA 
HETATM   23  H   UNL     1      -7.497   9.970  62.344  1.00  0.00     0.000 HD 
HETATM   24  O   UNL     1      -8.997  11.507  63.353  1.00  0.00    -0.472 OA 
HETATM   25  C   UNL     1      -9.977  10.689  65.363  1.00  0.00    -0.343 A  
HETATM   26  H   UNL     1      -9.490  12.311  63.468  1.00  0.00     0.000 HD 
ENDBRANCH   9  14
ENDBRANCH   5   8
ENDBRANCH   2   3
TORSDOF 5
ENDMDL
MODEL      182
REMARK 921   NORMALIZED FREE ENERGY PREDICTED BY IDOCK:   -4.12 KCAL/MOL
REMARK 922        TOTAL FREE ENERGY PREDICTED BY IDOCK:   -5.45 KCAL/MOL
REMARK 923 INTER-LIGAND FREE ENERGY PREDICTED BY IDOCK:   -5.46 KCAL/MOL
REMARK 924 INTRA-LIGAND FREE ENERGY PREDICTED BY IDOCK:    0.01 KCAL/MOL
REMARK 927      BINDING AFFINITY PREDICTED BY RF-SCORE:    0.00 PKD
ROOT
HETATM    1  C   UNL     1      -8.263   3.072  72.073  1.00  0.00    -0.059 C  
HETATM    2  C   UNL     1      -8.101   4.457  72.686  1.00  0.00    -0.098 C  
ENDROOT
BRANCH   2   3
HETATM    3  N   UNL     1      -9.106   5.427  72.223  1.00  0.00    -0.142 N  
HETATM    4  O   UNL     1      -7.909   5.683  70.282  1.00  0.00    -0.093 OA 
HETATM    5  C   UNL     1      -8.862   6.038  70.985  1.00  0.00    -0.139 C  
BRANCH   3   6
HETATM    6  C   UNL     1     -10.274   5.710  73.070  1.00  0.00    -0.189 C  
HETATM    7  C   UNL     1     -11.424   4.718  73.136  1.00  0.00    -0.348 C  
ENDBRANCH   3   6
BRANCH   5   8
HETATM    8  C   UNL     1      -9.737   7.142  70.453  1.00  0.00    -0.176 C  
HETATM    9  C   UNL     1      -9.174   8.267  69.947  1.00  0.00    -0.154 C  
BRANCH   8  10
HETATM   10  C   UNL     1     -11.256   7.084  70.442  1.00  0.00    -0.299 C  
HETATM   11  H2  UNL     1     -12.365   8.045  70.396  1.00  0.00     0.000 HD 
HETATM   12  N   UNL     1     -12.516   7.037  70.432  1.00  0.00    -0.601 NA 
HETATM   13  H1  UNL     1     -13.535   6.998  70.424  1.00  0.00     0.000 HD 
ENDBRANCH   8  10
BRANCH   9  14
HETATM   14  C   UNL     1      -9.944   9.394  69.366  1.00  0.00    -0.189 A  
HETATM   15  C   UNL     1     -10.002   9.591  67.975  1.00  0.00    -0.198 A  
HETATM   16  C   UNL     1     -10.674  10.710  67.438  1.00  0.00    -0.276 A  
HETATM   17  C   UNL     1     -11.310  11.624  68.281  1.00  0.00    -0.285 A  
HETATM   18  N   UNL     1     -10.702  10.905  65.986  1.00  0.00    -0.189 N  
HETATM   19  C   UNL     1     -11.255  11.411  69.660  1.00  0.00    -0.230 A  
HETATM   20  O   UNL     1     -11.276  11.918  65.554  1.00  0.00    -0.317 OA 
HETATM   21  O   UNL     1     -10.154  10.051  65.276  1.00  0.00    -0.321 OA 
HETATM   22  O   UNL     1     -11.999  12.747  67.888  1.00  0.00    -0.346 OA 
HETATM   23  H   UNL     1     -12.432  13.368  68.461  1.00  0.00     0.000 HD 
HETATM   24  O   UNL     1     -11.871  12.296  70.501  1.00  0.00    -0.509 OA 
HETATM   25  C   UNL     1     -10.580  10.318  70.205  1.00  0.00    -0.303 A  
HETATM   26  H   UNL     1     -11.835  12.151  71.439  1.00  0.00     0.000 HD 
ENDBRANCH   9  14
ENDBRANCH   5   8
ENDBRANCH   2   3
TORSDOF 5
ENDMDL
MODEL      183
REMARK 921   NORMALIZED FREE ENERGY PREDICTED BY IDOCK:   -4.11 KCAL/MOL
REMARK 922        TOTAL FREE ENERGY PREDICTED BY IDOCK:   -5.43 KCAL/MOL
REMARK 923 INTER-LIGAND FREE ENERGY PREDICTED BY IDOCK:   -4.99 KCAL/MOL
REMARK 924 INTRA-LIGAND FREE ENERGY PREDICTED BY IDOCK:   -0.43 KCAL/MOL
REMARK 927      BINDING AFFINITY PREDICTED BY RF-SCORE:    0.00 PKD
ROOT
HETATM    1  C   UNL     1      -9.761   3.113  71.383  1.00  0.00    -0.219 C  
HETATM    2  C   UNL     1      -8.874   4.242  71.889  1.00  0.00    -0.112 C  
ENDROOT
BRANCH   2   3
HETATM    3  N   UNL     1      -9.308   5.577  71.446  1.00  0.00    -0.146 N  
HETATM    4  O   UNL     1      -8.080   5.296  69.527  1.00  0.00    -0.091 OA 
HETATM    5  C   UNL     1      -8.780   6.035  70.231  1.00  0.00    -0.143 C  
BRANCH   3   6
HETATM    6  C   UNL     1     -10.235   6.347  72.288  1.00  0.00    -0.185 C  
HETATM    7  C   UNL     1     -11.717   6.386  71.950  1.00  0.00    -0.378 C  
ENDBRANCH   3   6
BRANCH   5   8
HETATM    8  C   UNL     1      -9.036   7.429  69.724  1.00  0.00    -0.141 C  
HETATM    9  C   UNL     1      -9.990   7.642  68.785  1.00  0.00    -0.178 C  
BRANCH   8  10
HETATM   10  C   UNL     1      -8.277   8.656  70.206  1.00  0.00    -0.119 C  
HETATM   11  H2  UNL     1      -8.471   9.708  71.212  1.00  0.00     0.000 HD 
HETATM   12  N   UNL     1      -7.650   9.672  70.607  1.00  0.00    -0.276 NA 
HETATM   13  H1  UNL     1      -7.141  10.495  70.931  1.00  0.00     0.000 HD 
ENDBRANCH   8  10
BRANCH   9  14
HETATM   14  C   UNL     1     -10.345   8.979  68.248  1.00  0.00    -0.252 A  
HETATM   15  C   UNL     1     -10.961   9.947  69.061  1.00  0.00    -0.223 A  
HETATM   16  C   UNL     1     -11.363  11.186  68.519  1.00  0.00    -0.282 A  
HETATM   17  C   UNL     1     -11.134  11.477  67.172  1.00  0.00    -0.297 A  
HETATM   18  N   UNL     1     -12.022  12.170  69.382  1.00  0.00    -0.295 N  
HETATM   19  C   UNL     1     -10.511  10.512  66.378  1.00  0.00    -0.192 A  
HETATM   20  O   UNL     1     -12.390  13.236  68.862  1.00  0.00    -0.178 OA 
HETATM   21  O   UNL     1     -12.175  11.882  70.578  1.00  0.00    -0.362 OA 
HETATM   22  O   UNL     1     -11.471  12.642  66.525  1.00  0.00    -0.313 OA 
HETATM   23  H   UNL     1     -11.314  12.840  65.609  1.00  0.00     0.000 HD 
HETATM   24  O   UNL     1     -10.279  10.779  65.056  1.00  0.00    -0.284 OA 
HETATM   25  C   UNL     1     -10.124   9.276  66.897  1.00  0.00    -0.324 A  
HETATM   26  H   UNL     1      -9.855  10.123  64.516  1.00  0.00     0.000 HD 
ENDBRANCH   9  14
ENDBRANCH   5   8
ENDBRANCH   2   3
TORSDOF 5
ENDMDL
MODEL      184
REMARK 921   NORMALIZED FREE ENERGY PREDICTED BY IDOCK:   -4.10 KCAL/MOL
REMARK 922        TOTAL FREE ENERGY PREDICTED BY IDOCK:   -5.42 KCAL/MOL
REMARK 923 INTER-LIGAND FREE ENERGY PREDICTED BY IDOCK:   -5.11 KCAL/MOL
REMARK 924 INTRA-LIGAND FREE ENERGY PREDICTED BY IDOCK:   -0.31 KCAL/MOL
REMARK 927      BINDING AFFINITY PREDICTED BY RF-SCORE:    0.00 PKD
ROOT
HETATM    1  C   UNL     1      -9.525  10.317  63.193  1.00  0.00    -0.337 C  
HETATM    2  C   UNL     1      -9.996  10.612  64.611  1.00  0.00    -0.337 C  
ENDROOT
BRANCH   2   3
HETATM    3  N   UNL     1      -9.953  12.041  64.960  1.00  0.00    -0.253 N  
HETATM    4  O   UNL     1      -8.668  11.516  66.788  1.00  0.00    -0.167 OA 
HETATM    5  C   UNL     1      -9.283  12.375  66.146  1.00  0.00    -0.101 C  
BRANCH   3   6
HETATM    6  C   UNL     1     -10.614  13.016  64.080  1.00  0.00    -0.397 C  
HETATM    7  C   UNL     1     -12.129  13.020  63.952  1.00  0.00    -0.541 C  
ENDBRANCH   3   6
BRANCH   5   8
HETATM    8  C   UNL     1      -9.274  13.779  66.689  1.00  0.00    -0.238 C  
HETATM    9  C   UNL     1     -10.445  14.415  66.939  1.00  0.00    -0.269 C  
BRANCH   8  10
HETATM   10  C   UNL     1      -8.005  14.562  66.988  1.00  0.00    -0.041 C  
HETATM   11  H2  UNL     1      -7.338  15.762  66.467  1.00  0.00     0.000 HD 
HETATM   12  N   UNL     1      -6.953  15.211  67.234  1.00  0.00    -0.241 NA 
HETATM   13  H1  UNL     1      -6.102  15.736  67.435  1.00  0.00     0.000 HD 
ENDBRANCH   8  10
BRANCH   9  14
HETATM   14  C   UNL     1     -10.546  15.781  67.509  1.00  0.00    -0.309 A  
HETATM   15  C   UNL     1     -10.515  16.916  66.679  1.00  0.00    -0.257 A  
HETATM   16  C   UNL     1     -10.535  18.212  67.238  1.00  0.00    -0.393 A  
HETATM   17  C   UNL     1     -10.607  18.384  68.623  1.00  0.00     0.039 A  
HETATM   18  N   UNL     1     -10.481  19.378  66.354  1.00  0.00    -0.460 N  
HETATM   19  C   UNL     1     -10.648  17.249  69.435  1.00  0.00    -0.079 A  
HETATM   20  O   UNL     1     -10.468  20.501  66.884  1.00  0.00    -0.200 OA 
HETATM   21  O   UNL     1     -10.452  19.179  65.131  1.00  0.00    -0.172 OA 
HETATM   22  O   UNL     1     -10.637  19.585  69.290  1.00  0.00    -0.419 OA 
HETATM   23  H   UNL     1     -10.687  19.702  70.232  1.00  0.00     0.000 HD 
HETATM   24  O   UNL     1     -10.717  17.397  70.793  1.00  0.00     0.301 OA 
HETATM   25  C   UNL     1     -10.612  15.962  68.896  1.00  0.00    -0.244 A  
HETATM   26  H   UNL     1     -10.746  16.625  71.346  1.00  0.00     0.000 HD 
ENDBRANCH   9  14
ENDBRANCH   5   8
ENDBRANCH   2   3
TORSDOF 5
ENDMDL
MODEL      185
REMARK 921   NORMALIZED FREE ENERGY PREDICTED BY IDOCK:   -4.08 KCAL/MOL
REMARK 922        TOTAL FREE ENERGY PREDICTED BY IDOCK:   -5.39 KCAL/MOL
REMARK 923 INTER-LIGAND FREE ENERGY PREDICTED BY IDOCK:   -5.18 KCAL/MOL
REMARK 924 INTRA-LIGAND FREE ENERGY PREDICTED BY IDOCK:   -0.21 KCAL/MOL
REMARK 927      BINDING AFFINITY PREDICTED BY RF-SCORE:    0.00 PKD
ROOT
HETATM    1  C   UNL     1     -11.749  11.901  67.024  1.00  0.00    -0.304 C  
HETATM    2  C   UNL     1     -10.722  12.062  68.137  1.00  0.00    -0.216 C  
ENDROOT
BRANCH   2   3
HETATM    3  N   UNL     1     -10.173  13.423  68.238  1.00  0.00    -0.245 N  
HETATM    4  O   UNL     1      -8.560  12.845  66.711  1.00  0.00    -0.168 OA 
HETATM    5  C   UNL     1      -9.014  13.688  67.494  1.00  0.00    -0.209 C  
BRANCH   3   6
HETATM    6  C   UNL     1     -10.840  14.405  69.106  1.00  0.00    -0.257 C  
HETATM    7  C   UNL     1     -11.865  13.942  70.130  1.00  0.00    -0.368 C  
ENDBRANCH   3   6
BRANCH   5   8
HETATM    8  C   UNL     1      -8.274  14.994  67.605  1.00  0.00    -0.181 C  
HETATM    9  C   UNL     1      -8.845  16.135  67.148  1.00  0.00    -0.218 C  
BRANCH   8  10
HETATM   10  C   UNL     1      -6.887  15.130  68.214  1.00  0.00    -0.117 C  
HETATM   11  H2  UNL     1      -5.562  14.532  68.006  1.00  0.00     0.000 HD 
HETATM   12  N   UNL     1      -5.737  15.242  68.718  1.00  0.00    -0.088 NA 
HETATM   13  H1  UNL     1      -4.807  15.333  69.126  1.00  0.00     0.000 HD 
ENDBRANCH   8  10
BRANCH   9  14
HETATM   14  C   UNL     1      -8.217  17.476  67.244  1.00  0.00    -0.222 A  
HETATM   15  C   UNL     1      -7.539  18.039  66.149  1.00  0.00    -0.285 A  
HETATM   16  C   UNL     1      -6.881  19.281  66.276  1.00  0.00    -0.215 A  
HETATM   17  C   UNL     1      -6.914  19.978  67.486  1.00  0.00    -0.249 A  
HETATM   18  N   UNL     1      -6.164  19.837  65.126  1.00  0.00    -0.241 N  
HETATM   19  C   UNL     1      -7.600  19.414  68.563  1.00  0.00    -0.334 A  
HETATM   20  O   UNL     1      -5.571  20.917  65.285  1.00  0.00    -0.205 OA 
HETATM   21  O   UNL     1      -6.190  19.201  64.063  1.00  0.00    -0.418 OA 
HETATM   22  O   UNL     1      -6.321  21.192  67.739  1.00  0.00    -0.340 OA 
HETATM   23  H   UNL     1      -6.343  21.667  68.562  1.00  0.00     0.000 HD 
HETATM   24  O   UNL     1      -7.641  20.081  69.757  1.00  0.00     0.016 OA 
HETATM   25  C   UNL     1      -8.240  18.179  68.456  1.00  0.00    -0.320 A  
HETATM   26  H   UNL     1      -8.108  19.697  70.490  1.00  0.00     0.000 HD 
ENDBRANCH   9  14
ENDBRANCH   5   8
ENDBRANCH   2   3
TORSDOF 5
ENDMDL
MODEL      186
REMARK 921   NORMALIZED FREE ENERGY PREDICTED BY IDOCK:   -4.06 KCAL/MOL
REMARK 922        TOTAL FREE ENERGY PREDICTED BY IDOCK:   -5.37 KCAL/MOL
REMARK 923 INTER-LIGAND FREE ENERGY PREDICTED BY IDOCK:   -5.28 KCAL/MOL
REMARK 924 INTRA-LIGAND FREE ENERGY PREDICTED BY IDOCK:   -0.09 KCAL/MOL
REMARK 927      BINDING AFFINITY PREDICTED BY RF-SCORE:    0.00 PKD
ROOT
HETATM    1  C   UNL     1      -9.562   5.413  69.990  1.00  0.00    -0.227 C  
HETATM    2  C   UNL     1     -10.885   6.139  69.781  1.00  0.00    -0.353 C  
ENDROOT
BRANCH   2   3
HETATM    3  N   UNL     1     -10.779   7.602  69.896  1.00  0.00    -0.249 N  
HETATM    4  O   UNL     1     -10.683   7.736  67.606  1.00  0.00    -0.225 OA 
HETATM    5  C   UNL     1     -10.619   8.314  68.698  1.00  0.00    -0.108 C  
BRANCH   3   6
HETATM    6  C   UNL     1     -10.826   8.223  71.227  1.00  0.00    -0.237 C  
HETATM    7  C   UNL     1     -11.480   7.489  72.387  1.00  0.00    -0.362 C  
ENDBRANCH   3   6
BRANCH   5   8
HETATM    8  C   UNL     1     -10.368   9.798  68.678  1.00  0.00    -0.224 C  
HETATM    9  C   UNL     1      -9.430  10.314  67.847  1.00  0.00    -0.154 C  
BRANCH   8  10
HETATM   10  C   UNL     1     -11.116  10.793  69.552  1.00  0.00    -0.278 C  
HETATM   11  H2  UNL     1     -10.968  11.358  70.899  1.00  0.00     0.000 HD 
HETATM   12  N   UNL     1     -11.734  11.617  70.277  1.00  0.00    -0.492 NA 
HETATM   13  H1  UNL     1     -12.236  12.284  70.864  1.00  0.00     0.000 HD 
ENDBRANCH   8  10
BRANCH   9  14
HETATM   14  C   UNL     1      -9.132  11.762  67.724  1.00  0.00    -0.178 A  
HETATM   15  C   UNL     1      -9.902  12.593  66.892  1.00  0.00    -0.234 A  
HETATM   16  C   UNL     1      -9.563  13.952  66.725  1.00  0.00    -0.283 A  
HETATM   17  C   UNL     1      -8.469  14.496  67.403  1.00  0.00    -0.205 A  
HETATM   18  N   UNL     1     -10.369  14.792  65.835  1.00  0.00    -0.302 N  
HETATM   19  C   UNL     1      -7.719  13.664  68.235  1.00  0.00    -0.140 A  
HETATM   20  O   UNL     1     -10.020  15.975  65.689  1.00  0.00    -0.329 OA 
HETATM   21  O   UNL     1     -11.349  14.276  65.281  1.00  0.00    -0.314 OA 
HETATM   22  O   UNL     1      -8.036  15.799  67.331  1.00  0.00    -0.145 OA 
HETATM   23  H   UNL     1      -7.293  16.169  67.792  1.00  0.00     0.000 HD 
HETATM   24  O   UNL     1      -6.643  14.178  68.906  1.00  0.00    -0.088 OA 
HETATM   25  C   UNL     1      -8.033  12.314  68.396  1.00  0.00    -0.152 A  
HETATM   26  H   UNL     1      -6.133  13.612  69.473  1.00  0.00     0.000 HD 
ENDBRANCH   9  14
ENDBRANCH   5   8
ENDBRANCH   2   3
TORSDOF 5
ENDMDL
MODEL      187
REMARK 921   NORMALIZED FREE ENERGY PREDICTED BY IDOCK:   -4.05 KCAL/MOL
REMARK 922        TOTAL FREE ENERGY PREDICTED BY IDOCK:   -5.35 KCAL/MOL
REMARK 923 INTER-LIGAND FREE ENERGY PREDICTED BY IDOCK:   -5.27 KCAL/MOL
REMARK 924 INTRA-LIGAND FREE ENERGY PREDICTED BY IDOCK:   -0.08 KCAL/MOL
REMARK 927      BINDING AFFINITY PREDICTED BY RF-SCORE:    0.00 PKD
ROOT
HETATM    1  C   UNL     1      -6.989  20.285  68.513  1.00  0.00    -0.245 C  
HETATM    2  C   UNL     1      -8.325  19.558  68.611  1.00  0.00    -0.329 C  
ENDROOT
BRANCH   2   3
HETATM    3  N   UNL     1      -8.300  18.201  68.043  1.00  0.00    -0.255 N  
HETATM    4  O   UNL     1     -10.593  18.244  67.943  1.00  0.00    -0.405 OA 
HETATM    5  C   UNL     1      -9.545  17.604  67.794  1.00  0.00    -0.267 C  
BRANCH   3   6
HETATM    6  C   UNL     1      -7.006  17.552  67.788  1.00  0.00    -0.172 C  
HETATM    7  C   UNL     1      -6.268  16.856  68.921  1.00  0.00    -0.173 C  
ENDBRANCH   3   6
BRANCH   5   8
HETATM    8  C   UNL     1      -9.668  16.175  67.337  1.00  0.00    -0.233 C  
HETATM    9  C   UNL     1      -9.465  15.164  68.218  1.00  0.00    -0.201 C  
BRANCH   8  10
HETATM   10  C   UNL     1     -10.015  15.771  65.913  1.00  0.00    -0.352 C  
HETATM   11  H2  UNL     1     -11.135  15.112  65.229  1.00  0.00     0.000 HD 
HETATM   12  N   UNL     1     -10.304  15.435  64.734  1.00  0.00    -0.519 NA 
HETATM   13  H1  UNL     1     -10.537  15.163  63.778  1.00  0.00     0.000 HD 
ENDBRANCH   8  10
BRANCH   9  14
HETATM   14  C   UNL     1      -9.599  13.726  67.878  1.00  0.00    -0.222 A  
HETATM   15  C   UNL     1     -10.495  12.897  68.575  1.00  0.00    -0.260 A  
HETATM   16  C   UNL     1     -10.558  11.515  68.295  1.00  0.00    -0.200 A  
HETATM   17  C   UNL     1      -9.745  10.957  67.305  1.00  0.00    -0.165 A  
HETATM   18  N   UNL     1     -11.485  10.669  69.049  1.00  0.00    -0.274 N  
HETATM   19  C   UNL     1      -8.867  11.793  66.613  1.00  0.00    -0.189 A  
HETATM   20  O   UNL     1     -11.489   9.453  68.796  1.00  0.00     0.190 OA 
HETATM   21  O   UNL     1     -12.211  11.212  69.894  1.00  0.00    -0.314 OA 
HETATM   22  O   UNL     1      -9.712   9.634  66.934  1.00  0.00    -0.167 OA 
HETATM   23  H   UNL     1      -9.160   9.254  66.260  1.00  0.00     0.000 HD 
HETATM   24  O   UNL     1      -8.062  11.264  65.641  1.00  0.00    -0.366 OA 
HETATM   25  C   UNL     1      -8.783  13.157  66.892  1.00  0.00    -0.156 A  
HETATM   26  H   UNL     1      -7.465  11.832  65.169  1.00  0.00     0.000 HD 
ENDBRANCH   9  14
ENDBRANCH   5   8
ENDBRANCH   2   3
TORSDOF 5
ENDMDL
MODEL      188
REMARK 921   NORMALIZED FREE ENERGY PREDICTED BY IDOCK:   -4.04 KCAL/MOL
REMARK 922        TOTAL FREE ENERGY PREDICTED BY IDOCK:   -5.34 KCAL/MOL
REMARK 923 INTER-LIGAND FREE ENERGY PREDICTED BY IDOCK:   -4.97 KCAL/MOL
REMARK 924 INTRA-LIGAND FREE ENERGY PREDICTED BY IDOCK:   -0.37 KCAL/MOL
REMARK 927      BINDING AFFINITY PREDICTED BY RF-SCORE:    0.00 PKD
ROOT
HETATM    1  C   UNL     1     -10.705  13.112  66.981  1.00  0.00    -0.270 C  
HETATM    2  C   UNL     1     -11.410  11.788  66.715  1.00  0.00    -0.320 C  
ENDROOT
BRANCH   2   3
HETATM    3  N   UNL     1     -10.795  10.644  67.408  1.00  0.00    -0.283 N  
HETATM    4  O   UNL     1     -12.203  11.011  69.182  1.00  0.00    -0.434 OA 
HETATM    5  C   UNL     1     -11.253  10.379  68.707  1.00  0.00    -0.241 C  
BRANCH   3   6
HETATM    6  C   UNL     1      -9.747   9.870  66.726  1.00  0.00    -0.192 C  
HETATM    7  C   UNL     1      -9.675   9.861  65.207  1.00  0.00    -0.383 C  
ENDBRANCH   3   6
BRANCH   5   8
HETATM    8  C   UNL     1     -10.622   9.325  69.576  1.00  0.00    -0.236 C  
HETATM    9  C   UNL     1     -11.234   8.125  69.735  1.00  0.00     0.027 C  
BRANCH   8  10
HETATM   10  C   UNL     1      -9.305   9.513  70.312  1.00  0.00    -0.259 C  
HETATM   11  H2  UNL     1      -8.552   8.810  71.358  1.00  0.00     0.000 HD 
HETATM   12  N   UNL     1      -8.214   9.669  70.923  1.00  0.00    -0.374 NA 
HETATM   13  H1  UNL     1      -7.330   9.795  71.416  1.00  0.00     0.000 HD 
ENDBRANCH   8  10
BRANCH   9  14
HETATM   14  C   UNL     1     -10.679   7.008  70.538  1.00  0.00    -0.262 A  
HETATM   15  C   UNL     1      -9.549   6.294  70.103  1.00  0.00    -0.181 A  
HETATM   16  C   UNL     1      -9.076   5.185  70.836  1.00  0.00    -0.140 A  
HETATM   17  C   UNL     1      -9.712   4.796  72.018  1.00  0.00    -0.162 A  
HETATM   18  N   UNL     1      -7.909   4.444  70.350  1.00  0.00    -0.052 N  
HETATM   19  C   UNL     1     -10.826   5.520  72.446  1.00  0.00    -0.248 A  
HETATM   20  O   UNL     1      -7.542   3.455  71.006  1.00  0.00    -0.043 OA 
HETATM   21  O   UNL     1      -7.357   4.845  69.317  1.00  0.00    -0.055 OA 
HETATM   22  O   UNL     1      -9.351   3.743  72.824  1.00  0.00    -0.105 OA 
HETATM   23  H   UNL     1      -9.783   3.478  73.628  1.00  0.00     0.000 HD 
HETATM   24  O   UNL     1     -11.463   5.153  73.600  1.00  0.00    -0.440 OA 
HETATM   25  C   UNL     1     -11.314   6.608  71.721  1.00  0.00    -0.320 A  
HETATM   26  H   UNL     1     -12.221   5.646  73.891  1.00  0.00     0.000 HD 
ENDBRANCH   9  14
ENDBRANCH   5   8
ENDBRANCH   2   3
TORSDOF 5
ENDMDL
MODEL      189
REMARK 921   NORMALIZED FREE ENERGY PREDICTED BY IDOCK:   -4.04 KCAL/MOL
REMARK 922        TOTAL FREE ENERGY PREDICTED BY IDOCK:   -5.33 KCAL/MOL
REMARK 923 INTER-LIGAND FREE ENERGY PREDICTED BY IDOCK:   -4.92 KCAL/MOL
REMARK 924 INTRA-LIGAND FREE ENERGY PREDICTED BY IDOCK:   -0.42 KCAL/MOL
REMARK 927      BINDING AFFINITY PREDICTED BY RF-SCORE:    0.00 PKD
ROOT
HETATM    1  C   UNL     1     -11.705  14.681  66.380  1.00  0.00    -0.329 C  
HETATM    2  C   UNL     1     -12.038  13.378  65.665  1.00  0.00    -0.434 C  
ENDROOT
BRANCH   2   3
HETATM    3  N   UNL     1     -11.148  12.263  66.028  1.00  0.00    -0.296 N  
HETATM    4  O   UNL     1     -12.372  11.960  67.945  1.00  0.00    -0.367 OA 
HETATM    5  C   UNL     1     -11.389  11.646  67.264  1.00  0.00    -0.305 C  
BRANCH   3   6
HETATM    6  C   UNL     1     -10.069  11.876  65.106  1.00  0.00    -0.261 C  
HETATM    7  C   UNL     1     -10.404  11.209  63.781  1.00  0.00    -0.447 C  
ENDBRANCH   3   6
BRANCH   5   8
HETATM    8  C   UNL     1     -10.478  10.583  67.817  1.00  0.00    -0.263 C  
HETATM    9  C   UNL     1      -9.431  10.932  68.604  1.00  0.00    -0.192 C  
BRANCH   8  10
HETATM   10  C   UNL     1     -10.654   9.097  67.548  1.00  0.00    -0.249 C  
HETATM   11  H2  UNL     1     -11.108   8.256  66.433  1.00  0.00     0.000 HD 
HETATM   12  N   UNL     1     -10.800   7.865  67.324  1.00  0.00    -0.518 NA 
HETATM   13  H1  UNL     1     -10.918   6.868  67.144  1.00  0.00     0.000 HD 
ENDBRANCH   8  10
BRANCH   9  14
HETATM   14  C   UNL     1      -8.498   9.961  69.228  1.00  0.00    -0.158 A  
HETATM   15  C   UNL     1      -8.667   9.548  70.561  1.00  0.00    -0.247 A  
HETATM   16  C   UNL     1      -7.731   8.683  71.166  1.00  0.00    -0.113 A  
HETATM   17  C   UNL     1      -6.634   8.209  70.441  1.00  0.00    -0.036 A  
HETATM   18  N   UNL     1      -7.917   8.283  72.563  1.00  0.00    -0.142 N  
HETATM   19  C   UNL     1      -6.484   8.619  69.115  1.00  0.00    -0.043 A  
HETATM   20  O   UNL     1      -7.055   7.547  73.070  1.00  0.00    -0.068 OA 
HETATM   21  O   UNL     1      -8.922   8.700  73.156  1.00  0.00    -0.310 OA 
HETATM   22  O   UNL     1      -5.657   7.364  70.910  1.00  0.00    -0.027 OA 
HETATM   23  H   UNL     1      -4.912   7.041  70.416  1.00  0.00     0.000 HD 
HETATM   24  O   UNL     1      -5.416   8.166  68.390  1.00  0.00    -0.031 OA 
HETATM   25  C   UNL     1      -7.393   9.486  68.510  1.00  0.00    -0.079 A  
HETATM   26  H   UNL     1      -5.313   8.444  67.487  1.00  0.00     0.000 HD 
ENDBRANCH   9  14
ENDBRANCH   5   8
ENDBRANCH   2   3
TORSDOF 5
ENDMDL
MODEL      190
REMARK 921   NORMALIZED FREE ENERGY PREDICTED BY IDOCK:   -4.03 KCAL/MOL
REMARK 922        TOTAL FREE ENERGY PREDICTED BY IDOCK:   -5.33 KCAL/MOL
REMARK 923 INTER-LIGAND FREE ENERGY PREDICTED BY IDOCK:   -4.86 KCAL/MOL
REMARK 924 INTRA-LIGAND FREE ENERGY PREDICTED BY IDOCK:   -0.47 KCAL/MOL
REMARK 927      BINDING AFFINITY PREDICTED BY RF-SCORE:    0.00 PKD
ROOT
HETATM    1  C   UNL     1     -10.789  12.667  64.125  1.00  0.00    -0.431 C  
HETATM    2  C   UNL     1     -10.482  12.838  65.607  1.00  0.00    -0.278 C  
ENDROOT
BRANCH   2   3
HETATM    3  N   UNL     1     -10.025  11.601  66.260  1.00  0.00    -0.211 N  
HETATM    4  O   UNL     1     -11.866  11.690  67.629  1.00  0.00    -0.575 OA 
HETATM    5  C   UNL     1     -10.798  11.139  67.336  1.00  0.00    -0.266 C  
BRANCH   3   6
HETATM    6  C   UNL     1      -8.804  10.941  65.775  1.00  0.00    -0.191 C  
HETATM    7  C   UNL     1      -7.473  11.208  66.459  1.00  0.00    -0.131 C  
ENDBRANCH   3   6
BRANCH   5   8
HETATM    8  C   UNL     1     -10.376   9.962  68.175  1.00  0.00    -0.232 C  
HETATM    9  C   UNL     1     -10.858   8.726  67.897  1.00  0.00    -0.078 C  
BRANCH   8  10
HETATM   10  C   UNL     1      -9.417  10.064  69.350  1.00  0.00    -0.223 C  
HETATM   11  H2  UNL     1      -9.315   9.501  70.702  1.00  0.00     0.000 HD 
HETATM   12  N   UNL     1      -8.622  10.147  70.324  1.00  0.00    -0.342 NA 
HETATM   13  H1  UNL     1      -7.978  10.215  71.113  1.00  0.00     0.000 HD 
ENDBRANCH   8  10
BRANCH   9  14
HETATM   14  C   UNL     1     -10.477   7.498  68.637  1.00  0.00    -0.207 A  
HETATM   15  C   UNL     1      -9.649   6.525  68.050  1.00  0.00    -0.119 A  
HETATM   16  C   UNL     1      -9.356   5.327  68.735  1.00  0.00    -0.121 A  
HETATM   17  C   UNL     1      -9.867   5.101  70.016  1.00  0.00    -0.225 A  
HETATM   18  N   UNL     1      -8.507   4.319  68.094  1.00  0.00    -0.093 N  
HETATM   19  C   UNL     1     -10.678   6.080  70.592  1.00  0.00    -0.276 A  
HETATM   20  O   UNL     1      -8.298   3.265  68.715  1.00  0.00    -0.063 OA 
HETATM   21  O   UNL     1      -8.049   4.577  66.972  1.00  0.00    -0.101 OA 
HETATM   22  O   UNL     1      -9.654   3.984  70.788  1.00  0.00    -0.165 OA 
HETATM   23  H   UNL     1     -10.002   3.831  71.660  1.00  0.00     0.000 HD 
HETATM   24  O   UNL     1     -11.189   5.876  71.845  1.00  0.00    -0.268 OA 
HETATM   25  C   UNL     1     -10.990   7.262  69.919  1.00  0.00    -0.262 A  
HETATM   26  H   UNL     1     -11.741   6.542  72.238  1.00  0.00     0.000 HD 
ENDBRANCH   9  14
ENDBRANCH   5   8
ENDBRANCH   2   3
TORSDOF 5
ENDMDL
MODEL      191
REMARK 921   NORMALIZED FREE ENERGY PREDICTED BY IDOCK:   -4.03 KCAL/MOL
REMARK 922        TOTAL FREE ENERGY PREDICTED BY IDOCK:   -5.32 KCAL/MOL
REMARK 923 INTER-LIGAND FREE ENERGY PREDICTED BY IDOCK:   -5.02 KCAL/MOL
REMARK 924 INTRA-LIGAND FREE ENERGY PREDICTED BY IDOCK:   -0.30 KCAL/MOL
REMARK 927      BINDING AFFINITY PREDICTED BY RF-SCORE:    0.00 PKD
ROOT
HETATM    1  C   UNL     1     -11.290  15.687  64.355  1.00  0.00    -0.272 C  
HETATM    2  C   UNL     1     -12.097  15.002  65.450  1.00  0.00     0.029 C  
ENDROOT
BRANCH   2   3
HETATM    3  N   UNL     1     -11.334  13.991  66.199  1.00  0.00    -0.315 N  
HETATM    4  O   UNL     1     -12.586  12.354  65.189  1.00  0.00    -0.622 OA 
HETATM    5  C   UNL     1     -11.723  12.655  66.022  1.00  0.00    -0.417 C  
BRANCH   3   6
HETATM    6  C   UNL     1     -10.243  14.425  67.084  1.00  0.00    -0.257 C  
HETATM    7  C   UNL     1     -10.333  15.761  67.804  1.00  0.00    -0.275 C  
ENDBRANCH   3   6
BRANCH   5   8
HETATM    8  C   UNL     1     -11.117  11.534  66.822  1.00  0.00    -0.361 C  
HETATM    9  C   UNL     1     -10.572  10.468  66.187  1.00  0.00    -0.182 C  
BRANCH   8  10
HETATM   10  C   UNL     1     -11.068  11.512  68.342  1.00  0.00    -0.235 C  
HETATM   11  H2  UNL     1     -11.620  12.311  69.444  1.00  0.00     0.000 HD 
HETATM   12  N   UNL     1     -11.029  11.494  69.601  1.00  0.00    -0.449 NA 
HETATM   13  H1  UNL     1     -10.997  11.479  70.621  1.00  0.00     0.000 HD 
ENDBRANCH   8  10
BRANCH   9  14
HETATM   14  C   UNL     1      -9.917   9.331  66.881  1.00  0.00    -0.298 A  
HETATM   15  C   UNL     1      -8.548   9.366  67.196  1.00  0.00    -0.130 A  
HETATM   16  C   UNL     1      -7.921   8.248  67.787  1.00  0.00    -0.122 A  
HETATM   17  C   UNL     1      -8.658   7.100  68.087  1.00  0.00    -0.129 A  
HETATM   18  N   UNL     1      -6.488   8.302  68.087  1.00  0.00    -0.055 N  
HETATM   19  C   UNL     1     -10.019   7.082  67.779  1.00  0.00    -0.152 A  
HETATM   20  O   UNL     1      -5.965   7.287  68.578  1.00  0.00    -0.025 OA 
HETATM   21  O   UNL     1      -5.881   9.352  67.836  1.00  0.00    -0.044 OA 
HETATM   22  O   UNL     1      -8.171   5.951  68.663  1.00  0.00    -0.107 OA 
HETATM   23  H   UNL     1      -8.672   5.170  68.868  1.00  0.00     0.000 HD 
HETATM   24  O   UNL     1     -10.757   5.966  68.064  1.00  0.00    -0.250 OA 
HETATM   25  C   UNL     1     -10.648   8.174  67.179  1.00  0.00    -0.355 A  
HETATM   26  H   UNL     1     -11.684   5.953  67.855  1.00  0.00     0.000 HD 
ENDBRANCH   9  14
ENDBRANCH   5   8
ENDBRANCH   2   3
TORSDOF 5
ENDMDL
MODEL      192
REMARK 921   NORMALIZED FREE ENERGY PREDICTED BY IDOCK:   -4.02 KCAL/MOL
REMARK 922        TOTAL FREE ENERGY PREDICTED BY IDOCK:   -5.31 KCAL/MOL
REMARK 923 INTER-LIGAND FREE ENERGY PREDICTED BY IDOCK:   -4.73 KCAL/MOL
REMARK 924 INTRA-LIGAND FREE ENERGY PREDICTED BY IDOCK:   -0.58 KCAL/MOL
REMARK 927      BINDING AFFINITY PREDICTED BY RF-SCORE:    0.00 PKD
ROOT
HETATM    1  C   UNL     1     -13.052   9.090  71.742  1.00  0.00    -0.437 C  
HETATM    2  C   UNL     1     -11.760   9.897  71.712  1.00  0.00    -0.111 C  
ENDROOT
BRANCH   2   3
HETATM    3  N   UNL     1     -11.348  10.299  70.358  1.00  0.00    -0.311 N  
HETATM    4  O   UNL     1      -9.525   8.916  70.543  1.00  0.00    -0.175 OA 
HETATM    5  C   UNL     1     -10.139   9.767  69.888  1.00  0.00    -0.251 C  
BRANCH   3   6
HETATM    6  C   UNL     1     -12.195  11.229  69.596  1.00  0.00    -0.271 C  
HETATM    7  C   UNL     1     -12.149  12.719  69.896  1.00  0.00    -0.329 C  
ENDBRANCH   3   6
BRANCH   5   8
HETATM    8  C   UNL     1      -9.535  10.194  68.577  1.00  0.00    -0.159 C  
HETATM    9  C   UNL     1      -9.771   9.470  67.455  1.00  0.00    -0.194 C  
BRANCH   8  10
HETATM   10  C   UNL     1      -8.650  11.421  68.414  1.00  0.00    -0.156 C  
HETATM   11  H2  UNL     1      -7.407  11.760  67.710  1.00  0.00     0.000 HD 
HETATM   12  N   UNL     1      -7.917  12.436  68.279  1.00  0.00    -0.154 NA 
HETATM   13  H1  UNL     1      -7.324  13.259  68.169  1.00  0.00     0.000 HD 
ENDBRANCH   8  10
BRANCH   9  14
HETATM   14  C   UNL     1      -9.254   9.826  66.110  1.00  0.00    -0.221 A  
HETATM   15  C   UNL     1      -7.977   9.414  65.692  1.00  0.00    -0.103 A  
HETATM   16  C   UNL     1      -7.467   9.823  64.441  1.00  0.00    -0.132 A  
HETATM   17  C   UNL     1      -8.235  10.625  63.593  1.00  0.00    -0.006 A  
HETATM   18  N   UNL     1      -6.125   9.397  64.037  1.00  0.00    -0.087 N  
HETATM   19  C   UNL     1      -9.506  11.018  64.015  1.00  0.00    -0.246 A  
HETATM   20  O   UNL     1      -5.699   9.803  62.943  1.00  0.00    -0.089 OA 
HETATM   21  O   UNL     1      -5.494   8.659  64.806  1.00  0.00    -0.042 OA 
HETATM   22  O   UNL     1      -7.859  11.086  62.354  1.00  0.00    -0.354 OA 
HETATM   23  H   UNL     1      -8.381  11.631  61.776  1.00  0.00     0.000 HD 
HETATM   24  O   UNL     1     -10.271  11.804  63.198  1.00  0.00    -0.545 OA 
HETATM   25  C   UNL     1     -10.015  10.635  65.256  1.00  0.00    -0.356 A  
HETATM   26  H   UNL     1     -11.136  12.072  63.485  1.00  0.00     0.000 HD 
ENDBRANCH   9  14
ENDBRANCH   5   8
ENDBRANCH   2   3
TORSDOF 5
ENDMDL
MODEL      193
REMARK 921   NORMALIZED FREE ENERGY PREDICTED BY IDOCK:   -4.00 KCAL/MOL
REMARK 922        TOTAL FREE ENERGY PREDICTED BY IDOCK:   -5.28 KCAL/MOL
REMARK 923 INTER-LIGAND FREE ENERGY PREDICTED BY IDOCK:   -4.96 KCAL/MOL
REMARK 924 INTRA-LIGAND FREE ENERGY PREDICTED BY IDOCK:   -0.32 KCAL/MOL
REMARK 927      BINDING AFFINITY PREDICTED BY RF-SCORE:    0.00 PKD
ROOT
HETATM    1  C   UNL     1      -6.589   6.921  73.455  1.00  0.00    -0.067 C  
HETATM    2  C   UNL     1      -7.514   5.983  72.690  1.00  0.00    -0.095 C  
ENDROOT
BRANCH   2   3
HETATM    3  N   UNL     1      -7.873   6.474  71.350  1.00  0.00    -0.099 N  
HETATM    4  O   UNL     1      -9.420   7.867  72.316  1.00  0.00    -0.159 OA 
HETATM    5  C   UNL     1      -8.918   7.407  71.284  1.00  0.00    -0.138 C  
BRANCH   3   6
HETATM    6  C   UNL     1      -7.148   5.959  70.179  1.00  0.00    -0.071 C  
HETATM    7  C   UNL     1      -5.629   6.026  70.135  1.00  0.00    -0.013 C  
ENDBRANCH   3   6
BRANCH   5   8
HETATM    8  C   UNL     1      -9.473   7.892  69.971  1.00  0.00    -0.157 C  
HETATM    9  C   UNL     1      -8.974   9.016  69.400  1.00  0.00    -0.145 C  
BRANCH   8  10
HETATM   10  C   UNL     1     -10.589   7.189  69.214  1.00  0.00    -0.221 C  
HETATM   11  H2  UNL     1     -11.801   7.582  68.484  1.00  0.00     0.000 HD 
HETATM   12  N   UNL     1     -11.515   6.608  68.587  1.00  0.00    -0.570 NA 
HETATM   13  H1  UNL     1     -12.264   6.137  68.079  1.00  0.00     0.000 HD 
ENDBRANCH   8  10
BRANCH   9  14
HETATM   14  C   UNL     1      -9.424   9.556  68.094  1.00  0.00    -0.145 A  
HETATM   15  C   UNL     1     -10.343  10.619  68.027  1.00  0.00    -0.208 A  
HETATM   16  C   UNL     1     -10.821  11.073  66.780  1.00  0.00    -0.251 A  
HETATM   17  C   UNL     1     -10.372  10.488  65.593  1.00  0.00    -0.204 A  
HETATM   18  N   UNL     1     -11.794  12.168  66.737  1.00  0.00    -0.301 N  
HETATM   19  C   UNL     1      -9.451   9.441  65.673  1.00  0.00    -0.262 A  
HETATM   20  O   UNL     1     -12.216  12.519  65.623  1.00  0.00    -0.554 OA 
HETATM   21  O   UNL     1     -12.139  12.679  67.812  1.00  0.00    -0.362 OA 
HETATM   22  O   UNL     1     -10.754  10.838  64.321  1.00  0.00    -0.386 OA 
HETATM   23  H   UNL     1     -10.448  10.440  63.514  1.00  0.00     0.000 HD 
HETATM   24  O   UNL     1      -9.000   8.855  64.522  1.00  0.00    -0.410 OA 
HETATM   25  C   UNL     1      -8.983   8.971  66.900  1.00  0.00    -0.144 A  
HETATM   26  H   UNL     1      -8.374   8.143  64.576  1.00  0.00     0.000 HD 
ENDBRANCH   9  14
ENDBRANCH   5   8
ENDBRANCH   2   3
TORSDOF 5
ENDMDL
MODEL      194
REMARK 921   NORMALIZED FREE ENERGY PREDICTED BY IDOCK:   -4.00 KCAL/MOL
REMARK 922        TOTAL FREE ENERGY PREDICTED BY IDOCK:   -5.28 KCAL/MOL
REMARK 923 INTER-LIGAND FREE ENERGY PREDICTED BY IDOCK:   -4.92 KCAL/MOL
REMARK 924 INTRA-LIGAND FREE ENERGY PREDICTED BY IDOCK:   -0.37 KCAL/MOL
REMARK 927      BINDING AFFINITY PREDICTED BY RF-SCORE:    0.00 PKD
ROOT
HETATM    1  C   UNL     1      -7.317  20.167  66.342  1.00  0.00    -0.313 C  
HETATM    2  C   UNL     1      -7.147  18.727  65.874  1.00  0.00    -0.255 C  
ENDROOT
BRANCH   2   3
HETATM    3  N   UNL     1      -7.798  17.741  66.751  1.00  0.00    -0.220 N  
HETATM    4  O   UNL     1      -6.125  16.251  66.255  1.00  0.00     0.089 OA 
HETATM    5  C   UNL     1      -7.203  16.473  66.819  1.00  0.00    -0.225 C  
BRANCH   3   6
HETATM    6  C   UNL     1      -9.018  18.123  67.479  1.00  0.00    -0.257 C  
HETATM    7  C   UNL     1      -8.927  18.589  68.923  1.00  0.00    -0.192 C  
ENDBRANCH   3   6
BRANCH   5   8
HETATM    8  C   UNL     1      -7.834  15.334  67.573  1.00  0.00    -0.198 C  
HETATM    9  C   UNL     1      -8.840  14.623  67.005  1.00  0.00    -0.262 C  
BRANCH   8  10
HETATM   10  C   UNL     1      -7.412  14.909  68.970  1.00  0.00    -0.144 C  
HETATM   11  H2  UNL     1      -8.076  14.450  70.197  1.00  0.00     0.000 HD 
HETATM   12  N   UNL     1      -7.064  14.556  70.129  1.00  0.00    -0.392 NA 
HETATM   13  H1  UNL     1      -6.781  14.270  71.066  1.00  0.00     0.000 HD 
ENDBRANCH   8  10
BRANCH   9  14
HETATM   14  C   UNL     1      -9.503  13.461  67.647  1.00  0.00    -0.216 A  
HETATM   15  C   UNL     1     -10.471  13.642  68.650  1.00  0.00    -0.242 A  
HETATM   16  C   UNL     1     -11.038  12.529  69.306  1.00  0.00    -0.142 A  
HETATM   17  C   UNL     1     -10.661  11.231  68.952  1.00  0.00    -0.207 A  
HETATM   18  N   UNL     1     -12.031  12.744  70.363  1.00  0.00    -0.307 N  
HETATM   19  C   UNL     1      -9.707  11.065  67.947  1.00  0.00    -0.172 A  
HETATM   20  O   UNL     1     -12.484  11.742  70.939  1.00  0.00    -0.372 OA 
HETATM   21  O   UNL     1     -12.360  13.911  70.620  1.00  0.00    -0.338 OA 
HETATM   22  O   UNL     1     -11.139  10.068  69.508  1.00  0.00    -0.233 OA 
HETATM   23  H   UNL     1     -10.883   9.185  69.266  1.00  0.00     0.000 HD 
HETATM   24  O   UNL     1      -9.324   9.801  67.588  1.00  0.00    -0.139 OA 
HETATM   25  C   UNL     1      -9.126  12.157  67.302  1.00  0.00    -0.181 A  
HETATM   26  H   UNL     1      -8.675   9.687  66.904  1.00  0.00     0.000 HD 
ENDBRANCH   9  14
ENDBRANCH   5   8
ENDBRANCH   2   3
TORSDOF 5
ENDMDL
MODEL      195
REMARK 921   NORMALIZED FREE ENERGY PREDICTED BY IDOCK:   -3.99 KCAL/MOL
REMARK 922        TOTAL FREE ENERGY PREDICTED BY IDOCK:   -5.27 KCAL/MOL
REMARK 923 INTER-LIGAND FREE ENERGY PREDICTED BY IDOCK:   -5.95 KCAL/MOL
REMARK 924 INTRA-LIGAND FREE ENERGY PREDICTED BY IDOCK:    0.67 KCAL/MOL
REMARK 927      BINDING AFFINITY PREDICTED BY RF-SCORE:    0.00 PKD
ROOT
HETATM    1  C   UNL     1     -11.542   9.950  70.045  1.00  0.00    -0.235 C  
HETATM    2  C   UNL     1     -12.020  10.955  69.005  1.00  0.00    -0.251 C  
ENDROOT
BRANCH   2   3
HETATM    3  N   UNL     1     -11.217  12.187  68.964  1.00  0.00    -0.248 N  
HETATM    4  O   UNL     1     -12.605  13.100  70.547  1.00  0.00    -0.258 OA 
HETATM    5  C   UNL     1     -11.657  13.249  69.767  1.00  0.00    -0.227 C  
BRANCH   3   6
HETATM    6  C   UNL     1     -10.034  12.244  68.092  1.00  0.00    -0.210 C  
HETATM    7  C   UNL     1      -8.978  11.154  68.170  1.00  0.00    -0.159 C  
ENDBRANCH   3   6
BRANCH   5   8
HETATM    8  C   UNL     1     -11.008  14.606  69.722  1.00  0.00    -0.232 C  
HETATM    9  C   UNL     1     -10.081  14.881  68.772  1.00  0.00    -0.241 C  
BRANCH   8  10
HETATM   10  C   UNL     1     -11.327  15.728  70.698  1.00  0.00    -0.388 C  
HETATM   11  H2  UNL     1     -12.532  16.391  71.211  1.00  0.00     0.000 HD 
HETATM   12  N   UNL     1     -11.592  16.657  71.507  1.00  0.00    -0.536 NA 
HETATM   13  H1  UNL     1     -11.806  17.409  72.162  1.00  0.00     0.000 HD 
ENDBRANCH   8  10
BRANCH   9  14
HETATM   14  C   UNL     1      -9.411  16.196  68.619  1.00  0.00    -0.222 A  
HETATM   15  C   UNL     1     -10.120  17.324  68.169  1.00  0.00    -0.325 A  
HETATM   16  C   UNL     1      -9.455  18.549  67.954  1.00  0.00    -0.296 A  
HETATM   17  C   UNL     1      -8.085  18.665  68.208  1.00  0.00    -0.314 A  
HETATM   18  N   UNL     1     -10.212  19.704  67.465  1.00  0.00    -0.402 N  
HETATM   19  C   UNL     1      -7.395  17.541  68.665  1.00  0.00    -0.256 A  
HETATM   20  O   UNL     1      -9.585  20.756  67.259  1.00  0.00    -0.457 OA 
HETATM   21  O   UNL     1     -11.430  19.565  67.286  1.00  0.00    -0.004 OA 
HETATM   22  O   UNL     1      -7.323  19.797  68.045  1.00  0.00    -0.274 OA 
HETATM   23  H   UNL     1      -6.392  19.875  68.219  1.00  0.00     0.000 HD 
HETATM   24  O   UNL     1      -6.053  17.634  68.918  1.00  0.00    -0.181 OA 
HETATM   25  C   UNL     1      -8.037  16.319  68.865  1.00  0.00    -0.231 A  
HETATM   26  H   UNL     1      -5.583  16.870  69.230  1.00  0.00     0.000 HD 
ENDBRANCH   9  14
ENDBRANCH   5   8
ENDBRANCH   2   3
TORSDOF 5
ENDMDL
MODEL      196
REMARK 921   NORMALIZED FREE ENERGY PREDICTED BY IDOCK:   -3.99 KCAL/MOL
REMARK 922        TOTAL FREE ENERGY PREDICTED BY IDOCK:   -5.27 KCAL/MOL
REMARK 923 INTER-LIGAND FREE ENERGY PREDICTED BY IDOCK:   -5.29 KCAL/MOL
REMARK 924 INTRA-LIGAND FREE ENERGY PREDICTED BY IDOCK:    0.02 KCAL/MOL
REMARK 927      BINDING AFFINITY PREDICTED BY RF-SCORE:    0.00 PKD
ROOT
HETATM    1  C   UNL     1     -10.339  19.219  66.026  1.00  0.00    -0.556 C  
HETATM    2  C   UNL     1      -9.919  18.416  67.251  1.00  0.00    -0.335 C  
ENDROOT
BRANCH   2   3
HETATM    3  N   UNL     1     -10.036  16.960  67.069  1.00  0.00    -0.282 N  
HETATM    4  O   UNL     1     -10.462  16.753  69.315  1.00  0.00    -0.311 OA 
HETATM    5  C   UNL     1     -10.261  16.201  68.227  1.00  0.00    -0.248 C  
BRANCH   3   6
HETATM    6  C   UNL     1      -9.898  16.391  65.720  1.00  0.00    -0.271 C  
HETATM    7  C   UNL     1     -11.134  15.960  64.947  1.00  0.00    -0.400 C  
ENDBRANCH   3   6
BRANCH   5   8
HETATM    8  C   UNL     1     -10.272  14.696  68.205  1.00  0.00    -0.231 C  
HETATM    9  C   UNL     1      -9.356  14.024  67.465  1.00  0.00    -0.209 C  
BRANCH   8  10
HETATM   10  C   UNL     1     -11.268  13.847  68.978  1.00  0.00    -0.274 C  
HETATM   11  H2  UNL     1     -11.505  12.416  69.210  1.00  0.00     0.000 HD 
HETATM   12  N   UNL     1     -12.094  13.142  69.619  1.00  0.00    -0.287 NA 
HETATM   13  H1  UNL     1     -12.762  12.572  70.138  1.00  0.00     0.000 HD 
ENDBRANCH   8  10
BRANCH   9  14
HETATM   14  C   UNL     1      -9.257  12.545  67.405  1.00  0.00    -0.186 A  
HETATM   15  C   UNL     1      -8.563  11.824  68.392  1.00  0.00    -0.156 A  
HETATM   16  C   UNL     1      -8.411  10.425  68.283  1.00  0.00    -0.123 A  
HETATM   17  C   UNL     1      -8.969   9.735  67.204  1.00  0.00    -0.135 A  
HETATM   18  N   UNL     1      -7.665   9.699  69.314  1.00  0.00    -0.088 N  
HETATM   19  C   UNL     1      -9.666  10.461  66.236  1.00  0.00    -0.205 A  
HETATM   20  O   UNL     1      -7.527   8.473  69.167  1.00  0.00    -0.084 OA 
HETATM   21  O   UNL     1      -7.218  10.347  70.271  1.00  0.00    -0.215 OA 
HETATM   22  O   UNL     1      -8.898   8.380  66.984  1.00  0.00    -0.129 OA 
HETATM   23  H   UNL     1      -9.277   7.911  66.250  1.00  0.00     0.000 HD 
HETATM   24  O   UNL     1     -10.217   9.803  65.171  1.00  0.00    -0.324 OA 
HETATM   25  C   UNL     1      -9.808  11.846  66.323  1.00  0.00    -0.246 A  
HETATM   26  H   UNL     1     -10.692  10.297  64.513  1.00  0.00     0.000 HD 
ENDBRANCH   9  14
ENDBRANCH   5   8
ENDBRANCH   2   3
TORSDOF 5
ENDMDL
MODEL      197
REMARK 921   NORMALIZED FREE ENERGY PREDICTED BY IDOCK:   -3.97 KCAL/MOL
REMARK 922        TOTAL FREE ENERGY PREDICTED BY IDOCK:   -5.25 KCAL/MOL
REMARK 923 INTER-LIGAND FREE ENERGY PREDICTED BY IDOCK:   -5.35 KCAL/MOL
REMARK 924 INTRA-LIGAND FREE ENERGY PREDICTED BY IDOCK:    0.10 KCAL/MOL
REMARK 927      BINDING AFFINITY PREDICTED BY RF-SCORE:    0.00 PKD
ROOT
HETATM    1  C   UNL     1      -5.154  10.469  69.480  1.00  0.00    -0.038 C  
HETATM    2  C   UNL     1      -5.271  11.972  69.264  1.00  0.00    -0.056 C  
ENDROOT
BRANCH   2   3
HETATM    3  N   UNL     1      -6.375  12.354  68.369  1.00  0.00    -0.052 N  
HETATM    4  O   UNL     1      -6.983  13.977  69.874  1.00  0.00    -0.001 OA 
HETATM    5  C   UNL     1      -7.228  13.369  68.825  1.00  0.00    -0.092 C  
BRANCH   3   6
HETATM    6  C   UNL     1      -6.530  11.658  67.083  1.00  0.00    -0.137 C  
HETATM    7  C   UNL     1      -7.823  10.922  66.768  1.00  0.00    -0.141 C  
ENDBRANCH   3   6
BRANCH   5   8
HETATM    8  C   UNL     1      -8.469  13.767  68.072  1.00  0.00    -0.176 C  
HETATM    9  C   UNL     1      -8.370  14.227  66.801  1.00  0.00     0.027 C  
BRANCH   8  10
HETATM   10  C   UNL     1      -9.872  13.688  68.653  1.00  0.00    -0.138 C  
HETATM   11  H2  UNL     1     -10.771  14.570  69.408  1.00  0.00     0.000 HD 
HETATM   12  N   UNL     1     -11.035  13.623  69.135  1.00  0.00    -0.363 NA 
HETATM   13  H1  UNL     1     -11.976  13.570  69.524  1.00  0.00     0.000 HD 
ENDBRANCH   8  10
BRANCH   9  14
HETATM   14  C   UNL     1      -9.532  14.610  65.961  1.00  0.00    -0.273 A  
HETATM   15  C   UNL     1     -10.297  13.636  65.296  1.00  0.00    -0.362 A  
HETATM   16  C   UNL     1     -11.352  14.017  64.439  1.00  0.00    -0.319 A  
HETATM   17  C   UNL     1     -11.664  15.367  64.258  1.00  0.00    -0.206 A  
HETATM   18  N   UNL     1     -12.121  12.984  63.741  1.00  0.00    -0.483 N  
HETATM   19  C   UNL     1     -10.903  16.323  64.933  1.00  0.00    -0.296 A  
HETATM   20  O   UNL     1     -13.021  13.359  62.972  1.00  0.00    -0.230 OA 
HETATM   21  O   UNL     1     -11.832  11.799  63.958  1.00  0.00    -0.363 OA 
HETATM   22  O   UNL     1     -12.664  15.868  63.459  1.00  0.00    -0.436 OA 
HETATM   23  H   UNL     1     -12.876  16.786  63.337  1.00  0.00     0.000 HD 
HETATM   24  O   UNL     1     -11.193  17.650  64.767  1.00  0.00    -0.834 OA 
HETATM   25  C   UNL     1      -9.847  15.961  65.769  1.00  0.00    -0.380 A  
HETATM   26  H   UNL     1     -10.676  18.301  65.227  1.00  0.00     0.000 HD 
ENDBRANCH   9  14
ENDBRANCH   5   8
ENDBRANCH   2   3
TORSDOF 5
ENDMDL
MODEL      198
REMARK 921   NORMALIZED FREE ENERGY PREDICTED BY IDOCK:   -3.97 KCAL/MOL
REMARK 922        TOTAL FREE ENERGY PREDICTED BY IDOCK:   -5.25 KCAL/MOL
REMARK 923 INTER-LIGAND FREE ENERGY PREDICTED BY IDOCK:   -4.85 KCAL/MOL
REMARK 924 INTRA-LIGAND FREE ENERGY PREDICTED BY IDOCK:   -0.40 KCAL/MOL
REMARK 927      BINDING AFFINITY PREDICTED BY RF-SCORE:    0.00 PKD
ROOT
HETATM    1  C   UNL     1     -11.154   2.429  73.561  1.00  0.00    -0.312 C  
HETATM    2  C   UNL     1     -10.707   3.729  74.218  1.00  0.00    -0.162 C  
ENDROOT
BRANCH   2   3
HETATM    3  N   UNL     1     -10.297   4.764  73.256  1.00  0.00    -0.168 N  
HETATM    4  O   UNL     1     -12.511   5.241  72.883  1.00  0.00     0.016 OA 
HETATM    5  C   UNL     1     -11.327   5.438  72.584  1.00  0.00    -0.266 C  
BRANCH   3   6
HETATM    6  C   UNL     1      -8.864   5.018  73.042  1.00  0.00    -0.116 C  
HETATM    7  C   UNL     1      -8.156   4.416  71.839  1.00  0.00    -0.098 C  
ENDBRANCH   3   6
BRANCH   5   8
HETATM    8  C   UNL     1     -11.049   6.426  71.483  1.00  0.00    -0.322 C  
HETATM    9  C   UNL     1     -10.814   7.726  71.785  1.00  0.00    -0.277 C  
BRANCH   8  10
HETATM   10  C   UNL     1     -11.012   6.058  70.008  1.00  0.00    -0.380 C  
HETATM   11  H2  UNL     1     -11.490   6.638  68.746  1.00  0.00     0.000 HD 
HETATM   12  N   UNL     1     -10.981   5.754  68.785  1.00  0.00    -0.234 NA 
HETATM   13  H1  UNL     1     -10.956   5.507  67.796  1.00  0.00     0.000 HD 
ENDBRANCH   8  10
BRANCH   9  14
HETATM   14  C   UNL     1     -10.493   8.770  70.779  1.00  0.00    -0.270 A  
HETATM   15  C   UNL     1      -9.171   9.205  70.582  1.00  0.00    -0.310 A  
HETATM   16  C   UNL     1      -8.890  10.251  69.678  1.00  0.00    -0.103 A  
HETATM   17  C   UNL     1      -9.919  10.852  68.949  1.00  0.00    -0.196 A  
HETATM   18  N   UNL     1      -7.506  10.702  69.506  1.00  0.00    -0.141 N  
HETATM   19  C   UNL     1     -11.226  10.403  69.145  1.00  0.00    -0.246 A  
HETATM   20  O   UNL     1      -7.302  11.645  68.725  1.00  0.00    -0.108 OA 
HETATM   21  O   UNL     1      -6.622  10.117  70.147  1.00  0.00    -0.095 OA 
HETATM   22  O   UNL     1      -9.779  11.872  68.038  1.00  0.00    -0.180 OA 
HETATM   23  H   UNL     1     -10.479  12.280  67.542  1.00  0.00     0.000 HD 
HETATM   24  O   UNL     1     -12.247  10.980  68.441  1.00  0.00    -0.770 OA 
HETATM   25  C   UNL     1     -11.520   9.381  70.048  1.00  0.00    -0.111 A  
HETATM   26  H   UNL     1     -13.137  10.674  68.574  1.00  0.00     0.000 HD 
ENDBRANCH   9  14
ENDBRANCH   5   8
ENDBRANCH   2   3
TORSDOF 5
ENDMDL
MODEL      199
REMARK 921   NORMALIZED FREE ENERGY PREDICTED BY IDOCK:   -3.95 KCAL/MOL
REMARK 922        TOTAL FREE ENERGY PREDICTED BY IDOCK:   -5.23 KCAL/MOL
REMARK 923 INTER-LIGAND FREE ENERGY PREDICTED BY IDOCK:   -4.72 KCAL/MOL
REMARK 924 INTRA-LIGAND FREE ENERGY PREDICTED BY IDOCK:   -0.51 KCAL/MOL
REMARK 927      BINDING AFFINITY PREDICTED BY RF-SCORE:    0.00 PKD
ROOT
HETATM    1  C   UNL     1     -10.752  15.665  67.995  1.00  0.00    -0.287 C  
HETATM    2  C   UNL     1     -11.657  14.552  67.480  1.00  0.00    -0.381 C  
ENDROOT
BRANCH   2   3
HETATM    3  N   UNL     1     -10.978  13.252  67.355  1.00  0.00    -0.267 N  
HETATM    4  O   UNL     1     -11.807  12.665  69.413  1.00  0.00    -0.295 OA 
HETATM    5  C   UNL     1     -11.083  12.383  68.450  1.00  0.00    -0.250 C  
BRANCH   3   6
HETATM    6  C   UNL     1     -10.231  12.948  66.126  1.00  0.00    -0.278 C  
HETATM    7  C   UNL     1     -10.564  13.676  64.833  1.00  0.00    -0.421 C  
ENDBRANCH   3   6
BRANCH   5   8
HETATM    8  C   UNL     1     -10.333  11.079  68.510  1.00  0.00    -0.204 C  
HETATM    9  C   UNL     1     -10.938   9.933  68.114  1.00  0.00    -0.261 C  
BRANCH   8  10
HETATM   10  C   UNL     1      -8.898  10.952  68.996  1.00  0.00    -0.096 C  
HETATM   11  H2  UNL     1      -8.213  10.817  70.288  1.00  0.00     0.000 HD 
HETATM   12  N   UNL     1      -7.709  10.846  69.401  1.00  0.00    -0.313 NA 
HETATM   13  H1  UNL     1      -6.747  10.760  69.728  1.00  0.00     0.000 HD 
ENDBRANCH   8  10
BRANCH   9  14
HETATM   14  C   UNL     1     -10.276   8.605  68.099  1.00  0.00    -0.250 A  
HETATM   15  C   UNL     1      -9.421   8.234  67.046  1.00  0.00    -0.226 A  
HETATM   16  C   UNL     1      -8.858   6.940  67.004  1.00  0.00    -0.119 A  
HETATM   17  C   UNL     1      -9.126   6.019  68.019  1.00  0.00    -0.117 A  
HETATM   18  N   UNL     1      -7.987   6.571  65.885  1.00  0.00    -0.109 N  
HETATM   19  C   UNL     1      -9.967   6.404  69.064  1.00  0.00    -0.149 A  
HETATM   20  O   UNL     1      -7.536   5.414  65.866  1.00  0.00    -0.081 OA 
HETATM   21  O   UNL     1      -7.750   7.431  65.025  1.00  0.00    -0.099 OA 
HETATM   22  O   UNL     1      -8.640   4.736  68.098  1.00  0.00    -0.101 OA 
HETATM   23  H   UNL     1      -8.821   4.109  68.789  1.00  0.00     0.000 HD 
HETATM   24  O   UNL     1     -10.242   5.514  70.067  1.00  0.00    -0.219 OA 
HETATM   25  C   UNL     1     -10.544   7.673  69.110  1.00  0.00    -0.195 A  
HETATM   26  H   UNL     1     -10.814   5.776  70.779  1.00  0.00     0.000 HD 
ENDBRANCH   9  14
ENDBRANCH   5   8
ENDBRANCH   2   3
TORSDOF 5
ENDMDL
MODEL      200
REMARK 921   NORMALIZED FREE ENERGY PREDICTED BY IDOCK:   -3.94 KCAL/MOL
REMARK 922        TOTAL FREE ENERGY PREDICTED BY IDOCK:   -5.21 KCAL/MOL
REMARK 923 INTER-LIGAND FREE ENERGY PREDICTED BY IDOCK:   -4.80 KCAL/MOL
REMARK 924 INTRA-LIGAND FREE ENERGY PREDICTED BY IDOCK:   -0.40 KCAL/MOL
REMARK 927      BINDING AFFINITY PREDICTED BY RF-SCORE:    0.00 PKD
ROOT
HETATM    1  C   UNL     1      -9.207   3.095  67.070  1.00  0.00    -0.198 C  
HETATM    2  C   UNL     1      -8.908   3.962  68.287  1.00  0.00    -0.110 C  
ENDROOT
BRANCH   2   3
HETATM    3  N   UNL     1      -8.730   5.387  67.965  1.00  0.00    -0.106 N  
HETATM    4  O   UNL     1      -9.981   5.920  69.814  1.00  0.00    -0.163 OA 
HETATM    5  C   UNL     1      -9.386   6.303  68.800  1.00  0.00    -0.124 C  
BRANCH   3   6
HETATM    6  C   UNL     1      -7.910   5.764  66.804  1.00  0.00    -0.101 C  
HETATM    7  C   UNL     1      -8.579   6.219  65.516  1.00  0.00    -0.124 C  
ENDBRANCH   3   6
BRANCH   5   8
HETATM    8  C   UNL     1      -9.397   7.780  68.510  1.00  0.00    -0.147 C  
HETATM    9  C   UNL     1     -10.505   8.357  67.982  1.00  0.00    -0.242 C  
BRANCH   8  10
HETATM   10  C   UNL     1      -8.218   8.703  68.777  1.00  0.00    -0.121 C  
HETATM   11  H2  UNL     1      -7.961   9.911  69.570  1.00  0.00     0.000 HD 
HETATM   12  N   UNL     1      -7.242   9.467  68.999  1.00  0.00    -0.070 NA 
HETATM   13  H1  UNL     1      -6.450  10.086  69.179  1.00  0.00     0.000 HD 
ENDBRANCH   8  10
BRANCH   9  14
HETATM   14  C   UNL     1     -10.631   9.808  67.695  1.00  0.00    -0.333 A  
HETATM   15  C   UNL     1     -10.526  10.298  66.381  1.00  0.00    -0.233 A  
HETATM   16  C   UNL     1     -10.572  11.686  66.130  1.00  0.00    -0.262 A  
HETATM   17  C   UNL     1     -10.744  12.590  67.182  1.00  0.00    -0.237 A  
HETATM   18  N   UNL     1     -10.439  12.174  64.755  1.00  0.00    -0.283 N  
HETATM   19  C   UNL     1     -10.859  12.089  68.480  1.00  0.00    -0.233 A  
HETATM   20  O   UNL     1     -10.452  13.403  64.578  1.00  0.00    -0.404 OA 
HETATM   21  O   UNL     1     -10.322  11.335  63.851  1.00  0.00    -0.316 OA 
HETATM   22  O   UNL     1     -10.810  13.959  67.072  1.00  0.00    -0.282 OA 
HETATM   23  H   UNL     1     -10.928  14.573  67.787  1.00  0.00     0.000 HD 
HETATM   24  O   UNL     1     -11.027  12.959  69.522  1.00  0.00    -0.449 OA 
HETATM   25  C   UNL     1     -10.798  10.721  68.744  1.00  0.00    -0.262 A  
HETATM   26  H   UNL     1     -11.105  12.619  70.406  1.00  0.00     0.000 HD 
ENDBRANCH   9  14
ENDBRANCH   5   8
ENDBRANCH   2   3
TORSDOF 5
ENDMDL
MODEL      201
REMARK 921   NORMALIZED FREE ENERGY PREDICTED BY IDOCK:   -3.92 KCAL/MOL
REMARK 922        TOTAL FREE ENERGY PREDICTED BY IDOCK:   -5.18 KCAL/MOL
REMARK 923 INTER-LIGAND FREE ENERGY PREDICTED BY IDOCK:   -4.89 KCAL/MOL
REMARK 924 INTRA-LIGAND FREE ENERGY PREDICTED BY IDOCK:   -0.29 KCAL/MOL
REMARK 927      BINDING AFFINITY PREDICTED BY RF-SCORE:    0.00 PKD
ROOT
HETATM    1  C   UNL     1     -10.473  14.085  65.924  1.00  0.00    -0.314 C  
HETATM    2  C   UNL     1     -10.410  13.703  67.397  1.00  0.00    -0.244 C  
ENDROOT
BRANCH   2   3
HETATM    3  N   UNL     1      -9.879  12.351  67.633  1.00  0.00    -0.194 N  
HETATM    4  O   UNL     1     -12.012  11.524  67.452  1.00  0.00    -0.623 OA 
HETATM    5  C   UNL     1     -10.819  11.312  67.698  1.00  0.00    -0.238 C  
BRANCH   3   6
HETATM    6  C   UNL     1      -8.430  12.167  67.801  1.00  0.00    -0.160 C  
HETATM    7  C   UNL     1      -7.623  11.460  66.723  1.00  0.00    -0.143 C  
ENDBRANCH   3   6
BRANCH   5   8
HETATM    8  C   UNL     1     -10.429   9.904  68.061  1.00  0.00    -0.266 C  
HETATM    9  C   UNL     1     -10.080   9.607  69.337  1.00  0.00    -0.213 C  
BRANCH   8  10
HETATM   10  C   UNL     1     -10.398   8.753  67.068  1.00  0.00    -0.283 C  
HETATM   11  H2  UNL     1      -9.400   8.108  66.206  1.00  0.00     0.000 HD 
HETATM   12  N   UNL     1     -10.371   7.799  66.245  1.00  0.00    -0.377 NA 
HETATM   13  H1  UNL     1     -10.350   7.027  65.579  1.00  0.00     0.000 HD 
ENDBRANCH   8  10
BRANCH   9  14
HETATM   14  C   UNL     1      -9.717   8.247  69.806  1.00  0.00    -0.180 A  
HETATM   15  C   UNL     1     -10.572   7.519  70.651  1.00  0.00    -0.231 A  
HETATM   16  C   UNL     1     -10.181   6.259  71.152  1.00  0.00    -0.198 A  
HETATM   17  C   UNL     1      -8.948   5.708  70.795  1.00  0.00    -0.143 A  
HETATM   18  N   UNL     1     -11.081   5.529  72.048  1.00  0.00    -0.220 N  
HETATM   19  C   UNL     1      -8.113   6.436  69.946  1.00  0.00    -0.121 A  
HETATM   20  O   UNL     1     -10.689   4.438  72.493  1.00  0.00    -0.173 OA 
HETATM   21  O   UNL     1     -12.179   6.041  72.311  1.00  0.00    -0.281 OA 
HETATM   22  O   UNL     1      -8.453   4.494  71.207  1.00  0.00    -0.102 OA 
HETATM   23  H   UNL     1      -7.614   4.119  70.964  1.00  0.00     0.000 HD 
HETATM   24  O   UNL     1      -6.900   5.913  69.586  1.00  0.00    -0.056 OA 
HETATM   25  C   UNL     1      -8.480   7.690  69.458  1.00  0.00    -0.132 A  
HETATM   26  H   UNL     1      -6.332   6.408  69.008  1.00  0.00     0.000 HD 
ENDBRANCH   9  14
ENDBRANCH   5   8
ENDBRANCH   2   3
TORSDOF 5
ENDMDL
MODEL      202
REMARK 921   NORMALIZED FREE ENERGY PREDICTED BY IDOCK:   -3.92 KCAL/MOL
REMARK 922        TOTAL FREE ENERGY PREDICTED BY IDOCK:   -5.18 KCAL/MOL
REMARK 923 INTER-LIGAND FREE ENERGY PREDICTED BY IDOCK:   -4.87 KCAL/MOL
REMARK 924 INTRA-LIGAND FREE ENERGY PREDICTED BY IDOCK:   -0.31 KCAL/MOL
REMARK 927      BINDING AFFINITY PREDICTED BY RF-SCORE:    0.00 PKD
ROOT
HETATM    1  C   UNL     1     -11.607  15.461  70.517  1.00  0.00    -0.355 C  
HETATM    2  C   UNL     1     -12.494  14.369  69.931  1.00  0.00    -0.261 C  
ENDROOT
BRANCH   2   3
HETATM    3  N   UNL     1     -11.775  13.117  69.645  1.00  0.00    -0.309 N  
HETATM    4  O   UNL     1     -10.852  14.116  67.795  1.00  0.00    -0.248 OA 
HETATM    5  C   UNL     1     -11.002  13.093  68.475  1.00  0.00    -0.263 C  
BRANCH   3   6
HETATM    6  C   UNL     1     -11.916  11.981  70.567  1.00  0.00    -0.246 C  
HETATM    7  C   UNL     1     -12.805  12.103  71.794  1.00  0.00    -0.367 C  
ENDBRANCH   3   6
BRANCH   5   8
HETATM    8  C   UNL     1     -10.321  11.840  67.993  1.00  0.00    -0.212 C  
HETATM    9  C   UNL     1     -10.993  10.966  67.205  1.00  0.00    -0.334 C  
BRANCH   8  10
HETATM   10  C   UNL     1      -8.887  11.472  68.339  1.00  0.00    -0.163 C  
HETATM   11  H2  UNL     1      -7.757  10.818  67.666  1.00  0.00     0.000 HD 
HETATM   12  N   UNL     1      -7.698  11.167  68.624  1.00  0.00    -0.127 NA 
HETATM   13  H1  UNL     1      -6.735  10.920  68.855  1.00  0.00     0.000 HD 
ENDBRANCH   8  10
BRANCH   9  14
HETATM   14  C   UNL     1     -10.403   9.723  66.648  1.00  0.00    -0.276 A  
HETATM   15  C   UNL     1     -10.515   8.499  67.330  1.00  0.00    -0.351 A  
HETATM   16  C   UNL     1      -9.885   7.340  66.829  1.00  0.00    -0.212 A  
HETATM   17  C   UNL     1      -9.159   7.390  65.636  1.00  0.00     0.121 A  
HETATM   18  N   UNL     1      -9.999   6.081  67.569  1.00  0.00    -0.127 N  
HETATM   19  C   UNL     1      -9.064   8.609  64.963  1.00  0.00     0.085 A  
HETATM   20  O   UNL     1      -9.405   5.090  67.113  1.00  0.00    -0.117 OA 
HETATM   21  O   UNL     1     -10.681   6.076  68.604  1.00  0.00    -0.246 OA 
HETATM   22  O   UNL     1      -8.504   6.338  65.041  1.00  0.00    -0.238 OA 
HETATM   23  H   UNL     1      -8.011   6.371  64.230  1.00  0.00     0.000 HD 
HETATM   24  O   UNL     1      -8.356   8.677  63.794  1.00  0.00    -0.243 OA 
HETATM   25  C   UNL     1      -9.668   9.766  65.456  1.00  0.00    -0.382 A  
HETATM   26  H   UNL     1      -8.292   9.507  63.336  1.00  0.00     0.000 HD 
ENDBRANCH   9  14
ENDBRANCH   5   8
ENDBRANCH   2   3
TORSDOF 5
ENDMDL
MODEL      203
REMARK 921   NORMALIZED FREE ENERGY PREDICTED BY IDOCK:   -3.91 KCAL/MOL
REMARK 922        TOTAL FREE ENERGY PREDICTED BY IDOCK:   -5.18 KCAL/MOL
REMARK 923 INTER-LIGAND FREE ENERGY PREDICTED BY IDOCK:   -5.00 KCAL/MOL
REMARK 924 INTRA-LIGAND FREE ENERGY PREDICTED BY IDOCK:   -0.18 KCAL/MOL
REMARK 927      BINDING AFFINITY PREDICTED BY RF-SCORE:    0.00 PKD
ROOT
HETATM    1  C   UNL     1      -8.961   3.852  63.851  1.00  0.00    -0.118 C  
HETATM    2  C   UNL     1      -8.051   4.981  64.317  1.00  0.00    -0.118 C  
ENDROOT
BRANCH   2   3
HETATM    3  N   UNL     1      -8.657   5.841  65.346  1.00  0.00    -0.151 N  
HETATM    4  O   UNL     1      -7.474   7.618  64.504  1.00  0.00    -0.080 OA 
HETATM    5  C   UNL     1      -8.231   7.177  65.376  1.00  0.00    -0.137 C  
BRANCH   3   6
HETATM    6  C   UNL     1      -9.640   5.264  66.276  1.00  0.00    -0.161 C  
HETATM    7  C   UNL     1      -9.176   4.645  67.585  1.00  0.00    -0.148 C  
ENDBRANCH   3   6
BRANCH   5   8
HETATM    8  C   UNL     1      -8.671   8.131  66.454  1.00  0.00    -0.168 C  
HETATM    9  C   UNL     1      -9.991   8.288  66.721  1.00  0.00    -0.355 C  
BRANCH   8  10
HETATM   10  C   UNL     1      -7.710   8.957  67.294  1.00  0.00    -0.092 C  
HETATM   11  H2  UNL     1      -6.921   8.767  68.519  1.00  0.00     0.000 HD 
HETATM   12  N   UNL     1      -6.913   9.641  67.991  1.00  0.00    -0.077 NA 
HETATM   13  H1  UNL     1      -6.268  10.195  68.555  1.00  0.00     0.000 HD 
ENDBRANCH   8  10
BRANCH   9  14
HETATM   14  C   UNL     1     -10.525   9.172  67.786  1.00  0.00    -0.306 A  
HETATM   15  C   UNL     1     -10.925  10.490  67.501  1.00  0.00    -0.365 A  
HETATM   16  C   UNL     1     -11.359  11.346  68.536  1.00  0.00    -0.271 A  
HETATM   17  C   UNL     1     -11.419  10.887  69.854  1.00  0.00    -0.323 A  
HETATM   18  N   UNL     1     -11.750  12.721  68.216  1.00  0.00    -0.329 N  
HETATM   19  C   UNL     1     -11.031   9.573  70.122  1.00  0.00    -0.262 A  
HETATM   20  O   UNL     1     -12.097  13.453  69.158  1.00  0.00    -0.317 OA 
HETATM   21  O   UNL     1     -11.713  13.074  67.029  1.00  0.00    -0.345 OA 
HETATM   22  O   UNL     1     -11.826  11.614  70.947  1.00  0.00    -0.384 OA 
HETATM   23  H   UNL     1     -11.868  11.302  71.844  1.00  0.00     0.000 HD 
HETATM   24  O   UNL     1     -11.082   9.107  71.407  1.00  0.00    -0.289 OA 
HETATM   25  C   UNL     1     -10.583   8.722  69.111  1.00  0.00    -0.200 A  
HETATM   26  H   UNL     1     -10.818   8.213  71.590  1.00  0.00     0.000 HD 
ENDBRANCH   9  14
ENDBRANCH   5   8
ENDBRANCH   2   3
TORSDOF 5
ENDMDL
MODEL      204
REMARK 921   NORMALIZED FREE ENERGY PREDICTED BY IDOCK:   -3.90 KCAL/MOL
REMARK 922        TOTAL FREE ENERGY PREDICTED BY IDOCK:   -5.16 KCAL/MOL
REMARK 923 INTER-LIGAND FREE ENERGY PREDICTED BY IDOCK:   -4.89 KCAL/MOL
REMARK 924 INTRA-LIGAND FREE ENERGY PREDICTED BY IDOCK:   -0.27 KCAL/MOL
REMARK 927      BINDING AFFINITY PREDICTED BY RF-SCORE:    0.00 PKD
ROOT
HETATM    1  C   UNL     1     -11.775  15.907  70.484  1.00  0.00    -0.394 C  
HETATM    2  C   UNL     1     -12.645  14.811  69.881  1.00  0.00    -0.174 C  
ENDROOT
BRANCH   2   3
HETATM    3  N   UNL     1     -11.943  13.529  69.711  1.00  0.00    -0.329 N  
HETATM    4  O   UNL     1     -10.753  14.455  67.980  1.00  0.00    -0.237 OA 
HETATM    5  C   UNL     1     -11.027  13.453  68.651  1.00  0.00    -0.260 C  
BRANCH   3   6
HETATM    6  C   UNL     1     -12.244  12.418  70.626  1.00  0.00    -0.278 C  
HETATM    7  C   UNL     1     -13.013  12.679  71.912  1.00  0.00    -0.402 C  
ENDBRANCH   3   6
BRANCH   5   8
HETATM    8  C   UNL     1     -10.338  12.167  68.283  1.00  0.00    -0.218 C  
HETATM    9  C   UNL     1     -10.873  11.361  67.333  1.00  0.00    -0.301 C  
BRANCH   8  10
HETATM   10  C   UNL     1      -9.042  11.690  68.920  1.00  0.00     0.072 C  
HETATM   11  H2  UNL     1      -7.613  12.007  68.807  1.00  0.00     0.000 HD 
HETATM   12  N   UNL     1      -7.967  11.296  69.447  1.00  0.00    -0.366 NA 
HETATM   13  H1  UNL     1      -7.098  10.977  69.874  1.00  0.00     0.000 HD 
ENDBRANCH   8  10
BRANCH   9  14
HETATM   14  C   UNL     1     -10.254  10.093  66.871  1.00  0.00    -0.295 A  
HETATM   15  C   UNL     1      -9.472  10.052  65.704  1.00  0.00    -0.278 A  
HETATM   16  C   UNL     1      -8.952   8.827  65.234  1.00  0.00    -0.133 A  
HETATM   17  C   UNL     1      -9.191   7.642  65.936  1.00  0.00     0.004 A  
HETATM   18  N   UNL     1      -8.157   8.806  64.004  1.00  0.00    -0.157 N  
HETATM   19  C   UNL     1      -9.960   7.699  67.099  1.00  0.00    -0.229 A  
HETATM   20  O   UNL     1      -7.744   7.705  63.605  1.00  0.00    -0.112 OA 
HETATM   21  O   UNL     1      -7.942   9.885  63.434  1.00  0.00    -0.139 OA 
HETATM   22  O   UNL     1      -8.741   6.390  65.589  1.00  0.00    -0.184 OA 
HETATM   23  H   UNL     1      -8.903   5.584  66.066  1.00  0.00     0.000 HD 
HETATM   24  O   UNL     1     -10.206   6.548  67.798  1.00  0.00    -0.140 OA 
HETATM   25  C   UNL     1     -10.494   8.900  67.565  1.00  0.00    -0.337 A  
HETATM   26  H   UNL     1     -10.729   6.587  68.590  1.00  0.00     0.000 HD 
ENDBRANCH   9  14
ENDBRANCH   5   8
ENDBRANCH   2   3
TORSDOF 5
ENDMDL
MODEL      205
REMARK 921   NORMALIZED FREE ENERGY PREDICTED BY IDOCK:   -3.85 KCAL/MOL
REMARK 922        TOTAL FREE ENERGY PREDICTED BY IDOCK:   -5.10 KCAL/MOL
REMARK 923 INTER-LIGAND FREE ENERGY PREDICTED BY IDOCK:   -4.73 KCAL/MOL
REMARK 924 INTRA-LIGAND FREE ENERGY PREDICTED BY IDOCK:   -0.37 KCAL/MOL
REMARK 927      BINDING AFFINITY PREDICTED BY RF-SCORE:    0.00 PKD
ROOT
HETATM    1  C   UNL     1     -12.708  12.472  71.756  1.00  0.00    -0.244 C  
HETATM    2  C   UNL     1     -13.318  11.078  71.697  1.00  0.00    -0.243 C  
ENDROOT
BRANCH   2   3
HETATM    3  N   UNL     1     -12.501  10.108  70.951  1.00  0.00    -0.338 N  
HETATM    4  O   UNL     1     -12.453   8.772  72.817  1.00  0.00    -0.308 OA 
HETATM    5  C   UNL     1     -12.064   8.980  71.661  1.00  0.00    -0.352 C  
BRANCH   3   6
HETATM    6  C   UNL     1     -12.178  10.374  69.542  1.00  0.00     0.003 C  
HETATM    7  C   UNL     1     -10.896  11.109  69.181  1.00  0.00    -0.284 C  
ENDBRANCH   3   6
BRANCH   5   8
HETATM    8  C   UNL     1     -11.117   7.976  71.061  1.00  0.00    -0.275 C  
HETATM    9  C   UNL     1     -11.561   6.737  70.736  1.00  0.00    -0.418 C  
BRANCH   8  10
HETATM   10  C   UNL     1      -9.649   8.261  70.784  1.00  0.00    -0.172 C  
HETATM   11  H2  UNL     1      -8.510   8.826  71.518  1.00  0.00     0.000 HD 
HETATM   12  N   UNL     1      -8.433   8.497  70.555  1.00  0.00    -0.128 NA 
HETATM   13  H1  UNL     1      -7.448   8.688  70.370  1.00  0.00     0.000 HD 
ENDBRANCH   8  10
BRANCH   9  14
HETATM   14  C   UNL     1     -10.720   5.689  70.106  1.00  0.00    -0.376 A  
HETATM   15  C   UNL     1     -10.723   5.497  68.714  1.00  0.00    -0.195 A  
HETATM   16  C   UNL     1      -9.978   4.448  68.134  1.00  0.00     0.001 A  
HETATM   17  C   UNL     1      -9.208   3.601  68.936  1.00  0.00    -0.160 A  
HETATM   18  N   UNL     1     -10.014   4.254  66.683  1.00  0.00    -0.219 N  
HETATM   19  C   UNL     1      -9.204   3.810  70.316  1.00  0.00    -0.149 A  
HETATM   20  O   UNL     1      -9.370   3.302  66.213  1.00  0.00    -0.164 OA 
HETATM   21  O   UNL     1     -10.683   5.050  66.008  1.00  0.00    -0.298 OA 
HETATM   22  O   UNL     1      -8.437   2.551  68.499  1.00  0.00    -0.063 OA 
HETATM   23  H   UNL     1      -7.913   1.975  69.044  1.00  0.00     0.000 HD 
HETATM   24  O   UNL     1      -8.457   2.990  71.117  1.00  0.00    -0.061 OA 
HETATM   25  C   UNL     1      -9.950   4.833  70.903  1.00  0.00    -0.283 A  
HETATM   26  H   UNL     1      -8.453   3.133  72.056  1.00  0.00     0.000 HD 
ENDBRANCH   9  14
ENDBRANCH   5   8
ENDBRANCH   2   3
TORSDOF 5
ENDMDL
MODEL      206
REMARK 921   NORMALIZED FREE ENERGY PREDICTED BY IDOCK:   -3.85 KCAL/MOL
REMARK 922        TOTAL FREE ENERGY PREDICTED BY IDOCK:   -5.09 KCAL/MOL
REMARK 923 INTER-LIGAND FREE ENERGY PREDICTED BY IDOCK:   -5.49 KCAL/MOL
REMARK 924 INTRA-LIGAND FREE ENERGY PREDICTED BY IDOCK:    0.40 KCAL/MOL
REMARK 927      BINDING AFFINITY PREDICTED BY RF-SCORE:    0.00 PKD
ROOT
HETATM    1  C   UNL     1     -12.008  15.033  64.229  1.00  0.00    -0.310 C  
HETATM    2  C   UNL     1     -12.784  13.934  64.943  1.00  0.00    -0.278 C  
ENDROOT
BRANCH   2   3
HETATM    3  N   UNL     1     -11.935  13.039  65.745  1.00  0.00    -0.407 N  
HETATM    4  O   UNL     1     -12.045  14.545  67.473  1.00  0.00    -0.366 OA 
HETATM    5  C   UNL     1     -11.572  13.496  67.020  1.00  0.00    -0.359 C  
BRANCH   3   6
HETATM    6  C   UNL     1     -11.507  11.753  65.174  1.00  0.00    -0.183 C  
HETATM    7  C   UNL     1     -10.979  11.690  63.750  1.00  0.00    -0.495 C  
ENDBRANCH   3   6
BRANCH   5   8
HETATM    8  C   UNL     1     -10.604  12.743  67.892  1.00  0.00    -0.232 C  
HETATM    9  C   UNL     1     -10.801  11.424  68.139  1.00  0.00    -0.259 C  
BRANCH   8  10
HETATM   10  C   UNL     1      -9.381  13.375  68.538  1.00  0.00    -0.097 C  
HETATM   11  H2  UNL     1      -8.137  14.010  68.084  1.00  0.00     0.000 HD 
HETATM   12  N   UNL     1      -8.367  13.899  69.072  1.00  0.00    -0.344 NA 
HETATM   13  H1  UNL     1      -7.546  14.323  69.504  1.00  0.00     0.000 HD 
ENDBRANCH   8  10
BRANCH   9  14
HETATM   14  C   UNL     1      -9.887  10.584  68.953  1.00  0.00    -0.209 A  
HETATM   15  C   UNL     1     -10.334   9.957  70.129  1.00  0.00    -0.336 A  
HETATM   16  C   UNL     1      -9.437   9.224  70.934  1.00  0.00    -0.261 A  
HETATM   17  C   UNL     1      -8.097   9.093  70.562  1.00  0.00    -0.162 A  
HETATM   18  N   UNL     1      -9.923   8.597  72.166  1.00  0.00    -0.318 N  
HETATM   19  C   UNL     1      -7.668   9.711  69.386  1.00  0.00    -0.101 A  
HETATM   20  O   UNL     1      -9.097   7.987  72.865  1.00  0.00    -0.194 OA 
HETATM   21  O   UNL     1     -11.126   8.711  72.440  1.00  0.00    -0.354 OA 
HETATM   22  O   UNL     1      -7.127   8.406  71.252  1.00  0.00    -0.057 OA 
HETATM   23  H   UNL     1      -6.216   8.317  70.998  1.00  0.00     0.000 HD 
HETATM   24  O   UNL     1      -6.359   9.596  69.005  1.00  0.00    -0.042 OA 
HETATM   25  C   UNL     1      -8.541  10.453  68.589  1.00  0.00    -0.133 A  
HETATM   26  H   UNL     1      -6.067  10.016  68.205  1.00  0.00     0.000 HD 
ENDBRANCH   9  14
ENDBRANCH   5   8
ENDBRANCH   2   3
TORSDOF 5
ENDMDL
MODEL      207
REMARK 921   NORMALIZED FREE ENERGY PREDICTED BY IDOCK:   -3.83 KCAL/MOL
REMARK 922        TOTAL FREE ENERGY PREDICTED BY IDOCK:   -5.07 KCAL/MOL
REMARK 923 INTER-LIGAND FREE ENERGY PREDICTED BY IDOCK:   -4.57 KCAL/MOL
REMARK 924 INTRA-LIGAND FREE ENERGY PREDICTED BY IDOCK:   -0.50 KCAL/MOL
REMARK 927      BINDING AFFINITY PREDICTED BY RF-SCORE:    0.00 PKD
ROOT
HETATM    1  C   UNL     1     -10.688  16.038  66.614  1.00  0.00    -0.247 C  
HETATM    2  C   UNL     1     -11.343  14.778  67.167  1.00  0.00    -0.356 C  
ENDROOT
BRANCH   2   3
HETATM    3  N   UNL     1     -10.438  13.619  67.219  1.00  0.00    -0.258 N  
HETATM    4  O   UNL     1     -12.270  12.237  67.213  1.00  0.00    -0.485 OA 
HETATM    5  C   UNL     1     -11.043  12.356  67.300  1.00  0.00    -0.281 C  
BRANCH   3   6
HETATM    6  C   UNL     1      -8.984  13.841  67.203  1.00  0.00    -0.235 C  
HETATM    7  C   UNL     1      -8.261  14.236  68.481  1.00  0.00    -0.145 C  
ENDBRANCH   3   6
BRANCH   5   8
HETATM    8  C   UNL     1     -10.239  11.097  67.490  1.00  0.00    -0.216 C  
HETATM    9  C   UNL     1      -9.877  10.357  66.414  1.00  0.00    -0.266 C  
BRANCH   8  10
HETATM   10  C   UNL     1      -9.790  10.579  68.847  1.00  0.00    -0.201 C  
HETATM   11  H2  UNL     1      -8.626   9.868  69.391  1.00  0.00     0.000 HD 
HETATM   12  N   UNL     1      -9.417  10.150  69.972  1.00  0.00    -0.401 NA 
HETATM   13  H1  UNL     1      -9.115   9.802  70.882  1.00  0.00     0.000 HD 
ENDBRANCH   8  10
BRANCH   9  14
HETATM   14  C   UNL     1      -9.056   9.124  66.490  1.00  0.00    -0.194 A  
HETATM   15  C   UNL     1      -9.658   7.854  66.542  1.00  0.00    -0.281 A  
HETATM   16  C   UNL     1      -8.869   6.694  66.692  1.00  0.00    -0.136 A  
HETATM   17  C   UNL     1      -7.477   6.789  66.767  1.00  0.00    -0.082 A  
HETATM   18  N   UNL     1      -9.522   5.384  66.765  1.00  0.00    -0.132 N  
HETATM   19  C   UNL     1      -6.891   8.055  66.702  1.00  0.00    -0.068 A  
HETATM   20  O   UNL     1      -8.797   4.389  66.928  1.00  0.00    -0.111 OA 
HETATM   21  O   UNL     1     -10.756   5.344  66.660  1.00  0.00    -0.295 OA 
HETATM   22  O   UNL     1      -6.599   5.742  66.908  1.00  0.00    -0.052 OA 
HETATM   23  H   UNL     1      -5.653   5.807  66.959  1.00  0.00     0.000 HD 
HETATM   24  O   UNL     1      -5.530   8.168  66.776  1.00  0.00    -0.031 OA 
HETATM   25  C   UNL     1      -7.660   9.211  66.572  1.00  0.00    -0.093 A  
HETATM   26  H   UNL     1      -5.130   9.029  66.732  1.00  0.00     0.000 HD 
ENDBRANCH   9  14
ENDBRANCH   5   8
ENDBRANCH   2   3
TORSDOF 5
ENDMDL
MODEL      208
REMARK 921   NORMALIZED FREE ENERGY PREDICTED BY IDOCK:   -3.81 KCAL/MOL
REMARK 922        TOTAL FREE ENERGY PREDICTED BY IDOCK:   -5.04 KCAL/MOL
REMARK 923 INTER-LIGAND FREE ENERGY PREDICTED BY IDOCK:   -4.49 KCAL/MOL
REMARK 924 INTRA-LIGAND FREE ENERGY PREDICTED BY IDOCK:   -0.55 KCAL/MOL
REMARK 927      BINDING AFFINITY PREDICTED BY RF-SCORE:    0.00 PKD
ROOT
HETATM    1  C   UNL     1      -9.187   4.119  63.386  1.00  0.00    -0.137 C  
HETATM    2  C   UNL     1      -8.117   4.956  64.075  1.00  0.00    -0.116 C  
ENDROOT
BRANCH   2   3
HETATM    3  N   UNL     1      -8.645   5.832  65.133  1.00  0.00    -0.139 N  
HETATM    4  O   UNL     1      -7.509   7.589  64.190  1.00  0.00    -0.084 OA 
HETATM    5  C   UNL     1      -8.208   7.165  65.117  1.00  0.00    -0.113 C  
BRANCH   3   6
HETATM    6  C   UNL     1      -9.565   5.274  66.135  1.00  0.00    -0.161 C  
HETATM    7  C   UNL     1      -9.015   4.625  67.395  1.00  0.00    -0.119 C  
ENDBRANCH   3   6
BRANCH   5   8
HETATM    8  C   UNL     1      -8.565   8.134  66.212  1.00  0.00    -0.157 C  
HETATM    9  C   UNL     1      -9.716   8.847  66.135  1.00  0.00    -0.338 C  
BRANCH   8  10
HETATM   10  C   UNL     1      -7.701   8.379  67.438  1.00  0.00    -0.098 C  
HETATM   11  H2  UNL     1      -6.308   8.132  67.835  1.00  0.00     0.000 HD 
HETATM   12  N   UNL     1      -6.983   8.582  68.454  1.00  0.00    -0.065 NA 
HETATM   13  H1  UNL     1      -6.403   8.746  69.277  1.00  0.00     0.000 HD 
ENDBRANCH   8  10
BRANCH   9  14
HETATM   14  C   UNL     1     -10.177   9.799  67.176  1.00  0.00    -0.288 A  
HETATM   15  C   UNL     1     -10.764   9.340  68.368  1.00  0.00    -0.192 A  
HETATM   16  C   UNL     1     -11.268  10.256  69.316  1.00  0.00    -0.228 A  
HETATM   17  C   UNL     1     -11.169  11.632  69.092  1.00  0.00    -0.263 A  
HETATM   18  N   UNL     1     -11.894   9.753  70.541  1.00  0.00    -0.260 N  
HETATM   19  C   UNL     1     -10.573  12.074  67.910  1.00  0.00    -0.202 A  
HETATM   20  O   UNL     1     -12.353  10.589  71.337  1.00  0.00    -0.365 OA 
HETATM   21  O   UNL     1     -11.929   8.526  70.713  1.00  0.00    -0.236 OA 
HETATM   22  O   UNL     1     -11.613  12.624  69.934  1.00  0.00    -0.460 OA 
HETATM   23  H   UNL     1     -11.546  13.559  69.782  1.00  0.00     0.000 HD 
HETATM   24  O   UNL     1     -10.469  13.418  67.673  1.00  0.00    -0.236 OA 
HETATM   25  C   UNL     1     -10.087  11.180  66.956  1.00  0.00    -0.235 A  
HETATM   26  H   UNL     1     -10.064  13.719  66.868  1.00  0.00     0.000 HD 
ENDBRANCH   9  14
ENDBRANCH   5   8
ENDBRANCH   2   3
TORSDOF 5
ENDMDL
MODEL      209
REMARK 921   NORMALIZED FREE ENERGY PREDICTED BY IDOCK:   -3.81 KCAL/MOL
REMARK 922        TOTAL FREE ENERGY PREDICTED BY IDOCK:   -5.04 KCAL/MOL
REMARK 923 INTER-LIGAND FREE ENERGY PREDICTED BY IDOCK:   -4.90 KCAL/MOL
REMARK 924 INTRA-LIGAND FREE ENERGY PREDICTED BY IDOCK:   -0.13 KCAL/MOL
REMARK 927      BINDING AFFINITY PREDICTED BY RF-SCORE:    0.00 PKD
ROOT
HETATM    1  C   UNL     1     -12.054  14.999  64.245  1.00  0.00    -0.323 C  
HETATM    2  C   UNL     1     -12.698  14.277  65.421  1.00  0.00    -0.369 C  
ENDROOT
BRANCH   2   3
HETATM    3  N   UNL     1     -11.986  13.054  65.824  1.00  0.00    -0.407 N  
HETATM    4  O   UNL     1     -12.052  13.778  68.001  1.00  0.00    -0.362 OA 
HETATM    5  C   UNL     1     -11.655  12.940  67.182  1.00  0.00    -0.363 C  
BRANCH   3   6
HETATM    6  C   UNL     1     -11.651  12.049  64.804  1.00  0.00    -0.281 C  
HETATM    7  C   UNL     1     -12.639  11.736  63.691  1.00  0.00    -0.458 C  
ENDBRANCH   3   6
BRANCH   5   8
HETATM    8  C   UNL     1     -10.815  11.807  67.707  1.00  0.00    -0.258 C  
HETATM    9  C   UNL     1      -9.539  11.655  67.275  1.00  0.00    -0.182 C  
BRANCH   8  10
HETATM   10  C   UNL     1     -11.311  10.787  68.720  1.00  0.00    -0.288 C  
HETATM   11  H2  UNL     1     -10.781  10.121  69.918  1.00  0.00     0.000 HD 
HETATM   12  N   UNL     1     -11.720   9.942  69.561  1.00  0.00    -0.461 NA 
HETATM   13  H1  UNL     1     -12.052   9.258  70.241  1.00  0.00     0.000 HD 
ENDBRANCH   8  10
BRANCH   9  14
HETATM   14  C   UNL     1      -8.618  10.596  67.757  1.00  0.00    -0.123 A  
HETATM   15  C   UNL     1      -7.839  10.784  68.912  1.00  0.00    -0.136 A  
HETATM   16  C   UNL     1      -6.911   9.801  69.317  1.00  0.00    -0.055 A  
HETATM   17  C   UNL     1      -6.770   8.618  68.588  1.00  0.00    -0.059 A  
HETATM   18  N   UNL     1      -6.096  10.029  70.513  1.00  0.00    -0.089 N  
HETATM   19  C   UNL     1      -7.558   8.439  67.449  1.00  0.00    -0.098 A  
HETATM   20  O   UNL     1      -5.268   9.155  70.820  1.00  0.00    -0.026 OA 
HETATM   21  O   UNL     1      -6.278  11.077  71.148  1.00  0.00    -0.327 OA 
HETATM   22  O   UNL     1      -5.910   7.585  68.876  1.00  0.00    -0.022 OA 
HETATM   23  H   UNL     1      -5.815   6.780  68.380  1.00  0.00     0.000 HD 
HETATM   24  O   UNL     1      -7.432   7.287  66.720  1.00  0.00    -0.088 OA 
HETATM   25  C   UNL     1      -8.466   9.410  67.028  1.00  0.00    -0.127 A  
HETATM   26  H   UNL     1      -7.968   7.165  65.946  1.00  0.00     0.000 HD 
ENDBRANCH   9  14
ENDBRANCH   5   8
ENDBRANCH   2   3
TORSDOF 5
ENDMDL
MODEL      210
REMARK 921   NORMALIZED FREE ENERGY PREDICTED BY IDOCK:   -3.81 KCAL/MOL
REMARK 922        TOTAL FREE ENERGY PREDICTED BY IDOCK:   -5.03 KCAL/MOL
REMARK 923 INTER-LIGAND FREE ENERGY PREDICTED BY IDOCK:   -5.48 KCAL/MOL
REMARK 924 INTRA-LIGAND FREE ENERGY PREDICTED BY IDOCK:    0.44 KCAL/MOL
REMARK 927      BINDING AFFINITY PREDICTED BY RF-SCORE:    0.00 PKD
ROOT
HETATM    1  C   UNL     1     -12.034  15.732  70.095  1.00  0.00    -0.364 C  
HETATM    2  C   UNL     1     -12.347  14.477  69.290  1.00  0.00    -0.150 C  
ENDROOT
BRANCH   2   3
HETATM    3  N   UNL     1     -12.267  13.237  70.077  1.00  0.00    -0.305 N  
HETATM    4  O   UNL     1     -10.926  12.335  68.447  1.00  0.00    -0.211 OA 
HETATM    5  C   UNL     1     -11.549  12.177  69.504  1.00  0.00    -0.315 C  
BRANCH   3   6
HETATM    6  C   UNL     1     -12.943  13.169  71.381  1.00  0.00    -0.298 C  
HETATM    7  C   UNL     1     -12.462  14.038  72.532  1.00  0.00    -0.120 C  
ENDBRANCH   3   6
BRANCH   5   8
HETATM    8  C   UNL     1     -11.497  10.813  70.138  1.00  0.00    -0.415 C  
HETATM    9  C   UNL     1     -10.315  10.154  70.228  1.00  0.00    -0.234 C  
BRANCH   8  10
HETATM   10  C   UNL     1     -12.713  10.098  70.706  1.00  0.00    -0.311 C  
HETATM   11  H2  UNL     1     -14.168  10.293  70.703  1.00  0.00     0.000 HD 
HETATM   12  N   UNL     1     -13.722   9.507  71.175  1.00  0.00    -0.481 NA 
HETATM   13  H1  UNL     1     -14.538   9.027  71.555  1.00  0.00     0.000 HD 
ENDBRANCH   8  10
BRANCH   9  14
HETATM   14  C   UNL     1     -10.150   8.824  70.866  1.00  0.00    -0.276 A  
HETATM   15  C   UNL     1      -9.514   8.693  72.113  1.00  0.00    -0.373 A  
HETATM   16  C   UNL     1      -9.295   7.417  72.674  1.00  0.00    -0.150 A  
HETATM   17  C   UNL     1      -9.728   6.268  72.008  1.00  0.00    -0.151 A  
HETATM   18  N   UNL     1      -8.611   7.306  73.965  1.00  0.00    -0.178 N  
HETATM   19  C   UNL     1     -10.369   6.413  70.776  1.00  0.00    -0.201 A  
HETATM   20  O   UNL     1      -8.408   6.165  74.411  1.00  0.00    -0.114 OA 
HETATM   21  O   UNL     1      -8.275   8.353  74.536  1.00  0.00    -0.208 OA 
HETATM   22  O   UNL     1      -9.581   4.974  72.446  1.00  0.00    -0.142 OA 
HETATM   23  H   UNL     1      -9.876   4.192  71.993  1.00  0.00     0.000 HD 
HETATM   24  O   UNL     1     -10.798   5.298  70.108  1.00  0.00    -0.240 OA 
HETATM   25  C   UNL     1     -10.576   7.667  70.202  1.00  0.00    -0.239 A  
HETATM   26  H   UNL     1     -11.235   5.396  69.270  1.00  0.00     0.000 HD 
ENDBRANCH   9  14
ENDBRANCH   5   8
ENDBRANCH   2   3
TORSDOF 5
ENDMDL
MODEL      211
REMARK 921   NORMALIZED FREE ENERGY PREDICTED BY IDOCK:   -3.79 KCAL/MOL
REMARK 922        TOTAL FREE ENERGY PREDICTED BY IDOCK:   -5.02 KCAL/MOL
REMARK 923 INTER-LIGAND FREE ENERGY PREDICTED BY IDOCK:   -4.45 KCAL/MOL
REMARK 924 INTRA-LIGAND FREE ENERGY PREDICTED BY IDOCK:   -0.56 KCAL/MOL
REMARK 927      BINDING AFFINITY PREDICTED BY RF-SCORE:    0.00 PKD
ROOT
HETATM    1  C   UNL     1      -9.968  14.983  68.623  1.00  0.00    -0.220 C  
HETATM    2  C   UNL     1     -10.576  13.834  67.829  1.00  0.00    -0.246 C  
ENDROOT
BRANCH   2   3
HETATM    3  N   UNL     1     -10.146  12.505  68.291  1.00  0.00    -0.225 N  
HETATM    4  O   UNL     1     -12.326  12.028  68.827  1.00  0.00    -0.206 OA 
HETATM    5  C   UNL     1     -11.139  11.683  68.843  1.00  0.00    -0.232 C  
BRANCH   3   6
HETATM    6  C   UNL     1      -8.731  12.126  68.170  1.00  0.00    -0.185 C  
HETATM    7  C   UNL     1      -8.238  11.416  66.919  1.00  0.00    -0.157 C  
ENDBRANCH   3   6
BRANCH   5   8
HETATM    8  C   UNL     1     -10.816  10.354  69.472  1.00  0.00    -0.295 C  
HETATM    9  C   UNL     1     -10.513  10.287  70.791  1.00  0.00     0.217 C  
BRANCH   8  10
HETATM   10  C   UNL     1     -10.807   9.038  68.709  1.00  0.00    -0.030 C  
HETATM   11  H2  UNL     1      -9.797   8.105  68.195  1.00  0.00     0.000 HD 
HETATM   12  N   UNL     1     -10.798   7.948  68.078  1.00  0.00    -0.458 NA 
HETATM   13  H1  UNL     1     -10.791   7.065  67.566  1.00  0.00     0.000 HD 
ENDBRANCH   8  10
BRANCH   9  14
HETATM   14  C   UNL     1     -10.217   9.025  71.514  1.00  0.00    -0.414 A  
HETATM   15  C   UNL     1      -8.892   8.620  71.753  1.00  0.00    -0.281 A  
HETATM   16  C   UNL     1      -8.623   7.381  72.373  1.00  0.00    -0.116 A  
HETATM   17  C   UNL     1      -9.671   6.551  72.779  1.00  0.00    -0.157 A  
HETATM   18  N   UNL     1      -7.233   6.972  72.592  1.00  0.00    -0.073 N  
HETATM   19  C   UNL     1     -10.982   6.970  72.546  1.00  0.00    -0.264 A  
HETATM   20  O   UNL     1      -7.036   5.862  73.112  1.00  0.00    -0.083 OA 
HETATM   21  O   UNL     1      -6.337   7.755  72.247  1.00  0.00    -0.042 OA 
HETATM   22  O   UNL     1      -9.545   5.329  73.395  1.00  0.00    -0.140 OA 
HETATM   23  H   UNL     1     -10.258   4.764  73.671  1.00  0.00     0.000 HD 
HETATM   24  O   UNL     1     -12.021   6.170  72.935  1.00  0.00    -0.496 OA 
HETATM   25  C   UNL     1     -11.262   8.184  71.919  1.00  0.00    -0.351 A  
HETATM   26  H   UNL     1     -12.914   6.455  72.778  1.00  0.00     0.000 HD 
ENDBRANCH   9  14
ENDBRANCH   5   8
ENDBRANCH   2   3
TORSDOF 5
ENDMDL
MODEL      212
REMARK 921   NORMALIZED FREE ENERGY PREDICTED BY IDOCK:   -3.77 KCAL/MOL
REMARK 922        TOTAL FREE ENERGY PREDICTED BY IDOCK:   -4.99 KCAL/MOL
REMARK 923 INTER-LIGAND FREE ENERGY PREDICTED BY IDOCK:   -4.57 KCAL/MOL
REMARK 924 INTRA-LIGAND FREE ENERGY PREDICTED BY IDOCK:   -0.42 KCAL/MOL
REMARK 927      BINDING AFFINITY PREDICTED BY RF-SCORE:    0.00 PKD
ROOT
HETATM    1  C   UNL     1      -7.070   5.668  67.020  1.00  0.00    -0.070 C  
HETATM    2  C   UNL     1      -8.206   6.278  66.209  1.00  0.00    -0.117 C  
ENDROOT
BRANCH   2   3
HETATM    3  N   UNL     1      -8.222   7.749  66.231  1.00  0.00    -0.116 N  
HETATM    4  O   UNL     1     -10.239   7.673  67.322  1.00  0.00    -0.216 OA 
HETATM    5  C   UNL     1      -9.360   8.355  66.783  1.00  0.00    -0.184 C  
BRANCH   3   6
HETATM    6  C   UNL     1      -7.081   8.487  65.670  1.00  0.00    -0.079 C  
HETATM    7  C   UNL     1      -6.151   9.263  66.590  1.00  0.00    -0.064 C  
ENDBRANCH   3   6
BRANCH   5   8
HETATM    8  C   UNL     1      -9.565   9.846  66.751  1.00  0.00    -0.231 C  
HETATM    9  C   UNL     1      -9.322  10.585  67.861  1.00  0.00    -0.150 C  
BRANCH   8  10
HETATM   10  C   UNL     1     -10.041  10.607  65.524  1.00  0.00    -0.280 C  
HETATM   11  H2  UNL     1     -10.118  12.009  65.096  1.00  0.00     0.000 HD 
HETATM   12  N   UNL     1     -10.435  11.239  64.507  1.00  0.00    -0.314 NA 
HETATM   13  H1  UNL     1     -10.753  11.749  63.683  1.00  0.00     0.000 HD 
ENDBRANCH   8  10
BRANCH   9  14
HETATM   14  C   UNL     1      -9.457  12.062  67.923  1.00  0.00    -0.196 A  
HETATM   15  C   UNL     1     -10.509  12.664  68.636  1.00  0.00    -0.224 A  
HETATM   16  C   UNL     1     -10.671  14.065  68.624  1.00  0.00    -0.259 A  
HETATM   17  C   UNL     1      -9.774  14.875  67.922  1.00  0.00    -0.206 A  
HETATM   18  N   UNL     1     -11.787  14.668  69.358  1.00  0.00    -0.312 N  
HETATM   19  C   UNL     1      -8.728  14.266  67.228  1.00  0.00    -0.218 A  
HETATM   20  O   UNL     1     -11.915  15.901  69.298  1.00  0.00    -0.356 OA 
HETATM   21  O   UNL     1     -12.537  13.914  69.994  1.00  0.00    -0.294 OA 
HETATM   22  O   UNL     1      -9.818  16.246  67.835  1.00  0.00    -0.232 OA 
HETATM   23  H   UNL     1      -9.208  16.797  67.358  1.00  0.00     0.000 HD 
HETATM   24  O   UNL     1      -7.841  15.043  66.534  1.00  0.00    -0.245 OA 
HETATM   25  C   UNL     1      -8.566  12.880  67.217  1.00  0.00    -0.205 A  
HETATM   26  H   UNL     1      -7.129  14.628  66.061  1.00  0.00     0.000 HD 
ENDBRANCH   9  14
ENDBRANCH   5   8
ENDBRANCH   2   3
TORSDOF 5
ENDMDL
MODEL      213
REMARK 921   NORMALIZED FREE ENERGY PREDICTED BY IDOCK:   -3.74 KCAL/MOL
REMARK 922        TOTAL FREE ENERGY PREDICTED BY IDOCK:   -4.95 KCAL/MOL
REMARK 923 INTER-LIGAND FREE ENERGY PREDICTED BY IDOCK:   -6.09 KCAL/MOL
REMARK 924 INTRA-LIGAND FREE ENERGY PREDICTED BY IDOCK:    1.14 KCAL/MOL
REMARK 927      BINDING AFFINITY PREDICTED BY RF-SCORE:    0.00 PKD
ROOT
HETATM    1  C   UNL     1      -6.968   5.566  64.361  1.00  0.00    -0.048 C  
HETATM    2  C   UNL     1      -6.758   6.533  65.519  1.00  0.00    -0.047 C  
ENDROOT
BRANCH   2   3
HETATM    3  N   UNL     1      -7.851   7.504  65.682  1.00  0.00    -0.103 N  
HETATM    4  O   UNL     1      -6.852   8.837  64.104  1.00  0.00    -0.081 OA 
HETATM    5  C   UNL     1      -7.754   8.687  64.935  1.00  0.00    -0.106 C  
BRANCH   3   6
HETATM    6  C   UNL     1      -8.951   7.198  66.609  1.00  0.00    -0.146 C  
HETATM    7  C   UNL     1      -9.799   5.954  66.399  1.00  0.00    -0.161 C  
ENDBRANCH   3   6
BRANCH   5   8
HETATM    8  C   UNL     1      -8.733   9.819  65.102  1.00  0.00    -0.192 C  
HETATM    9  C   UNL     1      -8.830  10.458  66.294  1.00  0.00    -0.166 C  
BRANCH   8  10
HETATM   10  C   UNL     1      -9.649  10.315  63.994  1.00  0.00    -0.304 C  
HETATM   11  H2  UNL     1     -10.858  11.142  63.893  1.00  0.00     0.000 HD 
HETATM   12  N   UNL     1     -10.409  10.726  63.077  1.00  0.00    -0.729 NA 
HETATM   13  H1  UNL     1     -11.023  11.059  62.334  1.00  0.00     0.000 HD 
ENDBRANCH   8  10
BRANCH   9  14
HETATM   14  C   UNL     1      -9.733  11.607  66.551  1.00  0.00    -0.227 A  
HETATM   15  C   UNL     1     -10.901  11.795  65.792  1.00  0.00    -0.341 A  
HETATM   16  C   UNL     1     -11.712  12.932  65.994  1.00  0.00    -0.404 A  
HETATM   17  C   UNL     1     -11.375  13.876  66.969  1.00  0.00    -0.326 A  
HETATM   18  N   UNL     1     -12.913  13.116  65.176  1.00  0.00    -0.302 N  
HETATM   19  C   UNL     1     -10.219  13.671  67.724  1.00  0.00    -0.242 A  
HETATM   20  O   UNL     1     -13.583  14.145  65.362  1.00  0.00    -0.568 OA 
HETATM   21  O   UNL     1     -13.191  12.237  64.348  1.00  0.00    -0.806 OA 
HETATM   22  O   UNL     1     -12.078  15.018  67.267  1.00  0.00    -0.376 OA 
HETATM   23  H   UNL     1     -11.850  15.660  67.930  1.00  0.00     0.000 HD 
HETATM   24  O   UNL     1      -9.873  14.585  68.681  1.00  0.00    -0.224 OA 
HETATM   25  C   UNL     1      -9.400  12.560  67.522  1.00  0.00    -0.187 A  
HETATM   26  H   UNL     1      -9.086  14.447  69.195  1.00  0.00     0.000 HD 
ENDBRANCH   9  14
ENDBRANCH   5   8
ENDBRANCH   2   3
TORSDOF 5
ENDMDL
MODEL      214
REMARK 921   NORMALIZED FREE ENERGY PREDICTED BY IDOCK:   -3.72 KCAL/MOL
REMARK 922        TOTAL FREE ENERGY PREDICTED BY IDOCK:   -4.93 KCAL/MOL
REMARK 923 INTER-LIGAND FREE ENERGY PREDICTED BY IDOCK:   -4.51 KCAL/MOL
REMARK 924 INTRA-LIGAND FREE ENERGY PREDICTED BY IDOCK:   -0.42 KCAL/MOL
REMARK 927      BINDING AFFINITY PREDICTED BY RF-SCORE:    0.00 PKD
ROOT
HETATM    1  C   UNL     1      -9.112  16.045  67.277  1.00  0.00    -0.217 C  
HETATM    2  C   UNL     1      -8.374  14.843  67.853  1.00  0.00    -0.146 C  
ENDROOT
BRANCH   2   3
HETATM    3  N   UNL     1      -8.980  13.552  67.494  1.00  0.00    -0.199 N  
HETATM    4  O   UNL     1      -6.874  12.669  67.270  1.00  0.00    -0.153 OA 
HETATM    5  C   UNL     1      -8.096  12.518  67.155  1.00  0.00    -0.156 C  
BRANCH   3   6
HETATM    6  C   UNL     1     -10.445  13.421  67.492  1.00  0.00    -0.236 C  
HETATM    7  C   UNL     1     -11.189  13.178  68.796  1.00  0.00    -0.323 C  
ENDBRANCH   3   6
BRANCH   5   8
HETATM    8  C   UNL     1      -8.581  11.188  66.643  1.00  0.00    -0.165 C  
HETATM    9  C   UNL     1      -8.310  10.056  67.339  1.00  0.00    -0.118 C  
BRANCH   8  10
HETATM   10  C   UNL     1      -9.380  11.016  65.361  1.00  0.00    -0.216 C  
HETATM   11  H2  UNL     1      -9.315  11.520  63.983  1.00  0.00     0.000 HD 
HETATM   12  N   UNL     1     -10.041  10.875  64.297  1.00  0.00    -0.325 NA 
HETATM   13  H1  UNL     1     -10.576  10.760  63.437  1.00  0.00     0.000 HD 
ENDBRANCH   8  10
BRANCH   9  14
HETATM   14  C   UNL     1      -8.773   8.703  66.942  1.00  0.00    -0.133 A  
HETATM   15  C   UNL     1      -8.055   7.937  66.008  1.00  0.00    -0.112 A  
HETATM   16  C   UNL     1      -8.546   6.685  65.581  1.00  0.00    -0.123 A  
HETATM   17  C   UNL     1      -9.742   6.180  66.098  1.00  0.00     0.007 A  
HETATM   18  N   UNL     1      -7.789   5.914  64.590  1.00  0.00    -0.108 N  
HETATM   19  C   UNL     1     -10.439   6.946  67.033  1.00  0.00    -0.304 A  
HETATM   20  O   UNL     1      -8.269   4.831  64.216  1.00  0.00    -0.104 OA 
HETATM   21  O   UNL     1      -6.717   6.385  64.185  1.00  0.00    -0.036 OA 
HETATM   22  O   UNL     1     -10.324   4.979  65.770  1.00  0.00    -0.378 OA 
HETATM   23  H   UNL     1     -11.137   4.636  66.123  1.00  0.00     0.000 HD 
HETATM   24  O   UNL     1     -11.613   6.469  67.550  1.00  0.00    -0.693 OA 
HETATM   25  C   UNL     1      -9.974   8.193  67.451  1.00  0.00    -0.271 A  
HETATM   26  H   UNL     1     -12.088   6.990  68.187  1.00  0.00     0.000 HD 
ENDBRANCH   9  14
ENDBRANCH   5   8
ENDBRANCH   2   3
TORSDOF 5
ENDMDL
MODEL      215
REMARK 921   NORMALIZED FREE ENERGY PREDICTED BY IDOCK:   -3.72 KCAL/MOL
REMARK 922        TOTAL FREE ENERGY PREDICTED BY IDOCK:   -4.93 KCAL/MOL
REMARK 923 INTER-LIGAND FREE ENERGY PREDICTED BY IDOCK:   -4.45 KCAL/MOL
REMARK 924 INTRA-LIGAND FREE ENERGY PREDICTED BY IDOCK:   -0.48 KCAL/MOL
REMARK 927      BINDING AFFINITY PREDICTED BY RF-SCORE:    0.00 PKD
ROOT
HETATM    1  C   UNL     1      -6.677   6.638  65.397  1.00  0.00    -0.050 C  
HETATM    2  C   UNL     1      -6.212   7.990  65.923  1.00  0.00    -0.042 C  
ENDROOT
BRANCH   2   3
HETATM    3  N   UNL     1      -7.316   8.889  66.295  1.00  0.00    -0.086 N  
HETATM    4  O   UNL     1      -6.811  10.197  64.478  1.00  0.00    -0.129 OA 
HETATM    5  C   UNL     1      -7.487  10.031  65.500  1.00  0.00    -0.137 C  
BRANCH   3   6
HETATM    6  C   UNL     1      -8.149   8.559  67.461  1.00  0.00    -0.107 C  
HETATM    7  C   UNL     1      -9.572   8.062  67.263  1.00  0.00    -0.210 C  
ENDBRANCH   3   6
BRANCH   5   8
HETATM    8  C   UNL     1      -8.492  11.099  65.842  1.00  0.00    -0.105 C  
HETATM    9  C   UNL     1      -8.247  11.953  66.867  1.00  0.00    -0.157 C  
BRANCH   8  10
HETATM   10  C   UNL     1      -9.803  11.296  65.098  1.00  0.00    -0.252 C  
HETATM   11  H2  UNL     1     -11.050  10.545  64.908  1.00  0.00     0.000 HD 
HETATM   12  N   UNL     1     -10.890  11.458  64.481  1.00  0.00    -0.325 NA 
HETATM   13  H1  UNL     1     -11.769  11.590  63.982  1.00  0.00     0.000 HD 
ENDBRANCH   8  10
BRANCH   9  14
HETATM   14  C   UNL     1      -9.153  13.061  67.261  1.00  0.00    -0.209 A  
HETATM   15  C   UNL     1     -10.114  12.886  68.272  1.00  0.00    -0.242 A  
HETATM   16  C   UNL     1     -11.019  13.922  68.585  1.00  0.00    -0.261 A  
HETATM   17  C   UNL     1     -10.958  15.144  67.909  1.00  0.00    -0.302 A  
HETATM   18  N   UNL     1     -12.026  13.709  69.628  1.00  0.00    -0.329 N  
HETATM   19  C   UNL     1      -9.992  15.308  66.915  1.00  0.00    -0.239 A  
HETATM   20  O   UNL     1     -12.825  14.632  69.853  1.00  0.00    -0.186 OA 
HETATM   21  O   UNL     1     -12.021  12.623  70.224  1.00  0.00    -0.348 OA 
HETATM   22  O   UNL     1     -11.774  16.229  68.120  1.00  0.00    -0.192 OA 
HETATM   23  H   UNL     1     -11.732  17.060  67.660  1.00  0.00     0.000 HD 
HETATM   24  O   UNL     1      -9.917  16.496  66.241  1.00  0.00    -0.292 OA 
HETATM   25  C   UNL     1      -9.102  14.286  66.584  1.00  0.00    -0.249 A  
HETATM   26  H   UNL     1      -9.259  16.609  65.565  1.00  0.00     0.000 HD 
ENDBRANCH   9  14
ENDBRANCH   5   8
ENDBRANCH   2   3
TORSDOF 5
ENDMDL
MODEL      216
REMARK 921   NORMALIZED FREE ENERGY PREDICTED BY IDOCK:   -3.72 KCAL/MOL
REMARK 922        TOTAL FREE ENERGY PREDICTED BY IDOCK:   -4.92 KCAL/MOL
REMARK 923 INTER-LIGAND FREE ENERGY PREDICTED BY IDOCK:   -4.75 KCAL/MOL
REMARK 924 INTRA-LIGAND FREE ENERGY PREDICTED BY IDOCK:   -0.17 KCAL/MOL
REMARK 927      BINDING AFFINITY PREDICTED BY RF-SCORE:    0.00 PKD
ROOT
HETATM    1  C   UNL     1     -10.271  17.295  66.120  1.00  0.00    -0.338 C  
HETATM    2  C   UNL     1     -10.482  16.648  67.482  1.00  0.00    -0.317 C  
ENDROOT
BRANCH   2   3
HETATM    3  N   UNL     1      -9.985  15.266  67.562  1.00  0.00    -0.225 N  
HETATM    4  O   UNL     1     -12.068  14.522  66.948  1.00  0.00    -0.399 OA 
HETATM    5  C   UNL     1     -10.921  14.249  67.320  1.00  0.00    -0.297 C  
BRANCH   3   6
HETATM    6  C   UNL     1      -8.574  15.028  67.899  1.00  0.00    -0.155 C  
HETATM    7  C   UNL     1      -7.671  16.197  68.260  1.00  0.00    -0.148 C  
ENDBRANCH   3   6
BRANCH   5   8
HETATM    8  C   UNL     1     -10.581  12.793  67.495  1.00  0.00    -0.240 C  
HETATM    9  C   UNL     1     -10.341  12.300  68.735  1.00  0.00    -0.156 C  
BRANCH   8  10
HETATM   10  C   UNL     1     -10.485  11.804  66.345  1.00  0.00    -0.235 C  
HETATM   11  H2  UNL     1     -10.930  10.432  66.071  1.00  0.00     0.000 HD 
HETATM   12  N   UNL     1     -10.406  10.983  65.392  1.00  0.00    -0.270 NA 
HETATM   13  H1  UNL     1     -10.342  10.319  64.620  1.00  0.00     0.000 HD 
ENDBRANCH   8  10
BRANCH   9  14
HETATM   14  C   UNL     1     -10.035  10.876  69.019  1.00  0.00    -0.206 A  
HETATM   15  C   UNL     1      -8.786  10.323  68.687  1.00  0.00    -0.133 A  
HETATM   16  C   UNL     1      -8.534   8.949  68.892  1.00  0.00    -0.131 A  
HETATM   17  C   UNL     1      -9.515   8.126  69.449  1.00  0.00    -0.162 A  
HETATM   18  N   UNL     1      -7.231   8.392  68.519  1.00  0.00    -0.080 N  
HETATM   19  C   UNL     1     -10.748   8.690  69.784  1.00  0.00    -0.215 A  
HETATM   20  O   UNL     1      -7.058   7.174  68.685  1.00  0.00    -0.079 OA 
HETATM   21  O   UNL     1      -6.379   9.167  68.060  1.00  0.00    -0.054 OA 
HETATM   22  O   UNL     1      -9.396   6.780  69.703  1.00  0.00    -0.145 OA 
HETATM   23  H   UNL     1     -10.064   6.220  70.082  1.00  0.00     0.000 HD 
HETATM   24  O   UNL     1     -11.722   7.898  70.329  1.00  0.00    -0.473 OA 
HETATM   25  C   UNL     1     -11.016  10.042  69.571  1.00  0.00    -0.289 A  
HETATM   26  H   UNL     1     -12.560   8.282  70.558  1.00  0.00     0.000 HD 
ENDBRANCH   9  14
ENDBRANCH   5   8
ENDBRANCH   2   3
TORSDOF 5
ENDMDL
MODEL      217
REMARK 921   NORMALIZED FREE ENERGY PREDICTED BY IDOCK:   -3.68 KCAL/MOL
REMARK 922        TOTAL FREE ENERGY PREDICTED BY IDOCK:   -4.88 KCAL/MOL
REMARK 923 INTER-LIGAND FREE ENERGY PREDICTED BY IDOCK:   -5.07 KCAL/MOL
REMARK 924 INTRA-LIGAND FREE ENERGY PREDICTED BY IDOCK:    0.19 KCAL/MOL
REMARK 927      BINDING AFFINITY PREDICTED BY RF-SCORE:    0.00 PKD
ROOT
HETATM    1  C   UNL     1     -12.132  12.612  63.384  1.00  0.00    -0.614 C  
HETATM    2  C   UNL     1     -10.761  12.729  64.038  1.00  0.00    -0.426 C  
ENDROOT
BRANCH   2   3
HETATM    3  N   UNL     1     -10.749  12.335  65.455  1.00  0.00    -0.270 N  
HETATM    4  O   UNL     1     -10.303  10.178  64.812  1.00  0.00    -0.221 OA 
HETATM    5  C   UNL     1     -10.560  10.972  65.724  1.00  0.00    -0.195 C  
BRANCH   3   6
HETATM    6  C   UNL     1     -10.949  13.362  66.488  1.00  0.00    -0.290 C  
HETATM    7  C   UNL     1      -9.767  14.177  66.989  1.00  0.00    -0.258 C  
ENDBRANCH   3   6
BRANCH   5   8
HETATM    8  C   UNL     1     -10.655  10.412  67.118  1.00  0.00    -0.319 C  
HETATM    9  C   UNL     1      -9.893   9.348  67.473  1.00  0.00    -0.220 C  
BRANCH   8  10
HETATM   10  C   UNL     1     -11.573  10.973  68.193  1.00  0.00    -0.272 C  
HETATM   11  H2  UNL     1     -13.017  11.004  68.459  1.00  0.00     0.000 HD 
HETATM   12  N   UNL     1     -12.335  11.437  69.083  1.00  0.00    -0.353 NA 
HETATM   13  H1  UNL     1     -12.951  11.813  69.804  1.00  0.00     0.000 HD 
ENDBRANCH   8  10
BRANCH   9  14
HETATM   14  C   UNL     1      -9.885   8.746  68.830  1.00  0.00    -0.180 A  
HETATM   15  C   UNL     1      -8.747   8.826  69.651  1.00  0.00    -0.136 A  
HETATM   16  C   UNL     1      -8.724   8.184  70.907  1.00  0.00    -0.140 A  
HETATM   17  C   UNL     1      -9.842   7.479  71.361  1.00  0.00    -0.177 A  
HETATM   18  N   UNL     1      -7.519   8.265  71.736  1.00  0.00    -0.089 N  
HETATM   19  C   UNL     1     -10.969   7.416  70.541  1.00  0.00    -0.253 A  
HETATM   20  O   UNL     1      -7.526   7.661  72.821  1.00  0.00    -0.076 OA 
HETATM   21  O   UNL     1      -6.564   8.930  71.309  1.00  0.00    -0.067 OA 
HETATM   22  O   UNL     1      -9.950   6.816  72.561  1.00  0.00    -0.168 OA 
HETATM   23  H   UNL     1     -10.710   6.337  72.869  1.00  0.00     0.000 HD 
HETATM   24  O   UNL     1     -12.073   6.728  70.968  1.00  0.00    -0.366 OA 
HETATM   25  C   UNL     1     -10.999   8.032  69.289  1.00  0.00     0.023 A  
HETATM   26  H   UNL     1     -12.840   6.686  70.410  1.00  0.00     0.000 HD 
ENDBRANCH   9  14
ENDBRANCH   5   8
ENDBRANCH   2   3
TORSDOF 5
ENDMDL
MODEL      218
REMARK 921   NORMALIZED FREE ENERGY PREDICTED BY IDOCK:   -3.66 KCAL/MOL
REMARK 922        TOTAL FREE ENERGY PREDICTED BY IDOCK:   -4.85 KCAL/MOL
REMARK 923 INTER-LIGAND FREE ENERGY PREDICTED BY IDOCK:   -4.24 KCAL/MOL
REMARK 924 INTRA-LIGAND FREE ENERGY PREDICTED BY IDOCK:   -0.60 KCAL/MOL
REMARK 927      BINDING AFFINITY PREDICTED BY RF-SCORE:    0.00 PKD
ROOT
HETATM    1  C   UNL     1      -8.223   3.522  63.819  1.00  0.00    -0.090 C  
HETATM    2  C   UNL     1      -7.643   4.782  64.449  1.00  0.00    -0.073 C  
ENDROOT
BRANCH   2   3
HETATM    3  N   UNL     1      -7.969   4.932  65.876  1.00  0.00    -0.105 N  
HETATM    4  O   UNL     1      -8.727   7.054  65.440  1.00  0.00    -0.094 OA 
HETATM    5  C   UNL     1      -8.471   6.179  66.275  1.00  0.00    -0.132 C  
BRANCH   3   6
HETATM    6  C   UNL     1      -7.741   3.801  66.787  1.00  0.00    -0.084 C  
HETATM    7  C   UNL     1      -8.921   2.998  67.313  1.00  0.00    -0.184 C  
ENDBRANCH   3   6
BRANCH   5   8
HETATM    8  C   UNL     1      -8.723   6.511  67.722  1.00  0.00    -0.115 C  
HETATM    9  C   UNL     1      -9.984   6.457  68.218  1.00  0.00    -0.147 C  
BRANCH   8  10
HETATM   10  C   UNL     1      -7.631   6.917  68.698  1.00  0.00    -0.105 C  
HETATM   11  H2  UNL     1      -6.275   6.465  69.037  1.00  0.00     0.000 HD 
HETATM   12  N   UNL     1      -6.724   7.252  69.507  1.00  0.00    -0.044 NA 
HETATM   13  H1  UNL     1      -5.991   7.524  70.162  1.00  0.00     0.000 HD 
ENDBRANCH   8  10
BRANCH   9  14
HETATM   14  C   UNL     1     -10.333   6.729  69.634  1.00  0.00    -0.223 A  
HETATM   15  C   UNL     1     -10.394   5.689  70.578  1.00  0.00    -0.327 A  
HETATM   16  C   UNL     1     -10.802   5.948  71.904  1.00  0.00    -0.254 A  
HETATM   17  C   UNL     1     -11.129   7.247  72.302  1.00  0.00    -0.260 A  
HETATM   18  N   UNL     1     -10.878   4.844  72.864  1.00  0.00    -0.232 N  
HETATM   19  C   UNL     1     -11.053   8.273  71.358  1.00  0.00    -0.251 A  
HETATM   20  O   UNL     1     -11.271   5.107  74.012  1.00  0.00    -0.191 OA 
HETATM   21  O   UNL     1     -10.547   3.715  72.476  1.00  0.00    -0.123 OA 
HETATM   22  O   UNL     1     -11.534   7.633  73.557  1.00  0.00    -0.597 OA 
HETATM   23  H   UNL     1     -11.755   8.516  73.828  1.00  0.00     0.000 HD 
HETATM   24  O   UNL     1     -11.370   9.551  71.729  1.00  0.00    -0.370 OA 
HETATM   25  C   UNL     1     -10.668   8.027  70.040  1.00  0.00    -0.244 A  
HETATM   26  H   UNL     1     -11.318  10.249  71.087  1.00  0.00     0.000 HD 
ENDBRANCH   9  14
ENDBRANCH   5   8
ENDBRANCH   2   3
TORSDOF 5
ENDMDL
MODEL      219
REMARK 921   NORMALIZED FREE ENERGY PREDICTED BY IDOCK:   -3.65 KCAL/MOL
REMARK 922        TOTAL FREE ENERGY PREDICTED BY IDOCK:   -4.84 KCAL/MOL
REMARK 923 INTER-LIGAND FREE ENERGY PREDICTED BY IDOCK:   -4.24 KCAL/MOL
REMARK 924 INTRA-LIGAND FREE ENERGY PREDICTED BY IDOCK:   -0.60 KCAL/MOL
REMARK 927      BINDING AFFINITY PREDICTED BY RF-SCORE:    0.00 PKD
ROOT
HETATM    1  C   UNL     1      -8.496   6.455  65.376  1.00  0.00    -0.126 C  
HETATM    2  C   UNL     1      -7.501   7.525  65.809  1.00  0.00    -0.079 C  
ENDROOT
BRANCH   2   3
HETATM    3  N   UNL     1      -8.087   8.557  66.678  1.00  0.00    -0.103 N  
HETATM    4  O   UNL     1      -6.859  10.141  65.560  1.00  0.00    -0.116 OA 
HETATM    5  C   UNL     1      -7.628   9.869  66.489  1.00  0.00    -0.103 C  
BRANCH   3   6
HETATM    6  C   UNL     1      -9.085   8.166  67.686  1.00  0.00    -0.134 C  
HETATM    7  C   UNL     1      -8.633   7.642  69.040  1.00  0.00    -0.136 C  
ENDBRANCH   3   6
BRANCH   5   8
HETATM    8  C   UNL     1      -8.045  10.998  67.393  1.00  0.00    -0.122 C  
HETATM    9  C   UNL     1      -8.933  11.924  66.954  1.00  0.00    -0.196 C  
BRANCH   8  10
HETATM   10  C   UNL     1      -7.524  11.182  68.810  1.00  0.00    -0.118 C  
HETATM   11  H2  UNL     1      -6.557  12.051  69.493  1.00  0.00     0.000 HD 
HETATM   12  N   UNL     1      -7.092  11.335  69.984  1.00  0.00    -0.427 NA 
HETATM   13  H1  UNL     1      -6.743  11.458  70.935  1.00  0.00     0.000 HD 
ENDBRANCH   8  10
BRANCH   9  14
HETATM   14  C   UNL     1      -9.435  13.051  67.777  1.00  0.00    -0.209 A  
HETATM   15  C   UNL     1     -10.559  12.898  68.607  1.00  0.00    -0.256 A  
HETATM   16  C   UNL     1     -11.073  13.998  69.326  1.00  0.00    -0.232 A  
HETATM   17  C   UNL     1     -10.458  15.250  69.239  1.00  0.00    -0.258 A  
HETATM   18  N   UNL     1     -12.258  13.818  70.168  1.00  0.00    -0.350 N  
HETATM   19  C   UNL     1      -9.336  15.386  68.420  1.00  0.00    -0.193 A  
HETATM   20  O   UNL     1     -12.699  14.817  70.761  1.00  0.00    -0.326 OA 
HETATM   21  O   UNL     1     -12.751  12.684  70.242  1.00  0.00    -0.013 OA 
HETATM   22  O   UNL     1     -10.854  16.395  69.888  1.00  0.00    -0.344 OA 
HETATM   23  H   UNL     1     -10.435  17.246  69.829  1.00  0.00     0.000 HD 
HETATM   24  O   UNL     1      -8.720  16.604  68.321  1.00  0.00    -0.202 OA 
HETATM   25  C   UNL     1      -8.827  14.311  67.691  1.00  0.00    -0.196 A  
HETATM   26  H   UNL     1      -7.957  16.697  67.764  1.00  0.00     0.000 HD 
ENDBRANCH   9  14
ENDBRANCH   5   8
ENDBRANCH   2   3
TORSDOF 5
ENDMDL
MODEL      220
REMARK 921   NORMALIZED FREE ENERGY PREDICTED BY IDOCK:   -3.62 KCAL/MOL
REMARK 922        TOTAL FREE ENERGY PREDICTED BY IDOCK:   -4.79 KCAL/MOL
REMARK 923 INTER-LIGAND FREE ENERGY PREDICTED BY IDOCK:   -4.92 KCAL/MOL
REMARK 924 INTRA-LIGAND FREE ENERGY PREDICTED BY IDOCK:    0.13 KCAL/MOL
REMARK 927      BINDING AFFINITY PREDICTED BY RF-SCORE:    0.00 PKD
ROOT
HETATM    1  C   UNL     1     -10.578   7.661  67.048  1.00  0.00    -0.406 C  
HETATM    2  C   UNL     1      -9.294   8.184  66.417  1.00  0.00    -0.210 C  
ENDROOT
BRANCH   2   3
HETATM    3  N   UNL     1      -9.299   9.637  66.189  1.00  0.00    -0.178 N  
HETATM    4  O   UNL     1      -8.647   9.942  68.369  1.00  0.00    -0.113 OA 
HETATM    5  C   UNL     1      -9.003  10.445  67.297  1.00  0.00    -0.135 C  
BRANCH   3   6
HETATM    6  C   UNL     1      -9.622  10.154  64.851  1.00  0.00    -0.306 C  
HETATM    7  C   UNL     1      -8.551  10.197  63.773  1.00  0.00    -0.203 C  
ENDBRANCH   3   6
BRANCH   5   8
HETATM    8  C   UNL     1      -9.100  11.947  67.239  1.00  0.00    -0.178 C  
HETATM    9  C   UNL     1      -8.201  12.709  67.909  1.00  0.00    -0.170 C  
BRANCH   8  10
HETATM   10  C   UNL     1     -10.168  12.694  66.456  1.00  0.00    -0.243 C  
HETATM   11  H2  UNL     1     -10.756  14.040  66.462  1.00  0.00     0.000 HD 
HETATM   12  N   UNL     1     -11.053  13.315  65.808  1.00  0.00    -0.279 NA 
HETATM   13  H1  UNL     1     -11.770  13.817  65.283  1.00  0.00     0.000 HD 
ENDBRANCH   8  10
BRANCH   9  14
HETATM   14  C   UNL     1      -8.187  14.192  67.886  1.00  0.00    -0.155 A  
HETATM   15  C   UNL     1      -9.184  14.937  68.539  1.00  0.00    -0.192 A  
HETATM   16  C   UNL     1      -9.203  16.345  68.447  1.00  0.00    -0.217 A  
HETATM   17  C   UNL     1      -8.216  17.019  67.722  1.00  0.00    -0.192 A  
HETATM   18  N   UNL     1     -10.265  17.097  69.119  1.00  0.00    -0.307 N  
HETATM   19  C   UNL     1      -7.225  16.268  67.087  1.00  0.00    -0.208 A  
HETATM   20  O   UNL     1     -10.265  18.332  68.988  1.00  0.00    -0.376 OA 
HETATM   21  O   UNL     1     -11.099  16.460  69.778  1.00  0.00    -0.338 OA 
HETATM   22  O   UNL     1      -8.118  18.380  67.558  1.00  0.00    -0.243 OA 
HETATM   23  H   UNL     1      -7.447  18.838  67.066  1.00  0.00     0.000 HD 
HETATM   24  O   UNL     1      -6.251  16.911  66.372  1.00  0.00    -0.265 OA 
HETATM   25  C   UNL     1      -7.205  14.875  67.157  1.00  0.00    -0.005 A  
HETATM   26  H   UNL     1      -5.576  16.400  65.940  1.00  0.00     0.000 HD 
ENDBRANCH   9  14
ENDBRANCH   5   8
ENDBRANCH   2   3
TORSDOF 5
ENDMDL
MODEL      221
REMARK 921   NORMALIZED FREE ENERGY PREDICTED BY IDOCK:   -3.61 KCAL/MOL
REMARK 922        TOTAL FREE ENERGY PREDICTED BY IDOCK:   -4.78 KCAL/MOL
REMARK 923 INTER-LIGAND FREE ENERGY PREDICTED BY IDOCK:   -5.14 KCAL/MOL
REMARK 924 INTRA-LIGAND FREE ENERGY PREDICTED BY IDOCK:    0.37 KCAL/MOL
REMARK 927      BINDING AFFINITY PREDICTED BY RF-SCORE:    0.00 PKD
ROOT
HETATM    1  C   UNL     1     -11.369  15.661  64.602  1.00  0.00    -0.355 C  
HETATM    2  C   UNL     1     -11.945  14.292  64.943  1.00  0.00    -0.425 C  
ENDROOT
BRANCH   2   3
HETATM    3  N   UNL     1     -11.135  13.538  65.912  1.00  0.00    -0.284 N  
HETATM    4  O   UNL     1     -10.921  11.855  64.366  1.00  0.00    -0.304 OA 
HETATM    5  C   UNL     1     -10.713  12.260  65.516  1.00  0.00    -0.279 C  
BRANCH   3   6
HETATM    6  C   UNL     1     -10.834  14.140  67.220  1.00  0.00    -0.285 C  
HETATM    7  C   UNL     1     -11.881  14.126  68.322  1.00  0.00    -0.391 C  
ENDBRANCH   3   6
BRANCH   5   8
HETATM    8  C   UNL     1      -9.991  11.331  66.455  1.00  0.00    -0.252 C  
HETATM    9  C   UNL     1      -9.437  11.816  67.593  1.00  0.00    -0.180 C  
BRANCH   8  10
HETATM   10  C   UNL     1      -9.834   9.838  66.211  1.00  0.00    -0.250 C  
HETATM   11  H2  UNL     1     -10.065   8.904  65.102  1.00  0.00     0.000 HD 
HETATM   12  N   UNL     1      -9.704   8.601  66.007  1.00  0.00    -0.433 NA 
HETATM   13  H1  UNL     1      -9.599   7.600  65.843  1.00  0.00     0.000 HD 
ENDBRANCH   8  10
BRANCH   9  14
HETATM   14  C   UNL     1      -8.739  10.980  68.601  1.00  0.00    -0.161 A  
HETATM   15  C   UNL     1      -9.458  10.273  69.580  1.00  0.00    -0.207 A  
HETATM   16  C   UNL     1      -8.780   9.543  70.579  1.00  0.00    -0.197 A  
HETATM   17  C   UNL     1      -7.384   9.495  70.595  1.00  0.00    -0.120 A  
HETATM   18  N   UNL     1      -9.552   8.831  71.601  1.00  0.00    -0.272 N  
HETATM   19  C   UNL     1      -6.681  10.193  69.610  1.00  0.00    -0.076 A  
HETATM   20  O   UNL     1      -8.919   8.226  72.481  1.00  0.00    -0.194 OA 
HETATM   21  O   UNL     1     -10.788   8.873  71.528  1.00  0.00    -0.272 OA 
HETATM   22  O   UNL     1      -6.606   8.821  71.505  1.00  0.00    -0.069 OA 
HETATM   23  H   UNL     1      -5.656   8.788  71.516  1.00  0.00     0.000 HD 
HETATM   24  O   UNL     1      -5.313  10.159  69.611  1.00  0.00    -0.038 OA 
HETATM   25  C   UNL     1      -7.339  10.932  68.627  1.00  0.00    -0.101 A  
HETATM   26  H   UNL     1      -4.835  10.633  68.941  1.00  0.00     0.000 HD 
ENDBRANCH   9  14
ENDBRANCH   5   8
ENDBRANCH   2   3
TORSDOF 5
ENDMDL
MODEL      222
REMARK 921   NORMALIZED FREE ENERGY PREDICTED BY IDOCK:   -3.58 KCAL/MOL
REMARK 922        TOTAL FREE ENERGY PREDICTED BY IDOCK:   -4.74 KCAL/MOL
REMARK 923 INTER-LIGAND FREE ENERGY PREDICTED BY IDOCK:   -4.49 KCAL/MOL
REMARK 924 INTRA-LIGAND FREE ENERGY PREDICTED BY IDOCK:   -0.24 KCAL/MOL
REMARK 927      BINDING AFFINITY PREDICTED BY RF-SCORE:    0.00 PKD
ROOT
HETATM    1  C   UNL     1      -9.830   5.515  72.733  1.00  0.00    -0.185 C  
HETATM    2  C   UNL     1     -11.076   5.772  71.895  1.00  0.00    -0.248 C  
ENDROOT
BRANCH   2   3
HETATM    3  N   UNL     1     -10.887   6.801  70.860  1.00  0.00    -0.240 N  
HETATM    4  O   UNL     1      -9.486   5.366  69.744  1.00  0.00    -0.138 OA 
HETATM    5  C   UNL     1      -9.991   6.491  69.826  1.00  0.00    -0.166 C  
BRANCH   3   6
HETATM    6  C   UNL     1     -11.615   8.074  70.971  1.00  0.00    -0.283 C  
HETATM    7  C   UNL     1     -10.928   9.294  71.563  1.00  0.00    -0.446 C  
ENDBRANCH   3   6
BRANCH   5   8
HETATM    8  C   UNL     1      -9.606   7.498  68.775  1.00  0.00    -0.149 C  
HETATM    9  C   UNL     1     -10.278   7.539  67.599  1.00  0.00    -0.275 C  
BRANCH   8  10
HETATM   10  C   UNL     1      -8.480   8.507  68.945  1.00  0.00    -0.123 C  
HETATM   11  H2  UNL     1      -8.361   9.958  69.133  1.00  0.00     0.000 HD 
HETATM   12  N   UNL     1      -7.548   9.343  69.085  1.00  0.00    -0.072 NA 
HETATM   13  H1  UNL     1      -6.794  10.020  69.198  1.00  0.00     0.000 HD 
ENDBRANCH   8  10
BRANCH   9  14
HETATM   14  C   UNL     1     -10.002   8.515  66.516  1.00  0.00    -0.350 A  
HETATM   15  C   UNL     1      -8.954   8.307  65.603  1.00  0.00    -0.157 A  
HETATM   16  C   UNL     1      -8.653   9.279  64.625  1.00  0.00    -0.187 A  
HETATM   17  C   UNL     1      -9.408  10.451  64.537  1.00  0.00    -0.264 A  
HETATM   18  N   UNL     1      -7.542   9.049  63.698  1.00  0.00    -0.111 N  
HETATM   19  C   UNL     1     -10.454  10.640  65.442  1.00  0.00    -0.184 A  
HETATM   20  O   UNL     1      -7.288   9.941  62.873  1.00  0.00    -0.117 OA 
HETATM   21  O   UNL     1      -6.921   7.980  63.791  1.00  0.00    -0.072 OA 
HETATM   22  O   UNL     1      -9.222  11.469  63.633  1.00  0.00    -0.440 OA 
HETATM   23  H   UNL     1      -9.736  12.266  63.573  1.00  0.00     0.000 HD 
HETATM   24  O   UNL     1     -11.204  11.783  65.373  1.00  0.00    -0.304 OA 
HETATM   25  C   UNL     1     -10.751   9.695  66.425  1.00  0.00     0.015 A  
HETATM   26  H   UNL     1     -11.916  11.912  65.988  1.00  0.00     0.000 HD 
ENDBRANCH   9  14
ENDBRANCH   5   8
ENDBRANCH   2   3
TORSDOF 5
ENDMDL
MODEL      223
REMARK 921   NORMALIZED FREE ENERGY PREDICTED BY IDOCK:   -3.57 KCAL/MOL
REMARK 922        TOTAL FREE ENERGY PREDICTED BY IDOCK:   -4.73 KCAL/MOL
REMARK 923 INTER-LIGAND FREE ENERGY PREDICTED BY IDOCK:   -4.12 KCAL/MOL
REMARK 924 INTRA-LIGAND FREE ENERGY PREDICTED BY IDOCK:   -0.61 KCAL/MOL
REMARK 927      BINDING AFFINITY PREDICTED BY RF-SCORE:    0.00 PKD
ROOT
HETATM    1  C   UNL     1      -7.273   8.098  69.388  1.00  0.00    -0.067 C  
HETATM    2  C   UNL     1      -7.262   8.978  68.145  1.00  0.00    -0.079 C  
ENDROOT
BRANCH   2   3
HETATM    3  N   UNL     1      -7.607  10.383  68.414  1.00  0.00    -0.090 N  
HETATM    4  O   UNL     1      -5.524  10.996  67.670  1.00  0.00    -0.040 OA 
HETATM    5  C   UNL     1      -6.599  11.330  68.182  1.00  0.00    -0.057 C  
BRANCH   3   6
HETATM    6  C   UNL     1      -8.950  10.709  68.915  1.00  0.00    -0.168 C  
HETATM    7  C   UNL     1     -10.074  11.011  67.937  1.00  0.00    -0.199 C  
ENDBRANCH   3   6
BRANCH   5   8
HETATM    8  C   UNL     1      -6.772  12.783  68.538  1.00  0.00    -0.090 C  
HETATM    9  C   UNL     1      -7.185  13.665  67.595  1.00  0.00    -0.179 C  
BRANCH   8  10
HETATM   10  C   UNL     1      -6.509  13.350  69.924  1.00  0.00     0.003 C  
HETATM   11  H2  UNL     1      -6.228  14.669  70.506  1.00  0.00     0.000 HD 
HETATM   12  N   UNL     1      -6.291  13.822  71.072  1.00  0.00    -0.489 NA 
HETATM   13  H1  UNL     1      -6.114  14.203  72.001  1.00  0.00     0.000 HD 
ENDBRANCH   8  10
BRANCH   9  14
HETATM   14  C   UNL     1      -7.422  15.107  67.851  1.00  0.00    -0.149 A  
HETATM   15  C   UNL     1      -8.725  15.611  68.007  1.00  0.00    -0.167 A  
HETATM   16  C   UNL     1      -8.942  16.995  68.174  1.00  0.00    -0.227 A  
HETATM   17  C   UNL     1      -7.862  17.881  68.209  1.00  0.00    -0.285 A  
HETATM   18  N   UNL     1     -10.311  17.499  68.312  1.00  0.00    -0.359 N  
HETATM   19  C   UNL     1      -6.572  17.366  68.065  1.00  0.00    -0.167 A  
HETATM   20  O   UNL     1     -10.463  18.726  68.426  1.00  0.00    -0.333 OA 
HETATM   21  O   UNL     1     -11.235  16.674  68.309  1.00  0.00    -0.349 OA 
HETATM   22  O   UNL     1      -7.936  19.244  68.369  1.00  0.00    -0.314 OA 
HETATM   23  H   UNL     1      -7.201  19.847  68.394  1.00  0.00     0.000 HD 
HETATM   24  O   UNL     1      -5.502  18.219  68.095  1.00  0.00    -0.162 OA 
HETATM   25  C   UNL     1      -6.345  16.002  67.882  1.00  0.00    -0.155 A  
HETATM   26  H   UNL     1      -4.624  17.869  67.998  1.00  0.00     0.000 HD 
ENDBRANCH   9  14
ENDBRANCH   5   8
ENDBRANCH   2   3
TORSDOF 5
ENDMDL
MODEL      224
REMARK 921   NORMALIZED FREE ENERGY PREDICTED BY IDOCK:   -3.56 KCAL/MOL
REMARK 922        TOTAL FREE ENERGY PREDICTED BY IDOCK:   -4.72 KCAL/MOL
REMARK 923 INTER-LIGAND FREE ENERGY PREDICTED BY IDOCK:   -4.54 KCAL/MOL
REMARK 924 INTRA-LIGAND FREE ENERGY PREDICTED BY IDOCK:   -0.18 KCAL/MOL
REMARK 927      BINDING AFFINITY PREDICTED BY RF-SCORE:    0.00 PKD
ROOT
HETATM    1  C   UNL     1     -13.199  12.810  71.925  1.00  0.00    -0.511 C  
HETATM    2  C   UNL     1     -13.050  11.295  71.985  1.00  0.00    -0.326 C  
ENDROOT
BRANCH   2   3
HETATM    3  N   UNL     1     -12.351  10.726  70.822  1.00  0.00    -0.349 N  
HETATM    4  O   UNL     1     -11.535   9.061  72.175  1.00  0.00    -0.355 OA 
HETATM    5  C   UNL     1     -11.549   9.600  71.062  1.00  0.00    -0.359 C  
BRANCH   3   6
HETATM    6  C   UNL     1     -12.511  11.361  69.505  1.00  0.00    -0.035 C  
HETATM    7  C   UNL     1     -11.542  12.445  69.060  1.00  0.00    -0.362 C  
ENDBRANCH   3   6
BRANCH   5   8
HETATM    8  C   UNL     1     -10.679   8.997  69.993  1.00  0.00    -0.247 C  
HETATM    9  C   UNL     1      -9.577   9.660  69.564  1.00  0.00    -0.211 C  
BRANCH   8  10
HETATM   10  C   UNL     1     -10.955   7.653  69.337  1.00  0.00    -0.057 C  
HETATM   11  H2  UNL     1     -10.873   6.237  69.720  1.00  0.00     0.000 HD 
HETATM   12  N   UNL     1     -11.183   6.538  68.796  1.00  0.00    -0.545 NA 
HETATM   13  H1  UNL     1     -11.369   5.636  68.356  1.00  0.00     0.000 HD 
ENDBRANCH   8  10
BRANCH   9  14
HETATM   14  C   UNL     1      -8.635   9.137  68.544  1.00  0.00    -0.129 A  
HETATM   15  C   UNL     1      -8.883   9.310  67.171  1.00  0.00    -0.137 A  
HETATM   16  C   UNL     1      -8.020   8.742  66.210  1.00  0.00    -0.106 A  
HETATM   17  C   UNL     1      -6.894   8.018  66.611  1.00  0.00    -0.068 A  
HETATM   18  N   UNL     1      -8.312   8.920  64.785  1.00  0.00    -0.167 N  
HETATM   19  C   UNL     1      -6.653   7.862  67.977  1.00  0.00    -0.056 A  
HETATM   20  O   UNL     1      -7.547   8.379  63.970  1.00  0.00    -0.111 OA 
HETATM   21  O   UNL     1      -9.302   9.598  64.476  1.00  0.00    -0.261 OA 
HETATM   22  O   UNL     1      -5.977   7.421  65.780  1.00  0.00    -0.036 OA 
HETATM   23  H   UNL     1      -5.211   6.929  66.052  1.00  0.00     0.000 HD 
HETATM   24  O   UNL     1      -5.556   7.155  68.388  1.00  0.00    -0.020 OA 
HETATM   25  C   UNL     1      -7.507   8.404  68.937  1.00  0.00    -0.091 A  
HETATM   26  H   UNL     1      -5.391   7.049  69.318  1.00  0.00     0.000 HD 
ENDBRANCH   9  14
ENDBRANCH   5   8
ENDBRANCH   2   3
TORSDOF 5
ENDMDL
MODEL      225
REMARK 921   NORMALIZED FREE ENERGY PREDICTED BY IDOCK:   -3.56 KCAL/MOL
REMARK 922        TOTAL FREE ENERGY PREDICTED BY IDOCK:   -4.72 KCAL/MOL
REMARK 923 INTER-LIGAND FREE ENERGY PREDICTED BY IDOCK:   -4.25 KCAL/MOL
REMARK 924 INTRA-LIGAND FREE ENERGY PREDICTED BY IDOCK:   -0.47 KCAL/MOL
REMARK 927      BINDING AFFINITY PREDICTED BY RF-SCORE:    0.00 PKD
ROOT
HETATM    1  C   UNL     1     -13.113  13.020  71.670  1.00  0.00    -0.440 C  
HETATM    2  C   UNL     1     -13.410  11.537  71.850  1.00  0.00    -0.303 C  
ENDROOT
BRANCH   2   3
HETATM    3  N   UNL     1     -12.521  10.660  71.071  1.00  0.00    -0.375 N  
HETATM    4  O   UNL     1     -12.417   9.234  72.867  1.00  0.00    -0.016 OA 
HETATM    5  C   UNL     1     -12.025   9.526  71.731  1.00  0.00    -0.371 C  
BRANCH   3   6
HETATM    6  C   UNL     1     -12.194  11.019  69.683  1.00  0.00    -0.300 C  
HETATM    7  C   UNL     1     -10.931  11.810  69.380  1.00  0.00    -0.185 C  
ENDBRANCH   3   6
BRANCH   5   8
HETATM    8  C   UNL     1     -11.007   8.616  71.098  1.00  0.00    -0.320 C  
HETATM    9  C   UNL     1      -9.687   8.803  71.345  1.00  0.00    -0.351 C  
BRANCH   8  10
HETATM   10  C   UNL     1     -11.363   7.464  70.172  1.00  0.00    -0.177 C  
HETATM   11  H2  UNL     1     -11.209   7.148  68.746  1.00  0.00     0.000 HD 
HETATM   12  N   UNL     1     -11.658   6.509  69.404  1.00  0.00    -0.653 NA 
HETATM   13  H1  UNL     1     -11.897   5.736  68.782  1.00  0.00     0.000 HD 
ENDBRANCH   8  10
BRANCH   9  14
HETATM   14  C   UNL     1      -8.608   7.941  70.802  1.00  0.00    -0.132 A  
HETATM   15  C   UNL     1      -8.058   8.182  69.531  1.00  0.00    -0.119 A  
HETATM   16  C   UNL     1      -7.087   7.310  68.994  1.00  0.00    -0.080 A  
HETATM   17  C   UNL     1      -6.643   6.208  69.729  1.00  0.00    -0.047 A  
HETATM   18  N   UNL     1      -6.545   7.571  67.658  1.00  0.00    -0.060 N  
HETATM   19  C   UNL     1      -7.188   5.986  70.994  1.00  0.00    -0.074 A  
HETATM   20  O   UNL     1      -5.716   6.764  67.207  1.00  0.00    -0.012 OA 
HETATM   21  O   UNL     1      -6.943   8.579  67.057  1.00  0.00    -0.072 OA 
HETATM   22  O   UNL     1      -5.703   5.290  69.324  1.00  0.00    -0.014 OA 
HETATM   23  H   UNL     1      -5.401   4.541  69.824  1.00  0.00     0.000 HD 
HETATM   24  O   UNL     1      -6.766   4.911  71.728  1.00  0.00    -0.040 OA 
HETATM   25  C   UNL     1      -8.161   6.831  71.530  1.00  0.00    -0.111 A  
HETATM   26  H   UNL     1      -7.137   4.760  72.590  1.00  0.00     0.000 HD 
ENDBRANCH   9  14
ENDBRANCH   5   8
ENDBRANCH   2   3
TORSDOF 5
ENDMDL
MODEL      226
REMARK 921   NORMALIZED FREE ENERGY PREDICTED BY IDOCK:   -3.55 KCAL/MOL
REMARK 922        TOTAL FREE ENERGY PREDICTED BY IDOCK:   -4.70 KCAL/MOL
REMARK 923 INTER-LIGAND FREE ENERGY PREDICTED BY IDOCK:   -5.04 KCAL/MOL
REMARK 924 INTRA-LIGAND FREE ENERGY PREDICTED BY IDOCK:    0.34 KCAL/MOL
REMARK 927      BINDING AFFINITY PREDICTED BY RF-SCORE:    0.00 PKD
ROOT
HETATM    1  C   UNL     1     -11.298  14.781  69.751  1.00  0.00    -0.319 C  
HETATM    2  C   UNL     1     -12.129  13.648  69.160  1.00  0.00    -0.319 C  
ENDROOT
BRANCH   2   3
HETATM    3  N   UNL     1     -11.517  12.321  69.326  1.00  0.00    -0.281 N  
HETATM    4  O   UNL     1     -12.926  11.936  71.097  1.00  0.00    -0.299 OA 
HETATM    5  C   UNL     1     -11.976  11.550  70.405  1.00  0.00    -0.368 C  
BRANCH   3   6
HETATM    6  C   UNL     1     -10.471  11.889  68.388  1.00  0.00    -0.217 C  
HETATM    7  C   UNL     1     -10.544  12.300  66.926  1.00  0.00    -0.249 C  
ENDBRANCH   3   6
BRANCH   5   8
HETATM    8  C   UNL     1     -11.348  10.232  70.768  1.00  0.00    -0.421 C  
HETATM    9  C   UNL     1     -10.196   9.844  70.170  1.00  0.00    -0.326 C  
BRANCH   8  10
HETATM   10  C   UNL     1     -11.932   9.272  71.793  1.00  0.00    -0.385 C  
HETATM   11  H2  UNL     1     -12.055   9.210  73.255  1.00  0.00     0.000 HD 
HETATM   12  N   UNL     1     -12.416   8.477  72.643  1.00  0.00    -0.550 NA 
HETATM   13  H1  UNL     1     -12.808   7.834  73.331  1.00  0.00     0.000 HD 
ENDBRANCH   8  10
BRANCH   9  14
HETATM   14  C   UNL     1      -9.478   8.583  70.483  1.00  0.00    -0.193 A  
HETATM   15  C   UNL     1      -8.385   8.572  71.368  1.00  0.00    -0.204 A  
HETATM   16  C   UNL     1      -7.663   7.382  71.599  1.00  0.00    -0.086 A  
HETATM   17  C   UNL     1      -8.039   6.193  70.969  1.00  0.00    -0.121 A  
HETATM   18  N   UNL     1      -6.515   7.401  72.509  1.00  0.00    -0.051 N  
HETATM   19  C   UNL     1      -9.133   6.215  70.101  1.00  0.00    -0.152 A  
HETATM   20  O   UNL     1      -5.886   6.342  72.663  1.00  0.00    -0.037 OA 
HETATM   21  O   UNL     1      -6.239   8.470  73.073  1.00  0.00    -0.093 OA 
HETATM   22  O   UNL     1      -7.426   4.972  71.111  1.00  0.00    -0.069 OA 
HETATM   23  H   UNL     1      -7.682   4.163  70.682  1.00  0.00     0.000 HD 
HETATM   24  O   UNL     1      -9.515   5.061  69.473  1.00  0.00    -0.120 OA 
HETATM   25  C   UNL     1      -9.844   7.389  69.851  1.00  0.00    -0.178 A  
HETATM   26  H   UNL     1     -10.259   5.075  68.883  1.00  0.00     0.000 HD 
ENDBRANCH   9  14
ENDBRANCH   5   8
ENDBRANCH   2   3
TORSDOF 5
ENDMDL
MODEL      227
REMARK 921   NORMALIZED FREE ENERGY PREDICTED BY IDOCK:   -3.54 KCAL/MOL
REMARK 922        TOTAL FREE ENERGY PREDICTED BY IDOCK:   -4.69 KCAL/MOL
REMARK 923 INTER-LIGAND FREE ENERGY PREDICTED BY IDOCK:   -4.13 KCAL/MOL
REMARK 924 INTRA-LIGAND FREE ENERGY PREDICTED BY IDOCK:   -0.57 KCAL/MOL
REMARK 927      BINDING AFFINITY PREDICTED BY RF-SCORE:    0.00 PKD
ROOT
HETATM    1  C   UNL     1     -11.007  15.635  65.656  1.00  0.00    -0.276 C  
HETATM    2  C   UNL     1     -11.935  14.552  66.192  1.00  0.00    -0.312 C  
ENDROOT
BRANCH   2   3
HETATM    3  N   UNL     1     -11.247  13.534  67.002  1.00  0.00    -0.303 N  
HETATM    4  O   UNL     1     -11.240  12.142  65.177  1.00  0.00    -0.313 OA 
HETATM    5  C   UNL     1     -10.994  12.304  66.378  1.00  0.00    -0.287 C  
BRANCH   3   6
HETATM    6  C   UNL     1     -10.885  13.847  68.392  1.00  0.00    -0.254 C  
HETATM    7  C   UNL     1      -9.492  14.362  68.718  1.00  0.00    -0.161 C  
ENDBRANCH   3   6
BRANCH   5   8
HETATM    8  C   UNL     1     -10.416  11.133  67.127  1.00  0.00    -0.270 C  
HETATM    9  C   UNL     1      -9.172  10.687  66.828  1.00  0.00    -0.174 C  
BRANCH   8  10
HETATM   10  C   UNL     1     -11.151  10.391  68.232  1.00  0.00    -0.281 C  
HETATM   11  H2  UNL     1     -11.338  10.538  69.681  1.00  0.00     0.000 HD 
HETATM   12  N   UNL     1     -11.760   9.777  69.149  1.00  0.00    -0.388 NA 
HETATM   13  H1  UNL     1     -12.254   9.280  69.890  1.00  0.00     0.000 HD 
ENDBRANCH   8  10
BRANCH   9  14
HETATM   14  C   UNL     1      -8.497   9.567  67.530  1.00  0.00    -0.126 A  
HETATM   15  C   UNL     1      -7.801   9.780  68.733  1.00  0.00    -0.082 A  
HETATM   16  C   UNL     1      -7.100   8.723  69.351  1.00  0.00    -0.057 A  
HETATM   17  C   UNL     1      -7.108   7.444  68.787  1.00  0.00    -0.081 A  
HETATM   18  N   UNL     1      -6.364   8.975  70.592  1.00  0.00    -0.043 N  
HETATM   19  C   UNL     1      -7.813   7.243  67.599  1.00  0.00    -0.113 A  
HETATM   20  O   UNL     1      -5.734   8.028  71.089  1.00  0.00    -0.033 OA 
HETATM   21  O   UNL     1      -6.413  10.116  71.074  1.00  0.00    -0.312 OA 
HETATM   22  O   UNL     1      -6.473   6.333  69.289  1.00  0.00    -0.039 OA 
HETATM   23  H   UNL     1      -6.479   5.464  68.906  1.00  0.00     0.000 HD 
HETATM   24  O   UNL     1      -7.831   5.998  67.032  1.00  0.00    -0.100 OA 
HETATM   25  C   UNL     1      -8.496   8.283  66.969  1.00  0.00    -0.122 A  
HETATM   26  H   UNL     1      -8.311   5.861  66.224  1.00  0.00     0.000 HD 
ENDBRANCH   9  14
ENDBRANCH   5   8
ENDBRANCH   2   3
TORSDOF 5
ENDMDL
MODEL      228
REMARK 921   NORMALIZED FREE ENERGY PREDICTED BY IDOCK:   -3.54 KCAL/MOL
REMARK 922        TOTAL FREE ENERGY PREDICTED BY IDOCK:   -4.69 KCAL/MOL
REMARK 923 INTER-LIGAND FREE ENERGY PREDICTED BY IDOCK:   -4.41 KCAL/MOL
REMARK 924 INTRA-LIGAND FREE ENERGY PREDICTED BY IDOCK:   -0.28 KCAL/MOL
REMARK 927      BINDING AFFINITY PREDICTED BY RF-SCORE:    0.00 PKD
ROOT
HETATM    1  C   UNL     1      -9.171   4.521  62.615  1.00  0.00    -0.117 C  
HETATM    2  C   UNL     1      -8.274   4.176  63.797  1.00  0.00    -0.094 C  
ENDROOT
BRANCH   2   3
HETATM    3  N   UNL     1      -8.727   4.761  65.070  1.00  0.00    -0.142 N  
HETATM    4  O   UNL     1      -7.885   6.786  64.393  1.00  0.00    -0.108 OA 
HETATM    5  C   UNL     1      -8.412   6.111  65.285  1.00  0.00    -0.120 C  
BRANCH   3   6
HETATM    6  C   UNL     1      -9.451   3.917  66.031  1.00  0.00    -0.180 C  
HETATM    7  C   UNL     1      -8.691   2.918  66.890  1.00  0.00    -0.138 C  
ENDBRANCH   3   6
BRANCH   5   8
HETATM    8  C   UNL     1      -8.698   6.799  66.593  1.00  0.00    -0.128 C  
HETATM    9  C   UNL     1      -9.925   7.328  66.824  1.00  0.00    -0.287 C  
BRANCH   8  10
HETATM   10  C   UNL     1      -7.678   6.947  67.710  1.00  0.00    -0.112 C  
HETATM   11  H2  UNL     1      -6.219   6.849  67.850  1.00  0.00     0.000 HD 
HETATM   12  N   UNL     1      -6.832   7.069  68.636  1.00  0.00    -0.073 NA 
HETATM   13  H1  UNL     1      -6.147   7.169  69.385  1.00  0.00     0.000 HD 
ENDBRANCH   8  10
BRANCH   9  14
HETATM   14  C   UNL     1     -10.320   7.992  68.091  1.00  0.00    -0.250 A  
HETATM   15  C   UNL     1     -10.568   7.243  69.255  1.00  0.00    -0.230 A  
HETATM   16  C   UNL     1     -11.016   7.878  70.432  1.00  0.00    -0.249 A  
HETATM   17  C   UNL     1     -11.199   9.263  70.463  1.00  0.00    -0.265 A  
HETATM   18  N   UNL     1     -11.288   7.073  71.626  1.00  0.00    -0.248 N  
HETATM   19  C   UNL     1     -10.938   9.996  69.304  1.00  0.00    -0.228 A  
HETATM   20  O   UNL     1     -11.712   7.664  72.633  1.00  0.00    -0.322 OA 
HETATM   21  O   UNL     1     -11.080   5.853  71.563  1.00  0.00    -0.270 OA 
HETATM   22  O   UNL     1     -11.625  10.000  71.542  1.00  0.00    -0.353 OA 
HETATM   23  H   UNL     1     -11.748  10.942  71.563  1.00  0.00     0.000 HD 
HETATM   24  O   UNL     1     -11.113  11.353  69.315  1.00  0.00    -0.234 OA 
HETATM   25  C   UNL     1     -10.511   9.379  68.129  1.00  0.00    -0.267 A  
HETATM   26  H   UNL     1     -10.935  11.853  68.527  1.00  0.00     0.000 HD 
ENDBRANCH   9  14
ENDBRANCH   5   8
ENDBRANCH   2   3
TORSDOF 5
ENDMDL
MODEL      229
REMARK 921   NORMALIZED FREE ENERGY PREDICTED BY IDOCK:   -3.53 KCAL/MOL
REMARK 922        TOTAL FREE ENERGY PREDICTED BY IDOCK:   -4.67 KCAL/MOL
REMARK 923 INTER-LIGAND FREE ENERGY PREDICTED BY IDOCK:   -4.26 KCAL/MOL
REMARK 924 INTRA-LIGAND FREE ENERGY PREDICTED BY IDOCK:   -0.41 KCAL/MOL
REMARK 927      BINDING AFFINITY PREDICTED BY RF-SCORE:    0.00 PKD
ROOT
HETATM    1  C   UNL     1     -10.827   3.289  73.311  1.00  0.00    -0.283 C  
HETATM    2  C   UNL     1     -11.394   4.692  73.135  1.00  0.00    -0.265 C  
ENDROOT
BRANCH   2   3
HETATM    3  N   UNL     1     -10.547   5.570  72.312  1.00  0.00    -0.216 N  
HETATM    4  O   UNL     1     -12.435   6.671  71.612  1.00  0.00    -0.352 OA 
HETATM    5  C   UNL     1     -11.211   6.519  71.522  1.00  0.00    -0.276 C  
BRANCH   3   6
HETATM    6  C   UNL     1      -9.087   5.399  72.348  1.00  0.00    -0.137 C  
HETATM    7  C   UNL     1      -8.376   4.686  71.208  1.00  0.00    -0.107 C  
ENDBRANCH   3   6
BRANCH   5   8
HETATM    8  C   UNL     1     -10.479   7.391  70.537  1.00  0.00    -0.227 C  
HETATM    9  C   UNL     1     -10.630   7.183  69.206  1.00  0.00    -0.233 C  
BRANCH   8  10
HETATM   10  C   UNL     1      -9.552   8.527  70.942  1.00  0.00    -0.185 C  
HETATM   11  H2  UNL     1      -8.472   9.302  70.318  1.00  0.00     0.000 HD 
HETATM   12  N   UNL     1      -8.784   9.469  71.275  1.00  0.00    -0.306 NA 
HETATM   13  H1  UNL     1      -8.163  10.231  71.546  1.00  0.00     0.000 HD 
ENDBRANCH   8  10
BRANCH   9  14
HETATM   14  C   UNL     1      -9.983   8.008  68.156  1.00  0.00    -0.217 A  
HETATM   15  C   UNL     1      -8.672   7.739  67.727  1.00  0.00    -0.123 A  
HETATM   16  C   UNL     1      -8.041   8.577  66.784  1.00  0.00    -0.098 A  
HETATM   17  C   UNL     1      -8.720   9.673  66.245  1.00  0.00    -0.142 A  
HETATM   18  N   UNL     1      -6.666   8.288  66.369  1.00  0.00    -0.061 N  
HETATM   19  C   UNL     1     -10.026   9.922  66.671  1.00  0.00    -0.217 A  
HETATM   20  O   UNL     1      -6.134   9.066  65.560  1.00  0.00    -0.054 OA 
HETATM   21  O   UNL     1      -6.115   7.286  66.846  1.00  0.00    -0.039 OA 
HETATM   22  O   UNL     1      -8.224  10.560  65.320  1.00  0.00    -0.161 OA 
HETATM   23  H   UNL     1      -8.686  11.305  64.954  1.00  0.00     0.000 HD 
HETATM   24  O   UNL     1     -10.707  10.992  66.156  1.00  0.00    -0.253 OA 
HETATM   25  C   UNL     1     -10.655   9.112  67.616  1.00  0.00    -0.307 A  
HETATM   26  H   UNL     1     -11.596  11.162  66.445  1.00  0.00     0.000 HD 
ENDBRANCH   9  14
ENDBRANCH   5   8
ENDBRANCH   2   3
TORSDOF 5
ENDMDL
MODEL      230
REMARK 921   NORMALIZED FREE ENERGY PREDICTED BY IDOCK:   -3.52 KCAL/MOL
REMARK 922        TOTAL FREE ENERGY PREDICTED BY IDOCK:   -4.67 KCAL/MOL
REMARK 923 INTER-LIGAND FREE ENERGY PREDICTED BY IDOCK:   -4.27 KCAL/MOL
REMARK 924 INTRA-LIGAND FREE ENERGY PREDICTED BY IDOCK:   -0.40 KCAL/MOL
REMARK 927      BINDING AFFINITY PREDICTED BY RF-SCORE:    0.00 PKD
ROOT
HETATM    1  C   UNL     1      -9.284   2.954  64.484  1.00  0.00    -0.135 C  
HETATM    2  C   UNL     1      -8.670   3.408  65.802  1.00  0.00    -0.123 C  
ENDROOT
BRANCH   2   3
HETATM    3  N   UNL     1      -8.469   4.863  65.888  1.00  0.00    -0.117 N  
HETATM    4  O   UNL     1      -9.587   4.861  67.893  1.00  0.00    -0.133 OA 
HETATM    5  C   UNL     1      -9.044   5.511  66.992  1.00  0.00    -0.112 C  
BRANCH   3   6
HETATM    6  C   UNL     1      -7.711   5.548  64.830  1.00  0.00    -0.094 C  
HETATM    7  C   UNL     1      -8.447   6.264  63.709  1.00  0.00     0.221 C  
ENDBRANCH   3   6
BRANCH   5   8
HETATM    8  C   UNL     1      -9.028   7.009  67.136  1.00  0.00    -0.123 C  
HETATM    9  C   UNL     1     -10.143   7.727  66.855  1.00  0.00    -0.356 C  
BRANCH   8  10
HETATM   10  C   UNL     1      -7.811   7.801  67.589  1.00  0.00    -0.123 C  
HETATM   11  H2  UNL     1      -6.394   7.893  67.218  1.00  0.00     0.000 HD 
HETATM   12  N   UNL     1      -6.803   8.457  67.964  1.00  0.00    -0.068 NA 
HETATM   13  H1  UNL     1      -5.987   8.988  68.268  1.00  0.00     0.000 HD 
ENDBRANCH   8  10
BRANCH   9  14
HETATM   14  C   UNL     1     -10.242   9.201  67.000  1.00  0.00    -0.333 A  
HETATM   15  C   UNL     1     -11.006   9.777  68.030  1.00  0.00    -0.236 A  
HETATM   16  C   UNL     1     -11.155  11.178  68.112  1.00  0.00    -0.264 A  
HETATM   17  C   UNL     1     -10.527  12.012  67.183  1.00  0.00    -0.220 A  
HETATM   18  N   UNL     1     -11.973  11.754  69.182  1.00  0.00    -0.313 N  
HETATM   19  C   UNL     1      -9.762  11.427  66.172  1.00  0.00    -0.219 A  
HETATM   20  O   UNL     1     -12.106  12.989  69.203  1.00  0.00    -0.276 OA 
HETATM   21  O   UNL     1     -12.484  10.979  70.003  1.00  0.00    -0.305 OA 
HETATM   22  O   UNL     1     -10.588  13.385  67.155  1.00  0.00    -0.257 OA 
HETATM   23  H   UNL     1     -10.160  13.952  66.523  1.00  0.00     0.000 HD 
HETATM   24  O   UNL     1      -9.141  12.227  65.253  1.00  0.00    -0.400 OA 
HETATM   25  C   UNL     1      -9.621  10.043  66.070  1.00  0.00    -0.279 A  
HETATM   26  H   UNL     1      -8.620  11.830  64.565  1.00  0.00     0.000 HD 
ENDBRANCH   9  14
ENDBRANCH   5   8
ENDBRANCH   2   3
TORSDOF 5
ENDMDL
MODEL      231
REMARK 921   NORMALIZED FREE ENERGY PREDICTED BY IDOCK:   -3.50 KCAL/MOL
REMARK 922        TOTAL FREE ENERGY PREDICTED BY IDOCK:   -4.63 KCAL/MOL
REMARK 923 INTER-LIGAND FREE ENERGY PREDICTED BY IDOCK:   -4.15 KCAL/MOL
REMARK 924 INTRA-LIGAND FREE ENERGY PREDICTED BY IDOCK:   -0.48 KCAL/MOL
REMARK 927      BINDING AFFINITY PREDICTED BY RF-SCORE:    0.00 PKD
ROOT
HETATM    1  C   UNL     1      -9.961   3.697  63.215  1.00  0.00    -0.158 C  
HETATM    2  C   UNL     1      -8.792   4.266  64.009  1.00  0.00    -0.138 C  
ENDROOT
BRANCH   2   3
HETATM    3  N   UNL     1      -9.172   4.774  65.337  1.00  0.00    -0.153 N  
HETATM    4  O   UNL     1      -8.279   6.811  64.772  1.00  0.00    -0.121 OA 
HETATM    5  C   UNL     1      -8.797   6.092  65.634  1.00  0.00    -0.092 C  
BRANCH   3   6
HETATM    6  C   UNL     1      -9.891   3.888  66.265  1.00  0.00    -0.112 C  
HETATM    7  C   UNL     1      -9.130   2.835  67.055  1.00  0.00    -0.184 C  
ENDBRANCH   3   6
BRANCH   5   8
HETATM    8  C   UNL     1      -9.007   6.693  66.998  1.00  0.00    -0.120 C  
HETATM    9  C   UNL     1      -8.255   6.273  68.045  1.00  0.00    -0.115 C  
BRANCH   8  10
HETATM   10  C   UNL     1     -10.034   7.774  67.296  1.00  0.00    -0.212 C  
HETATM   11  H2  UNL     1     -10.217   8.831  68.299  1.00  0.00     0.000 HD 
HETATM   12  N   UNL     1     -10.885   8.670  67.545  1.00  0.00    -0.486 NA 
HETATM   13  H1  UNL     1     -11.574   9.395  67.745  1.00  0.00     0.000 HD 
ENDBRANCH   8  10
BRANCH   9  14
HETATM   14  C   UNL     1      -8.356   6.825  69.418  1.00  0.00    -0.132 A  
HETATM   15  C   UNL     1      -9.341   6.370  70.312  1.00  0.00    -0.165 A  
HETATM   16  C   UNL     1      -9.476   6.956  71.588  1.00  0.00    -0.157 A  
HETATM   17  C   UNL     1      -8.618   7.984  71.988  1.00  0.00    -0.146 A  
HETATM   18  N   UNL     1     -10.524   6.478  72.493  1.00  0.00    -0.199 N  
HETATM   19  C   UNL     1      -7.637   8.420  71.096  1.00  0.00    -0.086 A  
HETATM   20  O   UNL     1     -10.632   7.041  73.595  1.00  0.00    -0.357 OA 
HETATM   21  O   UNL     1     -11.240   5.542  72.109  1.00  0.00    -0.243 OA 
HETATM   22  O   UNL     1      -8.641   8.633  73.199  1.00  0.00    -0.393 OA 
HETATM   23  H   UNL     1      -8.057   9.332  73.472  1.00  0.00     0.000 HD 
HETATM   24  O   UNL     1      -6.789   9.426  71.470  1.00  0.00    -0.295 OA 
HETATM   25  C   UNL     1      -7.504   7.860  69.825  1.00  0.00    -0.088 A  
HETATM   26  H   UNL     1      -6.121   9.722  70.863  1.00  0.00     0.000 HD 
ENDBRANCH   9  14
ENDBRANCH   5   8
ENDBRANCH   2   3
TORSDOF 5
ENDMDL
MODEL      232
REMARK 921   NORMALIZED FREE ENERGY PREDICTED BY IDOCK:   -3.49 KCAL/MOL
REMARK 922        TOTAL FREE ENERGY PREDICTED BY IDOCK:   -4.63 KCAL/MOL
REMARK 923 INTER-LIGAND FREE ENERGY PREDICTED BY IDOCK:   -4.24 KCAL/MOL
REMARK 924 INTRA-LIGAND FREE ENERGY PREDICTED BY IDOCK:   -0.39 KCAL/MOL
REMARK 927      BINDING AFFINITY PREDICTED BY RF-SCORE:    0.00 PKD
ROOT
HETATM    1  C   UNL     1     -13.054  14.603  70.962  1.00  0.00    -0.427 C  
HETATM    2  C   UNL     1     -12.877  13.098  70.806  1.00  0.00    -0.095 C  
ENDROOT
BRANCH   2   3
HETATM    3  N   UNL     1     -11.944  12.723  69.731  1.00  0.00    -0.314 N  
HETATM    4  O   UNL     1     -11.595  10.715  70.787  1.00  0.00    -0.333 OA 
HETATM    5  C   UNL     1     -11.297  11.486  69.867  1.00  0.00    -0.186 C  
BRANCH   3   6
HETATM    6  C   UNL     1     -11.732  13.649  68.609  1.00  0.00    -0.354 C  
HETATM    7  C   UNL     1     -10.436  14.437  68.507  1.00  0.00    -0.254 C  
ENDBRANCH   3   6
BRANCH   5   8
HETATM    8  C   UNL     1     -10.225  11.037  68.910  1.00  0.00    -0.218 C  
HETATM    9  C   UNL     1     -10.562  10.355  67.788  1.00  0.00    -0.294 C  
BRANCH   8  10
HETATM   10  C   UNL     1      -8.742  11.303  69.119  1.00  0.00     0.135 C  
HETATM   11  H2  UNL     1      -7.744  12.258  68.620  1.00  0.00     0.000 HD 
HETATM   12  N   UNL     1      -7.514  11.524  69.291  1.00  0.00    -0.321 NA 
HETATM   13  H1  UNL     1      -6.519  11.703  69.431  1.00  0.00     0.000 HD 
ENDBRANCH   8  10
BRANCH   9  14
HETATM   14  C   UNL     1      -9.587   9.901  66.766  1.00  0.00    -0.231 A  
HETATM   15  C   UNL     1      -9.450  10.581  65.543  1.00  0.00    -0.265 A  
HETATM   16  C   UNL     1      -8.575  10.096  64.548  1.00  0.00    -0.189 A  
HETATM   17  C   UNL     1      -7.816   8.945  64.774  1.00  0.00    -0.121 A  
HETATM   18  N   UNL     1      -8.466  10.810  63.274  1.00  0.00    -0.113 N  
HETATM   19  C   UNL     1      -7.952   8.286  65.997  1.00  0.00    -0.098 A  
HETATM   20  O   UNL     1      -7.709  10.335  62.411  1.00  0.00    -0.130 OA 
HETATM   21  O   UNL     1      -9.133  11.845  63.130  1.00  0.00    -0.147 OA 
HETATM   22  O   UNL     1      -6.928   8.374  63.894  1.00  0.00    -0.078 OA 
HETATM   23  H   UNL     1      -6.411   7.591  64.048  1.00  0.00     0.000 HD 
HETATM   24  O   UNL     1      -7.218   7.156  66.236  1.00  0.00    -0.072 OA 
HETATM   25  C   UNL     1      -8.826   8.745  66.982  1.00  0.00    -0.139 A  
HETATM   26  H   UNL     1      -7.310   6.708  67.068  1.00  0.00     0.000 HD 
ENDBRANCH   9  14
ENDBRANCH   5   8
ENDBRANCH   2   3
TORSDOF 5
ENDMDL
MODEL      233
REMARK 921   NORMALIZED FREE ENERGY PREDICTED BY IDOCK:   -3.49 KCAL/MOL
REMARK 922        TOTAL FREE ENERGY PREDICTED BY IDOCK:   -4.63 KCAL/MOL
REMARK 923 INTER-LIGAND FREE ENERGY PREDICTED BY IDOCK:   -4.72 KCAL/MOL
REMARK 924 INTRA-LIGAND FREE ENERGY PREDICTED BY IDOCK:    0.09 KCAL/MOL
REMARK 927      BINDING AFFINITY PREDICTED BY RF-SCORE:    0.00 PKD
ROOT
HETATM    1  C   UNL     1     -11.994  14.768  64.367  1.00  0.00    -0.433 C  
HETATM    2  C   UNL     1     -12.435  13.339  64.656  1.00  0.00    -0.349 C  
ENDROOT
BRANCH   2   3
HETATM    3  N   UNL     1     -11.316  12.416  64.902  1.00  0.00    -0.308 N  
HETATM    4  O   UNL     1     -12.076  12.128  67.049  1.00  0.00    -0.591 OA 
HETATM    5  C   UNL     1     -11.205  11.900  66.202  1.00  0.00    -0.333 C  
BRANCH   3   6
HETATM    6  C   UNL     1     -10.386  12.105  63.806  1.00  0.00    -0.437 C  
HETATM    7  C   UNL     1     -10.180  10.663  63.369  1.00  0.00    -0.182 C  
ENDBRANCH   3   6
BRANCH   5   8
HETATM    8  C   UNL     1     -10.037  11.050  66.626  1.00  0.00    -0.262 C  
HETATM    9  C   UNL     1     -10.250   9.907  67.323  1.00  0.00    -0.277 C  
BRANCH   8  10
HETATM   10  C   UNL     1      -8.587  11.392  66.318  1.00  0.00    -0.156 C  
HETATM   11  H2  UNL     1      -7.578  12.331  66.824  1.00  0.00     0.000 HD 
HETATM   12  N   UNL     1      -7.386  11.677  66.065  1.00  0.00    -0.265 NA 
HETATM   13  H1  UNL     1      -6.414  11.906  65.859  1.00  0.00     0.000 HD 
ENDBRANCH   8  10
BRANCH   9  14
HETATM   14  C   UNL     1      -9.173   8.982  67.755  1.00  0.00    -0.152 A  
HETATM   15  C   UNL     1      -8.357   9.285  68.859  1.00  0.00    -0.120 A  
HETATM   16  C   UNL     1      -7.288   8.435  69.213  1.00  0.00    -0.071 A  
HETATM   17  C   UNL     1      -7.040   7.269  68.484  1.00  0.00    -0.085 A  
HETATM   18  N   UNL     1      -6.439   8.783  70.355  1.00  0.00    -0.038 N  
HETATM   19  C   UNL     1      -7.865   6.974  67.397  1.00  0.00    -0.111 A  
HETATM   20  O   UNL     1      -5.489   8.027  70.616  1.00  0.00    -0.026 OA 
HETATM   21  O   UNL     1      -6.716   9.808  70.993  1.00  0.00    -0.267 OA 
HETATM   22  O   UNL     1      -6.039   6.359  68.727  1.00  0.00    -0.026 OA 
HETATM   23  H   UNL     1      -5.871   5.566  68.231  1.00  0.00     0.000 HD 
HETATM   24  O   UNL     1      -7.636   5.837  66.670  1.00  0.00    -0.089 OA 
HETATM   25  C   UNL     1      -8.914   7.814  67.026  1.00  0.00    -0.145 A  
HETATM   26  H   UNL     1      -8.197   5.636  65.931  1.00  0.00     0.000 HD 
ENDBRANCH   9  14
ENDBRANCH   5   8
ENDBRANCH   2   3
TORSDOF 5
ENDMDL
MODEL      234
REMARK 921   NORMALIZED FREE ENERGY PREDICTED BY IDOCK:   -3.49 KCAL/MOL
REMARK 922        TOTAL FREE ENERGY PREDICTED BY IDOCK:   -4.62 KCAL/MOL
REMARK 923 INTER-LIGAND FREE ENERGY PREDICTED BY IDOCK:   -4.59 KCAL/MOL
REMARK 924 INTRA-LIGAND FREE ENERGY PREDICTED BY IDOCK:   -0.03 KCAL/MOL
REMARK 927      BINDING AFFINITY PREDICTED BY RF-SCORE:    0.00 PKD
ROOT
HETATM    1  C   UNL     1     -10.868   6.224  66.949  1.00  0.00    -0.428 C  
HETATM    2  C   UNL     1      -9.572   6.943  67.304  1.00  0.00    -0.142 C  
ENDROOT
BRANCH   2   3
HETATM    3  N   UNL     1      -9.622   8.396  67.073  1.00  0.00    -0.174 N  
HETATM    4  O   UNL     1     -10.498   8.661  69.178  1.00  0.00    -0.220 OA 
HETATM    5  C   UNL     1     -10.179   9.174  68.099  1.00  0.00    -0.207 C  
BRANCH   3   6
HETATM    6  C   UNL     1      -9.115   8.940  65.805  1.00  0.00    -0.221 C  
HETATM    7  C   UNL     1      -8.035   8.196  65.036  1.00  0.00    -0.139 C  
ENDBRANCH   3   6
BRANCH   5   8
HETATM    8  C   UNL     1     -10.411  10.653  67.943  1.00  0.00    -0.243 C  
HETATM    9  C   UNL     1     -10.137  11.492  68.972  1.00  0.00    -0.075 C  
BRANCH   8  10
HETATM   10  C   UNL     1     -10.948  11.294  66.673  1.00  0.00    -0.268 C  
HETATM   11  H2  UNL     1     -12.266  11.613  66.108  1.00  0.00     0.000 HD 
HETATM   12  N   UNL     1     -11.394  11.826  65.622  1.00  0.00    -0.279 NA 
HETATM   13  H1  UNL     1     -11.755  12.256  64.770  1.00  0.00     0.000 HD 
ENDBRANCH   8  10
BRANCH   9  14
HETATM   14  C   UNL     1     -10.295  12.966  68.908  1.00  0.00    -0.059 A  
HETATM   15  C   UNL     1      -9.181  13.808  68.743  1.00  0.00     0.016 A  
HETATM   16  C   UNL     1      -9.335  15.210  68.761  1.00  0.00    -0.200 A  
HETATM   17  C   UNL     1     -10.601  15.781  68.920  1.00  0.00    -0.233 A  
HETATM   18  N   UNL     1      -8.156  16.067  68.608  1.00  0.00    -0.175 N  
HETATM   19  C   UNL     1     -11.700  14.934  69.071  1.00  0.00    -0.319 A  
HETATM   20  O   UNL     1      -8.328  17.296  68.660  1.00  0.00    -0.256 OA 
HETATM   21  O   UNL     1      -7.059  15.517  68.436  1.00  0.00    -0.107 OA 
HETATM   22  O   UNL     1     -10.886  17.125  68.950  1.00  0.00    -0.289 OA 
HETATM   23  H   UNL     1     -11.747  17.513  69.057  1.00  0.00     0.000 HD 
HETATM   24  O   UNL     1     -12.947  15.475  69.229  1.00  0.00    -0.221 OA 
HETATM   25  C   UNL     1     -11.560  13.546  69.073  1.00  0.00    -0.356 A  
HETATM   26  H   UNL     1     -13.695  14.899  69.332  1.00  0.00     0.000 HD 
ENDBRANCH   9  14
ENDBRANCH   5   8
ENDBRANCH   2   3
TORSDOF 5
ENDMDL
MODEL      235
REMARK 921   NORMALIZED FREE ENERGY PREDICTED BY IDOCK:   -3.48 KCAL/MOL
REMARK 922        TOTAL FREE ENERGY PREDICTED BY IDOCK:   -4.62 KCAL/MOL
REMARK 923 INTER-LIGAND FREE ENERGY PREDICTED BY IDOCK:   -4.22 KCAL/MOL
REMARK 924 INTRA-LIGAND FREE ENERGY PREDICTED BY IDOCK:   -0.40 KCAL/MOL
REMARK 927      BINDING AFFINITY PREDICTED BY RF-SCORE:    0.00 PKD
ROOT
HETATM    1  C   UNL     1     -12.384   6.999  72.031  1.00  0.00    -0.302 C  
HETATM    2  C   UNL     1     -11.654   8.301  72.339  1.00  0.00    -0.396 C  
ENDROOT
BRANCH   2   3
HETATM    3  N   UNL     1     -11.554   9.207  71.184  1.00  0.00    -0.295 N  
HETATM    4  O   UNL     1      -9.421   8.444  70.819  1.00  0.00    -0.159 OA 
HETATM    5  C   UNL     1     -10.323   9.233  70.513  1.00  0.00    -0.254 C  
BRANCH   3   6
HETATM    6  C   UNL     1     -12.715  10.030  70.814  1.00  0.00    -0.273 C  
HETATM    7  C   UNL     1     -13.113  11.216  71.678  1.00  0.00    -0.529 C  
ENDBRANCH   3   6
BRANCH   5   8
HETATM    8  C   UNL     1     -10.041  10.205  69.399  1.00  0.00    -0.250 C  
HETATM    9  C   UNL     1     -10.058  11.538  69.645  1.00  0.00     0.583 C  
BRANCH   8  10
HETATM   10  C   UNL     1      -9.727   9.787  67.971  1.00  0.00    -0.145 C  
HETATM   11  H2  UNL     1      -9.066  10.380  66.801  1.00  0.00     0.000 HD 
HETATM   12  N   UNL     1      -9.466   9.441  66.788  1.00  0.00    -0.156 NA 
HETATM   13  H1  UNL     1      -9.255   9.160  65.830  1.00  0.00     0.000 HD 
ENDBRANCH   8  10
BRANCH   9  14
HETATM   14  C   UNL     1      -9.758  12.576  68.628  1.00  0.00    -0.057 A  
HETATM   15  C   UNL     1      -8.452  13.069  68.460  1.00  0.00    -0.048 A  
HETATM   16  C   UNL     1      -8.193  14.110  67.543  1.00  0.00    -0.186 A  
HETATM   17  C   UNL     1      -9.228  14.650  66.774  1.00  0.00    -0.264 A  
HETATM   18  N   UNL     1      -6.828  14.622  67.400  1.00  0.00    -0.144 N  
HETATM   19  C   UNL     1     -10.518  14.143  66.943  1.00  0.00    -0.272 A  
HETATM   20  O   UNL     1      -6.645  15.559  66.607  1.00  0.00     0.003 OA 
HETATM   21  O   UNL     1      -5.936  14.090  68.077  1.00  0.00    -0.119 OA 
HETATM   22  O   UNL     1      -9.109  15.658  65.848  1.00  0.00    -0.335 OA 
HETATM   23  H   UNL     1      -9.812  16.024  65.324  1.00  0.00     0.000 HD 
HETATM   24  O   UNL     1     -11.544  14.660  66.200  1.00  0.00    -0.360 OA 
HETATM   25  C   UNL     1     -10.791  13.126  67.858  1.00  0.00    -0.260 A  
HETATM   26  H   UNL     1     -12.422  14.316  66.314  1.00  0.00     0.000 HD 
ENDBRANCH   9  14
ENDBRANCH   5   8
ENDBRANCH   2   3
TORSDOF 5
ENDMDL
MODEL      236
REMARK 921   NORMALIZED FREE ENERGY PREDICTED BY IDOCK:   -3.47 KCAL/MOL
REMARK 922        TOTAL FREE ENERGY PREDICTED BY IDOCK:   -4.61 KCAL/MOL
REMARK 923 INTER-LIGAND FREE ENERGY PREDICTED BY IDOCK:   -4.11 KCAL/MOL
REMARK 924 INTRA-LIGAND FREE ENERGY PREDICTED BY IDOCK:   -0.50 KCAL/MOL
REMARK 927      BINDING AFFINITY PREDICTED BY RF-SCORE:    0.00 PKD
ROOT
HETATM    1  C   UNL     1     -10.830   3.797  73.262  1.00  0.00    -0.293 C  
HETATM    2  C   UNL     1     -11.344   5.229  73.190  1.00  0.00    -0.291 C  
ENDROOT
BRANCH   2   3
HETATM    3  N   UNL     1     -10.479   6.126  72.405  1.00  0.00    -0.193 N  
HETATM    4  O   UNL     1     -12.119   6.242  70.804  1.00  0.00    -0.198 OA 
HETATM    5  C   UNL     1     -10.971   6.535  71.157  1.00  0.00    -0.266 C  
BRANCH   3   6
HETATM    6  C   UNL     1      -9.172   6.520  72.950  1.00  0.00    -0.135 C  
HETATM    7  C   UNL     1      -9.035   7.814  73.736  1.00  0.00    -0.335 C  
ENDBRANCH   3   6
BRANCH   5   8
HETATM    8  C   UNL     1     -10.140   7.344  70.198  1.00  0.00    -0.197 C  
HETATM    9  C   UNL     1     -10.427   8.653  69.992  1.00  0.00    -0.229 C  
BRANCH   8  10
HETATM   10  C   UNL     1      -8.962   6.780  69.418  1.00  0.00    -0.137 C  
HETATM   11  H2  UNL     1      -8.525   6.742  68.017  1.00  0.00     0.000 HD 
HETATM   12  N   UNL     1      -7.987   6.314  68.771  1.00  0.00    -0.101 NA 
HETATM   13  H1  UNL     1      -7.197   5.936  68.248  1.00  0.00     0.000 HD 
ENDBRANCH   8  10
BRANCH   9  14
HETATM   14  C   UNL     1      -9.648   9.545  69.098  1.00  0.00    -0.170 A  
HETATM   15  C   UNL     1      -9.788   9.473  67.701  1.00  0.00    -0.206 A  
HETATM   16  C   UNL     1      -8.986  10.273  66.859  1.00  0.00    -0.136 A  
HETATM   17  C   UNL     1      -8.058  11.164  67.404  1.00  0.00    -0.132 A  
HETATM   18  N   UNL     1      -9.136  10.164  65.406  1.00  0.00    -0.174 N  
HETATM   19  C   UNL     1      -7.937  11.234  68.793  1.00  0.00    -0.137 A  
HETATM   20  O   UNL     1      -8.391  10.861  64.698  1.00  0.00    -0.044 OA 
HETATM   21  O   UNL     1      -9.995   9.386  64.968  1.00  0.00    -0.029 OA 
HETATM   22  O   UNL     1      -7.224  11.998  66.698  1.00  0.00    -0.369 OA 
HETATM   23  H   UNL     1      -6.593  12.604  67.069  1.00  0.00     0.000 HD 
HETATM   24  O   UNL     1      -7.032  12.100  69.345  1.00  0.00    -0.276 OA 
HETATM   25  C   UNL     1      -8.711  10.437  69.636  1.00  0.00    -0.056 A  
HETATM   26  H   UNL     1      -6.950  12.148  70.290  1.00  0.00     0.000 HD 
ENDBRANCH   9  14
ENDBRANCH   5   8
ENDBRANCH   2   3
TORSDOF 5
ENDMDL
MODEL      237
REMARK 921   NORMALIZED FREE ENERGY PREDICTED BY IDOCK:   -3.47 KCAL/MOL
REMARK 922        TOTAL FREE ENERGY PREDICTED BY IDOCK:   -4.60 KCAL/MOL
REMARK 923 INTER-LIGAND FREE ENERGY PREDICTED BY IDOCK:   -5.55 KCAL/MOL
REMARK 924 INTRA-LIGAND FREE ENERGY PREDICTED BY IDOCK:    0.95 KCAL/MOL
REMARK 927      BINDING AFFINITY PREDICTED BY RF-SCORE:    0.00 PKD
ROOT
HETATM    1  C   UNL     1     -10.356  14.737  67.005  1.00  0.00    -0.255 C  
HETATM    2  C   UNL     1     -10.339  13.578  66.017  1.00  0.00    -0.303 C  
ENDROOT
BRANCH   2   3
HETATM    3  N   UNL     1      -9.925  12.299  66.615  1.00  0.00    -0.212 N  
HETATM    4  O   UNL     1     -12.137  11.740  66.859  1.00  0.00    -0.566 OA 
HETATM    5  C   UNL     1     -10.952  11.457  67.067  1.00  0.00    -0.292 C  
BRANCH   3   6
HETATM    6  C   UNL     1      -8.492  11.987  66.722  1.00  0.00    -0.155 C  
HETATM    7  C   UNL     1      -7.680  12.531  67.887  1.00  0.00    -0.138 C  
ENDBRANCH   3   6
BRANCH   5   8
HETATM    8  C   UNL     1     -10.668  10.182  67.814  1.00  0.00    -0.328 C  
HETATM    9  C   UNL     1     -10.443  10.218  69.151  1.00  0.00    -0.246 C  
BRANCH   8  10
HETATM   10  C   UNL     1     -10.614   8.812  67.158  1.00  0.00    -0.233 C  
HETATM   11  H2  UNL     1     -11.045   8.215  65.887  1.00  0.00     0.000 HD 
HETATM   12  N   UNL     1     -10.570   7.677  66.612  1.00  0.00    -0.478 NA 
HETATM   13  H1  UNL     1     -10.534   6.757  66.171  1.00  0.00     0.000 HD 
ENDBRANCH   8  10
BRANCH   9  14
HETATM   14  C   UNL     1     -10.192   9.017  69.985  1.00  0.00    -0.222 A  
HETATM   15  C   UNL     1     -10.208   7.728  69.424  1.00  0.00    -0.208 A  
HETATM   16  C   UNL     1     -10.044   6.589  70.240  1.00  0.00    -0.179 A  
HETATM   17  C   UNL     1      -9.840   6.729  71.616  1.00  0.00    -0.165 A  
HETATM   18  N   UNL     1     -10.085   5.256  69.635  1.00  0.00    -0.234 N  
HETATM   19  C   UNL     1      -9.815   8.014  72.159  1.00  0.00    -0.223 A  
HETATM   20  O   UNL     1      -9.968   4.277  70.390  1.00  0.00    -0.211 OA 
HETATM   21  O   UNL     1     -10.234   5.181  68.407  1.00  0.00    -0.159 OA 
HETATM   22  O   UNL     1      -9.663   5.706  72.517  1.00  0.00    -0.152 OA 
HETATM   23  H   UNL     1      -9.524   5.801  73.452  1.00  0.00     0.000 HD 
HETATM   24  O   UNL     1      -9.618   8.171  73.504  1.00  0.00    -0.222 OA 
HETATM   25  C   UNL     1      -9.993   9.148  71.366  1.00  0.00    -0.373 A  
HETATM   26  H   UNL     1      -9.601   9.045  73.874  1.00  0.00     0.000 HD 
ENDBRANCH   9  14
ENDBRANCH   5   8
ENDBRANCH   2   3
TORSDOF 5
ENDMDL
MODEL      238
REMARK 921   NORMALIZED FREE ENERGY PREDICTED BY IDOCK:   -3.47 KCAL/MOL
REMARK 922        TOTAL FREE ENERGY PREDICTED BY IDOCK:   -4.60 KCAL/MOL
REMARK 923 INTER-LIGAND FREE ENERGY PREDICTED BY IDOCK:   -4.51 KCAL/MOL
REMARK 924 INTRA-LIGAND FREE ENERGY PREDICTED BY IDOCK:   -0.09 KCAL/MOL
REMARK 927      BINDING AFFINITY PREDICTED BY RF-SCORE:    0.00 PKD
ROOT
HETATM    1  C   UNL     1      -9.084  15.610  66.176  1.00  0.00    -0.378 C  
HETATM    2  C   UNL     1      -8.452  15.212  67.503  1.00  0.00    -0.170 C  
ENDROOT
BRANCH   2   3
HETATM    3  N   UNL     1      -8.383  13.757  67.710  1.00  0.00    -0.165 N  
HETATM    4  O   UNL     1     -10.458  13.837  68.688  1.00  0.00    -0.239 OA 
HETATM    5  C   UNL     1      -9.460  13.170  68.390  1.00  0.00    -0.166 C  
BRANCH   3   6
HETATM    6  C   UNL     1      -7.211  13.016  67.221  1.00  0.00    -0.049 C  
HETATM    7  C   UNL     1      -5.823  13.362  67.736  1.00  0.00    -0.128 C  
ENDBRANCH   3   6
BRANCH   5   8
HETATM    8  C   UNL     1      -9.460  11.717  68.783  1.00  0.00    -0.068 C  
HETATM    9  C   UNL     1     -10.603  10.993  68.696  1.00  0.00    -0.225 C  
BRANCH   8  10
HETATM   10  C   UNL     1      -8.230  10.978  69.285  1.00  0.00     0.021 C  
HETATM   11  H2  UNL     1      -7.933   9.955  70.296  1.00  0.00     0.000 HD 
HETATM   12  N   UNL     1      -7.211  10.365  69.703  1.00  0.00    -0.132 NA 
HETATM   13  H1  UNL     1      -6.386   9.869  70.040  1.00  0.00     0.000 HD 
ENDBRANCH   8  10
BRANCH   9  14
HETATM   14  C   UNL     1     -10.700   9.548  69.023  1.00  0.00    -0.224 A  
HETATM   15  C   UNL     1     -11.005   9.119  70.326  1.00  0.00    -0.279 A  
HETATM   16  C   UNL     1     -11.019   7.744  70.642  1.00  0.00    -0.249 A  
HETATM   17  C   UNL     1     -10.752   6.789  69.657  1.00  0.00    -0.251 A  
HETATM   18  N   UNL     1     -11.319   7.322  72.012  1.00  0.00    -0.252 N  
HETATM   19  C   UNL     1     -10.462   7.228  68.364  1.00  0.00    -0.195 A  
HETATM   20  O   UNL     1     -11.291   6.105  72.259  1.00  0.00    -0.271 OA 
HETATM   21  O   UNL     1     -11.583   8.201  72.845  1.00  0.00    -0.386 OA 
HETATM   22  O   UNL     1     -10.739   5.426  69.831  1.00  0.00    -0.316 OA 
HETATM   23  H   UNL     1     -10.558   4.777  69.161  1.00  0.00     0.000 HD 
HETATM   24  O   UNL     1     -10.197   6.308  67.386  1.00  0.00    -0.141 OA 
HETATM   25  C   UNL     1     -10.428   8.585  68.042  1.00  0.00    -0.249 A  
HETATM   26  H   UNL     1     -10.000   6.607  66.506  1.00  0.00     0.000 HD 
ENDBRANCH   9  14
ENDBRANCH   5   8
ENDBRANCH   2   3
TORSDOF 5
ENDMDL
MODEL      239
REMARK 921   NORMALIZED FREE ENERGY PREDICTED BY IDOCK:   -3.45 KCAL/MOL
REMARK 922        TOTAL FREE ENERGY PREDICTED BY IDOCK:   -4.58 KCAL/MOL
REMARK 923 INTER-LIGAND FREE ENERGY PREDICTED BY IDOCK:   -4.16 KCAL/MOL
REMARK 924 INTRA-LIGAND FREE ENERGY PREDICTED BY IDOCK:   -0.43 KCAL/MOL
REMARK 927      BINDING AFFINITY PREDICTED BY RF-SCORE:    0.00 PKD
ROOT
HETATM    1  C   UNL     1     -10.372  17.130  66.413  1.00  0.00    -0.307 C  
HETATM    2  C   UNL     1     -10.560  16.280  67.664  1.00  0.00    -0.311 C  
ENDROOT
BRANCH   2   3
HETATM    3  N   UNL     1      -9.877  14.978  67.598  1.00  0.00    -0.220 N  
HETATM    4  O   UNL     1     -11.899  13.981  67.171  1.00  0.00    -0.369 OA 
HETATM    5  C   UNL     1     -10.690  13.854  67.396  1.00  0.00    -0.272 C  
BRANCH   3   6
HETATM    6  C   UNL     1      -8.416  14.924  67.762  1.00  0.00    -0.154 C  
HETATM    7  C   UNL     1      -7.795  15.158  69.130  1.00  0.00    -0.199 C  
ENDBRANCH   3   6
BRANCH   5   8
HETATM    8  C   UNL     1     -10.141  12.453  67.439  1.00  0.00    -0.205 C  
HETATM    9  C   UNL     1      -9.606  11.971  68.588  1.00  0.00    -0.087 C  
BRANCH   8  10
HETATM   10  C   UNL     1     -10.143  11.508  66.248  1.00  0.00    -0.226 C  
HETATM   11  H2  UNL     1     -10.456  10.094  66.002  1.00  0.00     0.000 HD 
HETATM   12  N   UNL     1     -10.146  10.724  65.261  1.00  0.00    -0.273 NA 
HETATM   13  H1  UNL     1     -10.148  10.090  64.462  1.00  0.00     0.000 HD 
ENDBRANCH   8  10
BRANCH   9  14
HETATM   14  C   UNL     1      -9.073  10.595  68.745  1.00  0.00    -0.170 A  
HETATM   15  C   UNL     1      -9.889   9.552  69.216  1.00  0.00    -0.184 A  
HETATM   16  C   UNL     1      -9.351   8.265  69.434  1.00  0.00    -0.155 A  
HETATM   17  C   UNL     1      -8.005   8.007  69.163  1.00  0.00    -0.114 A  
HETATM   18  N   UNL     1     -10.216   7.200  69.945  1.00  0.00    -0.202 N  
HETATM   19  C   UNL     1      -7.208   9.049  68.684  1.00  0.00    -0.072 A  
HETATM   20  O   UNL     1      -9.699   6.090  70.154  1.00  0.00    -0.161 OA 
HETATM   21  O   UNL     1     -11.411   7.465  70.139  1.00  0.00    -0.255 OA 
HETATM   22  O   UNL     1      -7.362   6.803  69.326  1.00  0.00    -0.087 OA 
HETATM   23  H   UNL     1      -6.446   6.627  69.141  1.00  0.00     0.000 HD 
HETATM   24  O   UNL     1      -5.887   8.815  68.415  1.00  0.00    -0.040 OA 
HETATM   25  C   UNL     1      -7.723  10.329  68.481  1.00  0.00    -0.091 A  
HETATM   26  H   UNL     1      -5.345   9.523  68.089  1.00  0.00     0.000 HD 
ENDBRANCH   9  14
ENDBRANCH   5   8
ENDBRANCH   2   3
TORSDOF 5
ENDMDL
MODEL      240
REMARK 921   NORMALIZED FREE ENERGY PREDICTED BY IDOCK:   -3.45 KCAL/MOL
REMARK 922        TOTAL FREE ENERGY PREDICTED BY IDOCK:   -4.57 KCAL/MOL
REMARK 923 INTER-LIGAND FREE ENERGY PREDICTED BY IDOCK:   -4.27 KCAL/MOL
REMARK 924 INTRA-LIGAND FREE ENERGY PREDICTED BY IDOCK:   -0.30 KCAL/MOL
REMARK 927      BINDING AFFINITY PREDICTED BY RF-SCORE:    0.00 PKD
ROOT
HETATM    1  C   UNL     1     -11.959  12.664  64.372  1.00  0.00    -0.469 C  
HETATM    2  C   UNL     1     -10.591  12.953  64.978  1.00  0.00    -0.315 C  
ENDROOT
BRANCH   2   3
HETATM    3  N   UNL     1     -10.225  12.036  66.069  1.00  0.00    -0.220 N  
HETATM    4  O   UNL     1      -9.249  10.649  64.523  1.00  0.00    -0.203 OA 
HETATM    5  C   UNL     1      -9.583  10.845  65.697  1.00  0.00    -0.224 C  
BRANCH   3   6
HETATM    6  C   UNL     1     -10.558  12.398  67.455  1.00  0.00    -0.216 C  
HETATM    7  C   UNL     1     -11.911  13.013  67.776  1.00  0.00    -0.395 C  
ENDBRANCH   3   6
BRANCH   5   8
HETATM    8  C   UNL     1      -9.271   9.762  66.694  1.00  0.00    -0.184 C  
HETATM    9  C   UNL     1      -8.072   9.751  67.327  1.00  0.00    -0.117 C  
BRANCH   8  10
HETATM   10  C   UNL     1     -10.234   8.642  67.054  1.00  0.00    -0.290 C  
HETATM   11  H2  UNL     1     -10.767   7.437  66.406  1.00  0.00     0.000 HD 
HETATM   12  N   UNL     1     -11.032   7.713  67.352  1.00  0.00    -0.546 NA 
HETATM   13  H1  UNL     1     -11.678   6.962  67.594  1.00  0.00     0.000 HD 
ENDBRANCH   8  10
BRANCH   9  14
HETATM   14  C   UNL     1      -7.680   8.751  68.351  1.00  0.00    -0.096 A  
HETATM   15  C   UNL     1      -8.203   8.807  69.655  1.00  0.00    -0.113 A  
HETATM   16  C   UNL     1      -7.765   7.897  70.641  1.00  0.00    -0.090 A  
HETATM   17  C   UNL     1      -6.822   6.915  70.328  1.00  0.00    -0.057 A  
HETATM   18  N   UNL     1      -8.310   7.989  71.998  1.00  0.00    -0.127 N  
HETATM   19  C   UNL     1      -6.320   6.863  69.027  1.00  0.00    -0.028 A  
HETATM   20  O   UNL     1      -7.877   7.192  72.846  1.00  0.00    -0.099 OA 
HETATM   21  O   UNL     1      -9.169   8.854  72.221  1.00  0.00    -0.376 OA 
HETATM   22  O   UNL     1      -6.319   5.971  71.191  1.00  0.00    -0.041 OA 
HETATM   23  H   UNL     1      -5.678   5.302  70.978  1.00  0.00     0.000 HD 
HETATM   24  O   UNL     1      -5.394   5.909  68.702  1.00  0.00    -0.006 OA 
HETATM   25  C   UNL     1      -6.731   7.767  68.047  1.00  0.00    -0.063 A  
HETATM   26  H   UNL     1      -5.052   5.873  67.817  1.00  0.00     0.000 HD 
ENDBRANCH   9  14
ENDBRANCH   5   8
ENDBRANCH   2   3
TORSDOF 5
ENDMDL
MODEL      241
REMARK 921   NORMALIZED FREE ENERGY PREDICTED BY IDOCK:   -3.44 KCAL/MOL
REMARK 922        TOTAL FREE ENERGY PREDICTED BY IDOCK:   -4.57 KCAL/MOL
REMARK 923 INTER-LIGAND FREE ENERGY PREDICTED BY IDOCK:   -4.32 KCAL/MOL
REMARK 924 INTRA-LIGAND FREE ENERGY PREDICTED BY IDOCK:   -0.25 KCAL/MOL
REMARK 927      BINDING AFFINITY PREDICTED BY RF-SCORE:    0.00 PKD
ROOT
HETATM    1  C   UNL     1      -8.670   5.027  67.798  1.00  0.00    -0.103 C  
HETATM    2  C   UNL     1      -8.714   5.656  66.411  1.00  0.00    -0.126 C  
ENDROOT
BRANCH   2   3
HETATM    3  N   UNL     1      -8.264   7.057  66.386  1.00  0.00    -0.112 N  
HETATM    4  O   UNL     1     -10.458   7.723  66.489  1.00  0.00    -0.227 OA 
HETATM    5  C   UNL     1      -9.268   8.036  66.370  1.00  0.00    -0.194 C  
BRANCH   3   6
HETATM    6  C   UNL     1      -6.823   7.349  66.361  1.00  0.00    -0.061 C  
HETATM    7  C   UNL     1      -5.928   6.671  65.336  1.00  0.00    -0.034 C  
ENDBRANCH   3   6
BRANCH   5   8
HETATM    8  C   UNL     1      -8.953   9.500  66.213  1.00  0.00    -0.188 C  
HETATM    9  C   UNL     1      -9.434  10.395  67.111  1.00  0.00    -0.183 C  
BRANCH   8  10
HETATM   10  C   UNL     1      -8.106  10.065  65.084  1.00  0.00    -0.144 C  
HETATM   11  H2  UNL     1      -7.817   9.722  63.686  1.00  0.00     0.000 HD 
HETATM   12  N   UNL     1      -7.405  10.533  64.148  1.00  0.00    -0.344 NA 
HETATM   13  H1  UNL     1      -6.836  10.912  63.390  1.00  0.00     0.000 HD 
ENDBRANCH   8  10
BRANCH   9  14
HETATM   14  C   UNL     1      -9.152  11.851  67.067  1.00  0.00    -0.191 A  
HETATM   15  C   UNL     1     -10.112  12.762  66.593  1.00  0.00    -0.248 A  
HETATM   16  C   UNL     1      -9.804  14.135  66.485  1.00  0.00    -0.290 A  
HETATM   17  C   UNL     1      -8.548  14.610  66.870  1.00  0.00    -0.204 A  
HETATM   18  N   UNL     1     -10.815  15.061  65.967  1.00  0.00    -0.327 N  
HETATM   19  C   UNL     1      -7.608  13.697  67.350  1.00  0.00    -0.130 A  
HETATM   20  O   UNL     1     -10.496  16.256  65.857  1.00  0.00    -0.334 OA 
HETATM   21  O   UNL     1     -11.926  14.600  65.670  1.00  0.00    -0.329 OA 
HETATM   22  O   UNL     1      -8.126  15.917  66.819  1.00  0.00    -0.224 OA 
HETATM   23  H   UNL     1      -7.272  16.241  67.081  1.00  0.00     0.000 HD 
HETATM   24  O   UNL     1      -6.372  14.144  67.730  1.00  0.00    -0.156 OA 
HETATM   25  C   UNL     1      -7.893  12.335  67.446  1.00  0.00    -0.171 A  
HETATM   26  H   UNL     1      -5.732  13.523  68.058  1.00  0.00     0.000 HD 
ENDBRANCH   9  14
ENDBRANCH   5   8
ENDBRANCH   2   3
TORSDOF 5
ENDMDL
MODEL      242
REMARK 921   NORMALIZED FREE ENERGY PREDICTED BY IDOCK:   -3.44 KCAL/MOL
REMARK 922        TOTAL FREE ENERGY PREDICTED BY IDOCK:   -4.57 KCAL/MOL
REMARK 923 INTER-LIGAND FREE ENERGY PREDICTED BY IDOCK:   -4.93 KCAL/MOL
REMARK 924 INTRA-LIGAND FREE ENERGY PREDICTED BY IDOCK:    0.36 KCAL/MOL
REMARK 927      BINDING AFFINITY PREDICTED BY RF-SCORE:    0.00 PKD
ROOT
HETATM    1  C   UNL     1      -9.435   2.802  64.192  1.00  0.00    -0.131 C  
HETATM    2  C   UNL     1      -8.459   3.954  64.394  1.00  0.00    -0.099 C  
ENDROOT
BRANCH   2   3
HETATM    3  N   UNL     1      -8.636   4.658  65.674  1.00  0.00    -0.121 N  
HETATM    4  O   UNL     1     -10.904   4.652  65.319  1.00  0.00    -0.210 OA 
HETATM    5  C   UNL     1      -9.949   5.018  66.014  1.00  0.00    -0.199 C  
BRANCH   3   6
HETATM    6  C   UNL     1      -7.457   4.955  66.500  1.00  0.00    -0.087 C  
HETATM    7  C   UNL     1      -6.454   6.003  66.045  1.00  0.00    -0.046 C  
ENDBRANCH   3   6
BRANCH   5   8
HETATM    8  C   UNL     1     -10.258   5.853  67.228  1.00  0.00    -0.242 C  
HETATM    9  C   UNL     1     -10.286   5.278  68.455  1.00  0.00    -0.182 C  
BRANCH   8  10
HETATM   10  C   UNL     1     -10.551   7.344  67.174  1.00  0.00    -0.342 C  
HETATM   11  H2  UNL     1     -11.256   8.266  66.275  1.00  0.00     0.000 HD 
HETATM   12  N   UNL     1     -10.794   8.580  67.129  1.00  0.00    -0.405 NA 
HETATM   13  H1  UNL     1     -10.991   9.580  67.093  1.00  0.00     0.000 HD 
ENDBRANCH   8  10
BRANCH   9  14
HETATM   14  C   UNL     1     -10.544   6.018  69.715  1.00  0.00    -0.356 A  
HETATM   15  C   UNL     1      -9.485   6.430  70.543  1.00  0.00    -0.173 A  
HETATM   16  C   UNL     1      -9.746   7.065  71.776  1.00  0.00    -0.158 A  
HETATM   17  C   UNL     1     -11.060   7.313  72.180  1.00  0.00    -0.246 A  
HETATM   18  N   UNL     1      -8.625   7.465  72.631  1.00  0.00    -0.110 N  
HETATM   19  C   UNL     1     -12.102   6.910  71.343  1.00  0.00    -0.364 A  
HETATM   20  O   UNL     1      -8.896   7.993  73.722  1.00  0.00    -0.266 OA 
HETATM   21  O   UNL     1      -7.476   7.256  72.218  1.00  0.00    -0.081 OA 
HETATM   22  O   UNL     1     -11.448   7.924  73.348  1.00  0.00    -0.552 OA 
HETATM   23  H   UNL     1     -12.342   8.094  73.622  1.00  0.00     0.000 HD 
HETATM   24  O   UNL     1     -13.396   7.143  71.722  1.00  0.00    -0.438 OA 
HETATM   25  C   UNL     1     -11.859   6.265  70.130  1.00  0.00    -0.118 A  
HETATM   26  H   UNL     1     -14.105   6.869  71.153  1.00  0.00     0.000 HD 
ENDBRANCH   9  14
ENDBRANCH   5   8
ENDBRANCH   2   3
TORSDOF 5
ENDMDL
MODEL      243
REMARK 921   NORMALIZED FREE ENERGY PREDICTED BY IDOCK:   -3.42 KCAL/MOL
REMARK 922        TOTAL FREE ENERGY PREDICTED BY IDOCK:   -4.54 KCAL/MOL
REMARK 923 INTER-LIGAND FREE ENERGY PREDICTED BY IDOCK:   -4.52 KCAL/MOL
REMARK 924 INTRA-LIGAND FREE ENERGY PREDICTED BY IDOCK:   -0.01 KCAL/MOL
REMARK 927      BINDING AFFINITY PREDICTED BY RF-SCORE:    0.00 PKD
ROOT
HETATM    1  C   UNL     1      -9.282   5.032  71.147  1.00  0.00    -0.187 C  
HETATM    2  C   UNL     1     -10.356   5.139  70.073  1.00  0.00    -0.276 C  
ENDROOT
BRANCH   2   3
HETATM    3  N   UNL     1     -10.519   6.500  69.537  1.00  0.00    -0.205 N  
HETATM    4  O   UNL     1      -8.619   6.194  68.287  1.00  0.00    -0.116 OA 
HETATM    5  C   UNL     1      -9.519   6.953  68.664  1.00  0.00    -0.134 C  
BRANCH   3   6
HETATM    6  C   UNL     1     -11.683   7.299  69.948  1.00  0.00     0.089 C  
HETATM    7  C   UNL     1     -11.756   7.867  71.357  1.00  0.00    -0.311 C  
ENDBRANCH   3   6
BRANCH   5   8
HETATM    8  C   UNL     1      -9.492   8.367  68.147  1.00  0.00    -0.148 C  
HETATM    9  C   UNL     1      -9.303   9.398  69.006  1.00  0.00    -0.153 C  
BRANCH   8  10
HETATM   10  C   UNL     1      -9.666   8.733  66.681  1.00  0.00    -0.242 C  
HETATM   11  H2  UNL     1     -10.280   9.825  65.915  1.00  0.00     0.000 HD 
HETATM   12  N   UNL     1      -9.811   9.038  65.467  1.00  0.00    -0.436 NA 
HETATM   13  H1  UNL     1      -9.927   9.284  64.484  1.00  0.00     0.000 HD 
ENDBRANCH   8  10
BRANCH   9  14
HETATM   14  C   UNL     1      -9.223  10.821  68.594  1.00  0.00    -0.184 A  
HETATM   15  C   UNL     1     -10.319  11.464  67.992  1.00  0.00    -0.204 A  
HETATM   16  C   UNL     1     -10.205  12.794  67.535  1.00  0.00    -0.216 A  
HETATM   17  C   UNL     1      -9.009  13.498  67.695  1.00  0.00    -0.200 A  
HETATM   18  N   UNL     1     -11.355  13.436  66.893  1.00  0.00    -0.311 N  
HETATM   19  C   UNL     1      -7.932  12.851  68.304  1.00  0.00    -0.151 A  
HETATM   20  O   UNL     1     -11.207  14.596  66.476  1.00  0.00    -0.334 OA 
HETATM   21  O   UNL     1     -12.407  12.786  66.803  1.00  0.00    -0.431 OA 
HETATM   22  O   UNL     1      -8.770  14.792  67.300  1.00  0.00    -0.185 OA 
HETATM   23  H   UNL     1      -7.956  15.271  67.409  1.00  0.00     0.000 HD 
HETATM   24  O   UNL     1      -6.751  13.523  68.468  1.00  0.00    -0.080 OA 
HETATM   25  C   UNL     1      -8.025  11.531  68.745  1.00  0.00    -0.107 A  
HETATM   26  H   UNL     1      -6.018  13.084  68.883  1.00  0.00     0.000 HD 
ENDBRANCH   9  14
ENDBRANCH   5   8
ENDBRANCH   2   3
TORSDOF 5
ENDMDL
MODEL      244
REMARK 921   NORMALIZED FREE ENERGY PREDICTED BY IDOCK:   -3.40 KCAL/MOL
REMARK 922        TOTAL FREE ENERGY PREDICTED BY IDOCK:   -4.51 KCAL/MOL
REMARK 923 INTER-LIGAND FREE ENERGY PREDICTED BY IDOCK:   -5.00 KCAL/MOL
REMARK 924 INTRA-LIGAND FREE ENERGY PREDICTED BY IDOCK:    0.49 KCAL/MOL
REMARK 927      BINDING AFFINITY PREDICTED BY RF-SCORE:    0.00 PKD
ROOT
HETATM    1  C   UNL     1      -5.576  17.295  70.558  1.00  0.00    -0.144 C  
HETATM    2  C   UNL     1      -6.149  15.884  70.542  1.00  0.00     0.135 C  
ENDROOT
BRANCH   2   3
HETATM    3  N   UNL     1      -7.102  15.647  69.446  1.00  0.00    -0.187 N  
HETATM    4  O   UNL     1      -6.296  13.506  69.260  1.00  0.00    -0.099 OA 
HETATM    5  C   UNL     1      -7.039  14.392  68.822  1.00  0.00    -0.114 C  
BRANCH   3   6
HETATM    6  C   UNL     1      -8.034  16.717  69.061  1.00  0.00    -0.208 C  
HETATM    7  C   UNL     1      -9.514  16.589  69.383  1.00  0.00    -0.068 C  
ENDBRANCH   3   6
BRANCH   5   8
HETATM    8  C   UNL     1      -7.863  14.063  67.606  1.00  0.00    -0.185 C  
HETATM    9  C   UNL     1      -8.253  12.785  67.380  1.00  0.00    -0.186 C  
BRANCH   8  10
HETATM   10  C   UNL     1      -8.305  15.095  66.581  1.00  0.00    -0.127 C  
HETATM   11  H2  UNL     1      -7.778  15.659  65.332  1.00  0.00     0.000 HD 
HETATM   12  N   UNL     1      -8.671  15.950  65.731  1.00  0.00    -0.247 NA 
HETATM   13  H1  UNL     1      -8.967  16.643  65.042  1.00  0.00     0.000 HD 
ENDBRANCH   8  10
BRANCH   9  14
HETATM   14  C   UNL     1      -9.096  12.362  66.234  1.00  0.00    -0.099 A  
HETATM   15  C   UNL     1     -10.399  12.864  66.069  1.00  0.00    -0.294 A  
HETATM   16  C   UNL     1     -11.218  12.398  65.019  1.00  0.00    -0.312 A  
HETATM   17  C   UNL     1     -10.737  11.446  64.116  1.00  0.00    -0.371 A  
HETATM   18  N   UNL     1     -12.579  12.921  64.880  1.00  0.00    -0.480 N  
HETATM   19  C   UNL     1      -9.438  10.964  64.285  1.00  0.00    -0.250 A  
HETATM   20  O   UNL     1     -13.280  12.463  63.963  1.00  0.00    -0.748 OA 
HETATM   21  O   UNL     1     -12.952  13.788  65.683  1.00  0.00    -0.574 OA 
HETATM   22  O   UNL     1     -11.428  10.914  63.053  1.00  0.00    -0.439 OA 
HETATM   23  H   UNL     1     -11.100  10.268  62.439  1.00  0.00     0.000 HD 
HETATM   24  O   UNL     1      -8.950  10.030  63.411  1.00  0.00    -0.215 OA 
HETATM   25  C   UNL     1      -8.623  11.404  65.328  1.00  0.00     0.211 A  
HETATM   26  H   UNL     1      -8.066   9.702  63.525  1.00  0.00     0.000 HD 
ENDBRANCH   9  14
ENDBRANCH   5   8
ENDBRANCH   2   3
TORSDOF 5
ENDMDL
MODEL      245
REMARK 921   NORMALIZED FREE ENERGY PREDICTED BY IDOCK:   -3.39 KCAL/MOL
REMARK 922        TOTAL FREE ENERGY PREDICTED BY IDOCK:   -4.50 KCAL/MOL
REMARK 923 INTER-LIGAND FREE ENERGY PREDICTED BY IDOCK:   -3.97 KCAL/MOL
REMARK 924 INTRA-LIGAND FREE ENERGY PREDICTED BY IDOCK:   -0.53 KCAL/MOL
REMARK 927      BINDING AFFINITY PREDICTED BY RF-SCORE:    0.00 PKD
ROOT
HETATM    1  C   UNL     1      -6.216   6.393  70.212  1.00  0.00    -0.035 C  
HETATM    2  C   UNL     1      -5.315   6.757  69.039  1.00  0.00    -0.013 C  
ENDROOT
BRANCH   2   3
HETATM    3  N   UNL     1      -5.941   7.682  68.081  1.00  0.00    -0.038 N  
HETATM    4  O   UNL     1      -5.280   9.438  69.404  1.00  0.00    -0.035 OA 
HETATM    5  C   UNL     1      -5.907   9.045  68.413  1.00  0.00    -0.042 C  
BRANCH   3   6
HETATM    6  C   UNL     1      -6.568   7.143  66.865  1.00  0.00    -0.055 C  
HETATM    7  C   UNL     1      -7.964   6.544  66.931  1.00  0.00    -0.112 C  
ENDBRANCH   3   6
BRANCH   5   8
HETATM    8  C   UNL     1      -6.620  10.085  67.591  1.00  0.00    -0.067 C  
HETATM    9  C   UNL     1      -7.912  10.393  67.864  1.00  0.00    -0.102 C  
BRANCH   8  10
HETATM   10  C   UNL     1      -5.975  10.840  66.441  1.00  0.00    -0.110 C  
HETATM   11  H2  UNL     1      -5.433  10.515  65.115  1.00  0.00     0.000 HD 
HETATM   12  N   UNL     1      -5.439  11.465  65.486  1.00  0.00    -0.496 NA 
HETATM   13  H1  UNL     1      -5.006  11.972  64.714  1.00  0.00     0.000 HD 
ENDBRANCH   8  10
BRANCH   9  14
HETATM   14  C   UNL     1      -8.692  11.427  67.139  1.00  0.00    -0.155 A  
HETATM   15  C   UNL     1      -9.224  11.172  65.863  1.00  0.00    -0.225 A  
HETATM   16  C   UNL     1      -9.897  12.188  65.153  1.00  0.00    -0.180 A  
HETATM   17  C   UNL     1     -10.064  13.455  65.718  1.00  0.00    -0.288 A  
HETATM   18  N   UNL     1     -10.425  11.904  63.816  1.00  0.00    -0.378 N  
HETATM   19  C   UNL     1      -9.541  13.691  66.990  1.00  0.00    -0.251 A  
HETATM   20  O   UNL     1     -10.984  12.832  63.209  1.00  0.00    -0.314 OA 
HETATM   21  O   UNL     1     -10.283  10.757  63.368  1.00  0.00    -0.330 OA 
HETATM   22  O   UNL     1     -10.701  14.524  65.136  1.00  0.00    -0.352 OA 
HETATM   23  H   UNL     1     -10.815  15.386  65.520  1.00  0.00     0.000 HD 
HETATM   24  O   UNL     1      -9.693  14.927  67.559  1.00  0.00    -0.211 OA 
HETATM   25  C   UNL     1      -8.858  12.701  67.696  1.00  0.00    -0.184 A  
HETATM   26  H   UNL     1      -9.338  15.088  68.425  1.00  0.00     0.000 HD 
ENDBRANCH   9  14
ENDBRANCH   5   8
ENDBRANCH   2   3
TORSDOF 5
ENDMDL
MODEL      246
REMARK 921   NORMALIZED FREE ENERGY PREDICTED BY IDOCK:   -3.38 KCAL/MOL
REMARK 922        TOTAL FREE ENERGY PREDICTED BY IDOCK:   -4.48 KCAL/MOL
REMARK 923 INTER-LIGAND FREE ENERGY PREDICTED BY IDOCK:   -3.95 KCAL/MOL
REMARK 924 INTRA-LIGAND FREE ENERGY PREDICTED BY IDOCK:   -0.53 KCAL/MOL
REMARK 927      BINDING AFFINITY PREDICTED BY RF-SCORE:    0.00 PKD
ROOT
HETATM    1  C   UNL     1     -11.871   8.220  72.618  1.00  0.00    -0.382 C  
HETATM    2  C   UNL     1     -12.394   7.812  71.247  1.00  0.00    -0.293 C  
ENDROOT
BRANCH   2   3
HETATM    3  N   UNL     1     -11.347   7.313  70.341  1.00  0.00    -0.283 N  
HETATM    4  O   UNL     1     -10.845   9.483  69.789  1.00  0.00    -0.231 OA 
HETATM    5  C   UNL     1     -10.653   8.277  69.596  1.00  0.00    -0.222 C  
BRANCH   3   6
HETATM    6  C   UNL     1     -11.102   5.866  70.255  1.00  0.00    -0.298 C  
HETATM    7  C   UNL     1     -10.123   5.202  71.210  1.00  0.00    -0.278 C  
ENDBRANCH   3   6
BRANCH   5   8
HETATM    8  C   UNL     1      -9.649   7.899  68.539  1.00  0.00    -0.153 C  
HETATM    9  C   UNL     1     -10.056   7.697  67.262  1.00  0.00    -0.306 C  
BRANCH   8  10
HETATM   10  C   UNL     1      -8.164   7.722  68.810  1.00  0.00    -0.128 C  
HETATM   11  H2  UNL     1      -7.012   7.127  68.120  1.00  0.00     0.000 HD 
HETATM   12  N   UNL     1      -6.932   7.575  69.033  1.00  0.00    -0.071 NA 
HETATM   13  H1  UNL     1      -5.935   7.457  69.215  1.00  0.00     0.000 HD 
ENDBRANCH   8  10
BRANCH   9  14
HETATM   14  C   UNL     1      -9.144   7.358  66.142  1.00  0.00    -0.167 A  
HETATM   15  C   UNL     1      -8.569   8.364  65.346  1.00  0.00    -0.193 A  
HETATM   16  C   UNL     1      -7.765   8.027  64.237  1.00  0.00    -0.128 A  
HETATM   17  C   UNL     1      -7.511   6.688  63.928  1.00  0.00    -0.094 A  
HETATM   18  N   UNL     1      -7.194   9.094  63.410  1.00  0.00    -0.095 N  
HETATM   19  C   UNL     1      -8.079   5.699  64.733  1.00  0.00    -0.128 A  
HETATM   20  O   UNL     1      -6.518   8.757  62.424  1.00  0.00    -0.096 OA 
HETATM   21  O   UNL     1      -7.418  10.267  63.741  1.00  0.00    -0.141 OA 
HETATM   22  O   UNL     1      -6.745   6.229  62.883  1.00  0.00    -0.039 OA 
HETATM   23  H   UNL     1      -6.572   5.318  62.673  1.00  0.00     0.000 HD 
HETATM   24  O   UNL     1      -7.843   4.382  64.445  1.00  0.00    -0.082 OA 
HETATM   25  C   UNL     1      -8.890   6.018  65.822  1.00  0.00    -0.143 A  
HETATM   26  H   UNL     1      -8.228   3.709  64.992  1.00  0.00     0.000 HD 
ENDBRANCH   9  14
ENDBRANCH   5   8
ENDBRANCH   2   3
TORSDOF 5
ENDMDL
MODEL      247
REMARK 921   NORMALIZED FREE ENERGY PREDICTED BY IDOCK:   -3.33 KCAL/MOL
REMARK 922        TOTAL FREE ENERGY PREDICTED BY IDOCK:   -4.43 KCAL/MOL
REMARK 923 INTER-LIGAND FREE ENERGY PREDICTED BY IDOCK:   -4.07 KCAL/MOL
REMARK 924 INTRA-LIGAND FREE ENERGY PREDICTED BY IDOCK:   -0.36 KCAL/MOL
REMARK 927      BINDING AFFINITY PREDICTED BY RF-SCORE:    0.00 PKD
ROOT
HETATM    1  C   UNL     1      -7.304  20.132  66.358  1.00  0.00    -0.313 C  
HETATM    2  C   UNL     1      -6.883  18.721  65.965  1.00  0.00    -0.254 C  
ENDROOT
BRANCH   2   3
HETATM    3  N   UNL     1      -7.548  17.668  66.748  1.00  0.00    -0.206 N  
HETATM    4  O   UNL     1      -5.538  16.571  66.907  1.00  0.00    -0.298 OA 
HETATM    5  C   UNL     1      -6.755  16.575  67.128  1.00  0.00    -0.197 C  
BRANCH   3   6
HETATM    6  C   UNL     1      -8.977  17.804  67.067  1.00  0.00    -0.252 C  
HETATM    7  C   UNL     1     -10.025  17.240  66.122  1.00  0.00    -0.288 C  
ENDBRANCH   3   6
BRANCH   5   8
HETATM    8  C   UNL     1      -7.335  15.369  67.817  1.00  0.00    -0.180 C  
HETATM    9  C   UNL     1      -7.682  14.278  67.091  1.00  0.00    -0.046 C  
BRANCH   8  10
HETATM   10  C   UNL     1      -7.566  15.284  69.317  1.00  0.00    -0.213 C  
HETATM   11  H2  UNL     1      -8.596  14.744  70.213  1.00  0.00     0.000 HD 
HETATM   12  N   UNL     1      -7.759  15.212  70.560  1.00  0.00     0.244 NA 
HETATM   13  H1  UNL     1      -7.914  15.154  71.567  1.00  0.00     0.000 HD 
ENDBRANCH   8  10
BRANCH   9  14
HETATM   14  C   UNL     1      -8.225  13.028  67.677  1.00  0.00    -0.171 A  
HETATM   15  C   UNL     1      -9.536  12.604  67.393  1.00  0.00    -0.189 A  
HETATM   16  C   UNL     1     -10.067  11.455  68.016  1.00  0.00    -0.180 A  
HETATM   17  C   UNL     1      -9.290  10.709  68.906  1.00  0.00    -0.184 A  
HETATM   18  N   UNL     1     -11.443  11.046  67.720  1.00  0.00    -0.293 N  
HETATM   19  C   UNL     1      -7.986  11.134  69.170  1.00  0.00    -0.042 A  
HETATM   20  O   UNL     1     -11.885  10.048  68.312  1.00  0.00    -0.003 OA 
HETATM   21  O   UNL     1     -12.083  11.718  66.900  1.00  0.00    -0.566 OA 
HETATM   22  O   UNL     1      -9.684   9.574  69.572  1.00  0.00    -0.170 OA 
HETATM   23  H   UNL     1      -9.155   9.067  70.177  1.00  0.00     0.000 HD 
HETATM   24  O   UNL     1      -7.210  10.417  70.040  1.00  0.00    -0.154 OA 
HETATM   25  C   UNL     1      -7.455  12.278  68.575  1.00  0.00    -0.113 A  
HETATM   26  H   UNL     1      -6.323  10.706  70.220  1.00  0.00     0.000 HD 
ENDBRANCH   9  14
ENDBRANCH   5   8
ENDBRANCH   2   3
TORSDOF 5
ENDMDL
MODEL      248
REMARK 921   NORMALIZED FREE ENERGY PREDICTED BY IDOCK:   -3.30 KCAL/MOL
REMARK 922        TOTAL FREE ENERGY PREDICTED BY IDOCK:   -4.38 KCAL/MOL
REMARK 923 INTER-LIGAND FREE ENERGY PREDICTED BY IDOCK:   -3.83 KCAL/MOL
REMARK 924 INTRA-LIGAND FREE ENERGY PREDICTED BY IDOCK:   -0.55 KCAL/MOL
REMARK 927      BINDING AFFINITY PREDICTED BY RF-SCORE:    0.00 PKD
ROOT
HETATM    1  C   UNL     1      -7.075   8.004  69.888  1.00  0.00    -0.057 C  
HETATM    2  C   UNL     1      -6.881   8.842  68.631  1.00  0.00    -0.063 C  
ENDROOT
BRANCH   2   3
HETATM    3  N   UNL     1      -7.471  10.187  68.723  1.00  0.00    -0.082 N  
HETATM    4  O   UNL     1      -5.568  11.044  67.767  1.00  0.00    -0.040 OA 
HETATM    5  C   UNL     1      -6.666  11.254  68.296  1.00  0.00    -0.059 C  
BRANCH   3   6
HETATM    6  C   UNL     1      -8.831  10.341  69.260  1.00  0.00    -0.177 C  
HETATM    7  C   UNL     1     -10.035  10.071  68.371  1.00  0.00    -0.178 C  
ENDBRANCH   3   6
BRANCH   5   8
HETATM    8  C   UNL     1      -7.091  12.689  68.456  1.00  0.00    -0.101 C  
HETATM    9  C   UNL     1      -7.797  13.298  67.472  1.00  0.00    -0.173 C  
BRANCH   8  10
HETATM   10  C   UNL     1      -6.778  13.532  69.682  1.00  0.00     0.039 C  
HETATM   11  H2  UNL     1      -6.204  13.311  71.016  1.00  0.00     0.000 HD 
HETATM   12  N   UNL     1      -6.517  14.229  70.699  1.00  0.00    -0.397 NA 
HETATM   13  H1  UNL     1      -6.307  14.794  71.522  1.00  0.00     0.000 HD 
ENDBRANCH   8  10
BRANCH   9  14
HETATM   14  C   UNL     1      -8.295  14.694  67.547  1.00  0.00    -0.203 A  
HETATM   15  C   UNL     1      -7.437  15.783  67.313  1.00  0.00    -0.252 A  
HETATM   16  C   UNL     1      -7.904  17.107  67.462  1.00  0.00    -0.175 A  
HETATM   17  C   UNL     1      -9.232  17.352  67.822  1.00  0.00    -0.248 A  
HETATM   18  N   UNL     1      -6.985  18.225  67.233  1.00  0.00    -0.196 N  
HETATM   19  C   UNL     1     -10.076  16.262  68.040  1.00  0.00    -0.245 A  
HETATM   20  O   UNL     1      -7.424  19.374  67.404  1.00  0.00    -0.227 OA 
HETATM   21  O   UNL     1      -5.826  17.961  66.882  1.00  0.00    -0.133 OA 
HETATM   22  O   UNL     1      -9.810  18.587  67.995  1.00  0.00    -0.311 OA 
HETATM   23  H   UNL     1     -10.713  18.754  68.239  1.00  0.00     0.000 HD 
HETATM   24  O   UNL     1     -11.379  16.483  68.395  1.00  0.00    -0.348 OA 
HETATM   25  C   UNL     1      -9.623  14.949  67.913  1.00  0.00    -0.205 A  
HETATM   26  H   UNL     1     -11.954  15.741  68.543  1.00  0.00     0.000 HD 
ENDBRANCH   9  14
ENDBRANCH   5   8
ENDBRANCH   2   3
TORSDOF 5
ENDMDL
MODEL      249
REMARK 921   NORMALIZED FREE ENERGY PREDICTED BY IDOCK:   -3.29 KCAL/MOL
REMARK 922        TOTAL FREE ENERGY PREDICTED BY IDOCK:   -4.37 KCAL/MOL
REMARK 923 INTER-LIGAND FREE ENERGY PREDICTED BY IDOCK:   -3.88 KCAL/MOL
REMARK 924 INTRA-LIGAND FREE ENERGY PREDICTED BY IDOCK:   -0.49 KCAL/MOL
REMARK 927      BINDING AFFINITY PREDICTED BY RF-SCORE:    0.00 PKD
ROOT
HETATM    1  C   UNL     1      -7.442   2.907  69.527  1.00  0.00    -0.044 C  
HETATM    2  C   UNL     1      -6.556   4.141  69.649  1.00  0.00    -0.033 C  
ENDROOT
BRANCH   2   3
HETATM    3  N   UNL     1      -7.279   5.407  69.449  1.00  0.00    -0.063 N  
HETATM    4  O   UNL     1      -6.454   5.495  67.309  1.00  0.00    -0.044 OA 
HETATM    5  C   UNL     1      -7.097   6.042  68.212  1.00  0.00    -0.082 C  
BRANCH   3   6
HETATM    6  C   UNL     1      -8.117   5.935  70.535  1.00  0.00    -0.111 C  
HETATM    7  C   UNL     1      -7.804   5.579  71.980  1.00  0.00    -0.106 C  
ENDBRANCH   3   6
BRANCH   5   8
HETATM    8  C   UNL     1      -7.671   7.404  67.922  1.00  0.00    -0.116 C  
HETATM    9  C   UNL     1      -8.877   7.514  67.314  1.00  0.00    -0.124 C  
BRANCH   8  10
HETATM   10  C   UNL     1      -6.972   8.707  68.274  1.00  0.00    -0.073 C  
HETATM   11  H2  UNL     1      -6.177   9.722  67.570  1.00  0.00     0.000 HD 
HETATM   12  N   UNL     1      -6.392   9.788  68.565  1.00  0.00    -0.047 NA 
HETATM   13  H1  UNL     1      -5.923  10.662  68.801  1.00  0.00     0.000 HD 
ENDBRANCH   8  10
BRANCH   9  14
HETATM   14  C   UNL     1      -9.546   8.805  67.018  1.00  0.00    -0.236 A  
HETATM   15  C   UNL     1     -10.235   9.511  68.020  1.00  0.00    -0.244 A  
HETATM   16  C   UNL     1     -10.931  10.698  67.710  1.00  0.00    -0.306 A  
HETATM   17  C   UNL     1     -10.926  11.201  66.406  1.00  0.00    -0.186 A  
HETATM   18  N   UNL     1     -11.660  11.404  68.767  1.00  0.00    -0.284 N  
HETATM   19  C   UNL     1     -10.228  10.497  65.423  1.00  0.00    -0.270 A  
HETATM   20  O   UNL     1     -12.286  12.428  68.449  1.00  0.00    -0.231 OA 
HETATM   21  O   UNL     1     -11.609  10.940  69.915  1.00  0.00    -0.273 OA 
HETATM   22  O   UNL     1     -11.557  12.343  65.975  1.00  0.00    -0.362 OA 
HETATM   23  H   UNL     1     -11.552  12.685  65.088  1.00  0.00     0.000 HD 
HETATM   24  O   UNL     1     -10.213  10.973  64.140  1.00  0.00    -0.305 OA 
HETATM   25  C   UNL     1      -9.550   9.312  65.713  1.00  0.00    -0.341 A  
HETATM   26  H   UNL     1      -9.738  10.494  63.471  1.00  0.00     0.000 HD 
ENDBRANCH   9  14
ENDBRANCH   5   8
ENDBRANCH   2   3
TORSDOF 5
ENDMDL
MODEL      250
REMARK 921   NORMALIZED FREE ENERGY PREDICTED BY IDOCK:   -3.28 KCAL/MOL
REMARK 922        TOTAL FREE ENERGY PREDICTED BY IDOCK:   -4.36 KCAL/MOL
REMARK 923 INTER-LIGAND FREE ENERGY PREDICTED BY IDOCK:   -3.79 KCAL/MOL
REMARK 924 INTRA-LIGAND FREE ENERGY PREDICTED BY IDOCK:   -0.57 KCAL/MOL
REMARK 927      BINDING AFFINITY PREDICTED BY RF-SCORE:    0.00 PKD
ROOT
HETATM    1  C   UNL     1      -9.631   1.966  68.949  1.00  0.00    -0.112 C  
HETATM    2  C   UNL     1      -9.052   2.700  67.747  1.00  0.00    -0.187 C  
ENDROOT
BRANCH   2   3
HETATM    3  N   UNL     1      -8.724   4.109  68.019  1.00  0.00    -0.096 N  
HETATM    4  O   UNL     1     -10.108   4.724  66.295  1.00  0.00    -0.213 OA 
HETATM    5  C   UNL     1      -9.289   5.061  67.158  1.00  0.00    -0.125 C  
BRANCH   3   6
HETATM    6  C   UNL     1      -7.830   4.434  69.140  1.00  0.00    -0.061 C  
HETATM    7  C   UNL     1      -6.322   4.418  68.940  1.00  0.00    -0.032 C  
ENDBRANCH   3   6
BRANCH   5   8
HETATM    8  C   UNL     1      -8.935   6.521  67.240  1.00  0.00    -0.114 C  
HETATM    9  C   UNL     1      -9.689   7.358  67.995  1.00  0.00    -0.161 C  
BRANCH   8  10
HETATM   10  C   UNL     1      -7.754   7.147  66.515  1.00  0.00    -0.100 C  
HETATM   11  H2  UNL     1      -7.205   8.496  66.326  1.00  0.00     0.000 HD 
HETATM   12  N   UNL     1      -6.775   7.666  65.915  1.00  0.00    -0.046 NA 
HETATM   13  H1  UNL     1      -5.983   8.086  65.429  1.00  0.00     0.000 HD 
ENDBRANCH   8  10
BRANCH   9  14
HETATM   14  C   UNL     1      -9.405   8.803  68.172  1.00  0.00    -0.148 A  
HETATM   15  C   UNL     1     -10.051   9.771  67.384  1.00  0.00    -0.259 A  
HETATM   16  C   UNL     1      -9.716  11.136  67.509  1.00  0.00    -0.176 A  
HETATM   17  C   UNL     1      -8.753  11.546  68.435  1.00  0.00    -0.160 A  
HETATM   18  N   UNL     1     -10.388  12.124  66.661  1.00  0.00    -0.206 N  
HETATM   19  C   UNL     1      -8.127  10.576  69.220  1.00  0.00    -0.148 A  
HETATM   20  O   UNL     1     -10.044  13.311  66.778  1.00  0.00    -0.248 OA 
HETATM   21  O   UNL     1     -11.259  11.719  65.878  1.00  0.00    -0.324 OA 
HETATM   22  O   UNL     1      -8.341  12.838  68.657  1.00  0.00    -0.315 OA 
HETATM   23  H   UNL     1      -7.686  13.117  69.288  1.00  0.00     0.000 HD 
HETATM   24  O   UNL     1      -7.181  10.959  70.131  1.00  0.00    -0.423 OA 
HETATM   25  C   UNL     1      -8.437   9.222  69.094  1.00  0.00    -0.133 A  
HETATM   26  H   UNL     1      -6.755  10.299  70.666  1.00  0.00     0.000 HD 
ENDBRANCH   9  14
ENDBRANCH   5   8
ENDBRANCH   2   3
TORSDOF 5
ENDMDL
MODEL      251
REMARK 921   NORMALIZED FREE ENERGY PREDICTED BY IDOCK:   -3.28 KCAL/MOL
REMARK 922        TOTAL FREE ENERGY PREDICTED BY IDOCK:   -4.35 KCAL/MOL
REMARK 923 INTER-LIGAND FREE ENERGY PREDICTED BY IDOCK:   -4.14 KCAL/MOL
REMARK 924 INTRA-LIGAND FREE ENERGY PREDICTED BY IDOCK:   -0.21 KCAL/MOL
REMARK 927      BINDING AFFINITY PREDICTED BY RF-SCORE:    0.00 PKD
ROOT
HETATM    1  C   UNL     1     -13.501   9.465  71.615  1.00  0.00    -0.467 C  
HETATM    2  C   UNL     1     -11.984   9.580  71.700  1.00  0.00    -0.401 C  
ENDROOT
BRANCH   2   3
HETATM    3  N   UNL     1     -11.303   9.361  70.414  1.00  0.00    -0.254 N  
HETATM    4  O   UNL     1     -10.561   7.335  71.196  1.00  0.00    -0.221 OA 
HETATM    5  C   UNL     1     -10.548   8.184  70.298  1.00  0.00    -0.228 C  
BRANCH   3   6
HETATM    6  C   UNL     1     -11.433  10.369  69.352  1.00  0.00    -0.227 C  
HETATM    7  C   UNL     1     -11.601  11.837  69.713  1.00  0.00    -0.372 C  
ENDBRANCH   3   6
BRANCH   5   8
HETATM    8  C   UNL     1      -9.698   7.898  69.089  1.00  0.00    -0.162 C  
HETATM    9  C   UNL     1     -10.285   7.559  67.915  1.00  0.00    -0.245 C  
BRANCH   8  10
HETATM   10  C   UNL     1      -8.179   7.963  69.091  1.00  0.00    -0.132 C  
HETATM   11  H2  UNL     1      -7.137   8.670  69.847  1.00  0.00     0.000 HD 
HETATM   12  N   UNL     1      -6.920   8.018  69.092  1.00  0.00    -0.056 NA 
HETATM   13  H1  UNL     1      -5.901   8.062  69.094  1.00  0.00     0.000 HD 
ENDBRANCH   8  10
BRANCH   9  14
HETATM   14  C   UNL     1      -9.541   7.294  66.659  1.00  0.00    -0.236 A  
HETATM   15  C   UNL     1      -9.389   5.985  66.169  1.00  0.00    -0.140 A  
HETATM   16  C   UNL     1      -8.615   5.738  65.015  1.00  0.00    -0.088 A  
HETATM   17  C   UNL     1      -8.007   6.795  64.332  1.00  0.00    -0.096 A  
HETATM   18  N   UNL     1      -8.455   4.363  64.536  1.00  0.00    -0.114 N  
HETATM   19  C   UNL     1      -8.175   8.091  64.822  1.00  0.00    -0.121 A  
HETATM   20  O   UNL     1      -7.741   4.182  63.536  1.00  0.00    -0.068 OA 
HETATM   21  O   UNL     1      -9.040   3.462  65.153  1.00  0.00    -0.132 OA 
HETATM   22  O   UNL     1      -7.235   6.690  63.199  1.00  0.00    -0.051 OA 
HETATM   23  H   UNL     1      -6.822   7.408  62.734  1.00  0.00     0.000 HD 
HETATM   24  O   UNL     1      -7.586   9.138  64.167  1.00  0.00    -0.106 OA 
HETATM   25  C   UNL     1      -8.923   8.347  65.971  1.00  0.00    -0.228 A  
HETATM   26  H   UNL     1      -7.700  10.020  64.500  1.00  0.00     0.000 HD 
ENDBRANCH   9  14
ENDBRANCH   5   8
ENDBRANCH   2   3
TORSDOF 5
ENDMDL
MODEL      252
REMARK 921   NORMALIZED FREE ENERGY PREDICTED BY IDOCK:   -3.26 KCAL/MOL
REMARK 922        TOTAL FREE ENERGY PREDICTED BY IDOCK:   -4.33 KCAL/MOL
REMARK 923 INTER-LIGAND FREE ENERGY PREDICTED BY IDOCK:   -4.39 KCAL/MOL
REMARK 924 INTRA-LIGAND FREE ENERGY PREDICTED BY IDOCK:    0.06 KCAL/MOL
REMARK 927      BINDING AFFINITY PREDICTED BY RF-SCORE:    0.00 PKD
ROOT
HETATM    1  C   UNL     1     -12.309  12.763  65.101  1.00  0.00    -0.555 C  
HETATM    2  C   UNL     1     -10.789  12.677  65.156  1.00  0.00    -0.290 C  
ENDROOT
BRANCH   2   3
HETATM    3  N   UNL     1     -10.292  11.525  65.925  1.00  0.00    -0.239 N  
HETATM    4  O   UNL     1      -9.938  10.409  63.951  1.00  0.00    -0.315 OA 
HETATM    5  C   UNL     1      -9.936  10.386  65.187  1.00  0.00    -0.322 C  
BRANCH   3   6
HETATM    6  C   UNL     1     -10.212  11.619  67.390  1.00  0.00    -0.203 C  
HETATM    7  C   UNL     1     -11.316  12.317  68.169  1.00  0.00    -0.349 C  
ENDBRANCH   3   6
BRANCH   5   8
HETATM    8  C   UNL     1      -9.537   9.096  65.852  1.00  0.00    -0.343 C  
HETATM    9  C   UNL     1      -8.368   8.496  65.517  1.00  0.00    -0.163 C  
BRANCH   8  10
HETATM   10  C   UNL     1     -10.377   8.395  66.908  1.00  0.00    -0.307 C  
HETATM   11  H2  UNL     1     -10.237   7.227  67.787  1.00  0.00     0.000 HD 
HETATM   12  N   UNL     1     -11.072   7.813  67.783  1.00  0.00    -0.471 NA 
HETATM   13  H1  UNL     1     -11.636   7.342  68.492  1.00  0.00     0.000 HD 
ENDBRANCH   8  10
BRANCH   9  14
HETATM   14  C   UNL     1      -7.866   7.246  66.139  1.00  0.00    -0.108 A  
HETATM   15  C   UNL     1      -7.919   6.022  65.450  1.00  0.00    -0.118 A  
HETATM   16  C   UNL     1      -7.509   4.828  66.080  1.00  0.00    -0.078 A  
HETATM   17  C   UNL     1      -7.025   4.849  67.390  1.00  0.00    -0.061 A  
HETATM   18  N   UNL     1      -7.593   3.561  65.347  1.00  0.00    -0.077 N  
HETATM   19  C   UNL     1      -6.967   6.073  68.060  1.00  0.00    -0.076 A  
HETATM   20  O   UNL     1      -7.253   2.528  65.946  1.00  0.00    -0.062 OA 
HETATM   21  O   UNL     1      -7.996   3.594  64.176  1.00  0.00    -0.084 OA 
HETATM   22  O   UNL     1      -6.592   3.763  68.113  1.00  0.00    -0.040 OA 
HETATM   23  H   UNL     1      -6.263   3.778  69.004  1.00  0.00     0.000 HD 
HETATM   24  O   UNL     1      -6.498   6.113  69.344  1.00  0.00    -0.039 OA 
HETATM   25  C   UNL     1      -7.385   7.258  67.455  1.00  0.00    -0.092 A  
HETATM   26  H   UNL     1      -6.458   6.946  69.800  1.00  0.00     0.000 HD 
ENDBRANCH   9  14
ENDBRANCH   5   8
ENDBRANCH   2   3
TORSDOF 5
ENDMDL
MODEL      253
REMARK 921   NORMALIZED FREE ENERGY PREDICTED BY IDOCK:   -3.22 KCAL/MOL
REMARK 922        TOTAL FREE ENERGY PREDICTED BY IDOCK:   -4.28 KCAL/MOL
REMARK 923 INTER-LIGAND FREE ENERGY PREDICTED BY IDOCK:   -3.76 KCAL/MOL
REMARK 924 INTRA-LIGAND FREE ENERGY PREDICTED BY IDOCK:   -0.51 KCAL/MOL
REMARK 927      BINDING AFFINITY PREDICTED BY RF-SCORE:    0.00 PKD
ROOT
HETATM    1  C   UNL     1      -8.409   9.610  63.130  1.00  0.00    -0.171 C  
HETATM    2  C   UNL     1      -8.673  10.392  64.411  1.00  0.00    -0.198 C  
ENDROOT
BRANCH   2   3
HETATM    3  N   UNL     1      -8.278   9.672  65.632  1.00  0.00    -0.117 N  
HETATM    4  O   UNL     1     -10.497   9.317  66.096  1.00  0.00    -0.150 OA 
HETATM    5  C   UNL     1      -9.318   9.214  66.454  1.00  0.00    -0.204 C  
BRANCH   3   6
HETATM    6  C   UNL     1      -6.849   9.491  65.928  1.00  0.00    -0.087 C  
HETATM    7  C   UNL     1      -5.981  10.696  66.256  1.00  0.00    -0.106 C  
ENDBRANCH   3   6
BRANCH   5   8
HETATM    8  C   UNL     1      -9.057   8.579  67.793  1.00  0.00    -0.143 C  
HETATM    9  C   UNL     1      -9.327   9.266  68.931  1.00  0.00    -0.150 C  
BRANCH   8  10
HETATM   10  C   UNL     1      -8.495   7.177  67.968  1.00  0.00    -0.122 C  
HETATM   11  H2  UNL     1      -7.485   6.525  68.812  1.00  0.00     0.000 HD 
HETATM   12  N   UNL     1      -8.028   6.016  68.115  1.00  0.00    -0.109 NA 
HETATM   13  H1  UNL     1      -7.651   5.075  68.232  1.00  0.00     0.000 HD 
ENDBRANCH   8  10
BRANCH   9  14
HETATM   14  C   UNL     1      -9.141   8.718  70.297  1.00  0.00    -0.185 A  
HETATM   15  C   UNL     1     -10.130   7.920  70.899  1.00  0.00    -0.205 A  
HETATM   16  C   UNL     1      -9.976   7.469  72.227  1.00  0.00    -0.181 A  
HETATM   17  C   UNL     1      -8.826   7.791  72.954  1.00  0.00    -0.178 A  
HETATM   18  N   UNL     1     -11.030   6.657  72.840  1.00  0.00    -0.256 N  
HETATM   19  C   UNL     1      -7.847   8.574  72.341  1.00  0.00    -0.052 A  
HETATM   20  O   UNL     1     -10.872   6.305  74.020  1.00  0.00    -0.134 OA 
HETATM   21  O   UNL     1     -12.016   6.368  72.146  1.00  0.00    -0.325 OA 
HETATM   22  O   UNL     1      -8.553   7.412  74.247  1.00  0.00    -0.189 OA 
HETATM   23  H   UNL     1      -7.771   7.630  74.741  1.00  0.00     0.000 HD 
HETATM   24  O   UNL     1      -6.715   8.900  73.038  1.00  0.00    -0.315 OA 
HETATM   25  C   UNL     1      -7.995   9.041  71.035  1.00  0.00    -0.186 A  
HETATM   26  H   UNL     1      -6.048   9.432  72.621  1.00  0.00     0.000 HD 
ENDBRANCH   9  14
ENDBRANCH   5   8
ENDBRANCH   2   3
TORSDOF 5
ENDMDL
MODEL      254
REMARK 921   NORMALIZED FREE ENERGY PREDICTED BY IDOCK:   -3.14 KCAL/MOL
REMARK 922        TOTAL FREE ENERGY PREDICTED BY IDOCK:   -4.18 KCAL/MOL
REMARK 923 INTER-LIGAND FREE ENERGY PREDICTED BY IDOCK:   -3.61 KCAL/MOL
REMARK 924 INTRA-LIGAND FREE ENERGY PREDICTED BY IDOCK:   -0.56 KCAL/MOL
REMARK 927      BINDING AFFINITY PREDICTED BY RF-SCORE:    0.00 PKD
ROOT
HETATM    1  C   UNL     1     -10.529  14.330  67.030  1.00  0.00    -0.271 C  
HETATM    2  C   UNL     1     -10.701  13.170  68.002  1.00  0.00    -0.233 C  
ENDROOT
BRANCH   2   3
HETATM    3  N   UNL     1      -9.829  12.022  67.709  1.00  0.00    -0.186 N  
HETATM    4  O   UNL     1     -11.433  11.218  66.278  1.00  0.00    -0.265 OA 
HETATM    5  C   UNL     1     -10.347  11.047  66.844  1.00  0.00    -0.235 C  
BRANCH   3   6
HETATM    6  C   UNL     1      -8.501  11.950  68.337  1.00  0.00    -0.155 C  
HETATM    7  C   UNL     1      -7.275  12.438  67.581  1.00  0.00    -0.130 C  
ENDBRANCH   3   6
BRANCH   5   8
HETATM    8  C   UNL     1      -9.617   9.761  66.562  1.00  0.00    -0.249 C  
HETATM    9  C   UNL     1      -9.869   8.662  67.314  1.00  0.00    -0.256 C  
BRANCH   8  10
HETATM   10  C   UNL     1      -8.585   9.601  65.457  1.00  0.00    -0.147 C  
HETATM   11  H2  UNL     1      -7.160   9.905  65.270  1.00  0.00     0.000 HD 
HETATM   12  N   UNL     1      -7.728   9.468  64.543  1.00  0.00    -0.113 NA 
HETATM   13  H1  UNL     1      -7.035   9.361  63.802  1.00  0.00     0.000 HD 
ENDBRANCH   8  10
BRANCH   9  14
HETATM   14  C   UNL     1      -9.233   7.339  67.094  1.00  0.00    -0.156 A  
HETATM   15  C   UNL     1      -9.875   6.343  66.338  1.00  0.00    -0.120 A  
HETATM   16  C   UNL     1      -9.295   5.064  66.201  1.00  0.00    -0.153 A  
HETATM   17  C   UNL     1      -8.063   4.778  66.796  1.00  0.00    -0.107 A  
HETATM   18  N   UNL     1      -9.993   4.035  65.425  1.00  0.00    -0.195 N  
HETATM   19  C   UNL     1      -7.431   5.780  67.534  1.00  0.00    -0.078 A  
HETATM   20  O   UNL     1      -9.466   2.913  65.353  1.00  0.00    -0.130 OA 
HETATM   21  O   UNL     1     -11.066   4.344  64.887  1.00  0.00    -0.225 OA 
HETATM   22  O   UNL     1      -7.392   3.580  66.734  1.00  0.00    -0.066 OA 
HETATM   23  H   UNL     1      -6.554   3.386  67.139  1.00  0.00     0.000 HD 
HETATM   24  O   UNL     1      -6.225   5.518  68.125  1.00  0.00    -0.030 OA 
HETATM   25  C   UNL     1      -8.002   7.043  67.693  1.00  0.00    -0.114 A  
HETATM   26  H   UNL     1      -5.794   6.200  68.628  1.00  0.00     0.000 HD 
ENDBRANCH   9  14
ENDBRANCH   5   8
ENDBRANCH   2   3
TORSDOF 5
ENDMDL
MODEL      255
REMARK 921   NORMALIZED FREE ENERGY PREDICTED BY IDOCK:   -3.12 KCAL/MOL
REMARK 922        TOTAL FREE ENERGY PREDICTED BY IDOCK:   -4.15 KCAL/MOL
REMARK 923 INTER-LIGAND FREE ENERGY PREDICTED BY IDOCK:   -4.61 KCAL/MOL
REMARK 924 INTRA-LIGAND FREE ENERGY PREDICTED BY IDOCK:    0.46 KCAL/MOL
REMARK 927      BINDING AFFINITY PREDICTED BY RF-SCORE:    0.00 PKD
ROOT
HETATM    1  C   UNL     1     -13.048  15.067  72.966  1.00  0.00    -0.604 C  
HETATM    2  C   UNL     1     -13.269  15.174  71.463  1.00  0.00    -0.429 C  
ENDROOT
BRANCH   2   3
HETATM    3  N   UNL     1     -12.812  13.992  70.715  1.00  0.00    -0.311 N  
HETATM    4  O   UNL     1     -11.223  15.298  69.697  1.00  0.00    -0.243 OA 
HETATM    5  C   UNL     1     -11.782  14.199  69.785  1.00  0.00    -0.311 C  
BRANCH   3   6
HETATM    6  C   UNL     1     -13.454  12.692  70.962  1.00  0.00     0.591 C  
HETATM    7  C   UNL     1     -13.050  11.862  72.170  1.00  0.00    -0.327 C  
ENDBRANCH   3   6
BRANCH   5   8
HETATM    8  C   UNL     1     -11.309  13.108  68.862  1.00  0.00    -0.335 C  
HETATM    9  C   UNL     1     -10.893  11.924  69.373  1.00  0.00    -0.089 C  
BRANCH   8  10
HETATM   10  C   UNL     1     -11.263  13.244  67.348  1.00  0.00    -0.289 C  
HETATM   11  H2  UNL     1     -10.239  13.496  66.326  1.00  0.00     0.000 HD 
HETATM   12  N   UNL     1     -11.223  13.357  66.094  1.00  0.00    -0.292 NA 
HETATM   13  H1  UNL     1     -11.191  13.448  65.078  1.00  0.00     0.000 HD 
ENDBRANCH   8  10
BRANCH   9  14
HETATM   14  C   UNL     1     -10.444  10.774  68.549  1.00  0.00    -0.208 A  
HETATM   15  C   UNL     1      -9.382  10.906  67.638  1.00  0.00    -0.163 A  
HETATM   16  C   UNL     1      -9.014   9.828  66.806  1.00  0.00    -0.138 A  
HETATM   17  C   UNL     1      -9.686   8.606  66.892  1.00  0.00    -0.214 A  
HETATM   18  N   UNL     1      -7.917   9.997  65.849  1.00  0.00    -0.119 N  
HETATM   19  C   UNL     1     -10.732   8.484  67.809  1.00  0.00    -0.101 A  
HETATM   20  O   UNL     1      -7.643   9.036  65.112  1.00  0.00    -0.095 OA 
HETATM   21  O   UNL     1      -7.327  11.087  65.831  1.00  0.00    -0.089 OA 
HETATM   22  O   UNL     1      -9.425   7.482  66.146  1.00  0.00    -0.354 OA 
HETATM   23  H   UNL     1      -9.882   6.651  66.205  1.00  0.00     0.000 HD 
HETATM   24  O   UNL     1     -11.404   7.296  67.907  1.00  0.00    -0.458 OA 
HETATM   25  C   UNL     1     -11.117   9.548  68.626  1.00  0.00    -0.034 A  
HETATM   26  H   UNL     1     -12.115   7.212  68.531  1.00  0.00     0.000 HD 
ENDBRANCH   9  14
ENDBRANCH   5   8
ENDBRANCH   2   3
TORSDOF 5
ENDMDL
MODEL      256
REMARK 921   NORMALIZED FREE ENERGY PREDICTED BY IDOCK:   -3.09 KCAL/MOL
REMARK 922        TOTAL FREE ENERGY PREDICTED BY IDOCK:   -4.11 KCAL/MOL
REMARK 923 INTER-LIGAND FREE ENERGY PREDICTED BY IDOCK:   -3.74 KCAL/MOL
REMARK 924 INTRA-LIGAND FREE ENERGY PREDICTED BY IDOCK:   -0.37 KCAL/MOL
REMARK 927      BINDING AFFINITY PREDICTED BY RF-SCORE:    0.00 PKD
ROOT
HETATM    1  C   UNL     1     -11.566  11.901  67.690  1.00  0.00    -0.382 C  
HETATM    2  C   UNL     1     -10.096  11.626  67.980  1.00  0.00    -0.189 C  
ENDROOT
BRANCH   2   3
HETATM    3  N   UNL     1      -9.746  10.197  67.948  1.00  0.00    -0.145 N  
HETATM    4  O   UNL     1     -10.446  10.015  70.126  1.00  0.00    -0.264 OA 
HETATM    5  C   UNL     1      -9.918   9.483  69.142  1.00  0.00    -0.183 C  
BRANCH   3   6
HETATM    6  C   UNL     1      -9.230   9.613  66.701  1.00  0.00    -0.151 C  
HETATM    7  C   UNL     1      -7.740   9.362  66.538  1.00  0.00    -0.094 C  
ENDBRANCH   3   6
BRANCH   5   8
HETATM    8  C   UNL     1      -9.479   8.051  69.286  1.00  0.00    -0.155 C  
HETATM    9  C   UNL     1     -10.378   7.048  69.130  1.00  0.00    -0.209 C  
BRANCH   8  10
HETATM   10  C   UNL     1      -8.052   7.633  69.605  1.00  0.00    -0.126 C  
HETATM   11  H2  UNL     1      -7.219   6.437  69.422  1.00  0.00     0.000 HD 
HETATM   12  N   UNL     1      -6.869   7.286  69.868  1.00  0.00    -0.054 NA 
HETATM   13  H1  UNL     1      -5.912   7.005  70.081  1.00  0.00     0.000 HD 
ENDBRANCH   8  10
BRANCH   9  14
HETATM   14  C   UNL     1     -10.040   5.606  69.214  1.00  0.00    -0.281 A  
HETATM   15  C   UNL     1     -10.154   4.905  70.428  1.00  0.00    -0.316 A  
HETATM   16  C   UNL     1      -9.757   3.553  70.513  1.00  0.00    -0.117 A  
HETATM   17  C   UNL     1      -9.267   2.888  69.387  1.00  0.00    -0.142 A  
HETATM   18  N   UNL     1      -9.865   2.851  71.794  1.00  0.00    -0.158 N  
HETATM   19  C   UNL     1      -9.170   3.592  68.185  1.00  0.00    -0.176 A  
HETATM   20  O   UNL     1      -9.477   1.672  71.837  1.00  0.00    -0.083 OA 
HETATM   21  O   UNL     1     -10.336   3.470  72.758  1.00  0.00    -0.161 OA 
HETATM   22  O   UNL     1      -8.853   1.578  69.335  1.00  0.00    -0.059 OA 
HETATM   23  H   UNL     1      -8.520   1.125  68.569  1.00  0.00     0.000 HD 
HETATM   24  O   UNL     1      -8.691   2.957  67.072  1.00  0.00    -0.106 OA 
HETATM   25  C   UNL     1      -9.543   4.933  68.091  1.00  0.00    -0.191 A  
HETATM   26  H   UNL     1      -8.626   3.436  66.254  1.00  0.00     0.000 HD 
ENDBRANCH   9  14
ENDBRANCH   5   8
ENDBRANCH   2   3
TORSDOF 5
ENDMDL
MODEL      257
REMARK 921   NORMALIZED FREE ENERGY PREDICTED BY IDOCK:   -3.04 KCAL/MOL
REMARK 922        TOTAL FREE ENERGY PREDICTED BY IDOCK:   -4.04 KCAL/MOL
REMARK 923 INTER-LIGAND FREE ENERGY PREDICTED BY IDOCK:   -4.52 KCAL/MOL
REMARK 924 INTRA-LIGAND FREE ENERGY PREDICTED BY IDOCK:    0.48 KCAL/MOL
REMARK 927      BINDING AFFINITY PREDICTED BY RF-SCORE:    0.00 PKD
ROOT
HETATM    1  C   UNL     1     -12.899  12.741  71.522  1.00  0.00    -0.369 C  
HETATM    2  C   UNL     1     -13.465  11.358  71.818  1.00  0.00    -0.117 C  
ENDROOT
BRANCH   2   3
HETATM    3  N   UNL     1     -12.641  10.259  71.291  1.00  0.00    -0.380 N  
HETATM    4  O   UNL     1     -13.467   8.898  72.944  1.00  0.00    -0.337 OA 
HETATM    5  C   UNL     1     -12.684   9.049  71.999  1.00  0.00    -0.398 C  
BRANCH   3   6
HETATM    6  C   UNL     1     -11.823  10.486  70.090  1.00  0.00    -0.320 C  
HETATM    7  C   UNL     1     -10.306  10.460  70.187  1.00  0.00    -0.114 C  
ENDBRANCH   3   6
BRANCH   5   8
HETATM    8  C   UNL     1     -11.794   7.886  71.648  1.00  0.00    -0.325 C  
HETATM    9  C   UNL     1     -10.876   7.444  72.542  1.00  0.00    -0.327 C  
BRANCH   8  10
HETATM   10  C   UNL     1     -11.854   7.148  70.320  1.00  0.00    -0.133 C  
HETATM   11  H2  UNL     1     -11.869   7.505  68.895  1.00  0.00     0.000 HD 
HETATM   12  N   UNL     1     -11.903   6.537  69.219  1.00  0.00    -0.506 NA 
HETATM   13  H1  UNL     1     -11.942   6.042  68.327  1.00  0.00     0.000 HD 
ENDBRANCH   8  10
BRANCH   9  14
HETATM   14  C   UNL     1      -9.979   6.285  72.309  1.00  0.00    -0.182 A  
HETATM   15  C   UNL     1      -9.292   6.133  71.091  1.00  0.00    -0.175 A  
HETATM   16  C   UNL     1      -8.502   4.989  70.853  1.00  0.00    -0.120 A  
HETATM   17  C   UNL     1      -8.374   4.001  71.833  1.00  0.00    -0.095 A  
HETATM   18  N   UNL     1      -7.813   4.844  69.568  1.00  0.00    -0.067 N  
HETATM   19  C   UNL     1      -9.052   4.169  73.042  1.00  0.00    -0.111 A  
HETATM   20  O   UNL     1      -7.153   3.808  69.383  1.00  0.00    -0.045 OA 
HETATM   21  O   UNL     1      -7.928   5.760  68.742  1.00  0.00    -0.099 OA 
HETATM   22  O   UNL     1      -7.636   2.846  71.729  1.00  0.00    -0.046 OA 
HETATM   23  H   UNL     1      -7.548   2.175  72.396  1.00  0.00     0.000 HD 
HETATM   24  O   UNL     1      -8.940   3.212  74.013  1.00  0.00    -0.079 OA 
HETATM   25  C   UNL     1      -9.850   5.288  73.284  1.00  0.00    -0.178 A  
HETATM   26  H   UNL     1      -9.400   3.326  74.836  1.00  0.00     0.000 HD 
ENDBRANCH   9  14
ENDBRANCH   5   8
ENDBRANCH   2   3
TORSDOF 5
ENDMDL
MODEL      258
REMARK 921   NORMALIZED FREE ENERGY PREDICTED BY IDOCK:   -3.01 KCAL/MOL
REMARK 922        TOTAL FREE ENERGY PREDICTED BY IDOCK:   -4.01 KCAL/MOL
REMARK 923 INTER-LIGAND FREE ENERGY PREDICTED BY IDOCK:   -3.50 KCAL/MOL
REMARK 924 INTRA-LIGAND FREE ENERGY PREDICTED BY IDOCK:   -0.50 KCAL/MOL
REMARK 927      BINDING AFFINITY PREDICTED BY RF-SCORE:    0.00 PKD
ROOT
HETATM    1  C   UNL     1      -5.330   4.489  69.501  1.00  0.00    -0.008 C  
HETATM    2  C   UNL     1      -6.247   5.264  70.439  1.00  0.00    -0.023 C  
ENDROOT
BRANCH   2   3
HETATM    3  N   UNL     1      -7.235   6.100  69.738  1.00  0.00    -0.072 N  
HETATM    4  O   UNL     1      -5.635   7.730  69.511  1.00  0.00    -0.023 OA 
HETATM    5  C   UNL     1      -6.812   7.383  69.359  1.00  0.00    -0.053 C  
BRANCH   3   6
HETATM    6  C   UNL     1      -8.583   5.568  69.495  1.00  0.00    -0.105 C  
HETATM    7  C   UNL     1      -8.884   4.818  68.207  1.00  0.00    -0.117 C  
ENDBRANCH   3   6
BRANCH   5   8
HETATM    8  C   UNL     1      -7.755   8.388  68.754  1.00  0.00    -0.102 C  
HETATM    9  C   UNL     1      -8.369   9.301  69.546  1.00  0.00    -0.131 C  
BRANCH   8  10
HETATM   10  C   UNL     1      -8.079   8.455  67.270  1.00  0.00    -0.105 C  
HETATM   11  H2  UNL     1      -8.026   9.467  66.207  1.00  0.00     0.000 HD 
HETATM   12  N   UNL     1      -8.347   8.513  66.040  1.00  0.00    -0.123 NA 
HETATM   13  H1  UNL     1      -8.564   8.558  65.044  1.00  0.00     0.000 HD 
ENDBRANCH   8  10
BRANCH   9  14
HETATM   14  C   UNL     1      -9.286  10.355  69.045  1.00  0.00    -0.194 A  
HETATM   15  C   UNL     1      -8.785  11.543  68.484  1.00  0.00    -0.138 A  
HETATM   16  C   UNL     1      -9.665  12.570  68.081  1.00  0.00    -0.222 A  
HETATM   17  C   UNL     1     -11.047  12.410  68.214  1.00  0.00    -0.243 A  
HETATM   18  N   UNL     1      -9.119  13.807  67.518  1.00  0.00    -0.199 N  
HETATM   19  C   UNL     1     -11.531  11.221  68.763  1.00  0.00    -0.293 A  
HETATM   20  O   UNL     1      -9.923  14.700  67.205  1.00  0.00    -0.237 OA 
HETATM   21  O   UNL     1      -7.889  13.891  67.387  1.00  0.00    -0.173 OA 
HETATM   22  O   UNL     1     -12.007  13.327  67.859  1.00  0.00    -0.345 OA 
HETATM   23  H   UNL     1     -12.947  13.218  67.949  1.00  0.00     0.000 HD 
HETATM   24  O   UNL     1     -12.881  11.047  68.902  1.00  0.00    -0.346 OA 
HETATM   25  C   UNL     1     -10.672  10.205  69.181  1.00  0.00    -0.254 A  
HETATM   26  H   UNL     1     -13.211  10.238  69.275  1.00  0.00     0.000 HD 
ENDBRANCH   9  14
ENDBRANCH   5   8
ENDBRANCH   2   3
TORSDOF 5
ENDMDL
MODEL      259
REMARK 921   NORMALIZED FREE ENERGY PREDICTED BY IDOCK:   -3.00 KCAL/MOL
REMARK 922        TOTAL FREE ENERGY PREDICTED BY IDOCK:   -3.99 KCAL/MOL
REMARK 923 INTER-LIGAND FREE ENERGY PREDICTED BY IDOCK:   -3.61 KCAL/MOL
REMARK 924 INTRA-LIGAND FREE ENERGY PREDICTED BY IDOCK:   -0.38 KCAL/MOL
REMARK 927      BINDING AFFINITY PREDICTED BY RF-SCORE:    0.00 PKD
ROOT
HETATM    1  C   UNL     1      -7.592   6.984  72.750  1.00  0.00    -0.086 C  
HETATM    2  C   UNL     1      -6.768   8.055  72.046  1.00  0.00    -0.067 C  
ENDROOT
BRANCH   2   3
HETATM    3  N   UNL     1      -7.483   8.719  70.944  1.00  0.00    -0.079 N  
HETATM    4  O   UNL     1      -5.488   9.604  70.234  1.00  0.00    -0.037 OA 
HETATM    5  C   UNL     1      -6.716   9.544  70.108  1.00  0.00    -0.078 C  
BRANCH   3   6
HETATM    6  C   UNL     1      -8.929   8.503  70.794  1.00  0.00    -0.165 C  
HETATM    7  C   UNL     1      -9.448   7.536  69.742  1.00  0.00    -0.156 C  
ENDBRANCH   3   6
BRANCH   5   8
HETATM    8  C   UNL     1      -7.340  10.383  69.026  1.00  0.00    -0.097 C  
HETATM    9  C   UNL     1      -7.852  11.602  69.326  1.00  0.00     0.213 C  
BRANCH   8  10
HETATM   10  C   UNL     1      -7.441   9.949  67.572  1.00  0.00    -0.091 C  
HETATM   11  H2  UNL     1      -6.988  10.453  66.269  1.00  0.00     0.000 HD 
HETATM   12  N   UNL     1      -7.524   9.590  66.367  1.00  0.00    -0.096 NA 
HETATM   13  H1  UNL     1      -7.591   9.299  65.391  1.00  0.00     0.000 HD 
ENDBRANCH   8  10
BRANCH   9  14
HETATM   14  C   UNL     1      -8.453  12.521  68.329  1.00  0.00    -0.165 A  
HETATM   15  C   UNL     1      -9.695  12.234  67.734  1.00  0.00    -0.199 A  
HETATM   16  C   UNL     1     -10.220  13.076  66.731  1.00  0.00    -0.246 A  
HETATM   17  C   UNL     1      -9.524  14.220  66.332  1.00  0.00    -0.275 A  
HETATM   18  N   UNL     1     -11.506  12.744  66.112  1.00  0.00    -0.331 N  
HETATM   19  C   UNL     1      -8.298  14.500  66.938  1.00  0.00    -0.101 A  
HETATM   20  O   UNL     1     -11.920  13.492  65.212  1.00  0.00    -0.339 OA 
HETATM   21  O   UNL     1     -12.104  11.739  66.522  1.00  0.00    -0.498 OA 
HETATM   22  O   UNL     1      -9.925  15.121  65.375  1.00  0.00    -0.344 OA 
HETATM   23  H   UNL     1      -9.452  15.899  65.103  1.00  0.00     0.000 HD 
HETATM   24  O   UNL     1      -7.601  15.614  66.558  1.00  0.00    -0.215 OA 
HETATM   25  C   UNL     1      -7.759  13.666  67.918  1.00  0.00    -0.157 A  
HETATM   26  H   UNL     1      -6.766  15.806  66.971  1.00  0.00     0.000 HD 
ENDBRANCH   9  14
ENDBRANCH   5   8
ENDBRANCH   2   3
TORSDOF 5
ENDMDL
MODEL      260
REMARK 921   NORMALIZED FREE ENERGY PREDICTED BY IDOCK:   -2.99 KCAL/MOL
REMARK 922        TOTAL FREE ENERGY PREDICTED BY IDOCK:   -3.98 KCAL/MOL
REMARK 923 INTER-LIGAND FREE ENERGY PREDICTED BY IDOCK:   -5.38 KCAL/MOL
REMARK 924 INTRA-LIGAND FREE ENERGY PREDICTED BY IDOCK:    1.40 KCAL/MOL
REMARK 927      BINDING AFFINITY PREDICTED BY RF-SCORE:    0.00 PKD
ROOT
HETATM    1  C   UNL     1      -6.532   8.635  71.836  1.00  0.00    -0.074 C  
HETATM    2  C   UNL     1      -6.159   7.975  70.515  1.00  0.00    -0.033 C  
ENDROOT
BRANCH   2   3
HETATM    3  N   UNL     1      -6.622   8.719  69.333  1.00  0.00    -0.044 N  
HETATM    4  O   UNL     1      -8.674   7.716  69.554  1.00  0.00    -0.135 OA 
HETATM    5  C   UNL     1      -7.929   8.452  68.898  1.00  0.00    -0.115 C  
BRANCH   3   6
HETATM    6  C   UNL     1      -5.709   9.666  68.676  1.00  0.00    -0.039 C  
HETATM    7  C   UNL     1      -5.316  10.955  69.378  1.00  0.00    -0.041 C  
ENDBRANCH   3   6
BRANCH   5   8
HETATM    8  C   UNL     1      -8.485   9.043  67.630  1.00  0.00    -0.117 C  
HETATM    9  C   UNL     1      -9.297  10.127  67.689  1.00  0.00    -0.162 C  
BRANCH   8  10
HETATM   10  C   UNL     1      -8.190   8.494  66.243  1.00  0.00    -0.109 C  
HETATM   11  H2  UNL     1      -7.373   7.419  65.667  1.00  0.00     0.000 HD 
HETATM   12  N   UNL     1      -7.946   8.038  65.094  1.00  0.00    -0.120 NA 
HETATM   13  H1  UNL     1      -7.748   7.670  64.163  1.00  0.00     0.000 HD 
ENDBRANCH   8  10
BRANCH   9  14
HETATM   14  C   UNL     1      -9.866  10.806  66.498  1.00  0.00    -0.246 A  
HETATM   15  C   UNL     1     -10.785  11.861  66.635  1.00  0.00    -0.291 A  
HETATM   16  C   UNL     1     -11.376  12.447  65.497  1.00  0.00    -0.346 A  
HETATM   17  C   UNL     1     -11.039  12.002  64.216  1.00  0.00    -0.351 A  
HETATM   18  N   UNL     1     -12.347  13.531  65.667  1.00  0.00    -0.455 N  
HETATM   19  C   UNL     1     -10.117  10.962  64.093  1.00  0.00    -0.355 A  
HETATM   20  O   UNL     1     -12.870  14.001  64.643  1.00  0.00    -0.661 OA 
HETATM   21  O   UNL     1     -12.590  13.916  66.819  1.00  0.00    -0.311 OA 
HETATM   22  O   UNL     1     -11.537  12.489  63.031  1.00  0.00    -0.697 OA 
HETATM   23  H   UNL     1     -11.307  12.187  62.160  1.00  0.00     0.000 HD 
HETATM   24  O   UNL     1      -9.775  10.511  62.847  1.00  0.00    -0.366 OA 
HETATM   25  C   UNL     1      -9.537  10.361  65.211  1.00  0.00    -0.316 A  
HETATM   26  H   UNL     1      -9.147   9.804  62.762  1.00  0.00     0.000 HD 
ENDBRANCH   9  14
ENDBRANCH   5   8
ENDBRANCH   2   3
TORSDOF 5
ENDMDL
MODEL      261
REMARK 921   NORMALIZED FREE ENERGY PREDICTED BY IDOCK:   -2.97 KCAL/MOL
REMARK 922        TOTAL FREE ENERGY PREDICTED BY IDOCK:   -3.95 KCAL/MOL
REMARK 923 INTER-LIGAND FREE ENERGY PREDICTED BY IDOCK:   -3.37 KCAL/MOL
REMARK 924 INTRA-LIGAND FREE ENERGY PREDICTED BY IDOCK:   -0.58 KCAL/MOL
REMARK 927      BINDING AFFINITY PREDICTED BY RF-SCORE:    0.00 PKD
ROOT
HETATM    1  C   UNL     1      -9.749  10.844  63.102  1.00  0.00    -0.396 C  
HETATM    2  C   UNL     1      -8.347  10.300  63.341  1.00  0.00    -0.169 C  
ENDROOT
BRANCH   2   3
HETATM    3  N   UNL     1      -8.220   9.522  64.583  1.00  0.00    -0.136 N  
HETATM    4  O   UNL     1      -8.195   7.599  63.331  1.00  0.00    -0.085 OA 
HETATM    5  C   UNL     1      -8.211   8.126  64.449  1.00  0.00    -0.101 C  
BRANCH   3   6
HETATM    6  C   UNL     1      -8.130  10.231  65.868  1.00  0.00    -0.143 C  
HETATM    7  C   UNL     1      -6.789  10.758  66.353  1.00  0.00    -0.135 C  
ENDBRANCH   3   6
BRANCH   5   8
HETATM    8  C   UNL     1      -8.218   7.209  65.643  1.00  0.00    -0.138 C  
HETATM    9  C   UNL     1      -9.395   6.763  66.146  1.00  0.00    -0.095 C  
BRANCH   8  10
HETATM   10  C   UNL     1      -6.959   6.732  66.349  1.00  0.00    -0.062 C  
HETATM   11  H2  UNL     1      -6.347   5.442  66.694  1.00  0.00     0.000 HD 
HETATM   12  N   UNL     1      -5.915   6.335  66.934  1.00  0.00    -0.024 NA 
HETATM   13  H1  UNL     1      -5.070   6.015  67.407  1.00  0.00     0.000 HD 
ENDBRANCH   8  10
BRANCH   9  14
HETATM   14  C   UNL     1      -9.510   5.829  67.293  1.00  0.00    -0.116 A  
HETATM   15  C   UNL     1      -9.502   6.303  68.617  1.00  0.00    -0.121 A  
HETATM   16  C   UNL     1      -9.534   5.400  69.700  1.00  0.00    -0.144 A  
HETATM   17  C   UNL     1      -9.598   4.023  69.472  1.00  0.00    -0.195 A  
HETATM   18  N   UNL     1      -9.503   5.917  71.071  1.00  0.00    -0.164 N  
HETATM   19  C   UNL     1      -9.617   3.566  68.153  1.00  0.00    -0.100 A  
HETATM   20  O   UNL     1      -9.502   5.091  71.997  1.00  0.00    -0.138 OA 
HETATM   21  O   UNL     1      -9.482   7.147  71.226  1.00  0.00    -0.163 OA 
HETATM   22  O   UNL     1      -9.638   3.042  70.434  1.00  0.00    -0.159 OA 
HETATM   23  H   UNL     1      -9.682   2.106  70.279  1.00  0.00     0.000 HD 
HETATM   24  O   UNL     1      -9.677   2.221  67.910  1.00  0.00    -0.365 OA 
HETATM   25  C   UNL     1      -9.568   4.447  67.073  1.00  0.00    -0.221 A  
HETATM   26  H   UNL     1      -9.690   1.909  67.012  1.00  0.00     0.000 HD 
ENDBRANCH   9  14
ENDBRANCH   5   8
ENDBRANCH   2   3
TORSDOF 5
ENDMDL
MODEL      262
REMARK 921   NORMALIZED FREE ENERGY PREDICTED BY IDOCK:   -2.91 KCAL/MOL
REMARK 922        TOTAL FREE ENERGY PREDICTED BY IDOCK:   -3.88 KCAL/MOL
REMARK 923 INTER-LIGAND FREE ENERGY PREDICTED BY IDOCK:   -3.24 KCAL/MOL
REMARK 924 INTRA-LIGAND FREE ENERGY PREDICTED BY IDOCK:   -0.65 KCAL/MOL
REMARK 927      BINDING AFFINITY PREDICTED BY RF-SCORE:    0.00 PKD
ROOT
HETATM    1  C   UNL     1      -8.245   3.518  63.756  1.00  0.00    -0.090 C  
HETATM    2  C   UNL     1      -7.703   4.799  64.377  1.00  0.00    -0.082 C  
ENDROOT
BRANCH   2   3
HETATM    3  N   UNL     1      -8.129   5.005  65.770  1.00  0.00    -0.111 N  
HETATM    4  O   UNL     1      -6.232   6.245  66.127  1.00  0.00    -0.035 OA 
HETATM    5  C   UNL     1      -7.250   5.722  66.594  1.00  0.00    -0.074 C  
BRANCH   3   6
HETATM    6  C   UNL     1      -9.414   4.446  66.218  1.00  0.00    -0.174 C  
HETATM    7  C   UNL     1     -10.629   5.349  66.357  1.00  0.00    -0.322 C  
ENDBRANCH   3   6
BRANCH   5   8
HETATM    8  C   UNL     1      -7.499   5.893  68.069  1.00  0.00    -0.085 C  
HETATM    9  C   UNL     1      -8.024   7.053  68.536  1.00  0.00    -0.123 C  
BRANCH   8  10
HETATM   10  C   UNL     1      -7.195   4.824  69.106  1.00  0.00    -0.053 C  
HETATM   11  H2  UNL     1      -7.390   3.375  69.240  1.00  0.00     0.000 HD 
HETATM   12  N   UNL     1      -6.943   3.937  69.965  1.00  0.00    -0.041 NA 
HETATM   13  H1  UNL     1      -6.739   3.220  70.661  1.00  0.00     0.000 HD 
ENDBRANCH   8  10
BRANCH   9  14
HETATM   14  C   UNL     1      -8.341   7.308  69.963  1.00  0.00    -0.137 A  
HETATM   15  C   UNL     1      -9.617   7.030  70.482  1.00  0.00    -0.169 A  
HETATM   16  C   UNL     1      -9.930   7.347  71.821  1.00  0.00    -0.171 A  
HETATM   17  C   UNL     1      -8.967   7.922  72.655  1.00  0.00    -0.192 A  
HETATM   18  N   UNL     1     -11.274   7.067  72.333  1.00  0.00    -0.258 N  
HETATM   19  C   UNL     1      -7.700   8.182  72.130  1.00  0.00    -0.118 A  
HETATM   20  O   UNL     1     -11.520   7.390  73.507  1.00  0.00    -0.053 OA 
HETATM   21  O   UNL     1     -12.085   6.526  71.568  1.00  0.00    -0.336 OA 
HETATM   22  O   UNL     1      -9.141   8.274  73.972  1.00  0.00    -0.275 OA 
HETATM   23  H   UNL     1      -8.486   8.664  74.539  1.00  0.00     0.000 HD 
HETATM   24  O   UNL     1      -6.745   8.746  72.931  1.00  0.00    -0.279 OA 
HETATM   25  C   UNL     1      -7.383   7.889  70.803  1.00  0.00    -0.061 A  
HETATM   26  H   UNL     1      -5.882   8.923  72.574  1.00  0.00     0.000 HD 
ENDBRANCH   9  14
ENDBRANCH   5   8
ENDBRANCH   2   3
TORSDOF 5
ENDMDL
MODEL      263
REMARK 921   NORMALIZED FREE ENERGY PREDICTED BY IDOCK:   -2.88 KCAL/MOL
REMARK 922        TOTAL FREE ENERGY PREDICTED BY IDOCK:   -3.84 KCAL/MOL
REMARK 923 INTER-LIGAND FREE ENERGY PREDICTED BY IDOCK:   -4.65 KCAL/MOL
REMARK 924 INTRA-LIGAND FREE ENERGY PREDICTED BY IDOCK:    0.80 KCAL/MOL
REMARK 927      BINDING AFFINITY PREDICTED BY RF-SCORE:    0.00 PKD
ROOT
HETATM    1  C   UNL     1      -9.158   2.023  72.333  1.00  0.00    -0.111 C  
HETATM    2  C   UNL     1      -8.306   3.281  72.218  1.00  0.00    -0.078 C  
ENDROOT
BRANCH   2   3
HETATM    3  N   UNL     1      -9.023   4.426  71.636  1.00  0.00    -0.121 N  
HETATM    4  O   UNL     1      -8.579   3.592  69.544  1.00  0.00    -0.062 OA 
HETATM    5  C   UNL     1      -9.044   4.506  70.236  1.00  0.00    -0.101 C  
BRANCH   3   6
HETATM    6  C   UNL     1      -9.649   5.412  72.530  1.00  0.00    -0.149 C  
HETATM    7  C   UNL     1     -11.040   5.157  73.088  1.00  0.00    -0.391 C  
ENDBRANCH   3   6
BRANCH   5   8
HETATM    8  C   UNL     1      -9.627   5.690  69.512  1.00  0.00    -0.192 C  
HETATM    9  C   UNL     1      -8.844   6.436  68.695  1.00  0.00    -0.120 C  
BRANCH   8  10
HETATM   10  C   UNL     1     -11.080   6.123  69.634  1.00  0.00    -0.419 C  
HETATM   11  H2  UNL     1     -12.334   5.881  68.910  1.00  0.00     0.000 HD 
HETATM   12  N   UNL     1     -12.284   6.481  69.734  1.00  0.00    -0.287 NA 
HETATM   13  H1  UNL     1     -13.258   6.771  69.816  1.00  0.00     0.000 HD 
ENDBRANCH   8  10
BRANCH   9  14
HETATM   14  C   UNL     1      -9.329   7.597  67.909  1.00  0.00    -0.146 A  
HETATM   15  C   UNL     1      -8.814   7.873  66.630  1.00  0.00    -0.166 A  
HETATM   16  C   UNL     1      -9.228   9.022  65.924  1.00  0.00    -0.230 A  
HETATM   17  C   UNL     1     -10.172   9.891  66.479  1.00  0.00    -0.222 A  
HETATM   18  N   UNL     1      -8.662   9.299  64.602  1.00  0.00    -0.194 N  
HETATM   19  C   UNL     1     -10.683   9.600  67.745  1.00  0.00    -0.257 A  
HETATM   20  O   UNL     1      -9.027  10.337  64.026  1.00  0.00    -0.196 OA 
HETATM   21  O   UNL     1      -7.854   8.483  64.135  1.00  0.00    -0.128 OA 
HETATM   22  O   UNL     1     -10.659  11.037  65.897  1.00  0.00    -0.252 OA 
HETATM   23  H   UNL     1     -11.302  11.627  66.274  1.00  0.00     0.000 HD 
HETATM   24  O   UNL     1     -11.607  10.440  68.304  1.00  0.00    -0.597 OA 
HETATM   25  C   UNL     1     -10.270   8.476  68.460  1.00  0.00    -0.225 A  
HETATM   26  H   UNL     1     -11.956  10.242  69.166  1.00  0.00     0.000 HD 
ENDBRANCH   9  14
ENDBRANCH   5   8
ENDBRANCH   2   3
TORSDOF 5
ENDMDL
MODEL      264
REMARK 921   NORMALIZED FREE ENERGY PREDICTED BY IDOCK:   -2.87 KCAL/MOL
REMARK 922        TOTAL FREE ENERGY PREDICTED BY IDOCK:   -3.83 KCAL/MOL
REMARK 923 INTER-LIGAND FREE ENERGY PREDICTED BY IDOCK:   -5.39 KCAL/MOL
REMARK 924 INTRA-LIGAND FREE ENERGY PREDICTED BY IDOCK:    1.56 KCAL/MOL
REMARK 927      BINDING AFFINITY PREDICTED BY RF-SCORE:    0.00 PKD
ROOT
HETATM    1  C   UNL     1     -10.587   7.664  67.044  1.00  0.00    -0.406 C  
HETATM    2  C   UNL     1      -9.385   8.221  66.292  1.00  0.00    -0.204 C  
ENDROOT
BRANCH   2   3
HETATM    3  N   UNL     1      -9.483   9.661  66.007  1.00  0.00    -0.205 N  
HETATM    4  O   UNL     1      -8.547  10.092  68.058  1.00  0.00    -0.120 OA 
HETATM    5  C   UNL     1      -9.070  10.530  67.027  1.00  0.00    -0.143 C  
BRANCH   3   6
HETATM    6  C   UNL     1     -10.011  10.101  64.707  1.00  0.00    -0.264 C  
HETATM    7  C   UNL     1      -9.103  10.132  63.488  1.00  0.00    -0.302 C  
ENDBRANCH   3   6
BRANCH   5   8
HETATM    8  C   UNL     1      -9.238  12.023  66.920  1.00  0.00    -0.197 C  
HETATM    9  C   UNL     1      -8.248  12.846  67.343  1.00  0.00    -0.187 C  
BRANCH   8  10
HETATM   10  C   UNL     1     -10.478  12.695  66.352  1.00  0.00    -0.249 C  
HETATM   11  H2  UNL     1     -11.105  14.021  66.422  1.00  0.00     0.000 HD 
HETATM   12  N   UNL     1     -11.506  13.253  65.883  1.00  0.00    -0.322 NA 
HETATM   13  H1  UNL     1     -12.338  13.704  65.502  1.00  0.00     0.000 HD 
ENDBRANCH   8  10
BRANCH   9  14
HETATM   14  C   UNL     1      -8.298  14.326  67.247  1.00  0.00    -0.222 A  
HETATM   15  C   UNL     1      -7.450  15.132  68.027  1.00  0.00    -0.128 A  
HETATM   16  C   UNL     1      -7.560  16.538  67.984  1.00  0.00    -0.161 A  
HETATM   17  C   UNL     1      -8.499  17.149  67.148  1.00  0.00    -0.200 A  
HETATM   18  N   UNL     1      -6.679  17.356  68.822  1.00  0.00    -0.208 N  
HETATM   19  C   UNL     1      -9.327  16.337  66.371  1.00  0.00    -0.292 A  
HETATM   20  O   UNL     1      -6.827  18.588  68.780  1.00  0.00    -0.253 OA 
HETATM   21  O   UNL     1      -5.839  16.773  69.521  1.00  0.00    -0.168 OA 
HETATM   22  O   UNL     1      -8.704  18.501  67.011  1.00  0.00    -0.264 OA 
HETATM   23  H   UNL     1      -9.342  18.916  66.442  1.00  0.00     0.000 HD 
HETATM   24  O   UNL     1     -10.254  16.917  65.548  1.00  0.00    -0.580 OA 
HETATM   25  C   UNL     1      -9.241  14.946  66.417  1.00  0.00    -0.317 A  
HETATM   26  H   UNL     1     -10.817  16.366  65.018  1.00  0.00     0.000 HD 
ENDBRANCH   9  14
ENDBRANCH   5   8
ENDBRANCH   2   3
TORSDOF 5
ENDMDL
MODEL      265
REMARK 921   NORMALIZED FREE ENERGY PREDICTED BY IDOCK:   -2.84 KCAL/MOL
REMARK 922        TOTAL FREE ENERGY PREDICTED BY IDOCK:   -3.79 KCAL/MOL
REMARK 923 INTER-LIGAND FREE ENERGY PREDICTED BY IDOCK:   -3.79 KCAL/MOL
REMARK 924 INTRA-LIGAND FREE ENERGY PREDICTED BY IDOCK:   -0.00 KCAL/MOL
REMARK 927      BINDING AFFINITY PREDICTED BY RF-SCORE:    0.00 PKD
ROOT
HETATM    1  C   UNL     1     -11.106  15.625  67.570  1.00  0.00    -0.289 C  
HETATM    2  C   UNL     1     -11.887  14.524  66.863  1.00  0.00    -0.377 C  
ENDROOT
BRANCH   2   3
HETATM    3  N   UNL     1     -11.124  13.277  66.692  1.00  0.00    -0.287 N  
HETATM    4  O   UNL     1     -11.620  12.721  68.863  1.00  0.00    -0.274 OA 
HETATM    5  C   UNL     1     -11.009  12.454  67.822  1.00  0.00    -0.228 C  
BRANCH   3   6
HETATM    6  C   UNL     1     -10.522  12.976  65.385  1.00  0.00    -0.296 C  
HETATM    7  C   UNL     1     -11.055  11.823  64.549  1.00  0.00    -0.376 C  
ENDBRANCH   3   6
BRANCH   5   8
HETATM    8  C   UNL     1     -10.150  11.217  67.825  1.00  0.00    -0.199 C  
HETATM    9  C   UNL     1      -8.866  11.285  67.397  1.00  0.00    -0.145 C  
BRANCH   8  10
HETATM   10  C   UNL     1     -10.636   9.853  68.288  1.00  0.00    -0.229 C  
HETATM   11  H2  UNL     1     -10.882   9.182  69.571  1.00  0.00     0.000 HD 
HETATM   12  N   UNL     1     -11.038   8.722  68.673  1.00  0.00    -0.422 NA 
HETATM   13  H1  UNL     1     -11.364   7.807  68.984  1.00  0.00     0.000 HD 
ENDBRANCH   8  10
BRANCH   9  14
HETATM   14  C   UNL     1      -7.927  10.136  67.395  1.00  0.00    -0.110 A  
HETATM   15  C   UNL     1      -7.816   9.294  66.275  1.00  0.00    -0.103 A  
HETATM   16  C   UNL     1      -6.977   8.160  66.313  1.00  0.00    -0.062 A  
HETATM   17  C   UNL     1      -6.228   7.872  67.457  1.00  0.00    -0.051 A  
HETATM   18  N   UNL     1      -6.893   7.285  65.140  1.00  0.00    -0.047 N  
HETATM   19  C   UNL     1      -6.339   8.723  68.558  1.00  0.00    -0.054 A  
HETATM   20  O   UNL     1      -6.169   6.280  65.223  1.00  0.00    -0.032 OA 
HETATM   21  O   UNL     1      -7.549   7.598  64.136  1.00  0.00    -0.098 OA 
HETATM   22  O   UNL     1      -5.374   6.807  67.621  1.00  0.00    -0.010 OA 
HETATM   23  H   UNL     1      -4.865   6.612  68.399  1.00  0.00     0.000 HD 
HETATM   24  O   UNL     1      -5.615   8.456  69.688  1.00  0.00    -0.029 OA 
HETATM   25  C   UNL     1      -7.178   9.837  68.540  1.00  0.00    -0.070 A  
HETATM   26  H   UNL     1      -5.690   9.035  70.438  1.00  0.00     0.000 HD 
ENDBRANCH   9  14
ENDBRANCH   5   8
ENDBRANCH   2   3
TORSDOF 5
ENDMDL
MODEL      266
REMARK 921   NORMALIZED FREE ENERGY PREDICTED BY IDOCK:   -2.81 KCAL/MOL
REMARK 922        TOTAL FREE ENERGY PREDICTED BY IDOCK:   -3.75 KCAL/MOL
REMARK 923 INTER-LIGAND FREE ENERGY PREDICTED BY IDOCK:   -3.54 KCAL/MOL
REMARK 924 INTRA-LIGAND FREE ENERGY PREDICTED BY IDOCK:   -0.20 KCAL/MOL
REMARK 927      BINDING AFFINITY PREDICTED BY RF-SCORE:    0.00 PKD
ROOT
HETATM    1  C   UNL     1      -7.588   3.316  69.351  1.00  0.00    -0.047 C  
HETATM    2  C   UNL     1      -6.993   4.547  70.023  1.00  0.00    -0.045 C  
ENDROOT
BRANCH   2   3
HETATM    3  N   UNL     1      -7.595   5.812  69.573  1.00  0.00    -0.085 N  
HETATM    4  O   UNL     1      -6.166   5.809  67.777  1.00  0.00    -0.027 OA 
HETATM    5  C   UNL     1      -7.038   6.398  68.427  1.00  0.00    -0.083 C  
BRANCH   3   6
HETATM    6  C   UNL     1      -8.709   6.390  70.339  1.00  0.00    -0.147 C  
HETATM    7  C   UNL     1     -10.127   5.886  70.118  1.00  0.00    -0.261 C  
ENDBRANCH   3   6
BRANCH   5   8
HETATM    8  C   UNL     1      -7.469   7.753  67.933  1.00  0.00    -0.104 C  
HETATM    9  C   UNL     1      -7.308   8.843  68.724  1.00  0.00    -0.076 C  
BRANCH   8  10
HETATM   10  C   UNL     1      -8.090   7.996  66.567  1.00  0.00    -0.103 C  
HETATM   11  H2  UNL     1      -7.781   8.799  65.376  1.00  0.00     0.000 HD 
HETATM   12  N   UNL     1      -8.604   8.198  65.434  1.00  0.00    -0.253 NA 
HETATM   13  H1  UNL     1      -9.021   8.361  64.517  1.00  0.00     0.000 HD 
ENDBRANCH   8  10
BRANCH   9  14
HETATM   14  C   UNL     1      -7.665  10.225  68.318  1.00  0.00    -0.092 A  
HETATM   15  C   UNL     1      -8.999  10.667  68.346  1.00  0.00    -0.149 A  
HETATM   16  C   UNL     1      -9.335  11.958  67.886  1.00  0.00    -0.187 A  
HETATM   17  C   UNL     1      -8.342  12.822  67.416  1.00  0.00    -0.189 A  
HETATM   18  N   UNL     1     -10.735  12.389  67.906  1.00  0.00    -0.214 N  
HETATM   19  C   UNL     1      -7.020  12.375  67.404  1.00  0.00    -0.149 A  
HETATM   20  O   UNL     1     -10.995  13.519  67.464  1.00  0.00    -0.260 OA 
HETATM   21  O   UNL     1     -11.577  11.602  68.362  1.00  0.00    -0.267 OA 
HETATM   22  O   UNL     1      -8.535  14.099  66.947  1.00  0.00    -0.350 OA 
HETATM   23  H   UNL     1      -7.860  14.687  66.628  1.00  0.00     0.000 HD 
HETATM   24  O   UNL     1      -6.034  13.206  66.946  1.00  0.00    -0.391 OA 
HETATM   25  C   UNL     1      -6.676  11.095  67.840  1.00  0.00    -0.063 A  
HETATM   26  H   UNL     1      -5.134  12.902  66.938  1.00  0.00     0.000 HD 
ENDBRANCH   9  14
ENDBRANCH   5   8
ENDBRANCH   2   3
TORSDOF 5
ENDMDL
MODEL      267
REMARK 921   NORMALIZED FREE ENERGY PREDICTED BY IDOCK:   -2.76 KCAL/MOL
REMARK 922        TOTAL FREE ENERGY PREDICTED BY IDOCK:   -3.69 KCAL/MOL
REMARK 923 INTER-LIGAND FREE ENERGY PREDICTED BY IDOCK:   -4.76 KCAL/MOL
REMARK 924 INTRA-LIGAND FREE ENERGY PREDICTED BY IDOCK:    1.08 KCAL/MOL
REMARK 927      BINDING AFFINITY PREDICTED BY RF-SCORE:    0.00 PKD
ROOT
HETATM    1  C   UNL     1      -5.292  19.036  70.214  1.00  0.00    -0.231 C  
HETATM    2  C   UNL     1      -5.854  19.214  68.809  1.00  0.00    -0.215 C  
ENDROOT
BRANCH   2   3
HETATM    3  N   UNL     1      -6.313  17.958  68.195  1.00  0.00    -0.181 N  
HETATM    4  O   UNL     1      -8.398  18.333  69.078  1.00  0.00    -0.193 OA 
HETATM    5  C   UNL     1      -7.638  17.581  68.458  1.00  0.00    -0.266 C  
BRANCH   3   6
HETATM    6  C   UNL     1      -5.377  17.176  67.373  1.00  0.00    -0.136 C  
HETATM    7  C   UNL     1      -5.313  17.402  65.871  1.00  0.00    -0.013 C  
ENDBRANCH   3   6
BRANCH   5   8
HETATM    8  C   UNL     1      -8.197  16.259  68.002  1.00  0.00    -0.157 C  
HETATM    9  C   UNL     1      -9.327  16.225  67.254  1.00  0.00    -0.231 C  
BRANCH   8  10
HETATM   10  C   UNL     1      -7.564  14.916  68.330  1.00  0.00    -0.113 C  
HETATM   11  H2  UNL     1      -7.706  13.891  69.372  1.00  0.00     0.000 HD 
HETATM   12  N   UNL     1      -7.041  13.803  68.603  1.00  0.00    -0.099 NA 
HETATM   13  H1  UNL     1      -6.617  12.902  68.824  1.00  0.00     0.000 HD 
ENDBRANCH   8  10
BRANCH   9  14
HETATM   14  C   UNL     1      -9.938  14.981  66.725  1.00  0.00    -0.254 A  
HETATM   15  C   UNL     1      -9.586  13.723  67.244  1.00  0.00    -0.237 A  
HETATM   16  C   UNL     1     -10.115  12.542  66.681  1.00  0.00    -0.230 A  
HETATM   17  C   UNL     1     -11.014  12.609  65.614  1.00  0.00    -0.280 A  
HETATM   18  N   UNL     1      -9.717  11.242  67.227  1.00  0.00    -0.173 N  
HETATM   19  C   UNL     1     -11.365  13.865  65.115  1.00  0.00    -0.318 A  
HETATM   20  O   UNL     1     -10.179  10.225  66.685  1.00  0.00    -0.220 OA 
HETATM   21  O   UNL     1      -8.944  11.232  68.195  1.00  0.00    -0.152 OA 
HETATM   22  O   UNL     1     -11.603  11.541  64.982  1.00  0.00    -0.126 OA 
HETATM   23  H   UNL     1     -12.215  11.586  64.256  1.00  0.00     0.000 HD 
HETATM   24  O   UNL     1     -12.242  13.951  64.069  1.00  0.00    -0.582 OA 
HETATM   25  C   UNL     1     -10.835  15.039  65.651  1.00  0.00    -0.356 A  
HETATM   26  H   UNL     1     -12.481  14.805  63.729  1.00  0.00     0.000 HD 
ENDBRANCH   9  14
ENDBRANCH   5   8
ENDBRANCH   2   3
TORSDOF 5
ENDMDL
MODEL      268
REMARK 921   NORMALIZED FREE ENERGY PREDICTED BY IDOCK:   -2.70 KCAL/MOL
REMARK 922        TOTAL FREE ENERGY PREDICTED BY IDOCK:   -3.61 KCAL/MOL
REMARK 923 INTER-LIGAND FREE ENERGY PREDICTED BY IDOCK:   -3.38 KCAL/MOL
REMARK 924 INTRA-LIGAND FREE ENERGY PREDICTED BY IDOCK:   -0.23 KCAL/MOL
REMARK 927      BINDING AFFINITY PREDICTED BY RF-SCORE:    0.00 PKD
ROOT
HETATM    1  C   UNL     1     -10.779   6.589  73.484  1.00  0.00    -0.286 C  
HETATM    2  C   UNL     1      -9.383   7.177  73.652  1.00  0.00    -0.212 C  
ENDROOT
BRANCH   2   3
HETATM    3  N   UNL     1      -8.732   7.522  72.378  1.00  0.00    -0.119 N  
HETATM    4  O   UNL     1     -10.393   9.056  71.989  1.00  0.00    -0.339 OA 
HETATM    5  C   UNL     1      -9.386   8.469  71.577  1.00  0.00    -0.222 C  
BRANCH   3   6
HETATM    6  C   UNL     1      -7.471   6.859  72.013  1.00  0.00    -0.092 C  
HETATM    7  C   UNL     1      -7.496   5.525  71.284  1.00  0.00    -0.097 C  
ENDBRANCH   3   6
BRANCH   5   8
HETATM    8  C   UNL     1      -8.901   8.817  70.195  1.00  0.00    -0.160 C  
HETATM    9  C   UNL     1      -9.495   8.262  69.110  1.00  0.00    -0.155 C  
BRANCH   8  10
HETATM   10  C   UNL     1      -7.757   9.780  69.919  1.00  0.00    -0.157 C  
HETATM   11  H2  UNL     1      -6.519   9.774  69.129  1.00  0.00     0.000 HD 
HETATM   12  N   UNL     1      -6.808  10.576  69.690  1.00  0.00    -0.100 NA 
HETATM   13  H1  UNL     1      -6.040  11.222  69.504  1.00  0.00     0.000 HD 
ENDBRANCH   8  10
BRANCH   9  14
HETATM   14  C   UNL     1      -9.118   8.566  67.708  1.00  0.00    -0.143 A  
HETATM   15  C   UNL     1      -8.112   7.834  67.052  1.00  0.00    -0.117 A  
HETATM   16  C   UNL     1      -7.710   8.183  65.746  1.00  0.00    -0.092 A  
HETATM   17  C   UNL     1      -8.322   9.247  65.077  1.00  0.00    -0.154 A  
HETATM   18  N   UNL     1      -6.645   7.418  65.091  1.00  0.00    -0.044 N  
HETATM   19  C   UNL     1      -9.326   9.958  65.735  1.00  0.00    -0.204 A  
HETATM   20  O   UNL     1      -6.297   7.775  63.954  1.00  0.00    -0.056 OA 
HETATM   21  O   UNL     1      -6.155   6.462  65.709  1.00  0.00    -0.028 OA 
HETATM   22  O   UNL     1      -8.027   9.683  63.808  1.00  0.00    -0.127 OA 
HETATM   23  H   UNL     1      -8.443  10.406  63.353  1.00  0.00     0.000 HD 
HETATM   24  O   UNL     1      -9.936  11.004  65.097  1.00  0.00    -0.243 OA 
HETATM   25  C   UNL     1      -9.722   9.635  67.033  1.00  0.00    -0.232 A  
HETATM   26  H   UNL     1     -10.620  11.488  65.544  1.00  0.00     0.000 HD 
ENDBRANCH   9  14
ENDBRANCH   5   8
ENDBRANCH   2   3
TORSDOF 5
ENDMDL
MODEL      269
REMARK 921   NORMALIZED FREE ENERGY PREDICTED BY IDOCK:   -2.69 KCAL/MOL
REMARK 922        TOTAL FREE ENERGY PREDICTED BY IDOCK:   -3.59 KCAL/MOL
REMARK 923 INTER-LIGAND FREE ENERGY PREDICTED BY IDOCK:   -4.66 KCAL/MOL
REMARK 924 INTRA-LIGAND FREE ENERGY PREDICTED BY IDOCK:    1.08 KCAL/MOL
REMARK 927      BINDING AFFINITY PREDICTED BY RF-SCORE:    0.00 PKD
ROOT
HETATM    1  C   UNL     1     -10.279  14.291  66.087  1.00  0.00    -0.317 C  
HETATM    2  C   UNL     1     -10.370  13.498  67.384  1.00  0.00    -0.237 C  
ENDROOT
BRANCH   2   3
HETATM    3  N   UNL     1      -9.797  12.146  67.290  1.00  0.00    -0.195 N  
HETATM    4  O   UNL     1     -11.902  11.323  66.892  1.00  0.00    -0.423 OA 
HETATM    5  C   UNL     1     -10.704  11.094  67.091  1.00  0.00    -0.259 C  
BRANCH   3   6
HETATM    6  C   UNL     1      -8.343  11.971  67.424  1.00  0.00    -0.171 C  
HETATM    7  C   UNL     1      -7.522  12.991  68.197  1.00  0.00    -0.130 C  
ENDBRANCH   3   6
BRANCH   5   8
HETATM    8  C   UNL     1     -10.270   9.653  67.107  1.00  0.00    -0.305 C  
HETATM    9  C   UNL     1     -10.512   8.886  68.198  1.00  0.00    -0.254 C  
BRANCH   8  10
HETATM   10  C   UNL     1      -9.558   8.973  65.948  1.00  0.00    -0.247 C  
HETATM   11  H2  UNL     1      -8.169   8.704  65.553  1.00  0.00     0.000 HD 
HETATM   12  N   UNL     1      -8.966   8.409  64.989  1.00  0.00    -0.413 NA 
HETATM   13  H1  UNL     1      -8.488   7.953  64.211  1.00  0.00     0.000 HD 
ENDBRANCH   8  10
BRANCH   9  14
HETATM   14  C   UNL     1     -10.159   7.448  68.299  1.00  0.00    -0.201 A  
HETATM   15  C   UNL     1      -9.497   6.788  67.249  1.00  0.00    -0.156 A  
HETATM   16  C   UNL     1      -9.236   5.404  67.326  1.00  0.00    -0.111 A  
HETATM   17  C   UNL     1      -9.612   4.674  68.457  1.00  0.00    -0.158 A  
HETATM   18  N   UNL     1      -8.563   4.735  66.209  1.00  0.00    -0.113 N  
HETATM   19  C   UNL     1     -10.258   5.344  69.497  1.00  0.00    -0.266 A  
HETATM   20  O   UNL     1      -8.379   3.510  66.300  1.00  0.00    -0.099 OA 
HETATM   21  O   UNL     1      -8.218   5.427  65.241  1.00  0.00    -0.120 OA 
HETATM   22  O   UNL     1      -9.412   3.329  68.657  1.00  0.00    -0.173 OA 
HETATM   23  H   UNL     1      -9.667   2.834  69.427  1.00  0.00     0.000 HD 
HETATM   24  O   UNL     1     -10.635   4.646  70.612  1.00  0.00    -0.038 OA 
HETATM   25  C   UNL     1     -10.538   6.709  69.427  1.00  0.00    -0.279 A  
HETATM   26  H   UNL     1     -11.074   5.101  71.321  1.00  0.00     0.000 HD 
ENDBRANCH   9  14
ENDBRANCH   5   8
ENDBRANCH   2   3
TORSDOF 5
ENDMDL
MODEL      270
REMARK 921   NORMALIZED FREE ENERGY PREDICTED BY IDOCK:   -2.66 KCAL/MOL
REMARK 922        TOTAL FREE ENERGY PREDICTED BY IDOCK:   -3.55 KCAL/MOL
REMARK 923 INTER-LIGAND FREE ENERGY PREDICTED BY IDOCK:   -3.06 KCAL/MOL
REMARK 924 INTRA-LIGAND FREE ENERGY PREDICTED BY IDOCK:   -0.50 KCAL/MOL
REMARK 927      BINDING AFFINITY PREDICTED BY RF-SCORE:    0.00 PKD
ROOT
HETATM    1  C   UNL     1      -8.015   2.266  70.078  1.00  0.00    -0.053 C  
HETATM    2  C   UNL     1      -7.445   3.384  70.941  1.00  0.00    -0.037 C  
ENDROOT
BRANCH   2   3
HETATM    3  N   UNL     1      -7.894   4.726  70.539  1.00  0.00    -0.061 N  
HETATM    4  O   UNL     1      -5.701   5.321  70.217  1.00  0.00    -0.015 OA 
HETATM    5  C   UNL     1      -6.890   5.660  70.244  1.00  0.00    -0.053 C  
BRANCH   3   6
HETATM    6  C   UNL     1      -9.335   5.015  70.485  1.00  0.00    -0.156 C  
HETATM    7  C   UNL     1     -10.165   4.988  71.758  1.00  0.00    -0.272 C  
ENDBRANCH   3   6
BRANCH   5   8
HETATM    8  C   UNL     1      -7.203   7.102  69.946  1.00  0.00    -0.079 C  
HETATM    9  C   UNL     1      -7.061   7.578  68.685  1.00  0.00    -0.081 C  
BRANCH   8  10
HETATM   10  C   UNL     1      -7.685   8.095  70.992  1.00  0.00    -0.088 C  
HETATM   11  H2  UNL     1      -8.575   8.074  72.160  1.00  0.00     0.000 HD 
HETATM   12  N   UNL     1      -8.085   8.917  71.859  1.00  0.00    -0.362 NA 
HETATM   13  H1  UNL     1      -8.408   9.583  72.561  1.00  0.00     0.000 HD 
ENDBRANCH   8  10
BRANCH   9  14
HETATM   14  C   UNL     1      -7.378   8.970  68.279  1.00  0.00    -0.082 A  
HETATM   15  C   UNL     1      -8.707   9.382  68.080  1.00  0.00    -0.124 A  
HETATM   16  C   UNL     1      -8.991  10.685  67.621  1.00  0.00    -0.139 A  
HETATM   17  C   UNL     1      -7.955  11.592  67.380  1.00  0.00    -0.143 A  
HETATM   18  N   UNL     1     -10.384  11.084  67.401  1.00  0.00    -0.198 N  
HETATM   19  C   UNL     1      -6.640  11.174  67.593  1.00  0.00    -0.070 A  
HETATM   20  O   UNL     1     -10.592  12.229  66.967  1.00  0.00    -0.218 OA 
HETATM   21  O   UNL     1     -11.271  10.259  67.661  1.00  0.00    -0.307 OA 
HETATM   22  O   UNL     1      -8.097  12.885  66.938  1.00  0.00    -0.374 OA 
HETATM   23  H   UNL     1      -7.392  13.502  66.774  1.00  0.00     0.000 HD 
HETATM   24  O   UNL     1      -5.613  12.047  67.360  1.00  0.00    -0.091 OA 
HETATM   25  C   UNL     1      -6.345   9.882  68.030  1.00  0.00    -0.055 A  
HETATM   26  H   UNL     1      -4.718  11.763  67.505  1.00  0.00     0.000 HD 
ENDBRANCH   9  14
ENDBRANCH   5   8
ENDBRANCH   2   3
TORSDOF 5
ENDMDL
MODEL      271
REMARK 921   NORMALIZED FREE ENERGY PREDICTED BY IDOCK:   -2.39 KCAL/MOL
REMARK 922        TOTAL FREE ENERGY PREDICTED BY IDOCK:   -3.20 KCAL/MOL
REMARK 923 INTER-LIGAND FREE ENERGY PREDICTED BY IDOCK:   -5.15 KCAL/MOL
REMARK 924 INTRA-LIGAND FREE ENERGY PREDICTED BY IDOCK:    1.95 KCAL/MOL
REMARK 927      BINDING AFFINITY PREDICTED BY RF-SCORE:    0.00 PKD
ROOT
HETATM    1  C   UNL     1     -12.842  15.672  71.079  1.00  0.00    -0.521 C  
HETATM    2  C   UNL     1     -13.275  14.339  71.674  1.00  0.00    -0.356 C  
ENDROOT
BRANCH   2   3
HETATM    3  N   UNL     1     -12.881  13.176  70.863  1.00  0.00    -0.214 N  
HETATM    4  O   UNL     1     -13.468  11.807  72.610  1.00  0.00    -0.028 OA 
HETATM    5  C   UNL     1     -12.972  11.921  71.483  1.00  0.00    -0.323 C  
BRANCH   3   6
HETATM    6  C   UNL     1     -12.409  13.387  69.487  1.00  0.00    -0.102 C  
HETATM    7  C   UNL     1     -11.031  13.980  69.238  1.00  0.00    -0.242 C  
ENDBRANCH   3   6
BRANCH   5   8
HETATM    8  C   UNL     1     -12.480  10.664  70.816  1.00  0.00    -0.480 C  
HETATM    9  C   UNL     1     -11.383  10.706  70.020  1.00  0.00    -0.400 C  
BRANCH   8  10
HETATM   10  C   UNL     1     -13.146   9.307  70.976  1.00  0.00    -0.105 C  
HETATM   11  H2  UNL     1     -12.919   8.087  71.762  1.00  0.00     0.000 HD 
HETATM   12  N   UNL     1     -13.697   8.181  71.109  1.00  0.00    -0.567 NA 
HETATM   13  H1  UNL     1     -14.144   7.271  71.217  1.00  0.00     0.000 HD 
ENDBRANCH   8  10
BRANCH   9  14
HETATM   14  C   UNL     1     -10.796   9.520  69.349  1.00  0.00    -0.226 A  
HETATM   15  C   UNL     1     -11.028   8.222  69.837  1.00  0.00    -0.166 A  
HETATM   16  C   UNL     1     -10.403   7.109  69.235  1.00  0.00    -0.203 A  
HETATM   17  C   UNL     1      -9.562   7.280  68.132  1.00  0.00    -0.140 A  
HETATM   18  N   UNL     1     -10.644   5.769  69.775  1.00  0.00    -0.289 N  
HETATM   19  C   UNL     1      -9.349   8.573  67.651  1.00  0.00    -0.137 A  
HETATM   20  O   UNL     1     -10.051   4.818  69.239  1.00  0.00    -0.205 OA 
HETATM   21  O   UNL     1     -11.423   5.660  70.733  1.00  0.00    -0.047 OA 
HETATM   22  O   UNL     1      -8.900   6.284  67.456  1.00  0.00    -0.106 OA 
HETATM   23  H   UNL     1      -8.328   6.401  66.705  1.00  0.00     0.000 HD 
HETATM   24  O   UNL     1      -8.528   8.761  66.572  1.00  0.00    -0.111 OA 
HETATM   25  C   UNL     1      -9.947   9.684  68.246  1.00  0.00    -0.178 A  
HETATM   26  H   UNL     1      -8.383   9.640  66.244  1.00  0.00     0.000 HD 
ENDBRANCH   9  14
ENDBRANCH   5   8
ENDBRANCH   2   3
TORSDOF 5
ENDMDL
MODEL      272
REMARK 921   NORMALIZED FREE ENERGY PREDICTED BY IDOCK:   -2.38 KCAL/MOL
REMARK 922        TOTAL FREE ENERGY PREDICTED BY IDOCK:   -3.19 KCAL/MOL
REMARK 923 INTER-LIGAND FREE ENERGY PREDICTED BY IDOCK:   -3.95 KCAL/MOL
REMARK 924 INTRA-LIGAND FREE ENERGY PREDICTED BY IDOCK:    0.75 KCAL/MOL
REMARK 927      BINDING AFFINITY PREDICTED BY RF-SCORE:    0.00 PKD
ROOT
HETATM    1  C   UNL     1     -12.111  15.556  70.149  1.00  0.00    -0.404 C  
HETATM    2  C   UNL     1     -12.370  14.490  69.092  1.00  0.00    -0.117 C  
ENDROOT
BRANCH   2   3
HETATM    3  N   UNL     1     -12.076  13.123  69.549  1.00  0.00    -0.275 N  
HETATM    4  O   UNL     1     -10.266  13.082  68.138  1.00  0.00    -0.226 OA 
HETATM    5  C   UNL     1     -10.993  12.477  68.935  1.00  0.00    -0.227 C  
BRANCH   3   6
HETATM    6  C   UNL     1     -12.921  12.514  70.587  1.00  0.00     0.208 C  
HETATM    7  C   UNL     1     -12.932  13.090  71.994  1.00  0.00    -0.395 C  
ENDBRANCH   3   6
BRANCH   5   8
HETATM    8  C   UNL     1     -10.661  11.035  69.212  1.00  0.00    -0.263 C  
HETATM    9  C   UNL     1      -9.488  10.515  68.776  1.00  0.00    -0.181 C  
BRANCH   8  10
HETATM   10  C   UNL     1     -11.577  10.089  69.972  1.00  0.00    -0.214 C  
HETATM   11  H2  UNL     1     -12.202   8.781  69.734  1.00  0.00     0.000 HD 
HETATM   12  N   UNL     1     -12.337   9.304  70.600  1.00  0.00    -0.491 NA 
HETATM   13  H1  UNL     1     -12.951   8.668  71.110  1.00  0.00     0.000 HD 
ENDBRANCH   8  10
BRANCH   9  14
HETATM   14  C   UNL     1      -9.050   9.120  69.028  1.00  0.00    -0.143 A  
HETATM   15  C   UNL     1      -9.172   8.132  68.036  1.00  0.00    -0.137 A  
HETATM   16  C   UNL     1      -8.824   6.793  68.313  1.00  0.00    -0.125 A  
HETATM   17  C   UNL     1      -8.332   6.436  69.571  1.00  0.00    -0.126 A  
HETATM   18  N   UNL     1      -8.979   5.777  67.268  1.00  0.00    -0.113 N  
HETATM   19  C   UNL     1      -8.206   7.429  70.544  1.00  0.00    -0.127 A  
HETATM   20  O   UNL     1      -8.692   4.604  67.560  1.00  0.00    -0.104 OA 
HETATM   21  O   UNL     1      -9.387   6.145  66.157  1.00  0.00    -0.158 OA 
HETATM   22  O   UNL     1      -7.955   5.174  69.966  1.00  0.00    -0.079 OA 
HETATM   23  H   UNL     1      -7.620   4.932  70.821  1.00  0.00     0.000 HD 
HETATM   24  O   UNL     1      -7.728   7.097  71.782  1.00  0.00    -0.090 OA 
HETATM   25  C   UNL     1      -8.562   8.753  70.289  1.00  0.00    -0.158 A  
HETATM   26  H   UNL     1      -7.641   7.773  72.445  1.00  0.00     0.000 HD 
ENDBRANCH   9  14
ENDBRANCH   5   8
ENDBRANCH   2   3
TORSDOF 5
ENDMDL
MODEL      273
REMARK 921   NORMALIZED FREE ENERGY PREDICTED BY IDOCK:   -2.22 KCAL/MOL
REMARK 922        TOTAL FREE ENERGY PREDICTED BY IDOCK:   -2.98 KCAL/MOL
REMARK 923 INTER-LIGAND FREE ENERGY PREDICTED BY IDOCK:   -2.41 KCAL/MOL
REMARK 924 INTRA-LIGAND FREE ENERGY PREDICTED BY IDOCK:   -0.57 KCAL/MOL
REMARK 927      BINDING AFFINITY PREDICTED BY RF-SCORE:    0.00 PKD
ROOT
HETATM    1  C   UNL     1     -11.850   5.753  72.704  1.00  0.00    -0.198 C  
HETATM    2  C   UNL     1     -10.441   6.087  73.176  1.00  0.00    -0.230 C  
ENDROOT
BRANCH   2   3
HETATM    3  N   UNL     1      -9.444   6.100  72.094  1.00  0.00    -0.152 N  
HETATM    4  O   UNL     1      -9.803   8.353  71.843  1.00  0.00    -0.205 OA 
HETATM    5  C   UNL     1      -9.246   7.325  71.440  1.00  0.00    -0.142 C  
BRANCH   3   6
HETATM    6  C   UNL     1      -8.740   4.856  71.751  1.00  0.00    -0.128 C  
HETATM    7  C   UNL     1      -7.476   4.466  72.501  1.00  0.00    -0.078 C  
ENDBRANCH   3   6
BRANCH   5   8
HETATM    8  C   UNL     1      -8.356   7.451  70.233  1.00  0.00    -0.134 C  
HETATM    9  C   UNL     1      -8.862   7.235  68.994  1.00  0.00    -0.132 C  
BRANCH   8  10
HETATM   10  C   UNL     1      -6.881   7.815  70.306  1.00  0.00    -0.046 C  
HETATM   11  H2  UNL     1      -6.011   8.872  69.774  1.00  0.00     0.000 HD 
HETATM   12  N   UNL     1      -5.659   8.119  70.365  1.00  0.00    -0.022 NA 
HETATM   13  H1  UNL     1      -4.670   8.363  70.414  1.00  0.00     0.000 HD 
ENDBRANCH   8  10
BRANCH   9  14
HETATM   14  C   UNL     1      -8.079   7.370  67.740  1.00  0.00    -0.119 A  
HETATM   15  C   UNL     1      -8.037   8.588  67.040  1.00  0.00    -0.103 A  
HETATM   16  C   UNL     1      -7.352   8.683  65.810  1.00  0.00    -0.081 A  
HETATM   17  C   UNL     1      -6.689   7.572  65.282  1.00  0.00    -0.044 A  
HETATM   18  N   UNL     1      -7.340   9.958  65.088  1.00  0.00    -0.127 N  
HETATM   19  C   UNL     1      -6.729   6.371  65.993  1.00  0.00    -0.049 A  
HETATM   20  O   UNL     1      -6.754   9.994  63.994  1.00  0.00    -0.124 OA 
HETATM   21  O   UNL     1      -7.913  10.925  65.610  1.00  0.00    -0.133 OA 
HETATM   22  O   UNL     1      -5.985   7.533  64.102  1.00  0.00    -0.046 OA 
HETATM   23  H   UNL     1      -5.534   6.778  63.743  1.00  0.00     0.000 HD 
HETATM   24  O   UNL     1      -6.087   5.272  65.491  1.00  0.00    -0.031 OA 
HETATM   25  C   UNL     1      -7.416   6.259  67.202  1.00  0.00    -0.084 A  
HETATM   26  H   UNL     1      -6.113   4.455  65.975  1.00  0.00     0.000 HD 
ENDBRANCH   9  14
ENDBRANCH   5   8
ENDBRANCH   2   3
TORSDOF 5
ENDMDL
MODEL      274
REMARK 921   NORMALIZED FREE ENERGY PREDICTED BY IDOCK:   -2.21 KCAL/MOL
REMARK 922        TOTAL FREE ENERGY PREDICTED BY IDOCK:   -2.98 KCAL/MOL
REMARK 923 INTER-LIGAND FREE ENERGY PREDICTED BY IDOCK:   -4.15 KCAL/MOL
REMARK 924 INTRA-LIGAND FREE ENERGY PREDICTED BY IDOCK:    1.17 KCAL/MOL
REMARK 927      BINDING AFFINITY PREDICTED BY RF-SCORE:    0.00 PKD
ROOT
HETATM    1  C   UNL     1     -10.344  15.283  67.139  1.00  0.00    -0.265 C  
HETATM    2  C   UNL     1     -10.499  14.524  68.451  1.00  0.00    -0.246 C  
ENDROOT
BRANCH   2   3
HETATM    3  N   UNL     1      -9.983  13.147  68.400  1.00  0.00    -0.237 N  
HETATM    4  O   UNL     1     -12.092  12.380  68.883  1.00  0.00    -0.265 OA 
HETATM    5  C   UNL     1     -10.896  12.125  68.701  1.00  0.00    -0.235 C  
BRANCH   3   6
HETATM    6  C   UNL     1      -8.570  12.921  68.061  1.00  0.00    -0.186 C  
HETATM    7  C   UNL     1      -7.800  11.793  68.728  1.00  0.00    -0.076 C  
ENDBRANCH   3   6
BRANCH   5   8
HETATM    8  C   UNL     1     -10.473  10.685  68.813  1.00  0.00    -0.215 C  
HETATM    9  C   UNL     1     -10.363  10.106  70.034  1.00  0.00    -0.301 C  
BRANCH   8  10
HETATM   10  C   UNL     1     -10.151   9.803  67.616  1.00  0.00    -0.190 C  
HETATM   11  H2  UNL     1     -10.305   8.388  67.256  1.00  0.00     0.000 HD 
HETATM   12  N   UNL     1      -9.885   9.072  66.626  1.00  0.00    -0.225 NA 
HETATM   13  H1  UNL     1      -9.669   8.480  65.823  1.00  0.00     0.000 HD 
ENDBRANCH   8  10
BRANCH   9  14
HETATM   14  C   UNL     1      -9.991   8.686  70.251  1.00  0.00    -0.204 A  
HETATM   15  C   UNL     1      -8.891   8.115  69.587  1.00  0.00    -0.143 A  
HETATM   16  C   UNL     1      -8.593   6.745  69.743  1.00  0.00    -0.141 A  
HETATM   17  C   UNL     1      -9.375   5.942  70.577  1.00  0.00    -0.163 A  
HETATM   18  N   UNL     1      -7.454   6.169  69.024  1.00  0.00    -0.085 N  
HETATM   19  C   UNL     1     -10.458   6.523  71.240  1.00  0.00    -0.215 A  
HETATM   20  O   UNL     1      -7.242   4.953  69.162  1.00  0.00    -0.052 OA 
HETATM   21  O   UNL     1      -6.768   6.926  68.323  1.00  0.00    -0.062 OA 
HETATM   22  O   UNL     1      -9.190   4.601  70.818  1.00  0.00    -0.126 OA 
HETATM   23  H   UNL     1      -9.721   4.055  71.386  1.00  0.00     0.000 HD 
HETATM   24  O   UNL     1     -11.236   5.752  72.059  1.00  0.00    -0.265 OA 
HETATM   25  C   UNL     1     -10.773   7.873  71.081  1.00  0.00    -0.251 A  
HETATM   26  H   UNL     1     -11.972   6.147  72.511  1.00  0.00     0.000 HD 
ENDBRANCH   9  14
ENDBRANCH   5   8
ENDBRANCH   2   3
TORSDOF 5
ENDMDL
MODEL      275
REMARK 921   NORMALIZED FREE ENERGY PREDICTED BY IDOCK:   -2.20 KCAL/MOL
REMARK 922        TOTAL FREE ENERGY PREDICTED BY IDOCK:   -2.97 KCAL/MOL
REMARK 923 INTER-LIGAND FREE ENERGY PREDICTED BY IDOCK:   -4.42 KCAL/MOL
REMARK 924 INTRA-LIGAND FREE ENERGY PREDICTED BY IDOCK:    1.45 KCAL/MOL
REMARK 927      BINDING AFFINITY PREDICTED BY RF-SCORE:    0.00 PKD
ROOT
HETATM    1  C   UNL     1      -7.659  15.886  67.796  1.00  0.00    -0.157 C  
HETATM    2  C   UNL     1      -6.721  14.699  67.619  1.00  0.00    -0.174 C  
ENDROOT
BRANCH   2   3
HETATM    3  N   UNL     1      -7.390  13.395  67.752  1.00  0.00    -0.140 N  
HETATM    4  O   UNL     1      -9.414  14.478  67.768  1.00  0.00    -0.203 OA 
HETATM    5  C   UNL     1      -8.787  13.418  67.880  1.00  0.00    -0.194 C  
BRANCH   3   6
HETATM    6  C   UNL     1      -6.579  12.169  67.761  1.00  0.00    -0.100 C  
HETATM    7  C   UNL     1      -6.388  11.373  66.479  1.00  0.00    -0.095 C  
ENDBRANCH   3   6
BRANCH   5   8
HETATM    8  C   UNL     1      -9.584  12.171  68.153  1.00  0.00    -0.208 C  
HETATM    9  C   UNL     1      -9.143  11.273  69.068  1.00  0.00     0.015 C  
BRANCH   8  10
HETATM   10  C   UNL     1     -10.892  11.835  67.454  1.00  0.00    -0.251 C  
HETATM   11  H2  UNL     1     -12.274  12.332  67.470  1.00  0.00     0.000 HD 
HETATM   12  N   UNL     1     -11.977  11.557  66.876  1.00  0.00    -0.387 NA 
HETATM   13  H1  UNL     1     -12.855  11.332  66.408  1.00  0.00     0.000 HD 
ENDBRANCH   8  10
BRANCH   9  14
HETATM   14  C   UNL     1      -9.871  10.034  69.437  1.00  0.00    -0.240 A  
HETATM   15  C   UNL     1      -9.542   8.798  68.851  1.00  0.00    -0.158 A  
HETATM   16  C   UNL     1     -10.292   7.642  69.153  1.00  0.00    -0.213 A  
HETATM   17  C   UNL     1     -11.357   7.704  70.055  1.00  0.00    -0.067 A  
HETATM   18  N   UNL     1      -9.943   6.370  68.514  1.00  0.00    -0.137 N  
HETATM   19  C   UNL     1     -11.666   8.935  70.638  1.00  0.00    -0.179 A  
HETATM   20  O   UNL     1     -10.645   5.381  68.781  1.00  0.00    -0.188 OA 
HETATM   21  O   UNL     1      -8.970   6.354  67.747  1.00  0.00    -0.116 OA 
HETATM   22  O   UNL     1     -12.159   6.655  70.436  1.00  0.00    -0.524 OA 
HETATM   23  H   UNL     1     -12.884   6.698  71.050  1.00  0.00     0.000 HD 
HETATM   24  O   UNL     1     -12.707   9.016  71.522  1.00  0.00    -0.318 OA 
HETATM   25  C   UNL     1     -10.944  10.089  70.335  1.00  0.00    -0.384 A  
HETATM   26  H   UNL     1     -12.917   9.853  71.920  1.00  0.00     0.000 HD 
ENDBRANCH   9  14
ENDBRANCH   5   8
ENDBRANCH   2   3
TORSDOF 5
ENDMDL
MODEL      276
REMARK 921   NORMALIZED FREE ENERGY PREDICTED BY IDOCK:   -2.19 KCAL/MOL
REMARK 922        TOTAL FREE ENERGY PREDICTED BY IDOCK:   -2.95 KCAL/MOL
REMARK 923 INTER-LIGAND FREE ENERGY PREDICTED BY IDOCK:   -3.66 KCAL/MOL
REMARK 924 INTRA-LIGAND FREE ENERGY PREDICTED BY IDOCK:    0.70 KCAL/MOL
REMARK 927      BINDING AFFINITY PREDICTED BY RF-SCORE:    0.00 PKD
ROOT
HETATM    1  C   UNL     1     -10.893  15.727  65.489  1.00  0.00    -0.343 C  
HETATM    2  C   UNL     1     -11.412  14.505  66.238  1.00  0.00    -0.358 C  
ENDROOT
BRANCH   2   3
HETATM    3  N   UNL     1     -10.367  13.782  66.980  1.00  0.00    -0.258 N  
HETATM    4  O   UNL     1     -11.193  11.810  66.146  1.00  0.00    -0.320 OA 
HETATM    5  C   UNL     1     -10.396  12.383  66.899  1.00  0.00    -0.224 C  
BRANCH   3   6
HETATM    6  C   UNL     1      -9.383  14.546  67.763  1.00  0.00    -0.198 C  
HETATM    7  C   UNL     1      -9.820  15.292  69.013  1.00  0.00    -0.230 C  
ENDBRANCH   3   6
BRANCH   5   8
HETATM    8  C   UNL     1      -9.470  11.516  67.710  1.00  0.00    -0.168 C  
HETATM    9  C   UNL     1      -9.798  10.225  67.960  1.00  0.00    -0.171 C  
BRANCH   8  10
HETATM   10  C   UNL     1      -8.150  12.001  68.288  1.00  0.00    -0.155 C  
HETATM   11  H2  UNL     1      -7.629  12.368  69.611  1.00  0.00     0.000 HD 
HETATM   12  N   UNL     1      -7.056  12.403  68.768  1.00  0.00    -0.100 NA 
HETATM   13  H1  UNL     1      -6.170  12.728  69.156  1.00  0.00     0.000 HD 
ENDBRANCH   8  10
BRANCH   9  14
HETATM   14  C   UNL     1      -8.939   9.279  68.715  1.00  0.00    -0.132 A  
HETATM   15  C   UNL     1      -9.406   8.652  69.884  1.00  0.00    -0.160 A  
HETATM   16  C   UNL     1      -8.554   7.814  70.635  1.00  0.00    -0.127 A  
HETATM   17  C   UNL     1      -7.242   7.579  70.215  1.00  0.00    -0.064 A  
HETATM   18  N   UNL     1      -9.057   7.189  71.861  1.00  0.00    -0.135 N  
HETATM   19  C   UNL     1      -6.796   8.199  69.046  1.00  0.00    -0.060 A  
HETATM   20  O   UNL     1      -8.268   6.484  72.512  1.00  0.00    -0.105 OA 
HETATM   21  O   UNL     1     -10.236   7.399  72.177  1.00  0.00    -0.186 OA 
HETATM   22  O   UNL     1      -6.318   6.785  70.850  1.00  0.00    -0.039 OA 
HETATM   23  H   UNL     1      -5.426   6.625  70.563  1.00  0.00     0.000 HD 
HETATM   24  O   UNL     1      -5.514   7.982  68.619  1.00  0.00    -0.030 OA 
HETATM   25  C   UNL     1      -7.622   9.043  68.304  1.00  0.00    -0.091 A  
HETATM   26  H   UNL     1      -5.209   8.403  67.824  1.00  0.00     0.000 HD 
ENDBRANCH   9  14
ENDBRANCH   5   8
ENDBRANCH   2   3
TORSDOF 5
ENDMDL
MODEL      277
REMARK 921   NORMALIZED FREE ENERGY PREDICTED BY IDOCK:   -2.15 KCAL/MOL
REMARK 922        TOTAL FREE ENERGY PREDICTED BY IDOCK:   -2.89 KCAL/MOL
REMARK 923 INTER-LIGAND FREE ENERGY PREDICTED BY IDOCK:   -2.60 KCAL/MOL
REMARK 924 INTRA-LIGAND FREE ENERGY PREDICTED BY IDOCK:   -0.29 KCAL/MOL
REMARK 927      BINDING AFFINITY PREDICTED BY RF-SCORE:    0.00 PKD
ROOT
HETATM    1  C   UNL     1      -9.141   2.036  72.316  1.00  0.00    -0.116 C  
HETATM    2  C   UNL     1      -8.054   3.099  72.225  1.00  0.00    -0.059 C  
ENDROOT
BRANCH   2   3
HETATM    3  N   UNL     1      -8.437   4.265  71.413  1.00  0.00    -0.096 N  
HETATM    4  O   UNL     1      -7.737   3.140  69.539  1.00  0.00    -0.047 OA 
HETATM    5  C   UNL     1      -8.167   4.186  70.039  1.00  0.00    -0.057 C  
BRANCH   3   6
HETATM    6  C   UNL     1      -9.051   5.428  72.070  1.00  0.00    -0.137 C  
HETATM    7  C   UNL     1     -10.546   5.445  72.346  1.00  0.00    -0.276 C  
ENDBRANCH   3   6
BRANCH   5   8
HETATM    8  C   UNL     1      -8.387   5.353  69.114  1.00  0.00    -0.097 C  
HETATM    9  C   UNL     1      -7.338   5.892  68.445  1.00  0.00    -0.084 C  
BRANCH   8  10
HETATM   10  C   UNL     1      -9.744   5.992  68.867  1.00  0.00    -0.132 C  
HETATM   11  H2  UNL     1     -10.836   5.848  67.895  1.00  0.00     0.000 HD 
HETATM   12  N   UNL     1     -10.870   6.521  68.662  1.00  0.00    -0.298 NA 
HETATM   13  H1  UNL     1     -11.781   6.949  68.496  1.00  0.00     0.000 HD 
ENDBRANCH   8  10
BRANCH   9  14
HETATM   14  C   UNL     1      -7.453   7.017  67.484  1.00  0.00    -0.097 A  
HETATM   15  C   UNL     1      -7.563   8.345  67.932  1.00  0.00    -0.099 A  
HETATM   16  C   UNL     1      -7.748   9.398  67.011  1.00  0.00    -0.091 A  
HETATM   17  C   UNL     1      -7.803   9.137  65.640  1.00  0.00    -0.095 A  
HETATM   18  N   UNL     1      -7.881  10.771  67.504  1.00  0.00    -0.108 N  
HETATM   19  C   UNL     1      -7.681   7.815  65.207  1.00  0.00    -0.102 A  
HETATM   20  O   UNL     1      -8.075  11.666  66.666  1.00  0.00    -0.165 OA 
HETATM   21  O   UNL     1      -7.792  10.959  68.726  1.00  0.00    -0.116 OA 
HETATM   22  O   UNL     1      -7.974  10.068  64.643  1.00  0.00    -0.135 OA 
HETATM   23  H   UNL     1      -8.011   9.890  63.711  1.00  0.00     0.000 HD 
HETATM   24  O   UNL     1      -7.734   7.540  63.868  1.00  0.00    -0.114 OA 
HETATM   25  C   UNL     1      -7.515   6.763  66.107  1.00  0.00    -0.081 A  
HETATM   26  H   UNL     1      -7.651   6.641  63.573  1.00  0.00     0.000 HD 
ENDBRANCH   9  14
ENDBRANCH   5   8
ENDBRANCH   2   3
TORSDOF 5
ENDMDL
MODEL      278
REMARK 921   NORMALIZED FREE ENERGY PREDICTED BY IDOCK:   -2.13 KCAL/MOL
REMARK 922        TOTAL FREE ENERGY PREDICTED BY IDOCK:   -2.88 KCAL/MOL
REMARK 923 INTER-LIGAND FREE ENERGY PREDICTED BY IDOCK:   -3.03 KCAL/MOL
REMARK 924 INTRA-LIGAND FREE ENERGY PREDICTED BY IDOCK:    0.16 KCAL/MOL
REMARK 927      BINDING AFFINITY PREDICTED BY RF-SCORE:    0.00 PKD
ROOT
HETATM    1  C   UNL     1      -8.435   9.573  63.221  1.00  0.00    -0.200 C  
HETATM    2  C   UNL     1      -8.564  10.048  64.663  1.00  0.00    -0.181 C  
ENDROOT
BRANCH   2   3
HETATM    3  N   UNL     1      -8.392   8.974  65.654  1.00  0.00    -0.125 N  
HETATM    4  O   UNL     1     -10.511   9.401  66.426  1.00  0.00    -0.204 OA 
HETATM    5  C   UNL     1      -9.452   8.776  66.551  1.00  0.00    -0.219 C  
BRANCH   3   6
HETATM    6  C   UNL     1      -7.144   8.198  65.664  1.00  0.00    -0.067 C  
HETATM    7  C   UNL     1      -5.803   8.912  65.606  1.00  0.00    -0.051 C  
ENDBRANCH   3   6
BRANCH   5   8
HETATM    8  C   UNL     1      -9.357   7.803  67.696  1.00  0.00    -0.160 C  
HETATM    9  C   UNL     1      -8.150   7.521  68.245  1.00  0.00    -0.124 C  
BRANCH   8  10
HETATM   10  C   UNL     1     -10.557   7.090  68.301  1.00  0.00    -0.196 C  
HETATM   11  H2  UNL     1     -11.109   5.729  68.297  1.00  0.00     0.000 HD 
HETATM   12  N   UNL     1     -11.551   6.499  68.801  1.00  0.00    -0.529 NA 
HETATM   13  H1  UNL     1     -12.355   6.021  69.207  1.00  0.00     0.000 HD 
ENDBRANCH   8  10
BRANCH   9  14
HETATM   14  C   UNL     1      -7.953   6.607  69.398  1.00  0.00    -0.115 A  
HETATM   15  C   UNL     1      -8.134   7.056  70.718  1.00  0.00    -0.113 A  
HETATM   16  C   UNL     1      -7.870   6.199  71.807  1.00  0.00    -0.102 A  
HETATM   17  C   UNL     1      -7.446   4.886  71.588  1.00  0.00    -0.079 A  
HETATM   18  N   UNL     1      -8.045   6.697  73.174  1.00  0.00    -0.105 N  
HETATM   19  C   UNL     1      -7.282   4.449  70.272  1.00  0.00    -0.049 A  
HETATM   20  O   UNL     1      -7.772   5.923  74.107  1.00  0.00    -0.095 OA 
HETATM   21  O   UNL     1      -8.454   7.857  73.321  1.00  0.00    -0.163 OA 
HETATM   22  O   UNL     1      -7.161   3.953  72.557  1.00  0.00    -0.053 OA 
HETATM   23  H   UNL     1      -6.874   3.060  72.408  1.00  0.00     0.000 HD 
HETATM   24  O   UNL     1      -6.867   3.166  70.038  1.00  0.00    -0.033 OA 
HETATM   25  C   UNL     1      -7.523   5.291  69.187  1.00  0.00    -0.069 A  
HETATM   26  H   UNL     1      -6.755   2.868  69.143  1.00  0.00     0.000 HD 
ENDBRANCH   9  14
ENDBRANCH   5   8
ENDBRANCH   2   3
TORSDOF 5
ENDMDL
MODEL      279
REMARK 921   NORMALIZED FREE ENERGY PREDICTED BY IDOCK:   -2.11 KCAL/MOL
REMARK 922        TOTAL FREE ENERGY PREDICTED BY IDOCK:   -2.84 KCAL/MOL
REMARK 923 INTER-LIGAND FREE ENERGY PREDICTED BY IDOCK:   -2.75 KCAL/MOL
REMARK 924 INTRA-LIGAND FREE ENERGY PREDICTED BY IDOCK:   -0.10 KCAL/MOL
REMARK 927      BINDING AFFINITY PREDICTED BY RF-SCORE:    0.00 PKD
ROOT
HETATM    1  C   UNL     1     -10.881   9.085  71.432  1.00  0.00    -0.400 C  
HETATM    2  C   UNL     1      -9.426   8.641  71.351  1.00  0.00    -0.237 C  
ENDROOT
BRANCH   2   3
HETATM    3  N   UNL     1      -9.041   8.122  70.029  1.00  0.00    -0.150 N  
HETATM    4  O   UNL     1      -9.845   6.062  70.647  1.00  0.00    -0.174 OA 
HETATM    5  C   UNL     1      -9.256   6.753  69.807  1.00  0.00    -0.146 C  
BRANCH   3   6
HETATM    6  C   UNL     1      -8.450   9.037  69.042  1.00  0.00    -0.132 C  
HETATM    7  C   UNL     1      -8.077  10.454  69.447  1.00  0.00    -0.161 C  
ENDBRANCH   3   6
BRANCH   5   8
HETATM    8  C   UNL     1      -8.791   6.065  68.552  1.00  0.00    -0.112 C  
HETATM    9  C   UNL     1      -9.270   6.461  67.347  1.00  0.00    -0.117 C  
BRANCH   8  10
HETATM   10  C   UNL     1      -7.788   4.922  68.537  1.00  0.00    -0.081 C  
HETATM   11  H2  UNL     1      -6.415   4.695  69.007  1.00  0.00     0.000 HD 
HETATM   12  N   UNL     1      -6.956   3.976  68.526  1.00  0.00    -0.047 NA 
HETATM   13  H1  UNL     1      -6.283   3.209  68.516  1.00  0.00     0.000 HD 
ENDBRANCH   8  10
BRANCH   9  14
HETATM   14  C   UNL     1      -8.848   5.874  66.051  1.00  0.00    -0.153 A  
HETATM   15  C   UNL     1      -9.616   4.879  65.421  1.00  0.00    -0.115 A  
HETATM   16  C   UNL     1      -9.166   4.275  64.228  1.00  0.00    -0.151 A  
HETATM   17  C   UNL     1      -7.962   4.675  63.644  1.00  0.00    -0.091 A  
HETATM   18  N   UNL     1      -9.974   3.225  63.603  1.00  0.00    -0.146 N  
HETATM   19  C   UNL     1      -7.214   5.673  64.272  1.00  0.00    -0.055 A  
HETATM   20  O   UNL     1      -9.529   2.696  62.571  1.00  0.00    -0.090 OA 
HETATM   21  O   UNL     1     -11.051   2.926  64.137  1.00  0.00    -0.036 OA 
HETATM   22  O   UNL     1      -7.416   4.173  62.487  1.00  0.00    -0.043 OA 
HETATM   23  H   UNL     1      -6.597   4.446  62.089  1.00  0.00     0.000 HD 
HETATM   24  O   UNL     1      -6.031   6.077  63.716  1.00  0.00    -0.021 OA 
HETATM   25  C   UNL     1      -7.639   6.266  65.462  1.00  0.00    -0.087 A  
HETATM   26  H   UNL     1      -5.523   6.756  64.143  1.00  0.00     0.000 HD 
ENDBRANCH   9  14
ENDBRANCH   5   8
ENDBRANCH   2   3
TORSDOF 5
ENDMDL
MODEL      280
REMARK 921   NORMALIZED FREE ENERGY PREDICTED BY IDOCK:   -2.02 KCAL/MOL
REMARK 922        TOTAL FREE ENERGY PREDICTED BY IDOCK:   -2.73 KCAL/MOL
REMARK 923 INTER-LIGAND FREE ENERGY PREDICTED BY IDOCK:   -2.21 KCAL/MOL
REMARK 924 INTRA-LIGAND FREE ENERGY PREDICTED BY IDOCK:   -0.52 KCAL/MOL
REMARK 927      BINDING AFFINITY PREDICTED BY RF-SCORE:    0.00 PKD
ROOT
HETATM    1  C   UNL     1      -8.560   8.389  64.063  1.00  0.00     0.090 C  
HETATM    2  C   UNL     1      -9.121   8.875  65.394  1.00  0.00    -0.163 C  
ENDROOT
BRANCH   2   3
HETATM    3  N   UNL     1      -8.449   8.291  66.565  1.00  0.00    -0.114 N  
HETATM    4  O   UNL     1      -9.908   6.522  66.472  1.00  0.00    -0.167 OA 
HETATM    5  C   UNL     1      -8.989   7.097  67.066  1.00  0.00    -0.129 C  
BRANCH   3   6
HETATM    6  C   UNL     1      -7.287   8.981  67.145  1.00  0.00    -0.087 C  
HETATM    7  C   UNL     1      -5.881   8.594  66.716  1.00  0.00    -0.052 C  
ENDBRANCH   3   6
BRANCH   5   8
HETATM    8  C   UNL     1      -8.483   6.462  68.333  1.00  0.00    -0.116 C  
HETATM    9  C   UNL     1      -9.189   6.592  69.483  1.00  0.00    -0.143 C  
BRANCH   8  10
HETATM   10  C   UNL     1      -7.196   5.657  68.419  1.00  0.00    -0.075 C  
HETATM   11  H2  UNL     1      -6.757   4.299  68.078  1.00  0.00     0.000 HD 
HETATM   12  N   UNL     1      -6.130   4.990  68.490  1.00  0.00    -0.029 NA 
HETATM   13  H1  UNL     1      -5.266   4.450  68.548  1.00  0.00     0.000 HD 
ENDBRANCH   8  10
BRANCH   9  14
HETATM   14  C   UNL     1      -8.798   5.975  70.775  1.00  0.00    -0.139 A  
HETATM   15  C   UNL     1      -9.328   4.736  71.176  1.00  0.00    -0.206 A  
HETATM   16  C   UNL     1      -9.007   4.197  72.440  1.00  0.00    -0.111 A  
HETATM   17  C   UNL     1      -8.140   4.876  73.300  1.00  0.00    -0.101 A  
HETATM   18  N   UNL     1      -9.588   2.914  72.844  1.00  0.00    -0.100 N  
HETATM   19  C   UNL     1      -7.612   6.100  72.885  1.00  0.00    -0.101 A  
HETATM   20  O   UNL     1      -9.307   2.487  73.976  1.00  0.00    -0.076 OA 
HETATM   21  O   UNL     1     -10.324   2.330  72.036  1.00  0.00    -0.141 OA 
HETATM   22  O   UNL     1      -7.746   4.459  74.549  1.00  0.00    -0.079 OA 
HETATM   23  H   UNL     1      -7.156   4.921  75.134  1.00  0.00     0.000 HD 
HETATM   24  O   UNL     1      -6.763   6.780  73.714  1.00  0.00    -0.072 OA 
HETATM   25  C   UNL     1      -7.935   6.653  71.645  1.00  0.00    -0.103 A  
HETATM   26  H   UNL     1      -6.403   7.613  73.432  1.00  0.00     0.000 HD 
ENDBRANCH   9  14
ENDBRANCH   5   8
ENDBRANCH   2   3
TORSDOF 5
ENDMDL
MODEL      281
REMARK 921   NORMALIZED FREE ENERGY PREDICTED BY IDOCK:   -1.97 KCAL/MOL
REMARK 922        TOTAL FREE ENERGY PREDICTED BY IDOCK:   -2.66 KCAL/MOL
REMARK 923 INTER-LIGAND FREE ENERGY PREDICTED BY IDOCK:   -2.38 KCAL/MOL
REMARK 924 INTRA-LIGAND FREE ENERGY PREDICTED BY IDOCK:   -0.29 KCAL/MOL
REMARK 927      BINDING AFFINITY PREDICTED BY RF-SCORE:    0.00 PKD
ROOT
HETATM    1  C   UNL     1      -8.650   9.486  62.723  1.00  0.00    -0.215 C  
HETATM    2  C   UNL     1      -7.339   8.713  62.656  1.00  0.00    -0.099 C  
ENDROOT
BRANCH   2   3
HETATM    3  N   UNL     1      -7.132   7.803  63.793  1.00  0.00    -0.070 N  
HETATM    4  O   UNL     1      -8.362   6.209  62.691  1.00  0.00    -0.095 OA 
HETATM    5  C   UNL     1      -7.764   6.553  63.717  1.00  0.00    -0.108 C  
BRANCH   3   6
HETATM    6  C   UNL     1      -6.310   8.246  64.929  1.00  0.00    -0.052 C  
HETATM    7  C   UNL     1      -5.749   9.659  64.956  1.00  0.00    -0.068 C  
ENDBRANCH   3   6
BRANCH   5   8
HETATM    8  C   UNL     1      -7.745   5.578  64.864  1.00  0.00    -0.094 C  
HETATM    9  C   UNL     1      -8.572   5.763  65.922  1.00  0.00    -0.146 C  
BRANCH   8  10
HETATM   10  C   UNL     1      -6.837   4.360  64.922  1.00  0.00    -0.049 C  
HETATM   11  H2  UNL     1      -6.637   3.214  65.818  1.00  0.00     0.000 HD 
HETATM   12  N   UNL     1      -6.085   3.350  64.971  1.00  0.00    -0.023 NA 
HETATM   13  H1  UNL     1      -5.476   2.532  65.009  1.00  0.00     0.000 HD 
ENDBRANCH   8  10
BRANCH   9  14
HETATM   14  C   UNL     1      -8.657   4.842  67.083  1.00  0.00    -0.104 A  
HETATM   15  C   UNL     1      -8.080   5.179  68.320  1.00  0.00    -0.087 A  
HETATM   16  C   UNL     1      -8.101   4.263  69.392  1.00  0.00    -0.059 A  
HETATM   17  C   UNL     1      -8.716   3.017  69.247  1.00  0.00    -0.082 A  
HETATM   18  N   UNL     1      -7.474   4.629  70.665  1.00  0.00    -0.052 N  
HETATM   19  C   UNL     1      -9.296   2.699  68.017  1.00  0.00    -0.202 A  
HETATM   20  O   UNL     1      -7.485   3.784  71.575  1.00  0.00    -0.049 OA 
HETATM   21  O   UNL     1      -6.970   5.757  70.760  1.00  0.00    -0.058 OA 
HETATM   22  O   UNL     1      -8.809   2.041  70.210  1.00  0.00    -0.059 OA 
HETATM   23  H   UNL     1      -9.228   1.193  70.111  1.00  0.00     0.000 HD 
HETATM   24  O   UNL     1      -9.902   1.483  67.855  1.00  0.00    -0.399 OA 
HETATM   25  C   UNL     1      -9.267   3.589  66.943  1.00  0.00    -0.208 A  
HETATM   26  H   UNL     1     -10.297   1.266  67.018  1.00  0.00     0.000 HD 
ENDBRANCH   9  14
ENDBRANCH   5   8
ENDBRANCH   2   3
TORSDOF 5
ENDMDL
MODEL      282
REMARK 921   NORMALIZED FREE ENERGY PREDICTED BY IDOCK:   -1.93 KCAL/MOL
REMARK 922        TOTAL FREE ENERGY PREDICTED BY IDOCK:   -2.61 KCAL/MOL
REMARK 923 INTER-LIGAND FREE ENERGY PREDICTED BY IDOCK:   -3.12 KCAL/MOL
REMARK 924 INTRA-LIGAND FREE ENERGY PREDICTED BY IDOCK:    0.51 KCAL/MOL
REMARK 927      BINDING AFFINITY PREDICTED BY RF-SCORE:    0.00 PKD
ROOT
HETATM    1  C   UNL     1     -10.506   3.042  73.472  1.00  0.00    -0.250 C  
HETATM    2  C   UNL     1     -11.376   4.265  73.210  1.00  0.00    -0.203 C  
ENDROOT
BRANCH   2   3
HETATM    3  N   UNL     1     -10.629   5.416  72.678  1.00  0.00    -0.215 N  
HETATM    4  O   UNL     1     -12.410   5.891  71.311  1.00  0.00     0.381 OA 
HETATM    5  C   UNL     1     -11.250   6.146  71.655  1.00  0.00    -0.286 C  
BRANCH   3   6
HETATM    6  C   UNL     1      -9.297   5.721  73.222  1.00  0.00    -0.135 C  
HETATM    7  C   UNL     1      -8.195   4.676  73.167  1.00  0.00    -0.100 C  
ENDBRANCH   3   6
BRANCH   5   8
HETATM    8  C   UNL     1     -10.547   7.264  70.932  1.00  0.00    -0.234 C  
HETATM    9  C   UNL     1      -9.471   6.994  70.153  1.00  0.00    -0.162 C  
BRANCH   8  10
HETATM   10  C   UNL     1     -10.971   8.722  71.016  1.00  0.00    -0.268 C  
HETATM   11  H2  UNL     1     -10.360  10.032  70.758  1.00  0.00     0.000 HD 
HETATM   12  N   UNL     1     -11.321   9.931  71.084  1.00  0.00    -0.376 NA 
HETATM   13  H1  UNL     1     -11.606  10.909  71.140  1.00  0.00     0.000 HD 
ENDBRANCH   8  10
BRANCH   9  14
HETATM   14  C   UNL     1      -8.732   8.017  69.372  1.00  0.00    -0.137 A  
HETATM   15  C   UNL     1      -9.308   8.621  68.241  1.00  0.00    -0.143 A  
HETATM   16  C   UNL     1      -8.567   9.535  67.462  1.00  0.00    -0.126 A  
HETATM   17  C   UNL     1      -7.258   9.868  67.817  1.00  0.00    -0.088 A  
HETATM   18  N   UNL     1      -9.183  10.135  66.276  1.00  0.00    -0.153 N  
HETATM   19  C   UNL     1      -6.701   9.270  68.949  1.00  0.00    -0.052 A  
HETATM   20  O   UNL     1      -8.489  10.911  65.598  1.00  0.00    -0.175 OA 
HETATM   21  O   UNL     1     -10.358   9.837  66.018  1.00  0.00    -0.221 OA 
HETATM   22  O   UNL     1      -6.434  10.743  67.149  1.00  0.00    -0.066 OA 
HETATM   23  H   UNL     1      -5.544  10.970  67.392  1.00  0.00     0.000 HD 
HETATM   24  O   UNL     1      -5.419   9.583  69.312  1.00  0.00    -0.036 OA 
HETATM   25  C   UNL     1      -7.416   8.352  69.718  1.00  0.00    -0.072 A  
HETATM   26  H   UNL     1      -5.040   9.176  70.082  1.00  0.00     0.000 HD 
ENDBRANCH   9  14
ENDBRANCH   5   8
ENDBRANCH   2   3
TORSDOF 5
ENDMDL
MODEL      283
REMARK 921   NORMALIZED FREE ENERGY PREDICTED BY IDOCK:   -1.90 KCAL/MOL
REMARK 922        TOTAL FREE ENERGY PREDICTED BY IDOCK:   -2.58 KCAL/MOL
REMARK 923 INTER-LIGAND FREE ENERGY PREDICTED BY IDOCK:   -3.75 KCAL/MOL
REMARK 924 INTRA-LIGAND FREE ENERGY PREDICTED BY IDOCK:    1.17 KCAL/MOL
REMARK 927      BINDING AFFINITY PREDICTED BY RF-SCORE:    0.00 PKD
ROOT
HETATM    1  C   UNL     1      -9.548   3.503  66.779  1.00  0.00    -0.140 C  
HETATM    2  C   UNL     1      -8.522   4.579  67.110  1.00  0.00    -0.104 C  
ENDROOT
BRANCH   2   3
HETATM    3  N   UNL     1      -9.068   5.945  67.073  1.00  0.00    -0.115 N  
HETATM    4  O   UNL     1      -7.086   6.720  67.931  1.00  0.00    -0.080 OA 
HETATM    5  C   UNL     1      -8.247   6.961  67.581  1.00  0.00    -0.117 C  
BRANCH   3   6
HETATM    6  C   UNL     1     -10.419   6.164  66.534  1.00  0.00    -0.128 C  
HETATM    7  C   UNL     1     -11.137   5.041  65.801  1.00  0.00     0.145 C  
ENDBRANCH   3   6
BRANCH   5   8
HETATM    8  C   UNL     1      -8.729   8.381  67.724  1.00  0.00    -0.137 C  
HETATM    9  C   UNL     1      -8.358   9.315  66.814  1.00  0.00    -0.123 C  
BRANCH   8  10
HETATM   10  C   UNL     1      -9.632   8.857  68.851  1.00  0.00    -0.160 C  
HETATM   11  H2  UNL     1      -9.836   8.536  70.269  1.00  0.00     0.000 HD 
HETATM   12  N   UNL     1     -10.380   9.251  69.785  1.00  0.00    -0.207 NA 
HETATM   13  H1  UNL     1     -10.985   9.571  70.542  1.00  0.00     0.000 HD 
ENDBRANCH   8  10
BRANCH   9  14
HETATM   14  C   UNL     1      -8.807  10.729  66.843  1.00  0.00    -0.144 A  
HETATM   15  C   UNL     1      -9.852  11.175  66.015  1.00  0.00    -0.270 A  
HETATM   16  C   UNL     1     -10.218  12.537  65.996  1.00  0.00    -0.251 A  
HETATM   17  C   UNL     1      -9.562  13.458  66.817  1.00  0.00    -0.262 A  
HETATM   18  N   UNL     1     -11.296  12.981  65.108  1.00  0.00    -0.286 N  
HETATM   19  C   UNL     1      -8.534  13.000  67.643  1.00  0.00    -0.187 A  
HETATM   20  O   UNL     1     -11.569  14.192  65.096  1.00  0.00    -0.320 OA 
HETATM   21  O   UNL     1     -11.873  12.124  64.423  1.00  0.00    -0.363 OA 
HETATM   22  O   UNL     1      -9.824  14.805  66.896  1.00  0.00    -0.233 OA 
HETATM   23  H   UNL     1      -9.379  15.431  67.455  1.00  0.00     0.000 HD 
HETATM   24  O   UNL     1      -7.879  13.887  68.453  1.00  0.00    -0.126 OA 
HETATM   25  C   UNL     1      -8.150  11.659  67.659  1.00  0.00    -0.140 A  
HETATM   26  H   UNL     1      -7.180  13.576  69.016  1.00  0.00     0.000 HD 
ENDBRANCH   9  14
ENDBRANCH   5   8
ENDBRANCH   2   3
TORSDOF 5
ENDMDL
MODEL      284
REMARK 921   NORMALIZED FREE ENERGY PREDICTED BY IDOCK:   -1.89 KCAL/MOL
REMARK 922        TOTAL FREE ENERGY PREDICTED BY IDOCK:   -2.56 KCAL/MOL
REMARK 923 INTER-LIGAND FREE ENERGY PREDICTED BY IDOCK:   -2.84 KCAL/MOL
REMARK 924 INTRA-LIGAND FREE ENERGY PREDICTED BY IDOCK:    0.27 KCAL/MOL
REMARK 927      BINDING AFFINITY PREDICTED BY RF-SCORE:    0.00 PKD
ROOT
HETATM    1  C   UNL     1     -10.618  15.715  66.660  1.00  0.00    -0.307 C  
HETATM    2  C   UNL     1     -11.158  14.381  67.162  1.00  0.00    -0.312 C  
ENDROOT
BRANCH   2   3
HETATM    3  N   UNL     1     -10.195  13.275  67.046  1.00  0.00    -0.242 N  
HETATM    4  O   UNL     1     -10.860  12.975  64.870  1.00  0.00    -0.297 OA 
HETATM    5  C   UNL     1     -10.178  12.586  65.824  1.00  0.00    -0.270 C  
BRANCH   3   6
HETATM    6  C   UNL     1      -9.335  12.947  68.193  1.00  0.00    -0.214 C  
HETATM    7  C   UNL     1      -9.737  11.838  69.152  1.00  0.00     0.240 C  
ENDBRANCH   3   6
BRANCH   5   8
HETATM    8  C   UNL     1      -9.337  11.355  65.614  1.00  0.00    -0.242 C  
HETATM    9  C   UNL     1      -9.784  10.360  64.808  1.00  0.00    -0.383 C  
BRANCH   8  10
HETATM   10  C   UNL     1      -7.978  11.140  66.261  1.00  0.00    -0.125 C  
HETATM   11  H2  UNL     1      -6.708  10.498  65.898  1.00  0.00     0.000 HD 
HETATM   12  N   UNL     1      -6.851  10.961  66.796  1.00  0.00    -0.112 NA 
HETATM   13  H1  UNL     1      -5.939  10.816  67.229  1.00  0.00     0.000 HD 
ENDBRANCH   8  10
BRANCH   9  14
HETATM   14  C   UNL     1      -9.018   9.126  64.506  1.00  0.00    -0.129 A  
HETATM   15  C   UNL     1      -9.244   7.939  65.225  1.00  0.00     0.375 A  
HETATM   16  C   UNL     1      -8.457   6.794  64.980  1.00  0.00     0.012 A  
HETATM   17  C   UNL     1      -7.457   6.818  64.005  1.00  0.00    -0.098 A  
HETATM   18  N   UNL     1      -8.697   5.575  65.757  1.00  0.00    -0.147 N  
HETATM   19  C   UNL     1      -7.250   7.999  63.290  1.00  0.00    -0.091 A  
HETATM   20  O   UNL     1      -7.963   4.598  65.535  1.00  0.00    -0.093 OA 
HETATM   21  O   UNL     1      -9.617   5.588  66.587  1.00  0.00    -0.137 OA 
HETATM   22  O   UNL     1      -6.627   5.775  63.668  1.00  0.00    -0.034 OA 
HETATM   23  H   UNL     1      -5.948   5.791  63.004  1.00  0.00     0.000 HD 
HETATM   24  O   UNL     1      -6.274   8.043  62.332  1.00  0.00    -0.083 OA 
HETATM   25  C   UNL     1      -8.010   9.144  63.534  1.00  0.00    -0.145 A  
HETATM   26  H   UNL     1      -6.134   8.846  61.846  1.00  0.00     0.000 HD 
ENDBRANCH   9  14
ENDBRANCH   5   8
ENDBRANCH   2   3
TORSDOF 5
ENDMDL
MODEL      285
REMARK 921   NORMALIZED FREE ENERGY PREDICTED BY IDOCK:   -1.88 KCAL/MOL
REMARK 922        TOTAL FREE ENERGY PREDICTED BY IDOCK:   -2.55 KCAL/MOL
REMARK 923 INTER-LIGAND FREE ENERGY PREDICTED BY IDOCK:   -3.46 KCAL/MOL
REMARK 924 INTRA-LIGAND FREE ENERGY PREDICTED BY IDOCK:    0.91 KCAL/MOL
REMARK 927      BINDING AFFINITY PREDICTED BY RF-SCORE:    0.00 PKD
ROOT
HETATM    1  C   UNL     1      -8.458   9.882  62.962  1.00  0.00    -0.175 C  
HETATM    2  C   UNL     1      -8.546  10.421  64.385  1.00  0.00    -0.179 C  
ENDROOT
BRANCH   2   3
HETATM    3  N   UNL     1      -8.245   9.415  65.415  1.00  0.00    -0.120 N  
HETATM    4  O   UNL     1     -10.366   9.688  66.248  1.00  0.00    -0.239 OA 
HETATM    5  C   UNL     1      -9.251   9.166  66.360  1.00  0.00    -0.183 C  
BRANCH   3   6
HETATM    6  C   UNL     1      -6.932   8.753  65.410  1.00  0.00    -0.076 C  
HETATM    7  C   UNL     1      -5.698   9.513  64.950  1.00  0.00    -0.065 C  
ENDBRANCH   3   6
BRANCH   5   8
HETATM    8  C   UNL     1      -9.030   8.260  67.541  1.00  0.00    -0.141 C  
HETATM    9  C   UNL     1      -9.911   8.265  68.572  1.00  0.00    -0.188 C  
BRANCH   8  10
HETATM   10  C   UNL     1      -7.852   7.307  67.666  1.00  0.00    -0.113 C  
HETATM   11  H2  UNL     1      -6.612   7.232  68.451  1.00  0.00     0.000 HD 
HETATM   12  N   UNL     1      -6.875   6.518  67.771  1.00  0.00    -0.077 NA 
HETATM   13  H1  UNL     1      -6.084   5.878  67.855  1.00  0.00     0.000 HD 
ENDBRANCH   8  10
BRANCH   9  14
HETATM   14  C   UNL     1      -9.804   7.386  69.763  1.00  0.00    -0.171 A  
HETATM   15  C   UNL     1      -9.794   5.987  69.632  1.00  0.00    -0.205 A  
HETATM   16  C   UNL     1      -9.769   5.161  70.776  1.00  0.00    -0.190 A  
HETATM   17  C   UNL     1      -9.733   5.724  72.054  1.00  0.00    -0.154 A  
HETATM   18  N   UNL     1      -9.780   3.705  70.614  1.00  0.00    -0.180 N  
HETATM   19  C   UNL     1      -9.733   7.116  72.170  1.00  0.00    -0.146 A  
HETATM   20  O   UNL     1      -9.789   3.012  71.644  1.00  0.00    -0.161 OA 
HETATM   21  O   UNL     1      -9.778   3.250  69.461  1.00  0.00    -0.116 OA 
HETATM   22  O   UNL     1      -9.702   5.035  73.243  1.00  0.00    -0.142 OA 
HETATM   23  H   UNL     1      -9.677   5.419  74.112  1.00  0.00     0.000 HD 
HETATM   24  O   UNL     1      -9.699   7.685  73.413  1.00  0.00    -0.262 OA 
HETATM   25  C   UNL     1      -9.774   7.943  71.048  1.00  0.00    -0.178 A  
HETATM   26  H   UNL     1      -9.698   8.632  73.493  1.00  0.00     0.000 HD 
ENDBRANCH   9  14
ENDBRANCH   5   8
ENDBRANCH   2   3
TORSDOF 5
ENDMDL
MODEL      286
REMARK 921   NORMALIZED FREE ENERGY PREDICTED BY IDOCK:   -1.57 KCAL/MOL
REMARK 922        TOTAL FREE ENERGY PREDICTED BY IDOCK:   -2.15 KCAL/MOL
REMARK 923 INTER-LIGAND FREE ENERGY PREDICTED BY IDOCK:   -3.02 KCAL/MOL
REMARK 924 INTRA-LIGAND FREE ENERGY PREDICTED BY IDOCK:    0.87 KCAL/MOL
REMARK 927      BINDING AFFINITY PREDICTED BY RF-SCORE:    0.00 PKD
ROOT
HETATM    1  C   UNL     1     -12.747   9.090  71.694  1.00  0.00    -0.421 C  
HETATM    2  C   UNL     1     -11.229   9.209  71.673  1.00  0.00    -0.377 C  
ENDROOT
BRANCH   2   3
HETATM    3  N   UNL     1     -10.636   8.947  70.352  1.00  0.00    -0.207 N  
HETATM    4  O   UNL     1      -9.789   6.975  71.165  1.00  0.00    -0.177 OA 
HETATM    5  C   UNL     1      -9.862   7.784  70.232  1.00  0.00    -0.184 C  
BRANCH   3   6
HETATM    6  C   UNL     1     -10.866   9.904  69.259  1.00  0.00    -0.227 C  
HETATM    7  C   UNL     1     -11.247  11.342  69.575  1.00  0.00    -0.337 C  
ENDBRANCH   3   6
BRANCH   5   8
HETATM    8  C   UNL     1      -9.092   7.462  68.979  1.00  0.00    -0.133 C  
HETATM    9  C   UNL     1      -9.751   7.050  67.868  1.00  0.00    -0.141 C  
BRANCH   8  10
HETATM   10  C   UNL     1      -7.580   7.571  68.865  1.00  0.00    -0.105 C  
HETATM   11  H2  UNL     1      -6.510   8.344  69.508  1.00  0.00     0.000 HD 
HETATM   12  N   UNL     1      -6.326   7.662  68.771  1.00  0.00    -0.039 NA 
HETATM   13  H1  UNL     1      -5.312   7.735  68.695  1.00  0.00     0.000 HD 
ENDBRANCH   8  10
BRANCH   9  14
HETATM   14  C   UNL     1      -9.092   6.744  66.575  1.00  0.00    -0.171 A  
HETATM   15  C   UNL     1      -7.938   7.437  66.168  1.00  0.00    -0.112 A  
HETATM   16  C   UNL     1      -7.365   7.191  64.902  1.00  0.00    -0.084 A  
HETATM   17  C   UNL     1      -7.924   6.239  64.045  1.00  0.00    -0.099 A  
HETATM   18  N   UNL     1      -6.175   7.941  64.492  1.00  0.00    -0.052 N  
HETATM   19  C   UNL     1      -9.062   5.550  64.466  1.00  0.00     0.285 A  
HETATM   20  O   UNL     1      -5.718   7.720  63.359  1.00  0.00    -0.052 OA 
HETATM   21  O   UNL     1      -5.694   8.750  65.298  1.00  0.00    -0.046 OA 
HETATM   22  O   UNL     1      -7.462   5.904  62.795  1.00  0.00    -0.051 OA 
HETATM   23  H   UNL     1      -7.842   5.256  62.212  1.00  0.00     0.000 HD 
HETATM   24  O   UNL     1      -9.625   4.616  63.640  1.00  0.00    -0.342 OA 
HETATM   25  C   UNL     1      -9.649   5.796  65.707  1.00  0.00     0.048 A  
HETATM   26  H   UNL     1     -10.399   4.146  63.926  1.00  0.00     0.000 HD 
ENDBRANCH   9  14
ENDBRANCH   5   8
ENDBRANCH   2   3
TORSDOF 5
ENDMDL
MODEL      287
REMARK 921   NORMALIZED FREE ENERGY PREDICTED BY IDOCK:   -1.56 KCAL/MOL
REMARK 922        TOTAL FREE ENERGY PREDICTED BY IDOCK:   -2.13 KCAL/MOL
REMARK 923 INTER-LIGAND FREE ENERGY PREDICTED BY IDOCK:   -4.03 KCAL/MOL
REMARK 924 INTRA-LIGAND FREE ENERGY PREDICTED BY IDOCK:    1.90 KCAL/MOL
REMARK 927      BINDING AFFINITY PREDICTED BY RF-SCORE:    0.00 PKD
ROOT
HETATM    1  C   UNL     1      -5.982   9.678  63.398  1.00  0.00    -0.102 C  
HETATM    2  C   UNL     1      -6.490   9.034  64.682  1.00  0.00    -0.070 C  
ENDROOT
BRANCH   2   3
HETATM    3  N   UNL     1      -6.861  10.007  65.722  1.00  0.00    -0.104 N  
HETATM    4  O   UNL     1      -8.989   9.149  65.712  1.00  0.00    -0.167 OA 
HETATM    5  C   UNL     1      -8.202  10.006  66.131  1.00  0.00    -0.121 C  
BRANCH   3   6
HETATM    6  C   UNL     1      -5.835  10.918  66.252  1.00  0.00    -0.139 C  
HETATM    7  C   UNL     1      -5.989  11.510  67.644  1.00  0.00    -0.058 C  
ENDBRANCH   3   6
BRANCH   5   8
HETATM    8  C   UNL     1      -8.746  11.032  67.089  1.00  0.00    -0.135 C  
HETATM    9  C   UNL     1      -9.583  11.999  66.641  1.00  0.00    -0.225 C  
BRANCH   8  10
HETATM   10  C   UNL     1      -8.413  11.062  68.573  1.00  0.00    -0.153 C  
HETATM   11  H2  UNL     1      -7.255  10.744  69.418  1.00  0.00     0.000 HD 
HETATM   12  N   UNL     1      -8.136  11.086  69.802  1.00  0.00    -0.247 NA 
HETATM   13  H1  UNL     1      -7.913  11.106  70.797  1.00  0.00     0.000 HD 
ENDBRANCH   8  10
BRANCH   9  14
HETATM   14  C   UNL     1     -10.201  13.033  67.508  1.00  0.00    -0.221 A  
HETATM   15  C   UNL     1     -11.128  12.682  68.505  1.00  0.00    -0.300 A  
HETATM   16  C   UNL     1     -11.767  13.680  69.272  1.00  0.00    -0.325 A  
HETATM   17  C   UNL     1     -11.469  15.029  69.065  1.00  0.00    -0.304 A  
HETATM   18  N   UNL     1     -12.745  13.290  70.290  1.00  0.00    -0.061 N  
HETATM   19  C   UNL     1     -10.538  15.363  68.080  1.00  0.00    -0.263 A  
HETATM   20  O   UNL     1     -13.309  14.198  70.923  1.00  0.00    -0.293 OA 
HETATM   21  O   UNL     1     -12.952  12.080  70.462  1.00  0.00     0.060 OA 
HETATM   22  O   UNL     1     -12.015  16.093  69.743  1.00  0.00    -0.291 OA 
HETATM   23  H   UNL     1     -11.812  17.010  69.603  1.00  0.00     0.000 HD 
HETATM   24  O   UNL     1     -10.235  16.680  67.862  1.00  0.00    -0.264 OA 
HETATM   25  C   UNL     1      -9.913  14.388  67.303  1.00  0.00    -0.247 A  
HETATM   26  H   UNL     1      -9.602  16.908  67.192  1.00  0.00     0.000 HD 
ENDBRANCH   9  14
ENDBRANCH   5   8
ENDBRANCH   2   3
TORSDOF 5
ENDMDL
MODEL      288
REMARK 921   NORMALIZED FREE ENERGY PREDICTED BY IDOCK:   -0.88 KCAL/MOL
REMARK 922        TOTAL FREE ENERGY PREDICTED BY IDOCK:   -1.25 KCAL/MOL
REMARK 923 INTER-LIGAND FREE ENERGY PREDICTED BY IDOCK:   -3.31 KCAL/MOL
REMARK 924 INTRA-LIGAND FREE ENERGY PREDICTED BY IDOCK:    2.07 KCAL/MOL
REMARK 927      BINDING AFFINITY PREDICTED BY RF-SCORE:    0.00 PKD
ROOT
HETATM    1  C   UNL     1     -13.358  15.275  71.119  1.00  0.00    -0.568 C  
HETATM    2  C   UNL     1     -13.179  13.782  71.366  1.00  0.00    -0.305 C  
ENDROOT
BRANCH   2   3
HETATM    3  N   UNL     1     -12.375  13.107  70.335  1.00  0.00    -0.312 N  
HETATM    4  O   UNL     1     -12.015  11.379  71.802  1.00  0.00     0.402 OA 
HETATM    5  C   UNL     1     -11.775  11.894  70.704  1.00  0.00     0.144 C  
BRANCH   3   6
HETATM    6  C   UNL     1     -12.231  13.732  69.012  1.00  0.00    -0.224 C  
HETATM    7  C   UNL     1     -11.351  14.960  68.842  1.00  0.00    -0.301 C  
ENDBRANCH   3   6
BRANCH   5   8
HETATM    8  C   UNL     1     -10.822  11.165  69.794  1.00  0.00    -0.152 C  
HETATM    9  C   UNL     1     -10.665   9.824  69.915  1.00  0.00    -0.303 C  
BRANCH   8  10
HETATM   10  C   UNL     1      -9.998  11.847  68.713  1.00  0.00    -0.092 C  
HETATM   11  H2  UNL     1     -10.078  12.024  67.257  1.00  0.00     0.000 HD 
HETATM   12  N   UNL     1      -9.316  12.411  67.816  1.00  0.00    -0.189 NA 
HETATM   13  H1  UNL     1      -8.764  12.869  67.091  1.00  0.00     0.000 HD 
ENDBRANCH   8  10
BRANCH   9  14
HETATM   14  C   UNL     1      -9.781   9.008  69.045  1.00  0.00    -0.167 A  
HETATM   15  C   UNL     1      -9.510   9.395  67.721  1.00  0.00    -0.152 A  
HETATM   16  C   UNL     1      -8.731   8.572  66.881  1.00  0.00    -0.128 A  
HETATM   17  C   UNL     1      -8.200   7.372  67.360  1.00  0.00    -0.113 A  
HETATM   18  N   UNL     1      -8.480   8.987  65.498  1.00  0.00    -0.135 N  
HETATM   19  C   UNL     1      -8.468   7.005  68.681  1.00  0.00    -0.121 A  
HETATM   20  O   UNL     1      -7.817   8.221  64.780  1.00  0.00    -0.113 OA 
HETATM   21  O   UNL     1      -8.942  10.075  65.126  1.00  0.00    -0.165 OA 
HETATM   22  O   UNL     1      -7.426   6.486  66.650  1.00  0.00    -0.077 OA 
HETATM   23  H   UNL     1      -7.065   5.670  66.976  1.00  0.00     0.000 HD 
HETATM   24  O   UNL     1      -7.958   5.832  69.168  1.00  0.00    -0.095 OA 
HETATM   25  C   UNL     1      -9.251   7.801  69.517  1.00  0.00    -0.149 A  
HETATM   26  H   UNL     1      -8.139   5.582  70.066  1.00  0.00     0.000 HD 
ENDBRANCH   9  14
ENDBRANCH   5   8
ENDBRANCH   2   3
TORSDOF 5
ENDMDL
MODEL      289
REMARK 921   NORMALIZED FREE ENERGY PREDICTED BY IDOCK:   -0.75 KCAL/MOL
REMARK 922        TOTAL FREE ENERGY PREDICTED BY IDOCK:   -1.08 KCAL/MOL
REMARK 923 INTER-LIGAND FREE ENERGY PREDICTED BY IDOCK:   -2.26 KCAL/MOL
REMARK 924 INTRA-LIGAND FREE ENERGY PREDICTED BY IDOCK:    1.17 KCAL/MOL
REMARK 927      BINDING AFFINITY PREDICTED BY RF-SCORE:    0.00 PKD
ROOT
HETATM    1  C   UNL     1      -7.584  17.048  68.849  1.00  0.00    -0.233 C  
HETATM    2  C   UNL     1      -6.613  15.978  68.366  1.00  0.00    -0.120 C  
ENDROOT
BRANCH   2   3
HETATM    3  N   UNL     1      -7.275  14.752  67.895  1.00  0.00    -0.138 N  
HETATM    4  O   UNL     1      -6.530  13.672  69.779  1.00  0.00    -0.118 OA 
HETATM    5  C   UNL     1      -7.108  13.606  68.688  1.00  0.00    -0.105 C  
BRANCH   3   6
HETATM    6  C   UNL     1      -8.042  14.786  66.641  1.00  0.00     0.231 C  
HETATM    7  C   UNL     1      -9.103  13.731  66.370  1.00  0.00    -0.083 C  
ENDBRANCH   3   6
BRANCH   5   8
HETATM    8  C   UNL     1      -7.620  12.257  68.258  1.00  0.00    -0.133 C  
HETATM    9  C   UNL     1      -6.790  11.386  67.634  1.00  0.00    -0.080 C  
BRANCH   8  10
HETATM   10  C   UNL     1      -9.048  11.785  68.482  1.00  0.00    -0.144 C  
HETATM   11  H2  UNL     1      -9.874  11.374  69.625  1.00  0.00     0.000 HD 
HETATM   12  N   UNL     1     -10.231  11.394  68.669  1.00  0.00    -0.204 NA 
HETATM   13  H1  UNL     1     -11.189  11.077  68.820  1.00  0.00     0.000 HD 
ENDBRANCH   8  10
BRANCH   9  14
HETATM   14  C   UNL     1      -7.184  10.022  67.206  1.00  0.00    -0.086 A  
HETATM   15  C   UNL     1      -7.281   9.690  65.843  1.00  0.00    -0.099 A  
HETATM   16  C   UNL     1      -7.731   8.412  65.448  1.00  0.00    -0.099 A  
HETATM   17  C   UNL     1      -8.064   7.452  66.407  1.00  0.00    -0.118 A  
HETATM   18  N   UNL     1      -7.844   8.097  64.021  1.00  0.00    -0.137 N  
HETATM   19  C   UNL     1      -7.953   7.790  67.756  1.00  0.00    -0.124 A  
HETATM   20  O   UNL     1      -8.273   6.973  63.713  1.00  0.00    -0.043 OA 
HETATM   21  O   UNL     1      -7.505   8.967  63.207  1.00  0.00    -0.097 OA 
HETATM   22  O   UNL     1      -8.509   6.176  66.156  1.00  0.00    -0.125 OA 
HETATM   23  H   UNL     1      -8.735   5.523  66.808  1.00  0.00     0.000 HD 
HETATM   24  O   UNL     1      -8.277   6.864  68.710  1.00  0.00    -0.119 OA 
HETATM   25  C   UNL     1      -7.526   9.055  68.160  1.00  0.00    -0.084 A  
HETATM   26  H   UNL     1      -8.200   7.094  69.628  1.00  0.00     0.000 HD 
ENDBRANCH   9  14
ENDBRANCH   5   8
ENDBRANCH   2   3
TORSDOF 5
ENDMDL
MODEL      290
REMARK 921   NORMALIZED FREE ENERGY PREDICTED BY IDOCK:    0.55 KCAL/MOL
REMARK 922        TOTAL FREE ENERGY PREDICTED BY IDOCK:    0.60 KCAL/MOL
REMARK 923 INTER-LIGAND FREE ENERGY PREDICTED BY IDOCK:   -2.16 KCAL/MOL
REMARK 924 INTRA-LIGAND FREE ENERGY PREDICTED BY IDOCK:    2.76 KCAL/MOL
REMARK 927      BINDING AFFINITY PREDICTED BY RF-SCORE:    0.00 PKD
ROOT
HETATM    1  C   UNL     1     -11.234  11.394  65.441  1.00  0.00    -0.140 C  
HETATM    2  C   UNL     1     -10.107  11.637  66.437  1.00  0.00    -0.214 C  
ENDROOT
BRANCH   2   3
HETATM    3  N   UNL     1      -9.842  13.062  66.691  1.00  0.00    -0.246 N  
HETATM    4  O   UNL     1      -7.627  12.553  67.011  1.00  0.00    -0.119 OA 
HETATM    5  C   UNL     1      -8.526  13.402  67.037  1.00  0.00    -0.125 C  
BRANCH   3   6
HETATM    6  C   UNL     1     -10.947  14.027  66.588  1.00  0.00    -0.300 C  
HETATM    7  C   UNL     1     -12.056  13.808  65.572  1.00  0.00    -0.434 C  
ENDBRANCH   3   6
BRANCH   5   8
HETATM    8  C   UNL     1      -8.145  14.798  67.449  1.00  0.00    -0.220 C  
HETATM    9  C   UNL     1      -9.105  15.742  67.608  1.00  0.00    -0.193 C  
BRANCH   8  10
HETATM   10  C   UNL     1      -6.713  15.241  67.708  1.00  0.00    -0.167 C  
HETATM   11  H2  UNL     1      -5.573  15.703  66.907  1.00  0.00     0.000 HD 
HETATM   12  N   UNL     1      -5.527  15.609  67.922  1.00  0.00    -0.127 NA 
HETATM   13  H1  UNL     1      -4.567  15.906  68.096  1.00  0.00     0.000 HD 
ENDBRANCH   8  10
BRANCH   9  14
HETATM   14  C   UNL     1      -8.839  17.135  68.046  1.00  0.00    -0.229 A  
HETATM   15  C   UNL     1      -7.694  17.825  67.612  1.00  0.00    -0.212 A  
HETATM   16  C   UNL     1      -7.412  19.120  68.095  1.00  0.00    -0.282 A  
HETATM   17  C   UNL     1      -8.280  19.743  68.996  1.00  0.00    -0.065 A  
HETATM   18  N   UNL     1      -6.201  19.811  67.644  1.00  0.00    -0.194 N  
HETATM   19  C   UNL     1      -9.419  19.051  69.411  1.00  0.00     0.066 A  
HETATM   20  O   UNL     1      -5.971  20.936  68.116  1.00  0.00    -0.293 OA 
HETATM   21  O   UNL     1      -5.479  19.234  66.818  1.00  0.00    -0.163 OA 
HETATM   22  O   UNL     1      -8.124  20.997  69.537  1.00  0.00     2.068 OA 
HETATM   23  H   UNL     1      -8.715  21.421  70.149  1.00  0.00     0.000 HD 
HETATM   24  O   UNL     1     -10.280  19.644  70.294  1.00  0.00    -0.310 OA 
HETATM   25  C   UNL     1      -9.700  17.764  68.954  1.00  0.00    -0.262 A  
HETATM   26  H   UNL     1     -11.055  19.174  70.577  1.00  0.00     0.000 HD 
ENDBRANCH   9  14
ENDBRANCH   5   8
ENDBRANCH   2   3
TORSDOF 5
ENDMDL
MODEL      291
REMARK 921   NORMALIZED FREE ENERGY PREDICTED BY IDOCK:    0.98 KCAL/MOL
REMARK 922        TOTAL FREE ENERGY PREDICTED BY IDOCK:    1.15 KCAL/MOL
REMARK 923 INTER-LIGAND FREE ENERGY PREDICTED BY IDOCK:   -1.09 KCAL/MOL
REMARK 924 INTRA-LIGAND FREE ENERGY PREDICTED BY IDOCK:    2.24 KCAL/MOL
REMARK 927      BINDING AFFINITY PREDICTED BY RF-SCORE:    0.00 PKD
ROOT
HETATM    1  C   UNL     1      -7.359  16.979  68.912  1.00  0.00    -0.245 C  
HETATM    2  C   UNL     1      -6.410  15.799  68.744  1.00  0.00    -0.109 C  
ENDROOT
BRANCH   2   3
HETATM    3  N   UNL     1      -7.097  14.517  68.523  1.00  0.00    -0.106 N  
HETATM    4  O   UNL     1      -6.547  13.896  70.663  1.00  0.00     0.042 OA 
HETATM    5  C   UNL     1      -7.047  13.590  69.574  1.00  0.00     0.193 C  
BRANCH   3   6
HETATM    6  C   UNL     1      -7.769  14.275  67.237  1.00  0.00    -0.120 C  
HETATM    7  C   UNL     1      -8.608  13.023  67.041  1.00  0.00    -0.165 C  
ENDBRANCH   3   6
BRANCH   5   8
HETATM    8  C   UNL     1      -7.594  12.195  69.434  1.00  0.00     0.419 C  
HETATM    9  C   UNL     1      -6.754  11.132  69.471  1.00  0.00    -0.132 C  
BRANCH   8  10
HETATM   10  C   UNL     1      -9.071  11.881  69.250  1.00  0.00     0.694 C  
HETATM   11  H2  UNL     1      -9.956  10.729  69.464  1.00  0.00     0.000 HD 
HETATM   12  N   UNL     1     -10.294  11.620  69.098  1.00  0.00    -0.412 NA 
HETATM   13  H1  UNL     1     -11.285  11.409  68.974  1.00  0.00     0.000 HD 
ENDBRANCH   8  10
BRANCH   9  14
HETATM   14  C   UNL     1      -7.195   9.718  69.380  1.00  0.00    -0.076 A  
HETATM   15  C   UNL     1      -7.291   9.067  68.138  1.00  0.00    -0.083 A  
HETATM   16  C   UNL     1      -7.784   7.748  68.058  1.00  0.00    -0.126 A  
HETATM   17  C   UNL     1      -8.162   7.063  69.215  1.00  0.00    -0.125 A  
HETATM   18  N   UNL     1      -7.896   7.099  66.749  1.00  0.00    -0.101 N  
HETATM   19  C   UNL     1      -8.051   7.716  70.444  1.00  0.00    -0.113 A  
HETATM   20  O   UNL     1      -8.363   5.949  66.716  1.00  0.00    -0.109 OA 
HETATM   21  O   UNL     1      -7.517   7.732  65.753  1.00  0.00    -0.074 OA 
HETATM   22  O   UNL     1      -8.652   5.779  69.274  1.00  0.00    -0.110 OA 
HETATM   23  H   UNL     1      -8.908   5.313  70.062  1.00  0.00     0.000 HD 
HETATM   24  O   UNL     1      -8.418   7.061  71.588  1.00  0.00    -0.115 OA 
HETATM   25  C   UNL     1      -7.581   9.026  70.535  1.00  0.00    -0.113 A  
HETATM   26  H   UNL     1      -8.342   7.506  72.424  1.00  0.00     0.000 HD 
ENDBRANCH   9  14
ENDBRANCH   5   8
ENDBRANCH   2   3
TORSDOF 5
ENDMDL
MODEL      292
REMARK 921   NORMALIZED FREE ENERGY PREDICTED BY IDOCK:    1.95 KCAL/MOL
REMARK 922        TOTAL FREE ENERGY PREDICTED BY IDOCK:    2.40 KCAL/MOL
REMARK 923 INTER-LIGAND FREE ENERGY PREDICTED BY IDOCK:    1.37 KCAL/MOL
REMARK 924 INTRA-LIGAND FREE ENERGY PREDICTED BY IDOCK:    1.03 KCAL/MOL
REMARK 927      BINDING AFFINITY PREDICTED BY RF-SCORE:    0.00 PKD
ROOT
HETATM    1  C   UNL     1      -8.961   7.779  63.552  1.00  0.00     1.147 C  
HETATM    2  C   UNL     1      -9.780   7.779  64.836  1.00  0.00     2.169 C  
ENDROOT
BRANCH   2   3
HETATM    3  N   UNL     1      -9.031   7.315  66.014  1.00  0.00    -0.149 N  
HETATM    4  O   UNL     1     -10.227   5.357  65.955  1.00  0.00    -0.146 OA 
HETATM    5  C   UNL     1      -9.397   6.065  66.536  1.00  0.00    -0.152 C  
BRANCH   3   6
HETATM    6  C   UNL     1      -7.976   8.170  66.578  1.00  0.00    -0.101 C  
HETATM    7  C   UNL     1      -6.513   7.810  66.371  1.00  0.00    -0.047 C  
ENDBRANCH   3   6
BRANCH   5   8
HETATM    8  C   UNL     1      -8.804   5.528  67.811  1.00  0.00    -0.105 C  
HETATM    9  C   UNL     1      -9.465   5.688  68.984  1.00  0.00    -0.159 C  
BRANCH   8  10
HETATM   10  C   UNL     1      -7.473   4.795  67.881  1.00  0.00    -0.078 C  
HETATM   11  H2  UNL     1      -6.624   4.213  68.928  1.00  0.00     0.000 HD 
HETATM   12  N   UNL     1      -6.371   4.187  67.940  1.00  0.00    -0.036 NA 
HETATM   13  H1  UNL     1      -5.479   3.695  67.987  1.00  0.00     0.000 HD 
ENDBRANCH   8  10
BRANCH   9  14
HETATM   14  C   UNL     1      -8.986   5.164  70.287  1.00  0.00    -0.156 A  
HETATM   15  C   UNL     1      -7.725   4.554  70.404  1.00  0.00    -0.053 A  
HETATM   16  C   UNL     1      -7.312   3.993  71.631  1.00  0.00    -0.058 A  
HETATM   17  C   UNL     1      -8.143   4.055  72.752  1.00  0.00    -0.091 A  
HETATM   18  N   UNL     1      -6.002   3.344  71.722  1.00  0.00    -0.013 N  
HETATM   19  C   UNL     1      -9.388   4.673  72.626  1.00  0.00    -0.130 A  
HETATM   20  O   UNL     1      -5.687   2.834  72.810  1.00  0.00    -0.007 OA 
HETATM   21  O   UNL     1      -5.284   3.342  70.712  1.00  0.00    -0.003 OA 
HETATM   22  O   UNL     1      -7.860   3.553  74.000  1.00  0.00    -0.065 OA 
HETATM   23  H   UNL     1      -8.425   3.596  74.763  1.00  0.00     0.000 HD 
HETATM   24  O   UNL     1     -10.217   4.743  73.713  1.00  0.00    -0.161 OA 
HETATM   25  C   UNL     1      -9.816   5.218  71.414  1.00  0.00    -0.232 A  
HETATM   26  H   UNL     1     -11.064   5.164  73.627  1.00  0.00     0.000 HD 
ENDBRANCH   9  14
ENDBRANCH   5   8
ENDBRANCH   2   3
TORSDOF 5
ENDMDL
MODEL      293
REMARK 921   NORMALIZED FREE ENERGY PREDICTED BY IDOCK:    3.63 KCAL/MOL
REMARK 922        TOTAL FREE ENERGY PREDICTED BY IDOCK:    4.58 KCAL/MOL
REMARK 923 INTER-LIGAND FREE ENERGY PREDICTED BY IDOCK:    4.29 KCAL/MOL
REMARK 924 INTRA-LIGAND FREE ENERGY PREDICTED BY IDOCK:    0.28 KCAL/MOL
REMARK 927      BINDING AFFINITY PREDICTED BY RF-SCORE:    0.00 PKD
ROOT
HETATM    1  C   UNL     1      -6.133  10.067  63.638  1.00  0.00    -0.131 C  
HETATM    2  C   UNL     1      -6.616   9.817  65.061  1.00  0.00    -0.099 C  
ENDROOT
BRANCH   2   3
HETATM    3  N   UNL     1      -6.678  11.034  65.885  1.00  0.00    -0.036 N  
HETATM    4  O   UNL     1      -8.743  10.373  66.639  1.00  0.00    -0.133 OA 
HETATM    5  C   UNL     1      -7.860  11.238  66.613  1.00  0.00    -0.152 C  
BRANCH   3   6
HETATM    6  C   UNL     1      -5.534  11.958  65.888  1.00  0.00     1.099 C  
HETATM    7  C   UNL     1      -5.131  12.674  64.609  1.00  0.00     6.859 C  
ENDBRANCH   3   6
BRANCH   5   8
HETATM    8  C   UNL     1      -8.109  12.502  67.392  1.00  0.00    -0.180 C  
HETATM    9  C   UNL     1      -8.924  13.459  66.884  1.00  0.00    -0.216 C  
BRANCH   8  10
HETATM   10  C   UNL     1      -7.494  12.791  68.752  1.00  0.00    -0.048 C  
HETATM   11  H2  UNL     1      -6.229  12.503  69.439  1.00  0.00     0.000 HD 
HETATM   12  N   UNL     1      -6.983  13.030  69.879  1.00  0.00    -0.234 NA 
HETATM   13  H1  UNL     1      -6.570  13.224  70.792  1.00  0.00     0.000 HD 
ENDBRANCH   8  10
BRANCH   9  14
HETATM   14  C   UNL     1      -9.264  14.721  67.587  1.00  0.00    -0.191 A  
HETATM   15  C   UNL     1     -10.025  14.710  68.769  1.00  0.00    -0.235 A  
HETATM   16  C   UNL     1     -10.406  15.921  69.386  1.00  0.00    -0.265 A  
HETATM   17  C   UNL     1     -10.013  17.146  68.842  1.00  0.00    -0.304 A  
HETATM   18  N   UNL     1     -11.217  15.883  70.606  1.00  0.00    -0.363 N  
HETATM   19  C   UNL     1      -9.248  17.143  67.674  1.00  0.00    -0.238 A  
HETATM   20  O   UNL     1     -11.560  16.969  71.102  1.00  0.00     0.352 OA 
HETATM   21  O   UNL     1     -11.514  14.774  71.071  1.00  0.00    -0.286 OA 
HETATM   22  O   UNL     1     -10.313  18.390  69.345  1.00  0.00    -0.418 OA 
HETATM   23  H   UNL     1     -10.045  19.223  68.975  1.00  0.00     0.000 HD 
HETATM   24  O   UNL     1      -8.855  18.334  67.126  1.00  0.00    -0.252 OA 
HETATM   25  C   UNL     1      -8.879  15.954  67.045  1.00  0.00    -0.240 A  
HETATM   26  H   UNL     1      -8.334  18.332  66.332  1.00  0.00     0.000 HD 
ENDBRANCH   9  14
ENDBRANCH   5   8
ENDBRANCH   2   3
TORSDOF 5
ENDMDL
MODEL      294
REMARK 921   NORMALIZED FREE ENERGY PREDICTED BY IDOCK:    4.86 KCAL/MOL
REMARK 922        TOTAL FREE ENERGY PREDICTED BY IDOCK:    6.16 KCAL/MOL
REMARK 923 INTER-LIGAND FREE ENERGY PREDICTED BY IDOCK:    6.39 KCAL/MOL
REMARK 924 INTRA-LIGAND FREE ENERGY PREDICTED BY IDOCK:   -0.23 KCAL/MOL
REMARK 927      BINDING AFFINITY PREDICTED BY RF-SCORE:    0.00 PKD
ROOT
HETATM    1  C   UNL     1      -5.435  10.054  72.355  1.00  0.00     0.198 C  
HETATM    2  C   UNL     1      -5.176  11.553  72.289  1.00  0.00     0.398 C  
ENDROOT
BRANCH   2   3
HETATM    3  N   UNL     1      -6.023  12.255  71.310  1.00  0.00     0.484 N  
HETATM    4  O   UNL     1      -5.873  14.150  72.596  1.00  0.00    -0.304 OA 
HETATM    5  C   UNL     1      -6.362  13.581  71.613  1.00  0.00     1.311 C  
BRANCH   3   6
HETATM    6  C   UNL     1      -6.470  11.540  70.105  1.00  0.00    -0.001 C  
HETATM    7  C   UNL     1      -7.955  11.413  69.804  1.00  0.00     0.854 C  
ENDBRANCH   3   6
BRANCH   5   8
HETATM    8  C   UNL     1      -7.325  14.372  70.768  1.00  0.00     1.322 C  
HETATM    9  C   UNL     1      -6.897  14.955  69.622  1.00  0.00    -0.181 C  
BRANCH   8  10
HETATM   10  C   UNL     1      -8.792  14.569  71.119  1.00  0.00     4.058 C  
HETATM   11  H2  UNL     1      -9.591  15.539  71.877  1.00  0.00     0.000 HD 
HETATM   12  N   UNL     1     -10.007  14.733  71.409  1.00  0.00     1.354 NA 
HETATM   13  H1  UNL     1     -10.991  14.865  71.644  1.00  0.00     0.000 HD 
ENDBRANCH   8  10
BRANCH   9  14
HETATM   14  C   UNL     1      -7.772  15.722  68.701  1.00  0.00    -0.153 A  
HETATM   15  C   UNL     1      -8.402  15.097  67.611  1.00  0.00    -0.172 A  
HETATM   16  C   UNL     1      -9.169  15.852  66.699  1.00  0.00    -0.252 A  
HETATM   17  C   UNL     1      -9.332  17.228  66.880  1.00  0.00    -0.255 A  
HETATM   18  N   UNL     1      -9.799  15.180  65.558  1.00  0.00    -0.340 N  
HETATM   19  C   UNL     1      -8.711  17.834  67.973  1.00  0.00    -0.251 A  
HETATM   20  O   UNL     1     -10.440  15.883  64.760  1.00  0.00    -0.538 OA 
HETATM   21  O   UNL     1      -9.656  13.954  65.456  1.00  0.00    -0.138 OA 
HETATM   22  O   UNL     1     -10.054  18.072  66.071  1.00  0.00    -0.494 OA 
HETATM   23  H   UNL     1     -10.165  19.008  66.194  1.00  0.00     0.000 HD 
HETATM   24  O   UNL     1      -8.857  19.181  68.166  1.00  0.00    -0.297 OA 
HETATM   25  C   UNL     1      -7.935  17.103  68.872  1.00  0.00    -0.208 A  
HETATM   26  H   UNL     1      -8.435  19.594  68.909  1.00  0.00     0.000 HD 
ENDBRANCH   9  14
ENDBRANCH   5   8
ENDBRANCH   2   3
TORSDOF 5
ENDMDL
MODEL      295
REMARK 921   NORMALIZED FREE ENERGY PREDICTED BY IDOCK:    5.24 KCAL/MOL
REMARK 922        TOTAL FREE ENERGY PREDICTED BY IDOCK:    6.65 KCAL/MOL
REMARK 923 INTER-LIGAND FREE ENERGY PREDICTED BY IDOCK:    4.13 KCAL/MOL
REMARK 924 INTRA-LIGAND FREE ENERGY PREDICTED BY IDOCK:    2.52 KCAL/MOL
REMARK 927      BINDING AFFINITY PREDICTED BY RF-SCORE:    0.00 PKD
ROOT
HETATM    1  C   UNL     1     -12.744  16.992  72.844  1.00  0.00     1.488 C  
HETATM    2  C   UNL     1     -12.789  15.794  71.904  1.00  0.00    -0.446 C  
ENDROOT
BRANCH   2   3
HETATM    3  N   UNL     1     -11.613  15.691  71.026  1.00  0.00    -0.354 N  
HETATM    4  O   UNL     1     -11.056  17.847  71.581  1.00  0.00     1.512 OA 
HETATM    5  C   UNL     1     -10.825  16.844  70.896  1.00  0.00     0.785 C  
BRANCH   3   6
HETATM    6  C   UNL     1     -11.343  14.422  70.334  1.00  0.00    -0.094 C  
HETATM    7  C   UNL     1     -12.372  13.843  69.377  1.00  0.00    -0.240 C  
ENDBRANCH   3   6
BRANCH   5   8
HETATM    8  C   UNL     1      -9.671  16.918  69.932  1.00  0.00     0.653 C  
HETATM    9  C   UNL     1      -9.769  17.686  68.819  1.00  0.00    -0.311 C  
BRANCH   8  10
HETATM   10  C   UNL     1      -8.361  16.170  70.124  1.00  0.00     1.306 C  
HETATM   11  H2  UNL     1      -7.203  15.808  69.296  1.00  0.00     0.000 HD 
HETATM   12  N   UNL     1      -7.275  15.551  70.281  1.00  0.00     0.231 NA 
HETATM   13  H1  UNL     1      -6.396  15.049  70.409  1.00  0.00     0.000 HD 
ENDBRANCH   8  10
BRANCH   9  14
HETATM   14  C   UNL     1      -8.678  17.856  67.827  1.00  0.00    -0.250 A  
HETATM   15  C   UNL     1      -8.641  18.975  66.977  1.00  0.00    -0.308 A  
HETATM   16  C   UNL     1      -7.642  19.088  65.986  1.00  0.00    -0.248 A  
HETATM   17  C   UNL     1      -6.663  18.099  65.853  1.00  0.00    -0.292 A  
HETATM   18  N   UNL     1      -7.637  20.253  65.098  1.00  0.00     0.082 N  
HETATM   19  C   UNL     1      -6.705  17.000  66.712  1.00  0.00    -0.230 A  
HETATM   20  O   UNL     1      -6.761  20.301  64.219  1.00  0.00    -0.231 OA 
HETATM   21  O   UNL     1      -8.503  21.121  65.274  1.00  0.00     1.474 OA 
HETATM   22  O   UNL     1      -5.638  18.092  64.938  1.00  0.00    -0.040 OA 
HETATM   23  H   UNL     1      -4.972  17.420  64.847  1.00  0.00     0.000 HD 
HETATM   24  O   UNL     1      -5.756  16.021  66.596  1.00  0.00    -0.176 OA 
HETATM   25  C   UNL     1      -7.697  16.867  67.684  1.00  0.00    -0.179 A  
HETATM   26  H   UNL     1      -5.784  15.272  67.180  1.00  0.00     0.000 HD 
ENDBRANCH   9  14
ENDBRANCH   5   8
ENDBRANCH   2   3
TORSDOF 5
ENDMDL
MODEL      296
REMARK 921   NORMALIZED FREE ENERGY PREDICTED BY IDOCK:    5.69 KCAL/MOL
REMARK 922        TOTAL FREE ENERGY PREDICTED BY IDOCK:    7.24 KCAL/MOL
REMARK 923 INTER-LIGAND FREE ENERGY PREDICTED BY IDOCK:    4.12 KCAL/MOL
REMARK 924 INTRA-LIGAND FREE ENERGY PREDICTED BY IDOCK:    3.11 KCAL/MOL
REMARK 927      BINDING AFFINITY PREDICTED BY RF-SCORE:    0.00 PKD
ROOT
HETATM    1  C   UNL     1      -9.040   7.764  63.509  1.00  0.00     1.497 C  
HETATM    2  C   UNL     1      -9.996   7.753  64.696  1.00  0.00     3.793 C  
ENDROOT
BRANCH   2   3
HETATM    3  N   UNL     1      -9.386   7.255  65.938  1.00  0.00     0.031 N  
HETATM    4  O   UNL     1      -8.150   5.775  64.693  1.00  0.00    -0.123 OA 
HETATM    5  C   UNL     1      -8.487   6.186  65.809  1.00  0.00    -0.147 C  
BRANCH   3   6
HETATM    6  C   UNL     1      -9.754   7.876  67.219  1.00  0.00    -0.176 C  
HETATM    7  C   UNL     1     -11.107   7.579  67.847  1.00  0.00     0.117 C  
ENDBRANCH   3   6
BRANCH   5   8
HETATM    8  C   UNL     1      -7.892   5.495  67.007  1.00  0.00    -0.101 C  
HETATM    9  C   UNL     1      -8.141   5.966  68.253  1.00  0.00    -0.109 C  
BRANCH   8  10
HETATM   10  C   UNL     1      -7.002   4.265  66.917  1.00  0.00    -0.059 C  
HETATM   11  H2  UNL     1      -5.565   3.989  66.786  1.00  0.00     0.000 HD 
HETATM   12  N   UNL     1      -6.263   3.247  66.842  1.00  0.00    -0.027 NA 
HETATM   13  H1  UNL     1      -5.666   2.422  66.781  1.00  0.00     0.000 HD 
ENDBRANCH   8  10
BRANCH   9  14
HETATM   14  C   UNL     1      -7.634   5.338  69.498  1.00  0.00    -0.069 A  
HETATM   15  C   UNL     1      -7.503   6.081  70.684  1.00  0.00    -0.087 A  
HETATM   16  C   UNL     1      -6.948   5.493  71.840  1.00  0.00    -0.076 A  
HETATM   17  C   UNL     1      -6.543   4.155  71.828  1.00  0.00    -0.022 A  
HETATM   18  N   UNL     1      -6.802   6.295  73.057  1.00  0.00    -0.074 N  
HETATM   19  C   UNL     1      -6.690   3.425  70.648  1.00  0.00    -0.033 A  
HETATM   20  O   UNL     1      -6.280   5.751  74.045  1.00  0.00    -0.064 OA 
HETATM   21  O   UNL     1      -7.205   7.466  73.032  1.00  0.00    -0.071 OA 
HETATM   22  O   UNL     1      -5.995   3.465  72.882  1.00  0.00    -0.007 OA 
HETATM   23  H   UNL     1      -5.720   2.555  72.874  1.00  0.00     0.000 HD 
HETATM   24  O   UNL     1      -6.297   2.114  70.616  1.00  0.00    -0.022 OA 
HETATM   25  C   UNL     1      -7.221   3.999  69.493  1.00  0.00    -0.049 A  
HETATM   26  H   UNL     1      -6.397   1.617  69.813  1.00  0.00     0.000 HD 
ENDBRANCH   9  14
ENDBRANCH   5   8
ENDBRANCH   2   3
TORSDOF 5
ENDMDL
MODEL      297
REMARK 921   NORMALIZED FREE ENERGY PREDICTED BY IDOCK:   18.92 KCAL/MOL
REMARK 922        TOTAL FREE ENERGY PREDICTED BY IDOCK:   24.33 KCAL/MOL
REMARK 923 INTER-LIGAND FREE ENERGY PREDICTED BY IDOCK:   24.43 KCAL/MOL
REMARK 924 INTRA-LIGAND FREE ENERGY PREDICTED BY IDOCK:   -0.10 KCAL/MOL
REMARK 927      BINDING AFFINITY PREDICTED BY RF-SCORE:    0.00 PKD
ROOT
HETATM    1  C   UNL     1      -5.518   9.990  72.534  1.00  0.00     0.228 C  
HETATM    2  C   UNL     1      -5.339  11.501  72.451  1.00  0.00     0.632 C  
ENDROOT
BRANCH   2   3
HETATM    3  N   UNL     1      -6.020  12.112  71.299  1.00  0.00     0.498 N  
HETATM    4  O   UNL     1      -8.035  11.673  72.307  1.00  0.00    11.810 OA 
HETATM    5  C   UNL     1      -7.422  12.087  71.316  1.00  0.00     6.888 C  
BRANCH   3   6
HETATM    6  C   UNL     1      -5.216  12.687  70.211  1.00  0.00    -0.112 C  
HETATM    7  C   UNL     1      -5.131  11.976  68.870  1.00  0.00    -0.050 C  
ENDBRANCH   3   6
BRANCH   5   8
HETATM    8  C   UNL     1      -8.243  12.558  70.145  1.00  0.00     3.593 C  
HETATM    9  C   UNL     1      -8.610  13.860  70.057  1.00  0.00     2.006 C  
BRANCH   8  10
HETATM   10  C   UNL     1      -8.706  11.649  69.017  1.00  0.00     0.202 C  
HETATM   11  H2  UNL     1      -8.384  10.304  68.525  1.00  0.00     0.000 HD 
HETATM   12  N   UNL     1      -9.088  10.895  68.083  1.00  0.00    -0.149 NA 
HETATM   13  H1  UNL     1      -9.399  10.285  67.326  1.00  0.00     0.000 HD 
ENDBRANCH   8  10
BRANCH   9  14
HETATM   14  C   UNL     1      -9.385  14.433  68.929  1.00  0.00    -0.096 A  
HETATM   15  C   UNL     1      -8.779  15.292  67.995  1.00  0.00    -0.160 A  
HETATM   16  C   UNL     1      -9.544  15.890  66.971  1.00  0.00    -0.223 A  
HETATM   17  C   UNL     1     -10.910  15.618  66.858  1.00  0.00    -0.282 A  
HETATM   18  N   UNL     1      -8.893  16.798  66.023  1.00  0.00    -0.248 N  
HETATM   19  C   UNL     1     -11.497  14.754  67.784  1.00  0.00    -0.345 A  
HETATM   20  O   UNL     1      -9.606  17.330  65.156  1.00  0.00     0.252 OA 
HETATM   21  O   UNL     1      -7.674  16.984  66.141  1.00  0.00    -0.307 OA 
HETATM   22  O   UNL     1     -11.762  16.129  65.909  1.00  0.00     0.543 OA 
HETATM   23  H   UNL     1     -12.691  15.944  65.832  1.00  0.00     0.000 HD 
HETATM   24  O   UNL     1     -12.833  14.477  67.690  1.00  0.00     0.013 OA 
HETATM   25  C   UNL     1     -10.756  14.170  68.812  1.00  0.00    -0.265 A  
HETATM   26  H   UNL     1     -13.233  13.889  68.320  1.00  0.00     0.000 HD 
ENDBRANCH   9  14
ENDBRANCH   5   8
ENDBRANCH   2   3
TORSDOF 5
ENDMDL
MODEL      298
REMARK 921   NORMALIZED FREE ENERGY PREDICTED BY IDOCK:   20.03 KCAL/MOL
REMARK 922        TOTAL FREE ENERGY PREDICTED BY IDOCK:   25.77 KCAL/MOL
REMARK 923 INTER-LIGAND FREE ENERGY PREDICTED BY IDOCK:   25.53 KCAL/MOL
REMARK 924 INTRA-LIGAND FREE ENERGY PREDICTED BY IDOCK:    0.25 KCAL/MOL
REMARK 927      BINDING AFFINITY PREDICTED BY RF-SCORE:    0.00 PKD
ROOT
HETATM    1  C   UNL     1      -5.518   9.990  72.534  1.00  0.00     0.228 C  
HETATM    2  C   UNL     1      -5.335  11.501  72.453  1.00  0.00     0.632 C  
ENDROOT
BRANCH   2   3
HETATM    3  N   UNL     1      -6.015  12.115  71.301  1.00  0.00     0.498 N  
HETATM    4  O   UNL     1      -8.031  11.679  72.308  1.00  0.00    11.810 OA 
HETATM    5  C   UNL     1      -7.417  12.093  71.318  1.00  0.00     7.031 C  
BRANCH   3   6
HETATM    6  C   UNL     1      -5.209  12.689  70.214  1.00  0.00    -0.112 C  
HETATM    7  C   UNL     1      -5.125  11.978  68.872  1.00  0.00    -0.050 C  
ENDBRANCH   3   6
BRANCH   5   8
HETATM    8  C   UNL     1      -8.237  12.567  70.147  1.00  0.00     3.593 C  
HETATM    9  C   UNL     1      -8.600  13.870  70.061  1.00  0.00     2.006 C  
BRANCH   8  10
HETATM   10  C   UNL     1      -8.701  11.661  69.018  1.00  0.00     0.202 C  
HETATM   11  H2  UNL     1      -8.383  10.315  68.525  1.00  0.00     0.000 HD 
HETATM   12  N   UNL     1      -9.085  10.908  68.083  1.00  0.00    -0.149 NA 
HETATM   13  H1  UNL     1      -9.397  10.300  67.326  1.00  0.00     0.000 HD 
ENDBRANCH   8  10
BRANCH   9  14
HETATM   14  C   UNL     1      -9.373  14.446  68.932  1.00  0.00    -0.096 A  
HETATM   15  C   UNL     1     -10.634  13.932  68.581  1.00  0.00    -0.265 A  
HETATM   16  C   UNL     1     -11.326  14.436  67.460  1.00  0.00    -0.328 A  
HETATM   17  C   UNL     1     -10.776  15.469  66.696  1.00  0.00    -0.306 A  
HETATM   18  N   UNL     1     -12.629  13.870  67.102  1.00  0.00    -0.026 N  
HETATM   19  C   UNL     1      -9.529  15.978  67.062  1.00  0.00    -0.218 A  
HETATM   20  O   UNL     1     -13.192  14.318  66.090  1.00  0.00     0.021 OA 
HETATM   21  O   UNL     1     -13.093  12.979  67.827  1.00  0.00     1.539 OA 
HETATM   22  O   UNL     1     -11.346  16.050  65.588  1.00  0.00    -0.016 OA 
HETATM   23  H   UNL     1     -10.973  16.753  65.069  1.00  0.00     0.000 HD 
HETATM   24  O   UNL     1      -8.974  16.989  66.325  1.00  0.00    -0.300 OA 
HETATM   25  C   UNL     1      -8.827  15.477  68.158  1.00  0.00    -0.169 A  
HETATM   26  H   UNL     1      -8.126  17.336  66.574  1.00  0.00     0.000 HD 
ENDBRANCH   9  14
ENDBRANCH   5   8
ENDBRANCH   2   3
TORSDOF 5
ENDMDL
MODEL      299
REMARK 921   NORMALIZED FREE ENERGY PREDICTED BY IDOCK:   24.30 KCAL/MOL
REMARK 922        TOTAL FREE ENERGY PREDICTED BY IDOCK:   31.28 KCAL/MOL
REMARK 923 INTER-LIGAND FREE ENERGY PREDICTED BY IDOCK:   26.60 KCAL/MOL
REMARK 924 INTRA-LIGAND FREE ENERGY PREDICTED BY IDOCK:    4.68 KCAL/MOL
REMARK 927      BINDING AFFINITY PREDICTED BY RF-SCORE:    0.00 PKD
ROOT
HETATM    1  C   UNL     1      -5.969  17.728  73.958  1.00  0.00     9.737 C  
HETATM    2  C   UNL     1      -5.226  17.914  72.642  1.00  0.00     2.903 C  
ENDROOT
BRANCH   2   3
HETATM    3  N   UNL     1      -5.894  17.282  71.493  1.00  0.00     0.947 N  
HETATM    4  O   UNL     1      -7.778  18.506  71.965  1.00  0.00     6.981 OA 
HETATM    5  C   UNL     1      -7.237  17.628  71.282  1.00  0.00     5.429 C  
BRANCH   3   6
HETATM    6  C   UNL     1      -5.144  16.332  70.659  1.00  0.00    -0.198 C  
HETATM    7  C   UNL     1      -5.871  15.197  69.956  1.00  0.00    -0.136 C  
ENDBRANCH   3   6
BRANCH   5   8
HETATM    8  C   UNL     1      -8.077  16.960  70.227  1.00  0.00     2.581 C  
HETATM    9  C   UNL     1      -7.481  16.382  69.155  1.00  0.00    -0.228 C  
BRANCH   8  10
HETATM   10  C   UNL     1      -9.595  16.885  70.278  1.00  0.00     1.743 C  
HETATM   11  H2  UNL     1     -10.671  17.487  71.075  1.00  0.00     0.000 HD 
HETATM   12  N   UNL     1     -10.853  16.823  70.321  1.00  0.00    -0.282 NA 
HETATM   13  H1  UNL     1     -11.871  16.773  70.355  1.00  0.00     0.000 HD 
ENDBRANCH   8  10
BRANCH   9  14
HETATM   14  C   UNL     1      -8.214  15.667  68.081  1.00  0.00    -0.144 A  
HETATM   15  C   UNL     1      -8.930  16.373  67.098  1.00  0.00    -0.218 A  
HETATM   16  C   UNL     1      -9.685  15.682  66.127  1.00  0.00    -0.318 A  
HETATM   17  C   UNL     1      -9.714  14.285  66.116  1.00  0.00    -0.303 A  
HETATM   18  N   UNL     1     -10.440  16.441  65.127  1.00  0.00    -0.276 N  
HETATM   19  C   UNL     1      -8.989  13.595  67.090  1.00  0.00    -0.231 A  
HETATM   20  O   UNL     1     -11.118  15.797  64.309  1.00  0.00    -0.353 OA 
HETATM   21  O   UNL     1     -10.358  17.677  65.154  1.00  0.00    -0.390 OA 
HETATM   22  O   UNL     1     -10.402  13.495  65.227  1.00  0.00    -0.310 OA 
HETATM   23  H   UNL     1     -10.421  12.545  65.219  1.00  0.00     0.000 HD 
HETATM   24  O   UNL     1      -9.006  12.227  67.097  1.00  0.00    -0.178 OA 
HETATM   25  C   UNL     1      -8.252  14.267  68.066  1.00  0.00    -0.153 A  
HETATM   26  H   UNL     1      -8.513  11.758  67.759  1.00  0.00     0.000 HD 
ENDBRANCH   9  14
ENDBRANCH   5   8
ENDBRANCH   2   3
TORSDOF 5
ENDMDL
MODEL      300
REMARK 921   NORMALIZED FREE ENERGY PREDICTED BY IDOCK:   24.53 KCAL/MOL
REMARK 922        TOTAL FREE ENERGY PREDICTED BY IDOCK:   31.59 KCAL/MOL
REMARK 923 INTER-LIGAND FREE ENERGY PREDICTED BY IDOCK:   27.06 KCAL/MOL
REMARK 924 INTRA-LIGAND FREE ENERGY PREDICTED BY IDOCK:    4.52 KCAL/MOL
REMARK 927      BINDING AFFINITY PREDICTED BY RF-SCORE:    0.00 PKD
ROOT
HETATM    1  C   UNL     1      -5.969  17.728  73.958  1.00  0.00     9.737 C  
HETATM    2  C   UNL     1      -5.226  17.914  72.642  1.00  0.00     2.903 C  
ENDROOT
BRANCH   2   3
HETATM    3  N   UNL     1      -5.894  17.282  71.493  1.00  0.00     0.947 N  
HETATM    4  O   UNL     1      -7.778  18.506  71.965  1.00  0.00     6.981 OA 
HETATM    5  C   UNL     1      -7.237  17.628  71.282  1.00  0.00     5.429 C  
BRANCH   3   6
HETATM    6  C   UNL     1      -5.144  16.332  70.659  1.00  0.00    -0.198 C  
HETATM    7  C   UNL     1      -5.871  15.197  69.956  1.00  0.00    -0.136 C  
ENDBRANCH   3   6
BRANCH   5   8
HETATM    8  C   UNL     1      -8.077  16.960  70.227  1.00  0.00     2.581 C  
HETATM    9  C   UNL     1      -7.481  16.382  69.155  1.00  0.00    -0.228 C  
BRANCH   8  10
HETATM   10  C   UNL     1      -9.595  16.885  70.278  1.00  0.00     1.743 C  
HETATM   11  H2  UNL     1     -10.671  17.487  71.075  1.00  0.00     0.000 HD 
HETATM   12  N   UNL     1     -10.853  16.823  70.321  1.00  0.00    -0.282 NA 
HETATM   13  H1  UNL     1     -11.871  16.773  70.355  1.00  0.00     0.000 HD 
ENDBRANCH   8  10
BRANCH   9  14
HETATM   14  C   UNL     1      -8.214  15.667  68.081  1.00  0.00    -0.144 A  
HETATM   15  C   UNL     1      -8.364  14.269  68.111  1.00  0.00    -0.162 A  
HETATM   16  C   UNL     1      -8.996  13.594  67.046  1.00  0.00    -0.236 A  
HETATM   17  C   UNL     1      -9.502  14.308  65.957  1.00  0.00    -0.182 A  
HETATM   18  N   UNL     1      -9.121  12.135  67.091  1.00  0.00    -0.183 N  
HETATM   19  C   UNL     1      -9.357  15.696  65.944  1.00  0.00    -0.321 A  
HETATM   20  O   UNL     1      -9.655  11.573  66.121  1.00  0.00    -0.211 OA 
HETATM   21  O   UNL     1      -8.688  11.546  68.092  1.00  0.00    -0.144 OA 
HETATM   22  O   UNL     1     -10.140  13.773  64.863  1.00  0.00    -0.551 OA 
HETATM   23  H   UNL     1     -10.484  14.259  64.122  1.00  0.00     0.000 HD 
HETATM   24  O   UNL     1      -9.845  16.412  64.885  1.00  0.00    -0.056 OA 
HETATM   25  C   UNL     1      -8.719  16.375  66.982  1.00  0.00    -0.224 A  
HETATM   26  H   UNL     1      -9.747  17.357  64.876  1.00  0.00     0.000 HD 
ENDBRANCH   9  14
ENDBRANCH   5   8
ENDBRANCH   2   3
TORSDOF 5
ENDMDL
MODEL      301
REMARK 921   NORMALIZED FREE ENERGY PREDICTED BY IDOCK:   26.88 KCAL/MOL
REMARK 922        TOTAL FREE ENERGY PREDICTED BY IDOCK:   34.63 KCAL/MOL
REMARK 923 INTER-LIGAND FREE ENERGY PREDICTED BY IDOCK:   34.06 KCAL/MOL
REMARK 924 INTRA-LIGAND FREE ENERGY PREDICTED BY IDOCK:    0.57 KCAL/MOL
REMARK 927      BINDING AFFINITY PREDICTED BY RF-SCORE:    0.00 PKD
ROOT
HETATM    1  C   UNL     1      -8.239  18.604  72.654  1.00  0.00    10.452 C  
HETATM    2  C   UNL     1      -9.014  17.294  72.594  1.00  0.00    15.472 C  
ENDROOT
BRANCH   2   3
HETATM    3  N   UNL     1      -9.140  16.746  71.235  1.00  0.00     5.945 N  
HETATM    4  O   UNL     1     -11.281  16.091  71.738  1.00  0.00    -0.244 OA 
HETATM    5  C   UNL     1     -10.343  16.093  70.932  1.00  0.00     0.910 C  
BRANCH   3   6
HETATM    6  C   UNL     1      -8.018  16.892  70.295  1.00  0.00     2.500 C  
HETATM    7  C   UNL     1      -6.619  16.463  70.708  1.00  0.00     1.438 C  
ENDBRANCH   3   6
BRANCH   5   8
HETATM    8  C   UNL     1     -10.555  15.374  69.626  1.00  0.00    -0.285 C  
HETATM    9  C   UNL     1      -9.546  15.301  68.724  1.00  0.00    -0.214 C  
BRANCH   8  10
HETATM   10  C   UNL     1     -11.862  14.702  69.234  1.00  0.00    -0.321 C  
HETATM   11  H2  UNL     1     -12.367  13.328  69.118  1.00  0.00     0.000 HD 
HETATM   12  N   UNL     1     -12.944  14.144  68.910  1.00  0.00     0.479 NA 
HETATM   13  H1  UNL     1     -13.820  13.692  68.647  1.00  0.00     0.000 HD 
ENDBRANCH   8  10
BRANCH   9  14
HETATM   14  C   UNL     1      -9.640  14.586  67.427  1.00  0.00    -0.212 A  
HETATM   15  C   UNL     1      -9.207  13.254  67.300  1.00  0.00    -0.222 A  
HETATM   16  C   UNL     1      -9.230  12.610  66.045  1.00  0.00     0.020 A  
HETATM   17  C   UNL     1      -9.706  13.280  64.915  1.00  0.00     0.128 A  
HETATM   18  N   UNL     1      -8.754  11.229  65.935  1.00  0.00    -0.178 N  
HETATM   19  C   UNL     1     -10.143  14.598  65.056  1.00  0.00    -0.282 A  
HETATM   20  O   UNL     1      -8.760  10.707  64.809  1.00  0.00    -0.184 OA 
HETATM   21  O   UNL     1      -8.373  10.663  66.970  1.00  0.00    -0.123 OA 
HETATM   22  O   UNL     1      -9.785  12.768  63.642  1.00  0.00    -0.655 OA 
HETATM   23  H   UNL     1     -10.108  13.224  62.874  1.00  0.00     0.000 HD 
HETATM   24  O   UNL     1     -10.611  15.271  63.961  1.00  0.00    -0.071 OA 
HETATM   25  C   UNL     1     -10.110  15.253  66.288  1.00  0.00    -0.297 A  
HETATM   26  H   UNL     1     -10.909  16.168  64.056  1.00  0.00     0.000 HD 
ENDBRANCH   9  14
ENDBRANCH   5   8
ENDBRANCH   2   3
TORSDOF 5
ENDMDL
MODEL      302
REMARK 921   NORMALIZED FREE ENERGY PREDICTED BY IDOCK:   35.36 KCAL/MOL
REMARK 922        TOTAL FREE ENERGY PREDICTED BY IDOCK:   45.58 KCAL/MOL
REMARK 923 INTER-LIGAND FREE ENERGY PREDICTED BY IDOCK:   36.06 KCAL/MOL
REMARK 924 INTRA-LIGAND FREE ENERGY PREDICTED BY IDOCK:    9.52 KCAL/MOL
REMARK 927      BINDING AFFINITY PREDICTED BY RF-SCORE:    0.00 PKD
ROOT
HETATM    1  C   UNL     1     -11.409  17.552  72.406  1.00  0.00     1.770 C  
HETATM    2  C   UNL     1     -11.697  16.324  71.551  1.00  0.00    -0.403 C  
ENDROOT
BRANCH   2   3
HETATM    3  N   UNL     1     -10.587  15.359  71.514  1.00  0.00     0.242 N  
HETATM    4  O   UNL     1     -10.997  15.031  69.280  1.00  0.00    -0.241 OA 
HETATM    5  C   UNL     1     -10.361  14.710  70.291  1.00  0.00     0.394 C  
BRANCH   3   6
HETATM    6  C   UNL     1      -9.804  15.118  72.735  1.00  0.00     5.611 C  
HETATM    7  C   UNL     1      -8.747  14.025  72.758  1.00  0.00    10.820 C  
ENDBRANCH   3   6
BRANCH   5   8
HETATM    8  C   UNL     1      -9.347  13.608  70.147  1.00  0.00     2.904 C  
HETATM    9  C   UNL     1      -9.359  12.817  69.046  1.00  0.00     0.458 C  
BRANCH   8  10
HETATM   10  C   UNL     1      -8.273  13.308  71.181  1.00  0.00     8.564 C  
HETATM   11  H2  UNL     1      -7.369  14.081  72.043  1.00  0.00     0.000 HD 
HETATM   12  N   UNL     1      -7.382  13.061  72.038  1.00  0.00     6.245 NA 
HETATM   13  H1  UNL     1      -6.662  12.860  72.732  1.00  0.00     0.000 HD 
ENDBRANCH   8  10
BRANCH   9  14
HETATM   14  C   UNL     1      -8.382  11.730  68.791  1.00  0.00    -0.010 A  
HETATM   15  C   UNL     1      -8.391  11.017  67.579  1.00  0.00    -0.118 A  
HETATM   16  C   UNL     1      -7.508   9.935  67.379  1.00  0.00    -0.091 A  
HETATM   17  C   UNL     1      -6.596   9.572  68.374  1.00  0.00    -0.053 A  
HETATM   18  N   UNL     1      -7.550   9.195  66.115  1.00  0.00    -0.095 N  
HETATM   19  C   UNL     1      -6.590  10.295  69.568  1.00  0.00    -0.066 A  
HETATM   20  O   UNL     1      -6.779   8.230  65.989  1.00  0.00    -0.056 OA 
HETATM   21  O   UNL     1      -8.351   9.573  65.248  1.00  0.00    -0.126 OA 
HETATM   22  O   UNL     1      -5.684   8.547  68.303  1.00  0.00    -0.037 OA 
HETATM   23  H   UNL     1      -5.064   8.301  68.980  1.00  0.00     0.000 HD 
HETATM   24  O   UNL     1      -5.706   9.954  70.555  1.00  0.00    -0.047 OA 
HETATM   25  C   UNL     1      -7.470  11.356  69.786  1.00  0.00     0.400 A  
HETATM   26  H   UNL     1      -5.701  10.446  71.368  1.00  0.00     0.000 HD 
ENDBRANCH   9  14
ENDBRANCH   5   8
ENDBRANCH   2   3
TORSDOF 5
ENDMDL
MODEL      303
REMARK 921   NORMALIZED FREE ENERGY PREDICTED BY IDOCK:   45.44 KCAL/MOL
REMARK 922        TOTAL FREE ENERGY PREDICTED BY IDOCK:   58.60 KCAL/MOL
REMARK 923 INTER-LIGAND FREE ENERGY PREDICTED BY IDOCK:   55.71 KCAL/MOL
REMARK 924 INTRA-LIGAND FREE ENERGY PREDICTED BY IDOCK:    2.89 KCAL/MOL
REMARK 927      BINDING AFFINITY PREDICTED BY RF-SCORE:    0.00 PKD
ROOT
HETATM    1  C   UNL     1     -14.361  17.405  70.353  1.00  0.00    14.684 C  
HETATM    2  C   UNL     1     -14.024  16.282  69.380  1.00  0.00     5.277 C  
ENDROOT
BRANCH   2   3
HETATM    3  N   UNL     1     -12.797  16.523  68.605  1.00  0.00     2.216 N  
HETATM    4  O   UNL     1     -11.563  15.951  70.454  1.00  0.00    -0.328 OA 
HETATM    5  C   UNL     1     -11.583  16.374  69.292  1.00  0.00    -0.084 C  
BRANCH   3   6
HETATM    6  C   UNL     1     -12.905  16.913  67.191  1.00  0.00     5.304 C  
HETATM    7  C   UNL     1     -12.235  18.187  66.700  1.00  0.00     4.614 C  
ENDBRANCH   3   6
BRANCH   5   8
HETATM    8  C   UNL     1     -10.261  16.715  68.659  1.00  0.00    -0.284 C  
HETATM    9  C   UNL     1     -10.226  17.428  67.506  1.00  0.00    -0.332 C  
BRANCH   8  10
HETATM   10  C   UNL     1      -8.916  16.304  69.238  1.00  0.00    -0.170 C  
HETATM   11  H2  UNL     1      -8.431  15.366  70.259  1.00  0.00     0.000 HD 
HETATM   12  N   UNL     1      -7.803  15.962  69.719  1.00  0.00     0.035 NA 
HETATM   13  H1  UNL     1      -6.901  15.686  70.108  1.00  0.00     0.000 HD 
ENDBRANCH   8  10
BRANCH   9  14
HETATM   14  C   UNL     1      -8.977  17.846  66.823  1.00  0.00    -0.272 A  
HETATM   15  C   UNL     1      -8.258  16.949  66.015  1.00  0.00    -0.178 A  
HETATM   16  C   UNL     1      -7.032  17.336  65.433  1.00  0.00     1.229 A  
HETATM   17  C   UNL     1      -6.528  18.623  65.634  1.00  0.00    -0.276 A  
HETATM   18  N   UNL     1      -6.290  16.376  64.611  1.00  0.00     7.777 N  
HETATM   19  C   UNL     1      -7.258  19.508  66.430  1.00  0.00    -0.241 A  
HETATM   20  O   UNL     1      -5.201  16.742  64.142  1.00  0.00     3.435 OA 
HETATM   21  O   UNL     1      -6.792  15.257  64.432  1.00  0.00    14.030 OA 
HETATM   22  O   UNL     1      -5.354  19.123  65.123  1.00  0.00    -0.156 OA 
HETATM   23  H   UNL     1      -5.012  19.999  65.259  1.00  0.00     0.000 HD 
HETATM   24  O   UNL     1      -6.779  20.773  66.640  1.00  0.00    -0.260 OA 
HETATM   25  C   UNL     1      -8.462  19.133  67.025  1.00  0.00    -0.304 A  
HETATM   26  H   UNL     1      -7.276  21.375  67.181  1.00  0.00     0.000 HD 
ENDBRANCH   9  14
ENDBRANCH   5   8
ENDBRANCH   2   3
TORSDOF 5
ENDMDL
