MODEL        1
REMARK 921   NORMALIZED FREE ENERGY PREDICTED BY IDOCK:   -7.49 KCAL/MOL
REMARK 922        TOTAL FREE ENERGY PREDICTED BY IDOCK:   -8.70 KCAL/MOL
REMARK 923 INTER-LIGAND FREE ENERGY PREDICTED BY IDOCK:   -8.36 KCAL/MOL
REMARK 924 INTRA-LIGAND FREE ENERGY PREDICTED BY IDOCK:   -0.34 KCAL/MOL
REMARK 927      BINDING AFFINITY PREDICTED BY RF-SCORE:    0.00 PKD
ROOT
HETATM    1  N   UNL     1     -12.344  13.952  63.327  1.00  0.00    -1.148 NA 
HETATM    2  C   UNL     1     -11.999  13.939  64.640  1.00  0.00    -0.419 C  
HETATM    3  H2  UNL     1     -12.762  13.122  62.907  1.00  0.00     0.000 HD 
HETATM    4  H1  UNL     1     -12.189  14.782  62.754  1.00  0.00     0.000 HD 
HETATM    5  N   UNL     1     -12.196  12.881  65.369  1.00  0.00    -0.457 N  
HETATM    6  C   UNL     1     -11.811  12.880  66.720  1.00  0.00    -0.385 C  
HETATM    7  H   UNL     1     -12.631  12.054  64.962  1.00  0.00     0.000 HD 
HETATM    8  C   UNL     1     -11.159  14.114  67.188  1.00  0.00    -0.307 A  
HETATM    9  O   UNL     1     -12.009  11.921  67.458  1.00  0.00    -0.586 OA 
HETATM   10  C   UNL     1     -11.015  15.164  66.322  1.00  0.00    -0.335 A  
HETATM   11  N   UNL     1     -11.447  15.121  65.054  1.00  0.00    -0.361 NA 
HETATM   12  N   UNL     1     -10.396  16.166  67.001  1.00  0.00    -0.287 NA 
HETATM   13  N   UNL     1     -10.618  14.442  68.411  1.00  0.00    -0.241 NA 
HETATM   14  C   UNL     1     -10.171  15.679  68.266  1.00  0.00    -0.223 A  
ENDROOT
BRANCH  12  15
HETATM   15  C   UNL     1     -10.146  17.502  66.507  1.00  0.00    -0.331 C  
HETATM   16  C   UNL     1     -10.783  18.616  67.338  1.00  0.00    -0.456 C  
HETATM   17  C   UNL     1     -10.151  19.860  66.728  1.00  0.00    -0.459 C  
HETATM   18  O   UNL     1     -10.799  20.127  65.479  1.00  0.00    -0.323 OA 
HETATM   19  C   UNL     1      -8.674  19.477  66.466  1.00  0.00    -0.388 C  
HETATM   20  C   UNL     1      -8.705  17.949  66.389  1.00  0.00    -0.249 C  
HETATM   21  H   UNL     1     -10.405  20.903  65.098  1.00  0.00     0.000 HD 
HETATM   22  C   UNL     1      -7.622  17.166  66.248  1.00  0.00    -0.352 C  
BRANCH  19  23
HETATM   23  C   UNL     1      -7.751  20.029  67.559  1.00  0.00    -0.298 C  
HETATM   24  O   UNL     1      -7.350  21.366  67.284  1.00  0.00    -0.759 OA 
HETATM   25  H   UNL     1      -6.779  21.707  67.962  1.00  0.00     0.000 HD 
ENDBRANCH  19  23
ENDBRANCH  12  15
TORSDOF 2
ENDMDL
MODEL        2
REMARK 921   NORMALIZED FREE ENERGY PREDICTED BY IDOCK:   -7.38 KCAL/MOL
REMARK 922        TOTAL FREE ENERGY PREDICTED BY IDOCK:   -8.58 KCAL/MOL
REMARK 923 INTER-LIGAND FREE ENERGY PREDICTED BY IDOCK:   -8.47 KCAL/MOL
REMARK 924 INTRA-LIGAND FREE ENERGY PREDICTED BY IDOCK:   -0.11 KCAL/MOL
REMARK 927      BINDING AFFINITY PREDICTED BY RF-SCORE:    0.00 PKD
ROOT
HETATM    1  N   UNL     1     -11.640  16.414  63.843  1.00  0.00    -1.602 NA 
HETATM    2  C   UNL     1     -11.797  15.165  64.352  1.00  0.00    -0.305 C  
HETATM    3  H2  UNL     1     -12.045  16.641  62.935  1.00  0.00     0.000 HD 
HETATM    4  H1  UNL     1     -11.123  17.127  64.357  1.00  0.00     0.000 HD 
HETATM    5  N   UNL     1     -12.455  14.256  63.697  1.00  0.00    -1.083 N  
HETATM    6  C   UNL     1     -12.584  12.963  64.230  1.00  0.00    -0.286 C  
HETATM    7  H   UNL     1     -12.878  14.481  62.797  1.00  0.00     0.000 HD 
HETATM    8  C   UNL     1     -11.901  12.742  65.515  1.00  0.00    -0.422 A  
HETATM    9  O   UNL     1     -13.227  12.082  63.668  1.00  0.00    -0.737 OA 
HETATM   10  C   UNL     1     -11.243  13.785  66.110  1.00  0.00    -0.300 A  
HETATM   11  N   UNL     1     -11.195  15.011  65.572  1.00  0.00    -0.350 NA 
HETATM   12  N   UNL     1     -10.713  13.318  67.271  1.00  0.00    -0.254 NA 
HETATM   13  N   UNL     1     -11.774  11.611  66.289  1.00  0.00    -0.406 NA 
HETATM   14  C   UNL     1     -11.058  11.989  67.335  1.00  0.00    -0.281 A  
ENDROOT
BRANCH  12  15
HETATM   15  C   UNL     1     -10.030  14.107  68.274  1.00  0.00    -0.241 C  
HETATM   16  C   UNL     1      -8.767  14.808  67.777  1.00  0.00    -0.173 C  
HETATM   17  C   UNL     1      -8.434  15.721  68.950  1.00  0.00    -0.218 C  
HETATM   18  O   UNL     1      -7.845  14.925  69.985  1.00  0.00    -0.380 OA 
HETATM   19  C   UNL     1      -9.799  16.265  69.439  1.00  0.00    -0.217 C  
HETATM   20  C   UNL     1     -10.805  15.228  68.932  1.00  0.00    -0.247 C  
HETATM   21  H   UNL     1      -7.638  15.494  70.717  1.00  0.00     0.000 HD 
HETATM   22  C   UNL     1     -12.139  15.327  69.059  1.00  0.00    -0.244 C  
BRANCH  19  23
HETATM   23  C   UNL     1     -10.052  17.685  68.921  1.00  0.00    -0.351 C  
HETATM   24  O   UNL     1     -10.628  17.677  67.620  1.00  0.00    -0.369 OA 
HETATM   25  H   UNL     1     -10.786  18.558  67.300  1.00  0.00     0.000 HD 
ENDBRANCH  19  23
ENDBRANCH  12  15
TORSDOF 2
ENDMDL
MODEL        3
REMARK 921   NORMALIZED FREE ENERGY PREDICTED BY IDOCK:   -7.34 KCAL/MOL
REMARK 922        TOTAL FREE ENERGY PREDICTED BY IDOCK:   -8.54 KCAL/MOL
REMARK 923 INTER-LIGAND FREE ENERGY PREDICTED BY IDOCK:   -8.53 KCAL/MOL
REMARK 924 INTRA-LIGAND FREE ENERGY PREDICTED BY IDOCK:   -0.01 KCAL/MOL
REMARK 927      BINDING AFFINITY PREDICTED BY RF-SCORE:    0.00 PKD
ROOT
HETATM    1  N   UNL     1     -12.828  15.339  69.977  1.00  0.00    -0.643 NA 
HETATM    2  C   UNL     1     -12.492  14.030  69.848  1.00  0.00    -0.246 C  
HETATM    3  H2  UNL     1     -13.105  15.699  70.890  1.00  0.00     0.000 HD 
HETATM    4  H1  UNL     1     -12.807  15.967  69.173  1.00  0.00     0.000 HD 
HETATM    5  N   UNL     1     -12.519  13.231  70.872  1.00  0.00    -0.366 N  
HETATM    6  C   UNL     1     -12.191  11.875  70.712  1.00  0.00    -0.303 C  
HETATM    7  H   UNL     1     -12.778  13.588  71.791  1.00  0.00     0.000 HD 
HETATM    8  C   UNL     1     -11.872  11.464  69.335  1.00  0.00    -0.351 A  
HETATM    9  O   UNL     1     -12.166  11.090  71.654  1.00  0.00    -0.186 OA 
HETATM   10  C   UNL     1     -11.871  12.405  68.340  1.00  0.00    -0.309 A  
HETATM   11  N   UNL     1     -12.148  13.696  68.565  1.00  0.00    -0.350 NA 
HETATM   12  N   UNL     1     -11.542  11.770  67.184  1.00  0.00    -0.544 NA 
HETATM   13  N   UNL     1     -11.560  10.231  68.808  1.00  0.00    -0.124 NA 
HETATM   14  C   UNL     1     -11.367  10.448  67.518  1.00  0.00    -0.031 A  
ENDROOT
BRANCH  12  15
HETATM   15  C   UNL     1     -11.314  12.399  65.901  1.00  0.00    -0.356 C  
HETATM   16  C   UNL     1     -12.562  13.007  65.263  1.00  0.00    -0.516 C  
HETATM   17  C   UNL     1     -11.969  13.781  64.093  1.00  0.00    -0.432 C  
HETATM   18  O   UNL     1     -11.633  12.846  63.061  1.00  0.00    -0.804 OA 
HETATM   19  C   UNL     1     -10.672  14.419  64.646  1.00  0.00    -0.357 C  
HETATM   20  C   UNL     1     -10.316  13.536  65.844  1.00  0.00    -0.301 C  
HETATM   21  H   UNL     1     -11.263  13.329  62.331  1.00  0.00     0.000 HD 
HETATM   22  C   UNL     1      -9.293  13.759  66.686  1.00  0.00    -0.277 C  
BRANCH  19  23
HETATM   23  C   UNL     1     -10.882  15.896  65.000  1.00  0.00    -0.426 C  
HETATM   24  O   UNL     1     -11.486  16.613  63.930  1.00  0.00    -1.604 OA 
HETATM   25  H   UNL     1     -11.616  17.528  64.150  1.00  0.00     0.000 HD 
ENDBRANCH  19  23
ENDBRANCH  12  15
TORSDOF 2
ENDMDL
MODEL        4
REMARK 921   NORMALIZED FREE ENERGY PREDICTED BY IDOCK:   -7.19 KCAL/MOL
REMARK 922        TOTAL FREE ENERGY PREDICTED BY IDOCK:   -8.37 KCAL/MOL
REMARK 923 INTER-LIGAND FREE ENERGY PREDICTED BY IDOCK:   -8.54 KCAL/MOL
REMARK 924 INTRA-LIGAND FREE ENERGY PREDICTED BY IDOCK:    0.17 KCAL/MOL
REMARK 927      BINDING AFFINITY PREDICTED BY RF-SCORE:    0.00 PKD
ROOT
HETATM    1  N   UNL     1     -12.011  10.077  70.290  1.00  0.00    -0.417 NA 
HETATM    2  C   UNL     1     -12.286  11.384  70.533  1.00  0.00    -0.386 C  
HETATM    3  H2  UNL     1     -12.323   9.366  70.951  1.00  0.00     0.000 HD 
HETATM    4  H1  UNL     1     -11.496   9.797  69.455  1.00  0.00     0.000 HD 
HETATM    5  N   UNL     1     -12.942  11.740  71.598  1.00  0.00    -0.416 N  
HETATM    6  C   UNL     1     -13.194  13.100  71.843  1.00  0.00    -0.431 C  
HETATM    7  H   UNL     1     -13.273  11.034  72.253  1.00  0.00     0.000 HD 
HETATM    8  C   UNL     1     -12.636  14.032  70.849  1.00  0.00    -0.361 A  
HETATM    9  O   UNL     1     -13.841  13.483  72.812  1.00  0.00    -0.730 OA 
HETATM   10  C   UNL     1     -11.968  13.531  69.764  1.00  0.00    -0.340 A  
HETATM   11  N   UNL     1     -11.799  12.217  69.562  1.00  0.00    -0.322 NA 
HETATM   12  N   UNL     1     -11.567  14.590  69.012  1.00  0.00    -0.281 NA 
HETATM   13  N   UNL     1     -12.645  15.407  70.795  1.00  0.00    -0.412 NA 
HETATM   14  C   UNL     1     -11.997  15.710  69.682  1.00  0.00    -0.349 A  
ENDROOT
BRANCH  12  15
HETATM   15  C   UNL     1     -10.924  14.521  67.718  1.00  0.00    -0.275 C  
HETATM   16  C   UNL     1     -11.833  14.048  66.584  1.00  0.00    -0.443 C  
HETATM   17  C   UNL     1     -10.967  14.314  65.359  1.00  0.00    -0.333 C  
HETATM   18  O   UNL     1      -9.972  13.287  65.281  1.00  0.00    -0.449 OA 
HETATM   19  C   UNL     1     -10.278  15.672  65.638  1.00  0.00    -0.402 C  
HETATM   20  C   UNL     1     -10.324  15.795  67.163  1.00  0.00    -0.291 C  
HETATM   21  H   UNL     1      -9.432  13.453  64.517  1.00  0.00     0.000 HD 
HETATM   22  C   UNL     1      -9.903  16.864  67.860  1.00  0.00    -0.263 C  
BRANCH  19  23
HETATM   23  C   UNL     1     -10.980  16.817  64.898  1.00  0.00    -0.087 C  
HETATM   24  O   UNL     1     -11.743  16.342  63.796  1.00  0.00    -1.553 OA 
HETATM   25  H   UNL     1     -12.178  17.053  63.338  1.00  0.00     0.000 HD 
ENDBRANCH  19  23
ENDBRANCH  12  15
TORSDOF 2
ENDMDL
MODEL        5
REMARK 921   NORMALIZED FREE ENERGY PREDICTED BY IDOCK:   -7.19 KCAL/MOL
REMARK 922        TOTAL FREE ENERGY PREDICTED BY IDOCK:   -8.37 KCAL/MOL
REMARK 923 INTER-LIGAND FREE ENERGY PREDICTED BY IDOCK:   -8.32 KCAL/MOL
REMARK 924 INTRA-LIGAND FREE ENERGY PREDICTED BY IDOCK:   -0.05 KCAL/MOL
REMARK 927      BINDING AFFINITY PREDICTED BY RF-SCORE:    0.00 PKD
ROOT
HETATM    1  N   UNL     1     -13.650  15.280  72.575  1.00  0.00    -0.464 NA 
HETATM    2  C   UNL     1     -13.095  14.682  71.490  1.00  0.00    -0.348 C  
HETATM    3  H2  UNL     1     -13.790  16.290  72.576  1.00  0.00     0.000 HD 
HETATM    4  H1  UNL     1     -13.929  14.732  73.389  1.00  0.00     0.000 HD 
HETATM    5  N   UNL     1     -12.740  15.381  70.453  1.00  0.00    -0.586 N  
HETATM    6  C   UNL     1     -12.145  14.746  69.351  1.00  0.00    -0.270 C  
HETATM    7  H   UNL     1     -12.894  16.388  70.440  1.00  0.00     0.000 HD 
HETATM    8  C   UNL     1     -11.938  13.296  69.497  1.00  0.00    -0.307 A  
HETATM    9  O   UNL     1     -11.828  15.355  68.335  1.00  0.00    -0.347 OA 
HETATM   10  C   UNL     1     -12.363  12.672  70.639  1.00  0.00    -0.290 A  
HETATM   11  N   UNL     1     -12.968  13.327  71.640  1.00  0.00    -0.371 NA 
HETATM   12  N   UNL     1     -12.059  11.352  70.516  1.00  0.00    -0.379 NA 
HETATM   13  N   UNL     1     -11.350  12.377  68.657  1.00  0.00    -0.264 NA 
HETATM   14  C   UNL     1     -11.440  11.222  69.297  1.00  0.00    -0.301 A  
ENDROOT
BRANCH  12  15
HETATM   15  C   UNL     1     -12.428  10.303  71.441  1.00  0.00    -0.424 C  
HETATM   16  C   UNL     1     -13.724   9.574  71.088  1.00  0.00    -0.161 C  
HETATM   17  C   UNL     1     -13.705   8.411  72.071  1.00  0.00    -0.374 C  
HETATM   18  O   UNL     1     -14.083   8.907  73.361  1.00  0.00    -1.256 OA 
HETATM   19  C   UNL     1     -12.230   7.942  72.116  1.00  0.00    -0.353 C  
HETATM   20  C   UNL     1     -11.446   9.170  71.647  1.00  0.00    -0.451 C  
HETATM   21  H   UNL     1     -14.071   8.182  73.974  1.00  0.00     0.000 HD 
HETATM   22  C   UNL     1     -10.117   9.204  71.454  1.00  0.00    -0.392 C  
BRANCH  19  23
HETATM   23  C   UNL     1     -12.013   6.695  71.251  1.00  0.00    -0.355 C  
HETATM   24  O   UNL     1     -12.256   6.960  69.875  1.00  0.00    -0.626 OA 
HETATM   25  H   UNL     1     -12.121   6.187  69.339  1.00  0.00     0.000 HD 
ENDBRANCH  19  23
ENDBRANCH  12  15
TORSDOF 2
ENDMDL
MODEL        6
REMARK 921   NORMALIZED FREE ENERGY PREDICTED BY IDOCK:   -7.12 KCAL/MOL
REMARK 922        TOTAL FREE ENERGY PREDICTED BY IDOCK:   -8.29 KCAL/MOL
REMARK 923 INTER-LIGAND FREE ENERGY PREDICTED BY IDOCK:   -8.10 KCAL/MOL
REMARK 924 INTRA-LIGAND FREE ENERGY PREDICTED BY IDOCK:   -0.18 KCAL/MOL
REMARK 927      BINDING AFFINITY PREDICTED BY RF-SCORE:    0.00 PKD
ROOT
HETATM    1  N   UNL     1     -12.958  12.100  63.584  1.00  0.00    -0.790 NA 
HETATM    2  C   UNL     1     -12.364  13.139  64.224  1.00  0.00    -0.351 C  
HETATM    3  H2  UNL     1     -13.357  12.241  62.656  1.00  0.00     0.000 HD 
HETATM    4  H1  UNL     1     -13.011  11.179  64.020  1.00  0.00     0.000 HD 
HETATM    5  N   UNL     1     -12.296  14.313  63.668  1.00  0.00    -1.109 N  
HETATM    6  C   UNL     1     -11.699  15.381  64.356  1.00  0.00    -0.258 C  
HETATM    7  H   UNL     1     -12.677  14.457  62.733  1.00  0.00     0.000 HD 
HETATM    8  C   UNL     1     -11.221  15.066  65.712  1.00  0.00    -0.318 A  
HETATM    9  O   UNL     1     -11.578  16.496  63.860  1.00  0.00    -1.175 OA 
HETATM   10  C   UNL     1     -11.343  13.786  66.183  1.00  0.00    -0.314 A  
HETATM   11  N   UNL     1     -11.882  12.796  65.458  1.00  0.00    -0.398 NA 
HETATM   12  N   UNL     1     -10.825  13.767  67.440  1.00  0.00    -0.274 NA 
HETATM   13  N   UNL     1     -10.640  15.861  66.674  1.00  0.00    -0.316 NA 
HETATM   14  C   UNL     1     -10.414  15.053  67.697  1.00  0.00    -0.247 A  
ENDROOT
BRANCH  12  15
HETATM   15  C   UNL     1     -10.646  12.595  68.270  1.00  0.00    -0.237 C  
HETATM   16  C   UNL     1     -11.909  11.756  68.463  1.00  0.00    -0.365 C  
HETATM   17  C   UNL     1     -11.356  10.513  69.146  1.00  0.00    -0.257 C  
HETATM   18  O   UNL     1     -11.098  10.831  70.519  1.00  0.00    -0.448 OA 
HETATM   19  C   UNL     1     -10.016  10.219  68.429  1.00  0.00    -0.173 C  
HETATM   20  C   UNL     1      -9.623  11.571  67.828  1.00  0.00    -0.177 C  
HETATM   21  H   UNL     1     -10.752  10.056  70.945  1.00  0.00     0.000 HD 
HETATM   22  C   UNL     1      -8.552  11.781  67.044  1.00  0.00    -0.173 C  
BRANCH  19  23
HETATM   23  C   UNL     1     -10.169   9.098  67.395  1.00  0.00    -0.247 C  
HETATM   24  O   UNL     1     -11.022   8.061  67.864  1.00  0.00    -0.477 OA 
HETATM   25  H   UNL     1     -11.117   7.366  67.223  1.00  0.00     0.000 HD 
ENDBRANCH  19  23
ENDBRANCH  12  15
TORSDOF 2
ENDMDL
MODEL        7
REMARK 921   NORMALIZED FREE ENERGY PREDICTED BY IDOCK:   -7.07 KCAL/MOL
REMARK 922        TOTAL FREE ENERGY PREDICTED BY IDOCK:   -8.23 KCAL/MOL
REMARK 923 INTER-LIGAND FREE ENERGY PREDICTED BY IDOCK:   -7.83 KCAL/MOL
REMARK 924 INTRA-LIGAND FREE ENERGY PREDICTED BY IDOCK:   -0.40 KCAL/MOL
REMARK 927      BINDING AFFINITY PREDICTED BY RF-SCORE:    0.00 PKD
ROOT
HETATM    1  N   UNL     1     -10.645   7.899  67.680  1.00  0.00    -0.406 NA 
HETATM    2  C   UNL     1     -11.032   8.979  68.406  1.00  0.00     0.090 C  
HETATM    3  H2  UNL     1     -10.532   6.997  68.142  1.00  0.00     0.000 HD 
HETATM    4  H1  UNL     1     -10.464   7.979  66.680  1.00  0.00     0.000 HD 
HETATM    5  N   UNL     1     -11.261   8.877  69.682  1.00  0.00    -0.436 N  
HETATM    6  C   UNL     1     -11.637  10.011  70.419  1.00  0.00    -0.302 C  
HETATM    7  H   UNL     1     -11.168   7.974  70.146  1.00  0.00     0.000 HD 
HETATM    8  C   UNL     1     -11.701  11.266  69.653  1.00  0.00    -0.350 A  
HETATM    9  O   UNL     1     -11.900   9.959  71.616  1.00  0.00    -0.379 OA 
HETATM   10  C   UNL     1     -11.443  11.242  68.309  1.00  0.00    -0.308 A  
HETATM   11  N   UNL     1     -11.134  10.116  67.651  1.00  0.00    -0.274 NA 
HETATM   12  N   UNL     1     -11.574  12.515  67.849  1.00  0.00    -0.328 NA 
HETATM   13  N   UNL     1     -11.980  12.555  70.049  1.00  0.00    -0.334 NA 
HETATM   14  C   UNL     1     -11.897  13.278  68.945  1.00  0.00    -0.327 A  
ENDROOT
BRANCH  12  15
HETATM   15  C   UNL     1     -11.501  12.933  66.466  1.00  0.00    -0.341 C  
HETATM   16  C   UNL     1     -12.706  13.741  65.983  1.00  0.00    -0.407 C  
HETATM   17  C   UNL     1     -12.230  14.226  64.620  1.00  0.00    -0.454 C  
HETATM   18  O   UNL     1     -12.321  13.134  63.698  1.00  0.00    -0.646 OA 
HETATM   19  C   UNL     1     -10.742  14.603  64.821  1.00  0.00    -0.399 C  
HETATM   20  C   UNL     1     -10.328  13.795  66.054  1.00  0.00    -0.311 C  
HETATM   21  H   UNL     1     -12.024  13.436  62.848  1.00  0.00     0.000 HD 
HETATM   22  C   UNL     1      -9.125  13.865  66.648  1.00  0.00    -0.209 C  
BRANCH  19  23
HETATM   23  C   UNL     1     -10.565  16.117  64.979  1.00  0.00    -0.276 C  
HETATM   24  O   UNL     1     -11.282  16.838  63.984  1.00  0.00    -1.438 OA 
HETATM   25  H   UNL     1     -11.172  17.777  64.083  1.00  0.00     0.000 HD 
ENDBRANCH  19  23
ENDBRANCH  12  15
TORSDOF 2
ENDMDL
MODEL        8
REMARK 921   NORMALIZED FREE ENERGY PREDICTED BY IDOCK:   -7.03 KCAL/MOL
REMARK 922        TOTAL FREE ENERGY PREDICTED BY IDOCK:   -8.19 KCAL/MOL
REMARK 923 INTER-LIGAND FREE ENERGY PREDICTED BY IDOCK:   -7.91 KCAL/MOL
REMARK 924 INTRA-LIGAND FREE ENERGY PREDICTED BY IDOCK:   -0.28 KCAL/MOL
REMARK 927      BINDING AFFINITY PREDICTED BY RF-SCORE:    0.00 PKD
ROOT
HETATM    1  N   UNL     1      -9.966   7.329  66.558  1.00  0.00    -0.416 NA 
HETATM    2  C   UNL     1     -10.438   8.284  67.399  1.00  0.00    -0.283 C  
HETATM    3  H2  UNL     1      -9.810   6.383  66.907  1.00  0.00     0.000 HD 
HETATM    4  H1  UNL     1      -9.764   7.545  65.582  1.00  0.00     0.000 HD 
HETATM    5  N   UNL     1     -10.695   8.009  68.643  1.00  0.00    -0.400 N  
HETATM    6  C   UNL     1     -11.160   9.017  69.503  1.00  0.00    -0.024 C  
HETATM    7  H   UNL     1     -10.558   7.061  68.995  1.00  0.00     0.000 HD 
HETATM    8  C   UNL     1     -11.281  10.353  68.897  1.00  0.00    -0.235 A  
HETATM    9  O   UNL     1     -11.451   8.799  70.674  1.00  0.00    -0.265 OA 
HETATM   10  C   UNL     1     -10.987  10.514  67.569  1.00  0.00    -0.303 A  
HETATM   11  N   UNL     1     -10.591   9.500  66.788  1.00  0.00    -0.182 NA 
HETATM   12  N   UNL     1     -11.185  11.824  67.267  1.00  0.00    -0.286 NA 
HETATM   13  N   UNL     1     -11.650  11.562  69.440  1.00  0.00    -0.292 NA 
HETATM   14  C   UNL     1     -11.583  12.423  68.438  1.00  0.00    -0.324 A  
ENDROOT
BRANCH  12  15
HETATM   15  C   UNL     1     -11.101  12.417  65.950  1.00  0.00    -0.313 C  
HETATM   16  C   UNL     1     -12.436  12.909  65.391  1.00  0.00    -0.511 C  
HETATM   17  C   UNL     1     -11.991  13.676  64.152  1.00  0.00    -0.443 C  
HETATM   18  O   UNL     1     -11.665  12.727  63.130  1.00  0.00    -0.761 OA 
HETATM   19  C   UNL     1     -10.706  14.426  64.581  1.00  0.00    -0.357 C  
HETATM   20  C   UNL     1     -10.197  13.618  65.777  1.00  0.00    -0.317 C  
HETATM   21  H   UNL     1     -11.387  13.205  62.357  1.00  0.00     0.000 HD 
HETATM   22  C   UNL     1      -9.132  13.947  66.528  1.00  0.00    -0.165 C  
BRANCH  19  23
HETATM   23  C   UNL     1     -10.997  15.897  64.899  1.00  0.00    -0.411 C  
HETATM   24  O   UNL     1     -11.578  16.571  63.790  1.00  0.00    -1.617 OA 
HETATM   25  H   UNL     1     -11.758  17.483  63.988  1.00  0.00     0.000 HD 
ENDBRANCH  19  23
ENDBRANCH  12  15
TORSDOF 2
ENDMDL
MODEL        9
REMARK 921   NORMALIZED FREE ENERGY PREDICTED BY IDOCK:   -6.97 KCAL/MOL
REMARK 922        TOTAL FREE ENERGY PREDICTED BY IDOCK:   -8.12 KCAL/MOL
REMARK 923 INTER-LIGAND FREE ENERGY PREDICTED BY IDOCK:   -7.71 KCAL/MOL
REMARK 924 INTRA-LIGAND FREE ENERGY PREDICTED BY IDOCK:   -0.41 KCAL/MOL
REMARK 927      BINDING AFFINITY PREDICTED BY RF-SCORE:    0.00 PKD
ROOT
HETATM    1  N   UNL     1     -12.185  14.871  70.745  1.00  0.00    -0.300 NA 
HETATM    2  C   UNL     1     -11.607  15.578  69.740  1.00  0.00    -0.334 C  
HETATM    3  H2  UNL     1     -12.219  15.268  71.684  1.00  0.00     0.000 HD 
HETATM    4  H1  UNL     1     -12.585  13.949  70.574  1.00  0.00     0.000 HD 
HETATM    5  N   UNL     1     -11.097  16.753  69.959  1.00  0.00    -0.410 N  
HETATM    6  C   UNL     1     -10.483  17.457  68.911  1.00  0.00    -0.312 C  
HETATM    7  H   UNL     1     -11.143  17.164  70.891  1.00  0.00     0.000 HD 
HETATM    8  C   UNL     1     -10.440  16.751  67.620  1.00  0.00    -0.328 A  
HETATM    9  O   UNL     1     -10.021  18.583  69.059  1.00  0.00    -0.378 OA 
HETATM   10  C   UNL     1     -11.021  15.515  67.515  1.00  0.00    -0.316 A  
HETATM   11  N   UNL     1     -11.634  14.914  68.543  1.00  0.00    -0.311 NA 
HETATM   12  N   UNL     1     -10.846  15.095  66.234  1.00  0.00    -0.330 NA 
HETATM   13  N   UNL     1      -9.884  17.107  66.412  1.00  0.00    -0.287 NA 
HETATM   14  C   UNL     1     -10.146  16.094  65.602  1.00  0.00    -0.337 A  
ENDROOT
BRANCH  12  15
HETATM   15  C   UNL     1     -11.398  13.892  65.649  1.00  0.00    -0.309 C  
HETATM   16  C   UNL     1     -11.879  14.050  64.207  1.00  0.00    -0.435 C  
HETATM   17  C   UNL     1     -12.160  12.607  63.812  1.00  0.00    -0.522 C  
HETATM   18  O   UNL     1     -13.399  12.210  64.409  1.00  0.00    -0.740 OA 
HETATM   19  C   UNL     1     -11.006  11.785  64.435  1.00  0.00    -0.397 C  
HETATM   20  C   UNL     1     -10.504  12.673  65.576  1.00  0.00    -0.304 C  
HETATM   21  H   UNL     1     -13.574  11.309  64.163  1.00  0.00     0.000 HD 
HETATM   22  C   UNL     1      -9.447  12.395  66.358  1.00  0.00    -0.240 C  
BRANCH  19  23
HETATM   23  C   UNL     1      -9.935  11.444  63.392  1.00  0.00    -0.402 C  
HETATM   24  O   UNL     1     -10.397  10.475  62.460  1.00  0.00    -0.722 OA 
HETATM   25  H   UNL     1      -9.733  10.264  61.813  1.00  0.00     0.000 HD 
ENDBRANCH  19  23
ENDBRANCH  12  15
TORSDOF 2
ENDMDL
MODEL       10
REMARK 921   NORMALIZED FREE ENERGY PREDICTED BY IDOCK:   -6.58 KCAL/MOL
REMARK 922        TOTAL FREE ENERGY PREDICTED BY IDOCK:   -7.68 KCAL/MOL
REMARK 923 INTER-LIGAND FREE ENERGY PREDICTED BY IDOCK:   -7.33 KCAL/MOL
REMARK 924 INTRA-LIGAND FREE ENERGY PREDICTED BY IDOCK:   -0.35 KCAL/MOL
REMARK 927      BINDING AFFINITY PREDICTED BY RF-SCORE:    0.00 PKD
ROOT
HETATM    1  N   UNL     1      -8.946  11.485  62.850  1.00  0.00    -0.591 NA 
HETATM    2  C   UNL     1     -10.113  11.978  63.337  1.00  0.00    -0.408 C  
HETATM    3  H2  UNL     1      -8.961  10.673  62.233  1.00  0.00     0.000 HD 
HETATM    4  H1  UNL     1      -8.054  11.916  63.094  1.00  0.00     0.000 HD 
HETATM    5  N   UNL     1     -11.250  11.428  63.026  1.00  0.00    -0.844 N  
HETATM    6  C   UNL     1     -12.444  11.939  63.560  1.00  0.00    -0.492 C  
HETATM    7  H   UNL     1     -11.274  10.627  62.396  1.00  0.00     0.000 HD 
HETATM    8  C   UNL     1     -12.285  13.070  64.488  1.00  0.00    -0.416 A  
HETATM    9  O   UNL     1     -13.543  11.479  63.268  1.00  0.00    -0.113 OA 
HETATM   10  C   UNL     1     -11.032  13.565  64.729  1.00  0.00    -0.373 A  
HETATM   11  N   UNL     1      -9.931  13.063  64.152  1.00  0.00    -0.238 NA 
HETATM   12  N   UNL     1     -11.166  14.596  65.605  1.00  0.00    -0.335 NA 
HETATM   13  N   UNL     1     -13.212  13.775  65.221  1.00  0.00    -0.702 NA 
HETATM   14  C   UNL     1     -12.509  14.683  65.879  1.00  0.00    -0.062 A  
ENDROOT
BRANCH  12  15
HETATM   15  C   UNL     1     -10.110  15.480  66.049  1.00  0.00    -0.332 C  
HETATM   16  C   UNL     1     -10.328  16.953  65.704  1.00  0.00    -0.254 C  
HETATM   17  C   UNL     1      -9.215  17.627  66.494  1.00  0.00    -0.269 C  
HETATM   18  O   UNL     1      -7.981  17.423  65.795  1.00  0.00    -0.538 OA 
HETATM   19  C   UNL     1      -9.166  16.875  67.847  1.00  0.00    -0.234 C  
HETATM   20  C   UNL     1      -9.806  15.521  67.531  1.00  0.00    -0.220 C  
HETATM   21  H   UNL     1      -7.286  17.843  66.288  1.00  0.00     0.000 HD 
HETATM   22  C   UNL     1     -10.047  14.557  68.435  1.00  0.00    -0.241 C  
BRANCH  19  23
HETATM   23  C   UNL     1      -9.883  17.662  68.949  1.00  0.00    -0.293 C  
HETATM   24  O   UNL     1     -10.284  18.951  68.501  1.00  0.00    -0.381 OA 
HETATM   25  H   UNL     1     -10.729  19.439  69.185  1.00  0.00     0.000 HD 
ENDBRANCH  19  23
ENDBRANCH  12  15
TORSDOF 2
ENDMDL
MODEL       11
REMARK 921   NORMALIZED FREE ENERGY PREDICTED BY IDOCK:   -6.55 KCAL/MOL
REMARK 922        TOTAL FREE ENERGY PREDICTED BY IDOCK:   -7.65 KCAL/MOL
REMARK 923 INTER-LIGAND FREE ENERGY PREDICTED BY IDOCK:   -7.28 KCAL/MOL
REMARK 924 INTRA-LIGAND FREE ENERGY PREDICTED BY IDOCK:   -0.37 KCAL/MOL
REMARK 927      BINDING AFFINITY PREDICTED BY RF-SCORE:    0.00 PKD
ROOT
HETATM    1  N   UNL     1     -12.910  11.711  62.900  1.00  0.00    -0.827 NA 
HETATM    2  C   UNL     1     -12.246  12.665  63.600  1.00  0.00    -0.536 C  
HETATM    3  H2  UNL     1     -13.598  11.987  62.200  1.00  0.00     0.000 HD 
HETATM    4  H1  UNL     1     -12.731  10.720  63.066  1.00  0.00     0.000 HD 
HETATM    5  N   UNL     1     -12.474  13.927  63.389  1.00  0.00    -1.110 N  
HETATM    6  C   UNL     1     -11.794  14.898  64.141  1.00  0.00    -0.184 C  
HETATM    7  H   UNL     1     -13.148  14.212  62.678  1.00  0.00     0.000 HD 
HETATM    8  C   UNL     1     -10.877  14.371  65.165  1.00  0.00    -0.386 A  
HETATM    9  O   UNL     1     -11.948  16.100  63.954  1.00  0.00    -0.947 OA 
HETATM   10  C   UNL     1     -10.716  13.017  65.285  1.00  0.00    -0.299 A  
HETATM   11  N   UNL     1     -11.361  12.140  64.504  1.00  0.00    -0.322 NA 
HETATM   12  N   UNL     1      -9.822  12.803  66.287  1.00  0.00    -0.264 NA 
HETATM   13  N   UNL     1     -10.098  15.016  66.099  1.00  0.00    -0.277 NA 
HETATM   14  C   UNL     1      -9.478  14.048  66.755  1.00  0.00    -0.282 A  
ENDROOT
BRANCH  12  15
HETATM   15  C   UNL     1      -9.273  11.524  66.680  1.00  0.00    -0.186 C  
HETATM   16  C   UNL     1      -7.900  11.601  67.346  1.00  0.00    -0.147 C  
HETATM   17  C   UNL     1      -7.716  10.175  67.849  1.00  0.00    -0.089 C  
HETATM   18  O   UNL     1      -7.367   9.347  66.733  1.00  0.00    -0.085 OA 
HETATM   19  C   UNL     1      -9.106   9.752  68.384  1.00  0.00    -0.123 C  
HETATM   20  C   UNL     1     -10.075  10.684  67.651  1.00  0.00    -0.208 C  
HETATM   21  H   UNL     1      -7.253   8.458  67.046  1.00  0.00     0.000 HD 
HETATM   22  C   UNL     1     -11.401  10.730  67.859  1.00  0.00    -0.372 C  
BRANCH  19  23
HETATM   23  C   UNL     1      -9.173   9.859  69.911  1.00  0.00    -0.212 C  
HETATM   24  O   UNL     1      -7.894  10.113  70.478  1.00  0.00    -0.424 OA 
HETATM   25  H   UNL     1      -7.936  10.179  71.426  1.00  0.00     0.000 HD 
ENDBRANCH  19  23
ENDBRANCH  12  15
TORSDOF 2
ENDMDL
MODEL       12
REMARK 921   NORMALIZED FREE ENERGY PREDICTED BY IDOCK:   -6.45 KCAL/MOL
REMARK 922        TOTAL FREE ENERGY PREDICTED BY IDOCK:   -7.54 KCAL/MOL
REMARK 923 INTER-LIGAND FREE ENERGY PREDICTED BY IDOCK:   -7.19 KCAL/MOL
REMARK 924 INTRA-LIGAND FREE ENERGY PREDICTED BY IDOCK:   -0.35 KCAL/MOL
REMARK 927      BINDING AFFINITY PREDICTED BY RF-SCORE:    0.00 PKD
ROOT
HETATM    1  N   UNL     1      -7.541  19.124  65.510  1.00  0.00    -0.415 NA 
HETATM    2  C   UNL     1      -8.409  18.668  66.449  1.00  0.00    -0.276 C  
HETATM    3  H2  UNL     1      -7.140  20.057  65.606  1.00  0.00     0.000 HD 
HETATM    4  H1  UNL     1      -7.285  18.546  64.709  1.00  0.00     0.000 HD 
HETATM    5  N   UNL     1      -8.735  19.406  67.468  1.00  0.00    -0.298 N  
HETATM    6  C   UNL     1      -9.654  18.925  68.415  1.00  0.00    -0.369 C  
HETATM    7  H   UNL     1      -8.325  20.332  67.580  1.00  0.00     0.000 HD 
HETATM    8  C   UNL     1     -10.211  17.593  68.131  1.00  0.00    -0.371 A  
HETATM    9  O   UNL     1      -9.965  19.567  69.413  1.00  0.00    -0.384 OA 
HETATM   10  C   UNL     1      -9.781  16.911  67.024  1.00  0.00    -0.253 A  
HETATM   11  N   UNL     1      -8.865  17.405  66.180  1.00  0.00    -0.492 NA 
HETATM   12  N   UNL     1     -10.440  15.722  67.000  1.00  0.00    -0.304 NA 
HETATM   13  N   UNL     1     -11.154  16.845  68.799  1.00  0.00    -0.231 NA 
HETATM   14  C   UNL     1     -11.268  15.730  68.097  1.00  0.00    -0.344 A  
ENDROOT
BRANCH  12  15
HETATM   15  C   UNL     1     -10.212  14.640  66.067  1.00  0.00    -0.311 C  
HETATM   16  C   UNL     1     -10.572  13.255  66.603  1.00  0.00    -0.283 C  
HETATM   17  C   UNL     1     -10.461  12.397  65.349  1.00  0.00    -0.277 C  
HETATM   18  O   UNL     1      -9.073  12.171  65.081  1.00  0.00    -0.399 OA 
HETATM   19  C   UNL     1     -11.067  13.259  64.215  1.00  0.00    -0.414 C  
HETATM   20  C   UNL     1     -10.941  14.691  64.742  1.00  0.00    -0.399 C  
HETATM   21  H   UNL     1      -9.004  11.636  64.299  1.00  0.00     0.000 HD 
HETATM   22  C   UNL     1     -11.412  15.783  64.116  1.00  0.00    -0.079 C  
BRANCH  19  23
HETATM   23  C   UNL     1     -12.505  12.835  63.897  1.00  0.00    -0.367 C  
HETATM   24  O   UNL     1     -12.544  11.631  63.141  1.00  0.00    -0.926 OA 
HETATM   25  H   UNL     1     -13.436  11.368  62.944  1.00  0.00     0.000 HD 
ENDBRANCH  19  23
ENDBRANCH  12  15
TORSDOF 2
ENDMDL
MODEL       13
REMARK 921   NORMALIZED FREE ENERGY PREDICTED BY IDOCK:   -6.45 KCAL/MOL
REMARK 922        TOTAL FREE ENERGY PREDICTED BY IDOCK:   -7.54 KCAL/MOL
REMARK 923 INTER-LIGAND FREE ENERGY PREDICTED BY IDOCK:   -7.41 KCAL/MOL
REMARK 924 INTRA-LIGAND FREE ENERGY PREDICTED BY IDOCK:   -0.13 KCAL/MOL
REMARK 927      BINDING AFFINITY PREDICTED BY RF-SCORE:    0.00 PKD
ROOT
HETATM    1  N   UNL     1     -11.694  16.345  63.708  1.00  0.00    -1.498 NA 
HETATM    2  C   UNL     1     -11.426  15.463  64.705  1.00  0.00    -0.337 C  
HETATM    3  H2  UNL     1     -12.373  16.099  62.988  1.00  0.00     0.000 HD 
HETATM    4  H1  UNL     1     -11.224  17.250  63.670  1.00  0.00     0.000 HD 
HETATM    5  N   UNL     1     -12.024  14.310  64.753  1.00  0.00    -0.417 N  
HETATM    6  C   UNL     1     -11.714  13.402  65.779  1.00  0.00    -0.349 C  
HETATM    7  H   UNL     1     -12.717  14.065  64.047  1.00  0.00     0.000 HD 
HETATM    8  C   UNL     1     -10.671  13.847  66.718  1.00  0.00    -0.281 A  
HETATM    9  O   UNL     1     -12.278  12.318  65.888  1.00  0.00    -0.634 OA 
HETATM   10  C   UNL     1     -10.120  15.091  66.565  1.00  0.00    -0.276 A  
HETATM   11  N   UNL     1     -10.492  15.932  65.590  1.00  0.00    -0.372 NA 
HETATM   12  N   UNL     1      -9.201  15.250  67.553  1.00  0.00    -0.197 NA 
HETATM   13  N   UNL     1     -10.091  13.211  67.792  1.00  0.00    -0.221 NA 
HETATM   14  C   UNL     1      -9.215  14.079  68.272  1.00  0.00    -0.200 A  
ENDROOT
BRANCH  12  15
HETATM   15  C   UNL     1      -8.459  16.458  67.840  1.00  0.00    -0.169 C  
HETATM   16  C   UNL     1      -7.713  17.043  66.640  1.00  0.00    -0.302 C  
HETATM   17  C   UNL     1      -7.255  18.390  67.184  1.00  0.00    -0.204 C  
HETATM   18  O   UNL     1      -6.134  18.169  68.047  1.00  0.00    -0.169 OA 
HETATM   19  C   UNL     1      -8.448  18.915  68.020  1.00  0.00    -0.325 C  
HETATM   20  C   UNL     1      -9.229  17.646  68.372  1.00  0.00    -0.288 C  
HETATM   21  H   UNL     1      -5.849  19.008  68.387  1.00  0.00     0.000 HD 
HETATM   22  C   UNL     1     -10.398  17.624  69.035  1.00  0.00    -0.272 C  
BRANCH  19  23
HETATM   23  C   UNL     1      -9.263  19.954  67.242  1.00  0.00    -0.348 C  
HETATM   24  O   UNL     1      -8.794  20.099  65.907  1.00  0.00    -0.550 OA 
HETATM   25  H   UNL     1      -9.299  20.743  65.425  1.00  0.00     0.000 HD 
ENDBRANCH  19  23
ENDBRANCH  12  15
TORSDOF 2
ENDMDL
MODEL       14
REMARK 921   NORMALIZED FREE ENERGY PREDICTED BY IDOCK:   -6.41 KCAL/MOL
REMARK 922        TOTAL FREE ENERGY PREDICTED BY IDOCK:   -7.50 KCAL/MOL
REMARK 923 INTER-LIGAND FREE ENERGY PREDICTED BY IDOCK:   -7.50 KCAL/MOL
REMARK 924 INTRA-LIGAND FREE ENERGY PREDICTED BY IDOCK:    0.00 KCAL/MOL
REMARK 927      BINDING AFFINITY PREDICTED BY RF-SCORE:    0.00 PKD
ROOT
HETATM    1  N   UNL     1     -12.943  11.907  62.900  1.00  0.00    -0.695 NA 
HETATM    2  C   UNL     1     -12.453  12.702  63.884  1.00  0.00    -0.407 C  
HETATM    3  H2  UNL     1     -13.198  12.317  62.001  1.00  0.00     0.000 HD 
HETATM    4  H1  UNL     1     -13.060  10.904  63.047  1.00  0.00     0.000 HD 
HETATM    5  N   UNL     1     -12.304  13.980  63.697  1.00  0.00    -1.059 N  
HETATM    6  C   UNL     1     -11.819  14.789  64.736  1.00  0.00    -0.423 C  
HETATM    7  H   UNL     1     -12.540  14.394  62.795  1.00  0.00     0.000 HD 
HETATM    8  C   UNL     1     -11.549  14.090  66.003  1.00  0.00    -0.357 A  
HETATM    9  O   UNL     1     -11.626  15.992  64.597  1.00  0.00    -0.312 OA 
HETATM   10  C   UNL     1     -11.739  12.736  66.073  1.00  0.00    -0.418 A  
HETATM   11  N   UNL     1     -12.162  12.010  65.029  1.00  0.00    -0.358 NA 
HETATM   12  N   UNL     1     -11.416  12.347  67.335  1.00  0.00    -0.329 NA 
HETATM   13  N   UNL     1     -11.121  14.562  67.224  1.00  0.00    -0.302 NA 
HETATM   14  C   UNL     1     -11.050  13.493  67.999  1.00  0.00    -0.258 A  
ENDROOT
BRANCH  12  15
HETATM   15  C   UNL     1     -11.362  10.985  67.819  1.00  0.00    -0.292 C  
HETATM   16  C   UNL     1     -10.031  10.276  67.570  1.00  0.00    -0.226 C  
HETATM   17  C   UNL     1     -10.200   9.000  68.385  1.00  0.00    -0.201 C  
HETATM   18  O   UNL     1     -11.056   8.112  67.657  1.00  0.00    -0.492 OA 
HETATM   19  C   UNL     1     -10.912   9.443  69.687  1.00  0.00    -0.216 C  
HETATM   20  C   UNL     1     -11.598  10.754  69.295  1.00  0.00    -0.376 C  
HETATM   21  H   UNL     1     -11.162   7.317  68.165  1.00  0.00     0.000 HD 
HETATM   22  C   UNL     1     -12.281  11.545  70.141  1.00  0.00    -0.387 C  
BRANCH  19  23
HETATM   23  C   UNL     1      -9.920   9.580  70.847  1.00  0.00    -0.238 C  
HETATM   24  O   UNL     1      -9.477   8.312  71.314  1.00  0.00    -0.154 OA 
HETATM   25  H   UNL     1      -8.862   8.397  72.034  1.00  0.00     0.000 HD 
ENDBRANCH  19  23
ENDBRANCH  12  15
TORSDOF 2
ENDMDL
MODEL       15
REMARK 921   NORMALIZED FREE ENERGY PREDICTED BY IDOCK:   -6.39 KCAL/MOL
REMARK 922        TOTAL FREE ENERGY PREDICTED BY IDOCK:   -7.47 KCAL/MOL
REMARK 923 INTER-LIGAND FREE ENERGY PREDICTED BY IDOCK:   -7.34 KCAL/MOL
REMARK 924 INTRA-LIGAND FREE ENERGY PREDICTED BY IDOCK:   -0.14 KCAL/MOL
REMARK 927      BINDING AFFINITY PREDICTED BY RF-SCORE:    0.00 PKD
ROOT
HETATM    1  N   UNL     1     -11.819  12.146  67.454  1.00  0.00    -0.565 NA 
HETATM    2  C   UNL     1     -11.751  13.086  66.477  1.00  0.00    -0.382 C  
HETATM    3  H2  UNL     1     -12.317  11.273  67.279  1.00  0.00     0.000 HD 
HETATM    4  H1  UNL     1     -11.378  12.301  68.361  1.00  0.00     0.000 HD 
HETATM    5  N   UNL     1     -12.313  12.888  65.321  1.00  0.00    -0.474 N  
HETATM    6  C   UNL     1     -12.252  13.883  64.333  1.00  0.00    -0.413 C  
HETATM    7  H   UNL     1     -12.797  12.011  65.133  1.00  0.00     0.000 HD 
HETATM    8  C   UNL     1     -11.562  15.121  64.730  1.00  0.00    -0.364 A  
HETATM    9  O   UNL     1     -12.733  13.729  63.216  1.00  0.00    -0.783 OA 
HETATM   10  C   UNL     1     -11.004  15.205  65.977  1.00  0.00    -0.332 A  
HETATM   11  N   UNL     1     -11.055  14.200  66.862  1.00  0.00    -0.301 NA 
HETATM   12  N   UNL     1     -10.432  16.434  66.082  1.00  0.00    -0.328 NA 
HETATM   13  N   UNL     1     -11.359  16.301  64.050  1.00  0.00    -0.902 NA 
HETATM   14  C   UNL     1     -10.678  17.066  64.888  1.00  0.00     0.158 A  
ENDROOT
BRANCH  12  15
HETATM   15  C   UNL     1      -9.633  16.910  67.191  1.00  0.00    -0.244 C  
HETATM   16  C   UNL     1      -8.123  16.788  66.982  1.00  0.00    -0.225 C  
HETATM   17  C   UNL     1      -7.580  17.572  68.169  1.00  0.00    -0.221 C  
HETATM   18  O   UNL     1      -7.702  16.756  69.340  1.00  0.00    -0.157 OA 
HETATM   19  C   UNL     1      -8.512  18.801  68.303  1.00  0.00    -0.357 C  
HETATM   20  C   UNL     1      -9.801  18.355  67.609  1.00  0.00    -0.328 C  
HETATM   21  H   UNL     1      -7.364  17.245  70.081  1.00  0.00     0.000 HD 
HETATM   22  C   UNL     1     -10.878  19.135  67.414  1.00  0.00    -0.533 C  
BRANCH  19  23
HETATM   23  C   UNL     1      -7.876  20.054  67.693  1.00  0.00    -0.306 C  
HETATM   24  O   UNL     1      -6.604  20.331  68.264  1.00  0.00    -0.279 OA 
HETATM   25  H   UNL     1      -6.209  21.109  67.885  1.00  0.00     0.000 HD 
ENDBRANCH  19  23
ENDBRANCH  12  15
TORSDOF 2
ENDMDL
MODEL       16
REMARK 921   NORMALIZED FREE ENERGY PREDICTED BY IDOCK:   -6.36 KCAL/MOL
REMARK 922        TOTAL FREE ENERGY PREDICTED BY IDOCK:   -7.44 KCAL/MOL
REMARK 923 INTER-LIGAND FREE ENERGY PREDICTED BY IDOCK:   -7.16 KCAL/MOL
REMARK 924 INTRA-LIGAND FREE ENERGY PREDICTED BY IDOCK:   -0.28 KCAL/MOL
REMARK 927      BINDING AFFINITY PREDICTED BY RF-SCORE:    0.00 PKD
ROOT
HETATM    1  N   UNL     1     -14.172  13.027  72.731  1.00  0.00    -0.558 NA 
HETATM    2  C   UNL     1     -13.399  12.268  71.912  1.00  0.00    -0.329 C  
HETATM    3  H2  UNL     1     -14.643  12.593  73.524  1.00  0.00     0.000 HD 
HETATM    4  H1  UNL     1     -14.286  14.027  72.563  1.00  0.00     0.000 HD 
HETATM    5  N   UNL     1     -13.253  10.994  72.126  1.00  0.00    -0.583 N  
HETATM    6  C   UNL     1     -12.470  10.222  71.254  1.00  0.00    -0.408 C  
HETATM    7  H   UNL     1     -13.708  10.556  72.927  1.00  0.00     0.000 HD 
HETATM    8  C   UNL     1     -11.896  10.952  70.112  1.00  0.00    -0.353 A  
HETATM    9  O   UNL     1     -12.272   9.025  71.434  1.00  0.00    -0.298 OA 
HETATM   10  C   UNL     1     -12.117  12.299  70.000  1.00  0.00    -0.273 A  
HETATM   11  N   UNL     1     -12.838  12.990  70.894  1.00  0.00    -0.202 NA 
HETATM   12  N   UNL     1     -11.480  12.721  68.876  1.00  0.00    -0.285 NA 
HETATM   13  N   UNL     1     -11.134  10.518  69.051  1.00  0.00    -0.233 NA 
HETATM   14  C   UNL     1     -10.900  11.602  68.330  1.00  0.00    -0.219 A  
ENDROOT
BRANCH  12  15
HETATM   15  C   UNL     1     -11.355  14.093  68.432  1.00  0.00    -0.287 C  
HETATM   16  C   UNL     1      -9.936  14.657  68.511  1.00  0.00    -0.235 C  
HETATM   17  C   UNL     1     -10.085  15.979  67.768  1.00  0.00    -0.243 C  
HETATM   18  O   UNL     1     -10.736  16.912  68.638  1.00  0.00    -0.333 OA 
HETATM   19  C   UNL     1     -11.012  15.666  66.568  1.00  0.00    -0.206 C  
HETATM   20  C   UNL     1     -11.768  14.412  67.012  1.00  0.00    -0.420 C  
HETATM   21  H   UNL     1     -10.830  17.736  68.175  1.00  0.00     0.000 HD 
HETATM   22  C   UNL     1     -12.639  13.730  66.248  1.00  0.00    -0.372 C  
BRANCH  19  23
HETATM   23  C   UNL     1     -10.210  15.486  65.274  1.00  0.00    -0.346 C  
HETATM   24  O   UNL     1     -10.919  15.975  64.143  1.00  0.00    -0.975 OA 
HETATM   25  H   UNL     1     -10.421  15.864  63.341  1.00  0.00     0.000 HD 
ENDBRANCH  19  23
ENDBRANCH  12  15
TORSDOF 2
ENDMDL
MODEL       17
REMARK 921   NORMALIZED FREE ENERGY PREDICTED BY IDOCK:   -6.36 KCAL/MOL
REMARK 922        TOTAL FREE ENERGY PREDICTED BY IDOCK:   -7.44 KCAL/MOL
REMARK 923 INTER-LIGAND FREE ENERGY PREDICTED BY IDOCK:   -7.06 KCAL/MOL
REMARK 924 INTRA-LIGAND FREE ENERGY PREDICTED BY IDOCK:   -0.38 KCAL/MOL
REMARK 927      BINDING AFFINITY PREDICTED BY RF-SCORE:    0.00 PKD
ROOT
HETATM    1  N   UNL     1     -12.966  12.501  62.995  1.00  0.00    -0.485 NA 
HETATM    2  C   UNL     1     -11.896  12.136  63.746  1.00  0.00    -0.500 C  
HETATM    3  H2  UNL     1     -13.158  12.012  62.121  1.00  0.00     0.000 HD 
HETATM    4  H1  UNL     1     -13.580  13.259  63.294  1.00  0.00     0.000 HD 
HETATM    5  N   UNL     1     -11.113  11.170  63.365  1.00  0.00    -0.742 N  
HETATM    6  C   UNL     1      -9.997  10.824  64.143  1.00  0.00    -0.343 C  
HETATM    7  H   UNL     1     -11.309  10.665  62.501  1.00  0.00     0.000 HD 
HETATM    8  C   UNL     1      -9.791  11.646  65.347  1.00  0.00    -0.238 A  
HETATM    9  O   UNL     1      -9.251   9.897  63.846  1.00  0.00    -0.253 OA 
HETATM   10  C   UNL     1     -10.693  12.632  65.645  1.00  0.00    -0.269 A  
HETATM   11  N   UNL     1     -11.767  12.885  64.884  1.00  0.00    -0.331 NA 
HETATM   12  N   UNL     1     -10.276  13.227  66.794  1.00  0.00    -0.250 NA 
HETATM   13  N   UNL     1      -8.795  11.625  66.297  1.00  0.00    -0.188 NA 
HETATM   14  C   UNL     1      -9.116  12.584  67.150  1.00  0.00    -0.205 A  
ENDROOT
BRANCH  12  15
HETATM   15  C   UNL     1     -10.989  14.246  67.533  1.00  0.00    -0.289 C  
HETATM   16  C   UNL     1     -10.691  14.267  69.032  1.00  0.00    -0.259 C  
HETATM   17  C   UNL     1     -11.374  15.557  69.468  1.00  0.00    -0.313 C  
HETATM   18  O   UNL     1     -12.785  15.320  69.532  1.00  0.00    -0.593 OA 
HETATM   19  C   UNL     1     -11.078  16.573  68.337  1.00  0.00    -0.333 C  
HETATM   20  C   UNL     1     -10.778  15.688  67.125  1.00  0.00    -0.314 C  
HETATM   21  H   UNL     1     -13.210  16.124  69.803  1.00  0.00     0.000 HD 
HETATM   22  C   UNL     1     -10.389  16.141  65.921  1.00  0.00    -0.384 C  
BRANCH  19  23
HETATM   23  C   UNL     1      -9.933  17.517  68.719  1.00  0.00    -0.342 C  
HETATM   24  O   UNL     1     -10.323  18.882  68.630  1.00  0.00    -0.429 OA 
HETATM   25  H   UNL     1      -9.613  19.467  68.867  1.00  0.00     0.000 HD 
ENDBRANCH  19  23
ENDBRANCH  12  15
TORSDOF 2
ENDMDL
MODEL       18
REMARK 921   NORMALIZED FREE ENERGY PREDICTED BY IDOCK:   -6.35 KCAL/MOL
REMARK 922        TOTAL FREE ENERGY PREDICTED BY IDOCK:   -7.43 KCAL/MOL
REMARK 923 INTER-LIGAND FREE ENERGY PREDICTED BY IDOCK:   -7.87 KCAL/MOL
REMARK 924 INTRA-LIGAND FREE ENERGY PREDICTED BY IDOCK:    0.44 KCAL/MOL
REMARK 927      BINDING AFFINITY PREDICTED BY RF-SCORE:    0.00 PKD
ROOT
HETATM    1  N   UNL     1     -11.641  16.147  63.840  1.00  0.00    -1.469 NA 
HETATM    2  C   UNL     1     -11.746  14.847  64.215  1.00  0.00    -0.247 C  
HETATM    3  H2  UNL     1     -11.993  16.438  62.928  1.00  0.00     0.000 HD 
HETATM    4  H1  UNL     1     -11.215  16.837  64.458  1.00  0.00     0.000 HD 
HETATM    5  N   UNL     1     -12.289  13.967  63.426  1.00  0.00    -1.154 N  
HETATM    6  C   UNL     1     -12.365  12.622  63.824  1.00  0.00    -0.478 C  
HETATM    7  H   UNL     1     -12.659  14.253  62.521  1.00  0.00     0.000 HD 
HETATM    8  C   UNL     1     -11.764  12.319  65.132  1.00  0.00    -0.361 A  
HETATM    9  O   UNL     1     -12.900  11.763  63.132  1.00  0.00    -0.571 OA 
HETATM   10  C   UNL     1     -11.227  13.337  65.874  1.00  0.00    -0.290 A  
HETATM   11  N   UNL     1     -11.226  14.611  65.459  1.00  0.00    -0.333 NA 
HETATM   12  N   UNL     1     -10.752  12.791  67.025  1.00  0.00    -0.250 NA 
HETATM   13  N   UNL     1     -11.615  11.126  65.804  1.00  0.00     0.092 NA 
HETATM   14  C   UNL     1     -11.006  11.444  66.935  1.00  0.00    -0.299 A  
ENDROOT
BRANCH  12  15
HETATM   15  C   UNL     1     -10.203  13.518  68.149  1.00  0.00    -0.249 C  
HETATM   16  C   UNL     1      -9.721  14.930  67.816  1.00  0.00    -0.212 C  
HETATM   17  C   UNL     1      -9.444  15.500  69.201  1.00  0.00    -0.246 C  
HETATM   18  O   UNL     1      -8.205  14.955  69.671  1.00  0.00    -0.405 OA 
HETATM   19  C   UNL     1     -10.600  14.981  70.091  1.00  0.00    -0.155 C  
HETATM   20  C   UNL     1     -11.099  13.740  69.348  1.00  0.00    -0.206 C  
HETATM   21  H   UNL     1      -8.032  15.310  70.535  1.00  0.00     0.000 HD 
HETATM   22  C   UNL     1     -12.157  12.998  69.717  1.00  0.00    -0.325 C  
BRANCH  19  23
HETATM   23  C   UNL     1     -11.671  16.058  70.299  1.00  0.00    -0.292 C  
HETATM   24  O   UNL     1     -12.480  15.783  71.435  1.00  0.00    -0.412 OA 
HETATM   25  H   UNL     1     -13.144  16.450  71.564  1.00  0.00     0.000 HD 
ENDBRANCH  19  23
ENDBRANCH  12  15
TORSDOF 2
ENDMDL
MODEL       19
REMARK 921   NORMALIZED FREE ENERGY PREDICTED BY IDOCK:   -6.32 KCAL/MOL
REMARK 922        TOTAL FREE ENERGY PREDICTED BY IDOCK:   -7.40 KCAL/MOL
REMARK 923 INTER-LIGAND FREE ENERGY PREDICTED BY IDOCK:   -7.28 KCAL/MOL
REMARK 924 INTRA-LIGAND FREE ENERGY PREDICTED BY IDOCK:   -0.12 KCAL/MOL
REMARK 927      BINDING AFFINITY PREDICTED BY RF-SCORE:    0.00 PKD
ROOT
HETATM    1  N   UNL     1     -13.169  10.669  71.907  1.00  0.00    -0.462 NA 
HETATM    2  C   UNL     1     -12.415  10.288  70.845  1.00  0.00    -0.370 C  
HETATM    3  H2  UNL     1     -13.346  10.006  72.663  1.00  0.00     0.000 HD 
HETATM    4  H1  UNL     1     -13.562  11.608  71.960  1.00  0.00     0.000 HD 
HETATM    5  N   UNL     1     -11.914   9.090  70.778  1.00  0.00    -0.442 N  
HETATM    6  C   UNL     1     -11.158   8.708  69.659  1.00  0.00    -0.013 C  
HETATM    7  H   UNL     1     -12.072   8.428  71.538  1.00  0.00     0.000 HD 
HETATM    8  C   UNL     1     -11.030   9.730  68.608  1.00  0.00    -0.147 A  
HETATM    9  O   UNL     1     -10.634   7.603  69.567  1.00  0.00    -0.229 OA 
HETATM   10  C   UNL     1     -11.599  10.961  68.800  1.00  0.00    -0.309 A  
HETATM   11  N   UNL     1     -12.272  11.281  69.914  1.00  0.00    -0.300 NA 
HETATM   12  N   UNL     1     -11.330  11.707  67.696  1.00  0.00    -0.297 NA 
HETATM   13  N   UNL     1     -10.415   9.690  67.377  1.00  0.00    -0.245 NA 
HETATM   14  C   UNL     1     -10.612  10.890  66.856  1.00  0.00    -0.261 A  
ENDROOT
BRANCH  12  15
HETATM   15  C   UNL     1     -11.645  13.108  67.517  1.00  0.00    -0.352 C  
HETATM   16  C   UNL     1     -10.501  14.063  67.857  1.00  0.00    -0.241 C  
HETATM   17  C   UNL     1     -11.042  15.392  67.346  1.00  0.00    -0.311 C  
HETATM   18  O   UNL     1     -12.011  15.873  68.284  1.00  0.00    -0.368 OA 
HETATM   19  C   UNL     1     -11.749  15.054  66.010  1.00  0.00    -0.094 C  
HETATM   20  C   UNL     1     -12.067  13.562  66.137  1.00  0.00    -0.482 C  
HETATM   21  H   UNL     1     -12.349  16.702  67.966  1.00  0.00     0.000 HD 
HETATM   22  C   UNL     1     -12.621  12.811  65.170  1.00  0.00    -0.513 C  
BRANCH  19  23
HETATM   23  C   UNL     1     -10.867  15.404  64.807  1.00  0.00    -0.364 C  
HETATM   24  O   UNL     1     -11.525  16.293  63.912  1.00  0.00    -1.484 OA 
HETATM   25  H   UNL     1     -10.977  16.510  63.166  1.00  0.00     0.000 HD 
ENDBRANCH  19  23
ENDBRANCH  12  15
TORSDOF 2
ENDMDL
MODEL       20
REMARK 921   NORMALIZED FREE ENERGY PREDICTED BY IDOCK:   -6.31 KCAL/MOL
REMARK 922        TOTAL FREE ENERGY PREDICTED BY IDOCK:   -7.39 KCAL/MOL
REMARK 923 INTER-LIGAND FREE ENERGY PREDICTED BY IDOCK:   -7.26 KCAL/MOL
REMARK 924 INTRA-LIGAND FREE ENERGY PREDICTED BY IDOCK:   -0.13 KCAL/MOL
REMARK 927      BINDING AFFINITY PREDICTED BY RF-SCORE:    0.00 PKD
ROOT
HETATM    1  N   UNL     1     -11.355  14.775  70.540  1.00  0.00    -0.410 NA 
HETATM    2  C   UNL     1     -11.350  14.527  69.205  1.00  0.00    -0.285 C  
HETATM    3  H2  UNL     1     -11.662  14.048  71.186  1.00  0.00     0.000 HD 
HETATM    4  H1  UNL     1     -11.056  15.679  70.905  1.00  0.00     0.000 HD 
HETATM    5  N   UNL     1     -11.731  13.374  68.740  1.00  0.00    -0.318 N  
HETATM    6  C   UNL     1     -11.742  13.146  67.355  1.00  0.00    -0.370 C  
HETATM    7  H   UNL     1     -12.023  12.636  69.381  1.00  0.00     0.000 HD 
HETATM    8  C   UNL     1     -11.339  14.294  66.526  1.00  0.00    -0.346 A  
HETATM    9  O   UNL     1     -12.057  12.065  66.870  1.00  0.00    -0.608 OA 
HETATM   10  C   UNL     1     -10.951  15.456  67.137  1.00  0.00    -0.317 A  
HETATM   11  N   UNL     1     -10.919  15.597  68.469  1.00  0.00    -0.286 NA 
HETATM   12  N   UNL     1     -10.630  16.341  66.156  1.00  0.00    -0.298 NA 
HETATM   13  N   UNL     1     -11.280  14.446  65.159  1.00  0.00    -0.341 NA 
HETATM   14  C   UNL     1     -10.850  15.682  64.970  1.00  0.00    -0.450 A  
ENDROOT
BRANCH  12  15
HETATM   15  C   UNL     1     -10.062  17.657  66.349  1.00  0.00    -0.356 C  
HETATM   16  C   UNL     1     -10.781  18.511  67.393  1.00  0.00    -0.424 C  
HETATM   17  C   UNL     1      -9.831  19.692  67.538  1.00  0.00    -0.378 C  
HETATM   18  O   UNL     1     -10.005  20.549  66.404  1.00  0.00    -0.579 OA 
HETATM   19  C   UNL     1      -8.411  19.077  67.501  1.00  0.00    -0.307 C  
HETATM   20  C   UNL     1      -8.614  17.742  66.780  1.00  0.00    -0.272 C  
HETATM   21  H   UNL     1      -9.412  21.286  66.494  1.00  0.00     0.000 HD 
HETATM   22  C   UNL     1      -7.655  16.821  66.584  1.00  0.00    -0.311 C  
BRANCH  19  23
HETATM   23  C   UNL     1      -7.823  18.942  68.910  1.00  0.00    -0.279 C  
HETATM   24  O   UNL     1      -6.852  19.947  69.174  1.00  0.00    -0.329 OA 
HETATM   25  H   UNL     1      -6.488  19.864  70.048  1.00  0.00     0.000 HD 
ENDBRANCH  19  23
ENDBRANCH  12  15
TORSDOF 2
ENDMDL
MODEL       21
REMARK 921   NORMALIZED FREE ENERGY PREDICTED BY IDOCK:   -6.29 KCAL/MOL
REMARK 922        TOTAL FREE ENERGY PREDICTED BY IDOCK:   -7.36 KCAL/MOL
REMARK 923 INTER-LIGAND FREE ENERGY PREDICTED BY IDOCK:   -7.43 KCAL/MOL
REMARK 924 INTRA-LIGAND FREE ENERGY PREDICTED BY IDOCK:    0.07 KCAL/MOL
REMARK 927      BINDING AFFINITY PREDICTED BY RF-SCORE:    0.00 PKD
ROOT
HETATM    1  N   UNL     1      -9.955  20.419  65.661  1.00  0.00    -0.517 NA 
HETATM    2  C   UNL     1      -9.495  19.487  66.534  1.00  0.00    -0.375 C  
HETATM    3  H2  UNL     1      -9.598  21.374  65.709  1.00  0.00     0.000 HD 
HETATM    4  H1  UNL     1     -10.653  20.178  64.957  1.00  0.00     0.000 HD 
HETATM    5  N   UNL     1      -8.605  19.795  67.430  1.00  0.00    -0.311 N  
HETATM    6  C   UNL     1      -8.161  18.822  68.340  1.00  0.00    -0.340 C  
HETATM    7  H   UNL     1      -8.231  20.742  67.473  1.00  0.00     0.000 HD 
HETATM    8  C   UNL     1      -8.799  17.502  68.209  1.00  0.00    -0.274 A  
HETATM    9  O   UNL     1      -7.297  19.053  69.179  1.00  0.00    -0.320 OA 
HETATM   10  C   UNL     1      -9.720  17.300  67.216  1.00  0.00    -0.262 A  
HETATM   11  N   UNL     1     -10.069  18.258  66.348  1.00  0.00    -0.378 NA 
HETATM   12  N   UNL     1     -10.143  16.011  67.314  1.00  0.00    -0.260 NA 
HETATM   13  N   UNL     1      -8.649  16.348  68.945  1.00  0.00    -0.246 NA 
HETATM   14  C   UNL     1      -9.468  15.474  68.383  1.00  0.00    -0.196 A  
ENDROOT
BRANCH  12  15
HETATM   15  C   UNL     1     -11.033  15.336  66.395  1.00  0.00    -0.299 C  
HETATM   16  C   UNL     1     -10.379  14.897  65.085  1.00  0.00    -0.431 C  
HETATM   17  C   UNL     1     -11.468  14.029  64.468  1.00  0.00    -0.370 C  
HETATM   18  O   UNL     1     -12.475  14.891  63.927  1.00  0.00    -1.009 OA 
HETATM   19  C   UNL     1     -12.064  13.226  65.649  1.00  0.00    -0.488 C  
HETATM   20  C   UNL     1     -11.711  14.071  66.876  1.00  0.00    -0.435 C  
HETATM   21  H   UNL     1     -13.155  14.351  63.542  1.00  0.00     0.000 HD 
HETATM   22  C   UNL     1     -11.966  13.721  68.148  1.00  0.00    -0.394 C  
BRANCH  19  23
HETATM   23  C   UNL     1     -11.506  11.799  65.693  1.00  0.00    -0.186 C  
HETATM   24  O   UNL     1     -10.963  11.407  64.438  1.00  0.00    -0.341 OA 
HETATM   25  H   UNL     1     -10.617  10.522  64.466  1.00  0.00     0.000 HD 
ENDBRANCH  19  23
ENDBRANCH  12  15
TORSDOF 2
ENDMDL
MODEL       22
REMARK 921   NORMALIZED FREE ENERGY PREDICTED BY IDOCK:   -6.24 KCAL/MOL
REMARK 922        TOTAL FREE ENERGY PREDICTED BY IDOCK:   -7.31 KCAL/MOL
REMARK 923 INTER-LIGAND FREE ENERGY PREDICTED BY IDOCK:   -6.88 KCAL/MOL
REMARK 924 INTRA-LIGAND FREE ENERGY PREDICTED BY IDOCK:   -0.43 KCAL/MOL
REMARK 927      BINDING AFFINITY PREDICTED BY RF-SCORE:    0.00 PKD
ROOT
HETATM    1  N   UNL     1     -12.661  14.352  63.338  1.00  0.00    -0.970 NA 
HETATM    2  C   UNL     1     -11.646  14.557  64.215  1.00  0.00    -0.238 C  
HETATM    3  H2  UNL     1     -13.092  15.150  62.871  1.00  0.00     0.000 HD 
HETATM    4  H1  UNL     1     -12.998  13.410  63.138  1.00  0.00     0.000 HD 
HETATM    5  N   UNL     1     -11.217  15.758  64.469  1.00  0.00    -0.715 N  
HETATM    6  C   UNL     1     -10.182  15.950  65.399  1.00  0.00    -0.323 C  
HETATM    7  H   UNL     1     -11.631  16.559  63.994  1.00  0.00     0.000 HD 
HETATM    8  C   UNL     1      -9.689  14.727  66.052  1.00  0.00    -0.321 A  
HETATM    9  O   UNL     1      -9.718  17.059  65.645  1.00  0.00    -0.543 OA 
HETATM   10  C   UNL     1     -10.219  13.517  65.693  1.00  0.00    -0.296 A  
HETATM   11  N   UNL     1     -11.175  13.394  64.762  1.00  0.00    -0.330 NA 
HETATM   12  N   UNL     1      -9.591  12.565  66.432  1.00  0.00    -0.245 NA 
HETATM   13  N   UNL     1      -8.737  14.545  67.030  1.00  0.00    -0.231 NA 
HETATM   14  C   UNL     1      -8.702  13.238  67.235  1.00  0.00    -0.214 A  
ENDROOT
BRANCH  12  15
HETATM   15  C   UNL     1      -9.758  11.134  66.298  1.00  0.00    -0.211 C  
HETATM   16  C   UNL     1      -8.457  10.335  66.365  1.00  0.00    -0.132 C  
HETATM   17  C   UNL     1      -8.974   8.904  66.443  1.00  0.00    -0.158 C  
HETATM   18  O   UNL     1      -9.402   8.509  65.134  1.00  0.00    -0.421 OA 
HETATM   19  C   UNL     1     -10.201   8.968  67.385  1.00  0.00    -0.308 C  
HETATM   20  C   UNL     1     -10.639  10.433  67.309  1.00  0.00    -0.322 C  
HETATM   21  H   UNL     1      -9.725   7.617  65.183  1.00  0.00     0.000 HD 
HETATM   22  C   UNL     1     -11.634  10.974  68.032  1.00  0.00    -0.326 C  
BRANCH  19  23
HETATM   23  C   UNL     1      -9.845   8.495  68.799  1.00  0.00    -0.173 C  
HETATM   24  O   UNL     1     -10.919   7.783  69.402  1.00  0.00    -0.398 OA 
HETATM   25  H   UNL     1     -10.698   7.490  70.278  1.00  0.00     0.000 HD 
ENDBRANCH  19  23
ENDBRANCH  12  15
TORSDOF 2
ENDMDL
MODEL       23
REMARK 921   NORMALIZED FREE ENERGY PREDICTED BY IDOCK:   -6.22 KCAL/MOL
REMARK 922        TOTAL FREE ENERGY PREDICTED BY IDOCK:   -7.28 KCAL/MOL
REMARK 923 INTER-LIGAND FREE ENERGY PREDICTED BY IDOCK:   -7.06 KCAL/MOL
REMARK 924 INTRA-LIGAND FREE ENERGY PREDICTED BY IDOCK:   -0.21 KCAL/MOL
REMARK 927      BINDING AFFINITY PREDICTED BY RF-SCORE:    0.00 PKD
ROOT
HETATM    1  N   UNL     1      -7.984  21.149  67.150  1.00  0.00    -0.649 NA 
HETATM    2  C   UNL     1      -7.697  19.967  67.753  1.00  0.00    -0.292 C  
HETATM    3  H2  UNL     1      -7.449  21.982  67.394  1.00  0.00     0.000 HD 
HETATM    4  H1  UNL     1      -8.729  21.214  66.456  1.00  0.00     0.000 HD 
HETATM    5  N   UNL     1      -6.747  19.884  68.637  1.00  0.00    -0.302 N  
HETATM    6  C   UNL     1      -6.482  18.658  69.267  1.00  0.00    -0.270 C  
HETATM    7  H   UNL     1      -6.196  20.709  68.873  1.00  0.00     0.000 HD 
HETATM    8  C   UNL     1      -7.366  17.547  68.878  1.00  0.00    -0.245 A  
HETATM    9  O   UNL     1      -5.574  18.520  70.080  1.00  0.00    -0.221 OA 
HETATM   10  C   UNL     1      -8.327  17.760  67.927  1.00  0.00    -0.241 A  
HETATM   11  N   UNL     1      -8.502  18.945  67.327  1.00  0.00    -0.274 NA 
HETATM   12  N   UNL     1      -8.990  16.586  67.752  1.00  0.00    -0.201 NA 
HETATM   13  N   UNL     1      -7.428  16.244  69.318  1.00  0.00    -0.235 NA 
HETATM   14  C   UNL     1      -8.411  15.694  68.623  1.00  0.00    -0.179 A  
ENDROOT
BRANCH  12  15
HETATM   15  C   UNL     1     -10.012  16.323  66.762  1.00  0.00    -0.261 C  
HETATM   16  C   UNL     1      -9.551  15.457  65.590  1.00  0.00    -0.323 C  
HETATM   17  C   UNL     1     -10.867  15.166  64.881  1.00  0.00    -0.418 C  
HETATM   18  O   UNL     1     -11.251  16.334  64.148  1.00  0.00    -1.193 OA 
HETATM   19  C   UNL     1     -11.891  14.916  66.016  1.00  0.00    -0.114 C  
HETATM   20  C   UNL     1     -11.274  15.627  67.223  1.00  0.00    -0.184 C  
HETATM   21  H   UNL     1     -12.072  16.153  63.706  1.00  0.00     0.000 HD 
HETATM   22  C   UNL     1     -11.784  15.612  68.466  1.00  0.00    -0.339 C  
BRANCH  19  23
HETATM   23  C   UNL     1     -12.133  13.418  66.231  1.00  0.00    -0.422 C  
HETATM   24  O   UNL     1     -12.908  12.853  65.180  1.00  0.00    -0.702 OA 
HETATM   25  H   UNL     1     -13.058  11.924  65.313  1.00  0.00     0.000 HD 
ENDBRANCH  19  23
ENDBRANCH  12  15
TORSDOF 2
ENDMDL
MODEL       24
REMARK 921   NORMALIZED FREE ENERGY PREDICTED BY IDOCK:   -6.17 KCAL/MOL
REMARK 922        TOTAL FREE ENERGY PREDICTED BY IDOCK:   -7.23 KCAL/MOL
REMARK 923 INTER-LIGAND FREE ENERGY PREDICTED BY IDOCK:   -6.87 KCAL/MOL
REMARK 924 INTRA-LIGAND FREE ENERGY PREDICTED BY IDOCK:   -0.36 KCAL/MOL
REMARK 927      BINDING AFFINITY PREDICTED BY RF-SCORE:    0.00 PKD
ROOT
HETATM    1  N   UNL     1      -8.696  16.495  66.533  1.00  0.00    -0.253 NA 
HETATM    2  C   UNL     1      -9.756  15.849  65.984  1.00  0.00    -0.343 C  
HETATM    3  H2  UNL     1      -8.506  17.463  66.271  1.00  0.00     0.000 HD 
HETATM    4  H1  UNL     1      -8.087  16.027  67.203  1.00  0.00     0.000 HD 
HETATM    5  N   UNL     1     -10.532  16.446  65.129  1.00  0.00    -0.276 N  
HETATM    6  C   UNL     1     -11.608  15.752  64.554  1.00  0.00    -0.247 C  
HETATM    7  H   UNL     1     -10.359  17.419  64.876  1.00  0.00     0.000 HD 
HETATM    8  C   UNL     1     -11.737  14.344  64.963  1.00  0.00    -0.389 A  
HETATM    9  O   UNL     1     -12.389  16.282  63.772  1.00  0.00    -0.828 OA 
HETATM   10  C   UNL     1     -10.859  13.830  65.879  1.00  0.00    -0.283 A  
HETATM   11  N   UNL     1      -9.877  14.559  66.428  1.00  0.00    -0.278 NA 
HETATM   12  N   UNL     1     -11.200  12.530  66.082  1.00  0.00    -0.305 NA 
HETATM   13  N   UNL     1     -12.625  13.366  64.573  1.00  0.00    -0.643 NA 
HETATM   14  C   UNL     1     -12.276  12.292  65.263  1.00  0.00    -0.244 A  
ENDROOT
BRANCH  12  15
HETATM   15  C   UNL     1     -10.609  11.636  67.054  1.00  0.00    -0.237 C  
HETATM   16  C   UNL     1     -11.589  11.095  68.095  1.00  0.00    -0.350 C  
HETATM   17  C   UNL     1     -10.749  10.032  68.791  1.00  0.00    -0.223 C  
HETATM   18  O   UNL     1      -9.835  10.690  69.677  1.00  0.00    -0.413 OA 
HETATM   19  C   UNL     1      -9.952   9.340  67.658  1.00  0.00    -0.245 C  
HETATM   20  C   UNL     1      -9.936  10.383  66.538  1.00  0.00    -0.271 C  
HETATM   21  H   UNL     1      -9.311  10.028  70.111  1.00  0.00     0.000 HD 
HETATM   22  C   UNL     1      -9.413  10.188  65.316  1.00  0.00    -0.306 C  
BRANCH  19  23
HETATM   23  C   UNL     1     -10.592   8.005  67.260  1.00  0.00    -0.290 C  
HETATM   24  O   UNL     1     -11.112   7.313  68.388  1.00  0.00    -0.444 OA 
HETATM   25  H   UNL     1     -11.509   6.486  68.141  1.00  0.00     0.000 HD 
ENDBRANCH  19  23
ENDBRANCH  12  15
TORSDOF 2
ENDMDL
MODEL       25
REMARK 921   NORMALIZED FREE ENERGY PREDICTED BY IDOCK:   -6.10 KCAL/MOL
REMARK 922        TOTAL FREE ENERGY PREDICTED BY IDOCK:   -7.15 KCAL/MOL
REMARK 923 INTER-LIGAND FREE ENERGY PREDICTED BY IDOCK:   -7.28 KCAL/MOL
REMARK 924 INTRA-LIGAND FREE ENERGY PREDICTED BY IDOCK:    0.13 KCAL/MOL
REMARK 927      BINDING AFFINITY PREDICTED BY RF-SCORE:    0.00 PKD
ROOT
HETATM    1  N   UNL     1     -14.061   9.568  72.705  1.00  0.00    -0.799 NA 
HETATM    2  C   UNL     1     -13.006   9.622  71.852  1.00  0.00    -0.435 C  
HETATM    3  H2  UNL     1     -14.251   8.706  73.216  1.00  0.00     0.000 HD 
HETATM    4  H1  UNL     1     -14.665  10.378  72.841  1.00  0.00     0.000 HD 
HETATM    5  N   UNL     1     -12.236   8.589  71.679  1.00  0.00    -0.306 N  
HETATM    6  C   UNL     1     -11.164   8.657  70.774  1.00  0.00    -0.261 C  
HETATM    7  H   UNL     1     -12.410   7.730  72.200  1.00  0.00     0.000 HD 
HETATM    8  C   UNL     1     -11.034   9.933  70.050  1.00  0.00    -0.291 A  
HETATM    9  O   UNL     1     -10.388   7.723  70.603  1.00  0.00    -0.200 OA 
HETATM   10  C   UNL     1     -11.906  10.951  70.328  1.00  0.00    -0.361 A  
HETATM   11  N   UNL     1     -12.882  10.839  71.239  1.00  0.00    -0.408 NA 
HETATM   12  N   UNL     1     -11.565  12.002  69.536  1.00  0.00    -0.313 NA 
HETATM   13  N   UNL     1     -10.150  10.331  69.073  1.00  0.00    -0.201 NA 
HETATM   14  C   UNL     1     -10.494  11.577  68.787  1.00  0.00    -0.204 A  
ENDROOT
BRANCH  12  15
HETATM   15  C   UNL     1     -12.149  13.325  69.578  1.00  0.00    -0.258 C  
HETATM   16  C   UNL     1     -11.732  14.164  70.786  1.00  0.00    -0.231 C  
HETATM   17  C   UNL     1     -12.292  15.533  70.423  1.00  0.00    -0.413 C  
HETATM   18  O   UNL     1     -13.705  15.515  70.652  1.00  0.00    -0.851 OA 
HETATM   19  C   UNL     1     -12.021  15.692  68.907  1.00  0.00    -0.298 C  
HETATM   20  C   UNL     1     -11.876  14.251  68.413  1.00  0.00    -0.373 C  
HETATM   21  H   UNL     1     -14.055  16.369  70.425  1.00  0.00     0.000 HD 
HETATM   22  C   UNL     1     -11.556  13.899  67.156  1.00  0.00    -0.391 C  
BRANCH  19  23
HETATM   23  C   UNL     1     -10.790  16.567  68.648  1.00  0.00    -0.345 C  
HETATM   24  O   UNL     1     -10.721  17.661  69.554  1.00  0.00    -0.342 OA 
HETATM   25  H   UNL     1      -9.957  18.203  69.393  1.00  0.00     0.000 HD 
ENDBRANCH  19  23
ENDBRANCH  12  15
TORSDOF 2
ENDMDL
MODEL       26
REMARK 921   NORMALIZED FREE ENERGY PREDICTED BY IDOCK:   -6.08 KCAL/MOL
REMARK 922        TOTAL FREE ENERGY PREDICTED BY IDOCK:   -7.13 KCAL/MOL
REMARK 923 INTER-LIGAND FREE ENERGY PREDICTED BY IDOCK:   -7.06 KCAL/MOL
REMARK 924 INTRA-LIGAND FREE ENERGY PREDICTED BY IDOCK:   -0.07 KCAL/MOL
REMARK 927      BINDING AFFINITY PREDICTED BY RF-SCORE:    0.00 PKD
ROOT
HETATM    1  N   UNL     1     -11.563  16.288  63.952  1.00  0.00    -1.573 NA 
HETATM    2  C   UNL     1     -11.100  16.540  65.203  1.00  0.00    -0.129 C  
HETATM    3  H2  UNL     1     -11.663  17.056  63.289  1.00  0.00     0.000 HD 
HETATM    4  H1  UNL     1     -11.813  15.341  63.668  1.00  0.00     0.000 HD 
HETATM    5  N   UNL     1     -10.782  17.748  65.566  1.00  0.00    -0.192 N  
HETATM    6  C   UNL     1     -10.329  17.990  66.872  1.00  0.00    -0.370 C  
HETATM    7  H   UNL     1     -10.863  18.517  64.902  1.00  0.00     0.000 HD 
HETATM    8  C   UNL     1     -10.291  16.812  67.754  1.00  0.00    -0.318 A  
HETATM    9  O   UNL     1      -9.982  19.104  67.250  1.00  0.00    -0.326 OA 
HETATM   10  C   UNL     1     -10.645  15.589  67.250  1.00  0.00    -0.299 A  
HETATM   11  N   UNL     1     -11.026  15.413  65.977  1.00  0.00    -0.314 NA 
HETATM   12  N   UNL     1     -10.517  14.685  68.257  1.00  0.00    -0.232 NA 
HETATM   13  N   UNL     1      -9.954  16.687  69.082  1.00  0.00    -0.271 NA 
HETATM   14  C   UNL     1     -10.099  15.400  69.353  1.00  0.00    -0.269 A  
ENDROOT
BRANCH  12  15
HETATM   15  C   UNL     1     -10.680  13.252  68.141  1.00  0.00    -0.249 C  
HETATM   16  C   UNL     1     -11.886  12.816  67.310  1.00  0.00    -0.414 C  
HETATM   17  C   UNL     1     -11.646  11.318  67.173  1.00  0.00    -0.028 C  
HETATM   18  O   UNL     1     -12.000  10.692  68.411  1.00  0.00    -0.775 OA 
HETATM   19  C   UNL     1     -10.122  11.172  66.944  1.00  0.00    -0.250 C  
HETATM   20  C   UNL     1      -9.543  12.463  67.528  1.00  0.00    -0.185 C  
HETATM   21  H   UNL     1     -11.850   9.758  68.326  1.00  0.00     0.000 HD 
HETATM   22  C   UNL     1      -8.246  12.812  67.484  1.00  0.00    -0.179 C  
BRANCH  19  23
HETATM   23  C   UNL     1      -9.796  10.956  65.462  1.00  0.00    -0.246 C  
HETATM   24  O   UNL     1      -9.802   9.577  65.117  1.00  0.00    -0.435 OA 
HETATM   25  H   UNL     1      -9.601   9.444  64.197  1.00  0.00     0.000 HD 
ENDBRANCH  19  23
ENDBRANCH  12  15
TORSDOF 2
ENDMDL
MODEL       27
REMARK 921   NORMALIZED FREE ENERGY PREDICTED BY IDOCK:   -6.08 KCAL/MOL
REMARK 922        TOTAL FREE ENERGY PREDICTED BY IDOCK:   -7.12 KCAL/MOL
REMARK 923 INTER-LIGAND FREE ENERGY PREDICTED BY IDOCK:   -7.03 KCAL/MOL
REMARK 924 INTRA-LIGAND FREE ENERGY PREDICTED BY IDOCK:   -0.10 KCAL/MOL
REMARK 927      BINDING AFFINITY PREDICTED BY RF-SCORE:    0.00 PKD
ROOT
HETATM    1  N   UNL     1      -9.211   8.012  68.498  1.00  0.00    -0.136 NA 
HETATM    2  C   UNL     1      -9.993   8.982  69.036  1.00  0.00    -0.185 C  
HETATM    3  H2  UNL     1      -9.081   7.133  69.000  1.00  0.00     0.000 HD 
HETATM    4  H1  UNL     1      -8.751   8.149  67.597  1.00  0.00     0.000 HD 
HETATM    5  N   UNL     1     -10.578   8.806  70.183  1.00  0.00    -0.217 N  
HETATM    6  C   UNL     1     -11.363   9.832  70.734  1.00  0.00    -0.342 C  
HETATM    7  H   UNL     1     -10.467   7.924  70.683  1.00  0.00     0.000 HD 
HETATM    8  C   UNL     1     -11.419  11.073  69.945  1.00  0.00    -0.320 A  
HETATM    9  O   UNL     1     -11.964   9.700  71.795  1.00  0.00    -0.381 OA 
HETATM   10  C   UNL     1     -10.763  11.132  68.745  1.00  0.00    -0.199 A  
HETATM   11  N   UNL     1     -10.066  10.100  68.249  1.00  0.00    -0.151 NA 
HETATM   12  N   UNL     1     -10.979  12.370  68.226  1.00  0.00    -0.223 NA 
HETATM   13  N   UNL     1     -12.038  12.277  70.196  1.00  0.00    -0.321 NA 
HETATM   14  C   UNL     1     -11.756  13.032  69.146  1.00  0.00    -0.326 A  
ENDROOT
BRANCH  12  15
HETATM   15  C   UNL     1     -10.565  12.830  66.919  1.00  0.00    -0.244 C  
HETATM   16  C   UNL     1     -11.625  12.678  65.828  1.00  0.00    -0.431 C  
HETATM   17  C   UNL     1     -11.000  13.452  64.675  1.00  0.00    -0.377 C  
HETATM   18  O   UNL     1      -9.974  12.639  64.093  1.00  0.00    -0.570 OA 
HETATM   19  C   UNL     1     -10.355  14.699  65.327  1.00  0.00    -0.425 C  
HETATM   20  C   UNL     1     -10.145  14.278  66.784  1.00  0.00    -0.264 C  
HETATM   21  H   UNL     1      -9.584  13.121  63.374  1.00  0.00     0.000 HD 
HETATM   22  C   UNL     1      -9.674  15.079  67.755  1.00  0.00    -0.215 C  
BRANCH  19  23
HETATM   23  C   UNL     1     -11.238  15.940  65.157  1.00  0.00    -0.224 C  
HETATM   24  O   UNL     1     -11.460  16.244  63.786  1.00  0.00    -1.475 OA 
HETATM   25  H   UNL     1     -12.009  17.013  63.680  1.00  0.00     0.000 HD 
ENDBRANCH  19  23
ENDBRANCH  12  15
TORSDOF 2
ENDMDL
MODEL       28
REMARK 921   NORMALIZED FREE ENERGY PREDICTED BY IDOCK:   -6.06 KCAL/MOL
REMARK 922        TOTAL FREE ENERGY PREDICTED BY IDOCK:   -7.10 KCAL/MOL
REMARK 923 INTER-LIGAND FREE ENERGY PREDICTED BY IDOCK:   -6.80 KCAL/MOL
REMARK 924 INTRA-LIGAND FREE ENERGY PREDICTED BY IDOCK:   -0.30 KCAL/MOL
REMARK 927      BINDING AFFINITY PREDICTED BY RF-SCORE:    0.00 PKD
ROOT
HETATM    1  N   UNL     1     -12.936  15.828  70.405  1.00  0.00    -0.714 NA 
HETATM    2  C   UNL     1     -12.286  15.407  69.291  1.00  0.00    -0.188 C  
HETATM    3  H2  UNL     1     -13.682  15.254  70.800  1.00  0.00     0.000 HD 
HETATM    4  H1  UNL     1     -12.690  16.711  70.853  1.00  0.00     0.000 HD 
HETATM    5  N   UNL     1     -12.600  14.282  68.720  1.00  0.00    -0.411 N  
HETATM    6  C   UNL     1     -11.931  13.876  67.554  1.00  0.00    -0.386 C  
HETATM    7  H   UNL     1     -13.332  13.695  69.119  1.00  0.00     0.000 HD 
HETATM    8  C   UNL     1     -10.922  14.821  67.048  1.00  0.00    -0.324 A  
HETATM    9  O   UNL     1     -12.166  12.807  67.001  1.00  0.00    -0.431 OA 
HETATM   10  C   UNL     1     -10.676  15.973  67.745  1.00  0.00    -0.323 A  
HETATM   11  N   UNL     1     -11.317  16.283  68.880  1.00  0.00    -0.339 NA 
HETATM   12  N   UNL     1      -9.710  16.654  67.073  1.00  0.00    -0.243 NA 
HETATM   13  N   UNL     1     -10.125  14.777  65.927  1.00  0.00    -0.303 NA 
HETATM   14  C   UNL     1      -9.409  15.889  65.971  1.00  0.00    -0.349 A  
ENDROOT
BRANCH  12  15
HETATM   15  C   UNL     1      -9.064  17.872  67.511  1.00  0.00    -0.245 C  
HETATM   16  C   UNL     1      -7.540  17.786  67.597  1.00  0.00    -0.215 C  
HETATM   17  C   UNL     1      -7.159  19.241  67.833  1.00  0.00    -0.243 C  
HETATM   18  O   UNL     1      -7.433  19.561  69.202  1.00  0.00    -0.366 OA 
HETATM   19  C   UNL     1      -8.101  20.061  66.919  1.00  0.00    -0.361 C  
HETATM   20  C   UNL     1      -9.288  19.121  66.687  1.00  0.00    -0.375 C  
HETATM   21  H   UNL     1      -7.196  20.468  69.350  1.00  0.00     0.000 HD 
HETATM   22  C   UNL     1     -10.330  19.385  65.881  1.00  0.00    -0.536 C  
BRANCH  19  23
HETATM   23  C   UNL     1      -7.391  20.498  65.633  1.00  0.00    -0.033 C  
HETATM   24  O   UNL     1      -6.893  19.385  64.901  1.00  0.00    -0.418 OA 
HETATM   25  H   UNL     1      -6.453  19.657  64.104  1.00  0.00     0.000 HD 
ENDBRANCH  19  23
ENDBRANCH  12  15
TORSDOF 2
ENDMDL
MODEL       29
REMARK 921   NORMALIZED FREE ENERGY PREDICTED BY IDOCK:   -6.03 KCAL/MOL
REMARK 922        TOTAL FREE ENERGY PREDICTED BY IDOCK:   -7.08 KCAL/MOL
REMARK 923 INTER-LIGAND FREE ENERGY PREDICTED BY IDOCK:   -7.14 KCAL/MOL
REMARK 924 INTRA-LIGAND FREE ENERGY PREDICTED BY IDOCK:    0.07 KCAL/MOL
REMARK 927      BINDING AFFINITY PREDICTED BY RF-SCORE:    0.00 PKD
ROOT
HETATM    1  N   UNL     1     -11.010   9.652  68.073  1.00  0.00    -0.475 NA 
HETATM    2  C   UNL     1     -11.490  10.681  68.816  1.00  0.00    -0.262 C  
HETATM    3  H2  UNL     1     -11.084   8.698  68.426  1.00  0.00     0.000 HD 
HETATM    4  H1  UNL     1     -10.576   9.820  67.165  1.00  0.00     0.000 HD 
HETATM    5  N   UNL     1     -12.042  10.466  69.973  1.00  0.00    -0.439 N  
HETATM    6  C   UNL     1     -12.509  11.548  70.738  1.00  0.00    -0.349 C  
HETATM    7  H   UNL     1     -12.135   9.514  70.325  1.00  0.00     0.000 HD 
HETATM    8  C   UNL     1     -12.286  12.878  70.148  1.00  0.00    -0.266 A  
HETATM    9  O   UNL     1     -13.071  11.394  71.818  1.00  0.00    -0.480 OA 
HETATM   10  C   UNL     1     -11.698  12.972  68.916  1.00  0.00    -0.328 A  
HETATM   11  N   UNL     1     -11.314  11.897  68.213  1.00  0.00    -0.252 NA 
HETATM   12  N   UNL     1     -11.616  14.293  68.607  1.00  0.00    -0.298 NA 
HETATM   13  N   UNL     1     -12.563  14.138  70.628  1.00  0.00    -0.342 NA 
HETATM   14  C   UNL     1     -12.150  14.964  69.681  1.00  0.00    -0.295 A  
ENDROOT
BRANCH  12  15
HETATM   15  C   UNL     1     -11.164  14.848  67.349  1.00  0.00    -0.338 C  
HETATM   16  C   UNL     1      -9.667  14.688  67.088  1.00  0.00    -0.235 C  
HETATM   17  C   UNL     1      -9.555  15.130  65.635  1.00  0.00    -0.260 C  
HETATM   18  O   UNL     1      -9.629  16.559  65.593  1.00  0.00    -0.511 OA 
HETATM   19  C   UNL     1     -10.800  14.533  64.933  1.00  0.00    -0.436 C  
HETATM   20  C   UNL     1     -11.789  14.312  66.080  1.00  0.00    -0.413 C  
HETATM   21  H   UNL     1      -9.559  16.835  64.687  1.00  0.00     0.000 HD 
HETATM   22  C   UNL     1     -12.995  13.733  65.952  1.00  0.00    -0.240 C  
BRANCH  19  23
HETATM   23  C   UNL     1     -10.448  13.259  64.157  1.00  0.00    -0.260 C  
HETATM   24  O   UNL     1     -11.307  13.068  63.041  1.00  0.00    -0.666 OA 
HETATM   25  H   UNL     1     -11.088  12.278  62.560  1.00  0.00     0.000 HD 
ENDBRANCH  19  23
ENDBRANCH  12  15
TORSDOF 2
ENDMDL
MODEL       30
REMARK 921   NORMALIZED FREE ENERGY PREDICTED BY IDOCK:   -6.03 KCAL/MOL
REMARK 922        TOTAL FREE ENERGY PREDICTED BY IDOCK:   -7.07 KCAL/MOL
REMARK 923 INTER-LIGAND FREE ENERGY PREDICTED BY IDOCK:   -7.13 KCAL/MOL
REMARK 924 INTRA-LIGAND FREE ENERGY PREDICTED BY IDOCK:    0.06 KCAL/MOL
REMARK 927      BINDING AFFINITY PREDICTED BY RF-SCORE:    0.00 PKD
ROOT
HETATM    1  N   UNL     1     -10.980   7.991  69.133  1.00  0.00    -0.428 NA 
HETATM    2  C   UNL     1     -10.357   8.286  67.964  1.00  0.00    -0.213 C  
HETATM    3  H2  UNL     1     -10.806   7.092  69.583  1.00  0.00     0.000 HD 
HETATM    4  H1  UNL     1     -11.621   8.655  69.567  1.00  0.00     0.000 HD 
HETATM    5  N   UNL     1      -9.541   7.439  67.411  1.00  0.00    -0.142 N  
HETATM    6  C   UNL     1      -8.925   7.755  66.189  1.00  0.00    -0.163 C  
HETATM    7  H   UNL     1      -9.348   6.547  67.864  1.00  0.00     0.000 HD 
HETATM    8  C   UNL     1      -9.308   9.052  65.608  1.00  0.00    -0.222 A  
HETATM    9  O   UNL     1      -8.120   7.005  65.647  1.00  0.00    -0.115 OA 
HETATM   10  C   UNL     1     -10.175   9.861  66.293  1.00  0.00    -0.211 A  
HETATM   11  N   UNL     1     -10.695   9.523  67.481  1.00  0.00    -0.281 NA 
HETATM   12  N   UNL     1     -10.353  10.984  65.549  1.00  0.00    -0.263 NA 
HETATM   13  N   UNL     1      -8.949   9.654  64.424  1.00  0.00    -0.232 NA 
HETATM   14  C   UNL     1      -9.591  10.811  64.419  1.00  0.00    -0.279 A  
ENDROOT
BRANCH  12  15
HETATM   15  C   UNL     1     -11.103  12.157  65.943  1.00  0.00    -0.318 C  
HETATM   16  C   UNL     1     -10.351  13.105  66.878  1.00  0.00    -0.247 C  
HETATM   17  C   UNL     1     -11.276  14.314  66.906  1.00  0.00    -0.326 C  
HETATM   18  O   UNL     1     -12.388  14.010  67.756  1.00  0.00    -0.516 OA 
HETATM   19  C   UNL     1     -11.775  14.475  65.449  1.00  0.00    -0.354 C  
HETATM   20  C   UNL     1     -11.591  13.080  64.848  1.00  0.00    -0.362 C  
HETATM   21  H   UNL     1     -12.965  14.765  67.773  1.00  0.00     0.000 HD 
HETATM   22  C   UNL     1     -11.826  12.761  63.564  1.00  0.00    -0.618 C  
BRANCH  19  23
HETATM   23  C   UNL     1     -11.006  15.578  64.713  1.00  0.00    -0.399 C  
HETATM   24  O   UNL     1     -11.837  16.275  63.793  1.00  0.00    -1.445 OA 
HETATM   25  H   UNL     1     -11.360  16.959  63.337  1.00  0.00     0.000 HD 
ENDBRANCH  19  23
ENDBRANCH  12  15
TORSDOF 2
ENDMDL
MODEL       31
REMARK 921   NORMALIZED FREE ENERGY PREDICTED BY IDOCK:   -6.02 KCAL/MOL
REMARK 922        TOTAL FREE ENERGY PREDICTED BY IDOCK:   -7.06 KCAL/MOL
REMARK 923 INTER-LIGAND FREE ENERGY PREDICTED BY IDOCK:   -6.94 KCAL/MOL
REMARK 924 INTRA-LIGAND FREE ENERGY PREDICTED BY IDOCK:   -0.12 KCAL/MOL
REMARK 927      BINDING AFFINITY PREDICTED BY RF-SCORE:    0.00 PKD
ROOT
HETATM    1  N   UNL     1      -8.635  15.493  66.734  1.00  0.00    -0.251 NA 
HETATM    2  C   UNL     1      -9.676  15.119  65.949  1.00  0.00    -0.350 C  
HETATM    3  H2  UNL     1      -8.387  16.481  66.805  1.00  0.00     0.000 HD 
HETATM    4  H1  UNL     1      -8.097  14.801  67.255  1.00  0.00     0.000 HD 
HETATM    5  N   UNL     1     -10.362  16.001  65.285  1.00  0.00    -0.345 N  
HETATM    6  C   UNL     1     -11.420  15.590  64.459  1.00  0.00    -0.308 C  
HETATM    7  H   UNL     1     -10.132  16.991  65.364  1.00  0.00     0.000 HD 
HETATM    8  C   UNL     1     -11.636  14.136  64.391  1.00  0.00    -0.362 A  
HETATM    9  O   UNL     1     -12.120  16.387  63.842  1.00  0.00    -0.977 OA 
HETATM   10  C   UNL     1     -10.850  13.307  65.146  1.00  0.00    -0.310 A  
HETATM   11  N   UNL     1      -9.883  13.765  65.953  1.00  0.00    -0.287 NA 
HETATM   12  N   UNL     1     -11.257  12.033  64.905  1.00  0.00    -0.320 NA 
HETATM   13  N   UNL     1     -12.531  13.387  63.661  1.00  0.00    -0.746 NA 
HETATM   14  C   UNL     1     -12.279  12.131  63.992  1.00  0.00    -0.446 A  
ENDROOT
BRANCH  12  15
HETATM   15  C   UNL     1     -10.776  10.844  65.575  1.00  0.00    -0.112 C  
HETATM   16  C   UNL     1      -9.288  10.561  65.374  1.00  0.00    -0.255 C  
HETATM   17  C   UNL     1      -9.048   9.433  66.368  1.00  0.00    -0.161 C  
HETATM   18  O   UNL     1      -9.574   8.223  65.811  1.00  0.00    -0.445 OA 
HETATM   19  C   UNL     1      -9.869   9.818  67.623  1.00  0.00    -0.202 C  
HETATM   20  C   UNL     1     -10.935  10.773  67.078  1.00  0.00    -0.292 C  
HETATM   21  H   UNL     1      -9.425   7.519  66.431  1.00  0.00     0.000 HD 
HETATM   22  C   UNL     1     -11.837  11.425  67.831  1.00  0.00    -0.239 C  
BRANCH  19  23
HETATM   23  C   UNL     1      -8.978  10.430  68.709  1.00  0.00    -0.157 C  
HETATM   24  O   UNL     1      -9.430  10.092  70.014  1.00  0.00    -0.375 OA 
HETATM   25  H   UNL     1      -8.877  10.472  70.687  1.00  0.00     0.000 HD 
ENDBRANCH  19  23
ENDBRANCH  12  15
TORSDOF 2
ENDMDL
MODEL       32
REMARK 921   NORMALIZED FREE ENERGY PREDICTED BY IDOCK:   -6.00 KCAL/MOL
REMARK 922        TOTAL FREE ENERGY PREDICTED BY IDOCK:   -7.04 KCAL/MOL
REMARK 923 INTER-LIGAND FREE ENERGY PREDICTED BY IDOCK:   -6.61 KCAL/MOL
REMARK 924 INTRA-LIGAND FREE ENERGY PREDICTED BY IDOCK:   -0.43 KCAL/MOL
REMARK 927      BINDING AFFINITY PREDICTED BY RF-SCORE:    0.00 PKD
ROOT
HETATM    1  N   UNL     1      -8.713  10.491  65.077  1.00  0.00    -0.179 NA 
HETATM    2  C   UNL     1      -9.840  11.232  64.925  1.00  0.00    -0.264 C  
HETATM    3  H2  UNL     1      -8.510   9.742  64.415  1.00  0.00     0.000 HD 
HETATM    4  H1  UNL     1      -8.066  10.674  65.844  1.00  0.00     0.000 HD 
HETATM    5  N   UNL     1     -10.664  10.999  63.948  1.00  0.00    -0.510 N  
HETATM    6  C   UNL     1     -11.837  11.761  63.823  1.00  0.00    -0.380 C  
HETATM    7  H   UNL     1     -10.460  10.263  63.272  1.00  0.00     0.000 HD 
HETATM    8  C   UNL     1     -12.048  12.767  64.877  1.00  0.00    -0.438 A  
HETATM    9  O   UNL     1     -12.627  11.604  62.898  1.00  0.00    -0.206 OA 
HETATM   10  C   UNL     1     -11.099  12.923  65.852  1.00  0.00    -0.283 A  
HETATM   11  N   UNL     1      -9.975  12.194  65.891  1.00  0.00    -0.241 NA 
HETATM   12  N   UNL     1     -11.532  13.907  66.683  1.00  0.00    -0.340 NA 
HETATM   13  N   UNL     1     -13.088  13.641  65.098  1.00  0.00    -0.734 NA 
HETATM   14  C   UNL     1     -12.748  14.310  66.187  1.00  0.00    -0.131 A  
ENDROOT
BRANCH  12  15
HETATM   15  C   UNL     1     -10.791  14.477  67.788  1.00  0.00    -0.264 C  
HETATM   16  C   UNL     1     -10.980  15.983  67.968  1.00  0.00    -0.341 C  
HETATM   17  C   UNL     1     -10.298  16.224  69.309  1.00  0.00    -0.277 C  
HETATM   18  O   UNL     1      -8.881  16.208  69.101  1.00  0.00    -0.246 OA 
HETATM   19  C   UNL     1     -10.698  15.015  70.190  1.00  0.00    -0.183 C  
HETATM   20  C   UNL     1     -11.065  13.932  69.173  1.00  0.00    -0.284 C  
HETATM   21  H   UNL     1      -8.455  16.358  69.936  1.00  0.00     0.000 HD 
HETATM   22  C   UNL     1     -11.550  12.718  69.485  1.00  0.00    -0.342 C  
BRANCH  19  23
HETATM   23  C   UNL     1     -11.834  15.378  71.153  1.00  0.00    -0.371 C  
HETATM   24  O   UNL     1     -11.593  16.616  71.810  1.00  0.00    -0.590 OA 
HETATM   25  H   UNL     1     -12.298  16.840  72.407  1.00  0.00     0.000 HD 
ENDBRANCH  19  23
ENDBRANCH  12  15
TORSDOF 2
ENDMDL
MODEL       33
REMARK 921   NORMALIZED FREE ENERGY PREDICTED BY IDOCK:   -5.98 KCAL/MOL
REMARK 922        TOTAL FREE ENERGY PREDICTED BY IDOCK:   -7.02 KCAL/MOL
REMARK 923 INTER-LIGAND FREE ENERGY PREDICTED BY IDOCK:   -7.24 KCAL/MOL
REMARK 924 INTRA-LIGAND FREE ENERGY PREDICTED BY IDOCK:    0.22 KCAL/MOL
REMARK 927      BINDING AFFINITY PREDICTED BY RF-SCORE:    0.00 PKD
ROOT
HETATM    1  N   UNL     1     -11.266  14.163  67.439  1.00  0.00    -0.306 NA 
HETATM    2  C   UNL     1     -11.794  14.071  68.686  1.00  0.00    -0.361 C  
HETATM    3  H2  UNL     1     -11.181  15.078  66.994  1.00  0.00     0.000 HD 
HETATM    4  H1  UNL     1     -10.952  13.331  66.940  1.00  0.00     0.000 HD 
HETATM    5  N   UNL     1     -12.193  15.133  69.321  1.00  0.00    -0.559 N  
HETATM    6  C   UNL     1     -12.759  15.012  70.600  1.00  0.00    -0.376 C  
HETATM    7  H   UNL     1     -12.095  16.051  68.890  1.00  0.00     0.000 HD 
HETATM    8  C   UNL     1     -12.886  13.635  71.104  1.00  0.00    -0.323 A  
HETATM    9  O   UNL     1     -13.116  15.986  71.254  1.00  0.00    -0.417 OA 
HETATM   10  C   UNL     1     -12.420  12.598  70.341  1.00  0.00    -0.143 A  
HETATM   11  N   UNL     1     -11.845  12.782  69.144  1.00  0.00    -0.309 NA 
HETATM   12  N   UNL     1     -12.651  11.451  71.033  1.00  0.00    -0.404 NA 
HETATM   13  N   UNL     1     -13.427  13.146  72.272  1.00  0.00    -0.567 NA 
HETATM   14  C   UNL     1     -13.270  11.834  72.199  1.00  0.00    -0.237 A  
ENDROOT
BRANCH  12  15
HETATM   15  C   UNL     1     -12.219  10.124  70.652  1.00  0.00    -0.302 C  
HETATM   16  C   UNL     1     -10.707   9.906  70.720  1.00  0.00    -0.350 C  
HETATM   17  C   UNL     1     -10.600   8.402  70.511  1.00  0.00    -0.216 C  
HETATM   18  O   UNL     1     -10.794   8.127  69.119  1.00  0.00    -0.387 OA 
HETATM   19  C   UNL     1     -11.772   7.796  71.320  1.00  0.00    -0.311 C  
HETATM   20  C   UNL     1     -12.766   8.954  71.440  1.00  0.00    -0.350 C  
HETATM   21  H   UNL     1     -10.728   7.188  68.988  1.00  0.00     0.000 HD 
HETATM   22  C   UNL     1     -13.914   8.911  72.135  1.00  0.00    -0.520 C  
BRANCH  19  23
HETATM   23  C   UNL     1     -11.294   7.242  72.667  1.00  0.00    -0.291 C  
HETATM   24  O   UNL     1     -11.806   5.938  72.912  1.00  0.00    -0.515 OA 
HETATM   25  H   UNL     1     -11.509   5.594  73.747  1.00  0.00     0.000 HD 
ENDBRANCH  19  23
ENDBRANCH  12  15
TORSDOF 2
ENDMDL
MODEL       34
REMARK 921   NORMALIZED FREE ENERGY PREDICTED BY IDOCK:   -5.97 KCAL/MOL
REMARK 922        TOTAL FREE ENERGY PREDICTED BY IDOCK:   -7.00 KCAL/MOL
REMARK 923 INTER-LIGAND FREE ENERGY PREDICTED BY IDOCK:   -6.85 KCAL/MOL
REMARK 924 INTRA-LIGAND FREE ENERGY PREDICTED BY IDOCK:   -0.15 KCAL/MOL
REMARK 927      BINDING AFFINITY PREDICTED BY RF-SCORE:    0.00 PKD
ROOT
HETATM    1  N   UNL     1     -11.861  16.444  63.709  1.00  0.00    -1.377 NA 
HETATM    2  C   UNL     1     -11.111  15.764  64.614  1.00  0.00    -0.361 C  
HETATM    3  H2  UNL     1     -12.545  15.941  63.144  1.00  0.00     0.000 HD 
HETATM    4  H1  UNL     1     -11.749  17.450  63.588  1.00  0.00     0.000 HD 
HETATM    5  N   UNL     1     -11.253  14.481  64.768  1.00  0.00    -0.445 N  
HETATM    6  C   UNL     1     -10.450  13.794  65.692  1.00  0.00    -0.305 C  
HETATM    7  H   UNL     1     -11.947  13.975  64.219  1.00  0.00     0.000 HD 
HETATM    8  C   UNL     1      -9.457  14.619  66.399  1.00  0.00    -0.299 A  
HETATM    9  O   UNL     1     -10.572  12.591  65.901  1.00  0.00    -0.256 OA 
HETATM   10  C   UNL     1      -9.411  15.965  66.154  1.00  0.00    -0.350 A  
HETATM   11  N   UNL     1     -10.238  16.572  65.291  1.00  0.00    -0.596 NA 
HETATM   12  N   UNL     1      -8.423  16.484  66.930  1.00  0.00    -0.193 NA 
HETATM   13  N   UNL     1      -8.490  14.281  67.319  1.00  0.00    -0.202 NA 
HETATM   14  C   UNL     1      -7.889  15.421  67.618  1.00  0.00    -0.157 A  
ENDROOT
BRANCH  12  15
HETATM   15  C   UNL     1      -8.100  17.887  67.074  1.00  0.00    -0.221 C  
HETATM   16  C   UNL     1      -8.603  18.524  68.369  1.00  0.00    -0.355 C  
HETATM   17  C   UNL     1      -7.914  19.882  68.337  1.00  0.00    -0.222 C  
HETATM   18  O   UNL     1      -8.609  20.716  67.403  1.00  0.00    -0.374 OA 
HETATM   19  C   UNL     1      -6.487  19.599  67.806  1.00  0.00    -0.244 C  
HETATM   20  C   UNL     1      -6.638  18.277  67.049  1.00  0.00    -0.203 C  
HETATM   21  H   UNL     1      -8.180  21.563  67.383  1.00  0.00     0.000 HD 
HETATM   22  C   UNL     1      -5.628  17.601  66.477  1.00  0.00    -0.228 C  
BRANCH  19  23
HETATM   23  C   UNL     1      -5.465  19.552  68.947  1.00  0.00    -0.200 C  
HETATM   24  O   UNL     1      -6.095  19.592  70.221  1.00  0.00    -0.265 OA 
HETATM   25  H   UNL     1      -5.461  19.562  70.928  1.00  0.00     0.000 HD 
ENDBRANCH  19  23
ENDBRANCH  12  15
TORSDOF 2
ENDMDL
MODEL       35
REMARK 921   NORMALIZED FREE ENERGY PREDICTED BY IDOCK:   -5.95 KCAL/MOL
REMARK 922        TOTAL FREE ENERGY PREDICTED BY IDOCK:   -6.98 KCAL/MOL
REMARK 923 INTER-LIGAND FREE ENERGY PREDICTED BY IDOCK:   -6.99 KCAL/MOL
REMARK 924 INTRA-LIGAND FREE ENERGY PREDICTED BY IDOCK:    0.01 KCAL/MOL
REMARK 927      BINDING AFFINITY PREDICTED BY RF-SCORE:    0.00 PKD
ROOT
HETATM    1  N   UNL     1     -11.415  16.521  63.962  1.00  0.00    -1.581 NA 
HETATM    2  C   UNL     1     -11.441  15.258  64.457  1.00  0.00    -0.315 C  
HETATM    3  H2  UNL     1     -12.126  16.814  63.292  1.00  0.00     0.000 HD 
HETATM    4  H1  UNL     1     -10.694  17.182  64.252  1.00  0.00     0.000 HD 
HETATM    5  N   UNL     1     -12.360  14.416  64.087  1.00  0.00    -0.803 N  
HETATM    6  C   UNL     1     -12.355  13.106  64.592  1.00  0.00    -0.405 C  
HETATM    7  H   UNL     1     -13.084  14.707  63.431  1.00  0.00     0.000 HD 
HETATM    8  C   UNL     1     -11.241  12.787  65.500  1.00  0.00    -0.294 A  
HETATM    9  O   UNL     1     -13.221  12.287  64.302  1.00  0.00    -0.785 OA 
HETATM   10  C   UNL     1     -10.338  13.765  65.819  1.00  0.00    -0.307 A  
HETATM   11  N   UNL     1     -10.424  15.013  65.340  1.00  0.00    -0.352 NA 
HETATM   12  N   UNL     1      -9.429  13.214  66.667  1.00  0.00    -0.257 NA 
HETATM   13  N   UNL     1     -10.897  11.613  66.131  1.00  0.00    -0.286 NA 
HETATM   14  C   UNL     1      -9.807  11.903  66.823  1.00  0.00    -0.197 A  
ENDROOT
BRANCH  12  15
HETATM   15  C   UNL     1      -8.361  13.917  67.344  1.00  0.00    -0.198 C  
HETATM   16  C   UNL     1      -8.712  14.400  68.751  1.00  0.00    -0.129 C  
HETATM   17  C   UNL     1      -7.357  14.859  69.271  1.00  0.00    -0.175 C  
HETATM   18  O   UNL     1      -7.055  16.128  68.678  1.00  0.00    -0.133 OA 
HETATM   19  C   UNL     1      -6.348  13.803  68.759  1.00  0.00    -0.092 C  
HETATM   20  C   UNL     1      -7.057  13.178  67.555  1.00  0.00    -0.156 C  
HETATM   21  H   UNL     1      -6.209  16.414  69.001  1.00  0.00     0.000 HD 
HETATM   22  C   UNL     1      -6.582  12.149  66.833  1.00  0.00    -0.006 C  
BRANCH  19  23
HETATM   23  C   UNL     1      -5.983  12.799  69.859  1.00  0.00    -0.138 C  
HETATM   24  O   UNL     1      -6.967  11.780  69.989  1.00  0.00    -0.378 OA 
HETATM   25  H   UNL     1      -6.741  11.157  70.670  1.00  0.00     0.000 HD 
ENDBRANCH  19  23
ENDBRANCH  12  15
TORSDOF 2
ENDMDL
MODEL       36
REMARK 921   NORMALIZED FREE ENERGY PREDICTED BY IDOCK:   -5.91 KCAL/MOL
REMARK 922        TOTAL FREE ENERGY PREDICTED BY IDOCK:   -6.93 KCAL/MOL
REMARK 923 INTER-LIGAND FREE ENERGY PREDICTED BY IDOCK:   -6.75 KCAL/MOL
REMARK 924 INTRA-LIGAND FREE ENERGY PREDICTED BY IDOCK:   -0.19 KCAL/MOL
REMARK 927      BINDING AFFINITY PREDICTED BY RF-SCORE:    0.00 PKD
ROOT
HETATM    1  N   UNL     1     -10.267  10.740  62.778  1.00  0.00    -0.773 NA 
HETATM    2  C   UNL     1     -10.834  11.638  63.622  1.00  0.00    -0.432 C  
HETATM    3  H2  UNL     1     -10.344  10.877  61.770  1.00  0.00     0.000 HD 
HETATM    4  H1  UNL     1      -9.764   9.928  63.138  1.00  0.00     0.000 HD 
HETATM    5  N   UNL     1     -11.474  12.672  63.163  1.00  0.00    -0.788 N  
HETATM    6  C   UNL     1     -12.075  13.577  64.053  1.00  0.00    -0.441 C  
HETATM    7  H   UNL     1     -11.540  12.826  62.157  1.00  0.00     0.000 HD 
HETATM    8  C   UNL     1     -11.949  13.233  65.479  1.00  0.00    -0.405 A  
HETATM    9  O   UNL     1     -12.657  14.586  63.670  1.00  0.00    -0.798 OA 
HETATM   10  C   UNL     1     -11.241  12.118  65.837  1.00  0.00    -0.339 A  
HETATM   11  N   UNL     1     -10.650  11.316  64.940  1.00  0.00    -0.307 NA 
HETATM   12  N   UNL     1     -11.274  12.036  67.194  1.00  0.00    -0.296 NA 
HETATM   13  N   UNL     1     -12.444  13.851  66.605  1.00  0.00    -0.358 NA 
HETATM   14  C   UNL     1     -12.021  13.109  67.616  1.00  0.00    -0.315 A  
ENDROOT
BRANCH  12  15
HETATM   15  C   UNL     1     -10.562  11.075  68.008  1.00  0.00    -0.204 C  
HETATM   16  C   UNL     1     -10.757   9.619  67.585  1.00  0.00    -0.324 C  
HETATM   17  C   UNL     1      -9.723   8.904  68.443  1.00  0.00    -0.161 C  
HETATM   18  O   UNL     1     -10.234   8.810  69.778  1.00  0.00    -0.191 OA 
HETATM   19  C   UNL     1      -8.481   9.829  68.436  1.00  0.00    -0.114 C  
HETATM   20  C   UNL     1      -9.057  11.205  68.093  1.00  0.00    -0.159 C  
HETATM   21  H   UNL     1      -9.589   8.364  70.314  1.00  0.00     0.000 HD 
HETATM   22  C   UNL     1      -8.327  12.317  67.901  1.00  0.00    -0.163 C  
BRANCH  19  23
HETATM   23  C   UNL     1      -7.420   9.333  67.447  1.00  0.00    -0.087 C  
HETATM   24  O   UNL     1      -7.474   7.921  67.281  1.00  0.00    -0.089 OA 
HETATM   25  H   UNL     1      -6.816   7.614  66.667  1.00  0.00     0.000 HD 
ENDBRANCH  19  23
ENDBRANCH  12  15
TORSDOF 2
ENDMDL
MODEL       37
REMARK 921   NORMALIZED FREE ENERGY PREDICTED BY IDOCK:   -5.90 KCAL/MOL
REMARK 922        TOTAL FREE ENERGY PREDICTED BY IDOCK:   -6.93 KCAL/MOL
REMARK 923 INTER-LIGAND FREE ENERGY PREDICTED BY IDOCK:   -6.52 KCAL/MOL
REMARK 924 INTRA-LIGAND FREE ENERGY PREDICTED BY IDOCK:   -0.41 KCAL/MOL
REMARK 927      BINDING AFFINITY PREDICTED BY RF-SCORE:    0.00 PKD
ROOT
HETATM    1  N   UNL     1     -10.597   8.638  68.661  1.00  0.00    -0.367 NA 
HETATM    2  C   UNL     1     -11.160   9.726  69.245  1.00  0.00    -0.149 C  
HETATM    3  H2  UNL     1     -10.637   7.735  69.135  1.00  0.00     0.000 HD 
HETATM    4  H1  UNL     1     -10.134   8.711  67.755  1.00  0.00     0.000 HD 
HETATM    5  N   UNL     1     -11.750   9.633  70.400  1.00  0.00    -0.386 N  
HETATM    6  C   UNL     1     -12.304  10.776  70.998  1.00  0.00    -0.404 C  
HETATM    7  H   UNL     1     -11.809   8.730  70.871  1.00  0.00     0.000 HD 
HETATM    8  C   UNL     1     -12.124  12.028  70.246  1.00  0.00    -0.312 A  
HETATM    9  O   UNL     1     -12.903  10.732  72.068  1.00  0.00    -0.411 OA 
HETATM   10  C   UNL     1     -11.490  11.995  69.034  1.00  0.00    -0.300 A  
HETATM   11  N   UNL     1     -11.021  10.862  68.493  1.00  0.00    -0.210 NA 
HETATM   12  N   UNL     1     -11.463  13.268  68.557  1.00  0.00    -0.288 NA 
HETATM   13  N   UNL     1     -12.486  13.322  70.546  1.00  0.00    -0.296 NA 
HETATM   14  C   UNL     1     -12.076  14.040  69.513  1.00  0.00    -0.347 A  
ENDROOT
BRANCH  12  15
HETATM   15  C   UNL     1     -10.986  13.679  67.254  1.00  0.00    -0.287 C  
HETATM   16  C   UNL     1     -11.828  14.765  66.585  1.00  0.00    -0.255 C  
HETATM   17  C   UNL     1     -10.960  15.143  65.392  1.00  0.00    -0.374 C  
HETATM   18  O   UNL     1     -11.096  14.122  64.397  1.00  0.00    -0.541 OA 
HETATM   19  C   UNL     1      -9.509  15.141  65.931  1.00  0.00    -0.334 C  
HETATM   20  C   UNL     1      -9.582  14.235  67.163  1.00  0.00    -0.245 C  
HETATM   21  H   UNL     1     -10.554  14.357  63.653  1.00  0.00     0.000 HD 
HETATM   22  C   UNL     1      -8.560  13.998  68.003  1.00  0.00    -0.179 C  
BRANCH  19  23
HETATM   23  C   UNL     1      -9.022  16.563  66.230  1.00  0.00    -0.324 C  
HETATM   24  O   UNL     1     -10.008  17.536  65.909  1.00  0.00    -0.511 OA 
HETATM   25  H   UNL     1      -9.705  18.418  66.095  1.00  0.00     0.000 HD 
ENDBRANCH  19  23
ENDBRANCH  12  15
TORSDOF 2
ENDMDL
MODEL       38
REMARK 921   NORMALIZED FREE ENERGY PREDICTED BY IDOCK:   -5.88 KCAL/MOL
REMARK 922        TOTAL FREE ENERGY PREDICTED BY IDOCK:   -6.91 KCAL/MOL
REMARK 923 INTER-LIGAND FREE ENERGY PREDICTED BY IDOCK:   -6.54 KCAL/MOL
REMARK 924 INTRA-LIGAND FREE ENERGY PREDICTED BY IDOCK:   -0.37 KCAL/MOL
REMARK 927      BINDING AFFINITY PREDICTED BY RF-SCORE:    0.00 PKD
ROOT
HETATM    1  N   UNL     1     -10.343  11.437  66.220  1.00  0.00    -0.235 NA 
HETATM    2  C   UNL     1     -10.701  12.604  65.627  1.00  0.00    -0.269 C  
HETATM    3  H2  UNL     1     -10.761  10.562  65.904  1.00  0.00     0.000 HD 
HETATM    4  H1  UNL     1      -9.660  11.423  66.978  1.00  0.00     0.000 HD 
HETATM    5  N   UNL     1     -11.571  12.621  64.661  1.00  0.00    -0.326 N  
HETATM    6  C   UNL     1     -11.946  13.842  64.077  1.00  0.00    -0.387 C  
HETATM    7  H   UNL     1     -11.980  11.749  64.327  1.00  0.00     0.000 HD 
HETATM    8  C   UNL     1     -11.320  15.038  64.665  1.00  0.00    -0.352 A  
HETATM    9  O   UNL     1     -12.733  13.907  63.140  1.00  0.00    -0.718 OA 
HETATM   10  C   UNL     1     -10.411  14.888  65.677  1.00  0.00    -0.349 A  
HETATM   11  N   UNL     1     -10.059  13.689  66.162  1.00  0.00    -0.299 NA 
HETATM   12  N   UNL     1      -9.988  16.131  66.029  1.00  0.00    -0.326 NA 
HETATM   13  N   UNL     1     -11.486  16.375  64.385  1.00  0.00    -0.830 NA 
HETATM   14  C   UNL     1     -10.673  17.004  65.219  1.00  0.00    -0.096 A  
ENDROOT
BRANCH  12  15
HETATM   15  C   UNL     1      -8.943  16.438  66.982  1.00  0.00    -0.212 C  
HETATM   16  C   UNL     1      -7.755  17.200  66.395  1.00  0.00    -0.345 C  
HETATM   17  C   UNL     1      -6.977  17.577  67.649  1.00  0.00    -0.167 C  
HETATM   18  O   UNL     1      -6.280  16.414  68.111  1.00  0.00    -0.117 OA 
HETATM   19  C   UNL     1      -8.053  17.974  68.689  1.00  0.00    -0.293 C  
HETATM   20  C   UNL     1      -9.317  17.269  68.190  1.00  0.00    -0.274 C  
HETATM   21  H   UNL     1      -5.795  16.649  68.893  1.00  0.00     0.000 HD 
HETATM   22  C   UNL     1     -10.534  17.390  68.746  1.00  0.00    -0.333 C  
BRANCH  19  23
HETATM   23  C   UNL     1      -8.190  19.497  68.798  1.00  0.00    -0.313 C  
HETATM   24  O   UNL     1      -6.966  20.158  68.503  1.00  0.00    -0.299 OA 
HETATM   25  H   UNL     1      -7.052  21.102  68.570  1.00  0.00     0.000 HD 
ENDBRANCH  19  23
ENDBRANCH  12  15
TORSDOF 2
ENDMDL
MODEL       39
REMARK 921   NORMALIZED FREE ENERGY PREDICTED BY IDOCK:   -5.88 KCAL/MOL
REMARK 922        TOTAL FREE ENERGY PREDICTED BY IDOCK:   -6.90 KCAL/MOL
REMARK 923 INTER-LIGAND FREE ENERGY PREDICTED BY IDOCK:   -7.55 KCAL/MOL
REMARK 924 INTRA-LIGAND FREE ENERGY PREDICTED BY IDOCK:    0.65 KCAL/MOL
REMARK 927      BINDING AFFINITY PREDICTED BY RF-SCORE:    0.00 PKD
ROOT
HETATM    1  N   UNL     1     -12.815  10.006  71.634  1.00  0.00    -0.404 NA 
HETATM    2  C   UNL     1     -12.893  11.351  71.462  1.00  0.00    -0.403 C  
HETATM    3  H2  UNL     1     -13.246   9.578  72.453  1.00  0.00     0.000 HD 
HETATM    4  H1  UNL     1     -12.332   9.419  70.954  1.00  0.00     0.000 HD 
HETATM    5  N   UNL     1     -13.508  12.099  72.329  1.00  0.00    -0.556 N  
HETATM    6  C   UNL     1     -13.555  13.490  72.145  1.00  0.00    -0.557 C  
HETATM    7  H   UNL     1     -13.956  11.676  73.141  1.00  0.00     0.000 HD 
HETATM    8  C   UNL     1     -12.842  13.992  70.960  1.00  0.00    -0.340 A  
HETATM    9  O   UNL     1     -14.154  14.234  72.915  1.00  0.00    -0.525 OA 
HETATM   10  C   UNL     1     -12.236  13.100  70.116  1.00  0.00    -0.290 A  
HETATM   11  N   UNL     1     -12.266  11.776  70.322  1.00  0.00    -0.320 NA 
HETATM   12  N   UNL     1     -11.663  13.817  69.113  1.00  0.00    -0.310 NA 
HETATM   13  N   UNL     1     -12.639  15.275  70.502  1.00  0.00    -0.389 NA 
HETATM   14  C   UNL     1     -11.931  15.135  69.393  1.00  0.00    -0.307 A  
ENDROOT
BRANCH  12  15
HETATM   15  C   UNL     1     -11.013  13.272  67.941  1.00  0.00    -0.249 C  
HETATM   16  C   UNL     1     -11.736  12.083  67.310  1.00  0.00    -0.339 C  
HETATM   17  C   UNL     1     -10.968  11.906  66.007  1.00  0.00    -0.309 C  
HETATM   18  O   UNL     1      -9.721  11.267  66.303  1.00  0.00    -0.204 OA 
HETATM   19  C   UNL     1     -10.697  13.344  65.499  1.00  0.00    -0.301 C  
HETATM   20  C   UNL     1     -10.793  14.199  66.765  1.00  0.00    -0.296 C  
HETATM   21  H   UNL     1      -9.242  11.157  65.491  1.00  0.00     0.000 HD 
HETATM   22  C   UNL     1     -10.701  15.539  66.795  1.00  0.00    -0.305 C  
BRANCH  19  23
HETATM   23  C   UNL     1     -11.686  13.744  64.399  1.00  0.00    -0.408 C  
HETATM   24  O   UNL     1     -11.473  13.003  63.204  1.00  0.00    -0.743 OA 
HETATM   25  H   UNL     1     -12.087  13.251  62.522  1.00  0.00     0.000 HD 
ENDBRANCH  19  23
ENDBRANCH  12  15
TORSDOF 2
ENDMDL
MODEL       40
REMARK 921   NORMALIZED FREE ENERGY PREDICTED BY IDOCK:   -5.86 KCAL/MOL
REMARK 922        TOTAL FREE ENERGY PREDICTED BY IDOCK:   -6.89 KCAL/MOL
REMARK 923 INTER-LIGAND FREE ENERGY PREDICTED BY IDOCK:   -6.54 KCAL/MOL
REMARK 924 INTRA-LIGAND FREE ENERGY PREDICTED BY IDOCK:   -0.35 KCAL/MOL
REMARK 927      BINDING AFFINITY PREDICTED BY RF-SCORE:    0.00 PKD
ROOT
HETATM    1  N   UNL     1     -11.804   9.936  70.118  1.00  0.00    -0.426 NA 
HETATM    2  C   UNL     1     -12.148  11.223  70.378  1.00  0.00    -0.384 C  
HETATM    3  H2  UNL     1     -12.080   9.201  70.768  1.00  0.00     0.000 HD 
HETATM    4  H1  UNL     1     -11.272   9.696  69.282  1.00  0.00     0.000 HD 
HETATM    5  N   UNL     1     -12.825  11.530  71.444  1.00  0.00    -0.418 N  
HETATM    6  C   UNL     1     -13.150  12.871  71.707  1.00  0.00    -0.360 C  
HETATM    7  H   UNL     1     -13.120  10.798  72.090  1.00  0.00     0.000 HD 
HETATM    8  C   UNL     1     -12.639  13.844  70.728  1.00  0.00    -0.354 A  
HETATM    9  O   UNL     1     -13.819  13.206  72.679  1.00  0.00    -0.691 OA 
HETATM   10  C   UNL     1     -11.943  13.395  69.639  1.00  0.00    -0.324 A  
HETATM   11  N   UNL     1     -11.704  12.094  69.419  1.00  0.00    -0.312 NA 
HETATM   12  N   UNL     1     -11.596  14.484  68.903  1.00  0.00    -0.291 NA 
HETATM   13  N   UNL     1     -12.721  15.218  70.692  1.00  0.00    -0.404 NA 
HETATM   14  C   UNL     1     -12.087  15.570  69.586  1.00  0.00    -0.328 A  
ENDROOT
BRANCH  12  15
HETATM   15  C   UNL     1     -10.947  14.467  67.610  1.00  0.00    -0.286 C  
HETATM   16  C   UNL     1     -11.365  15.602  66.676  1.00  0.00     0.037 C  
HETATM   17  C   UNL     1     -10.362  15.456  65.540  1.00  0.00    -0.387 C  
HETATM   18  O   UNL     1     -10.762  14.348  64.725  1.00  0.00    -0.422 OA 
HETATM   19  C   UNL     1      -9.016  15.124  66.229  1.00  0.00    -0.274 C  
HETATM   20  C   UNL     1      -9.436  14.544  67.582  1.00  0.00    -0.209 C  
HETATM   21  H   UNL     1     -10.136  14.258  64.017  1.00  0.00     0.000 HD 
HETATM   22  C   UNL     1      -8.587  14.182  68.558  1.00  0.00    -0.163 C  
BRANCH  19  23
HETATM   23  C   UNL     1      -8.119  16.363  66.332  1.00  0.00    -0.322 C  
HETATM   24  O   UNL     1      -8.706  17.372  67.145  1.00  0.00    -0.218 OA 
HETATM   25  H   UNL     1      -8.149  18.140  67.209  1.00  0.00     0.000 HD 
ENDBRANCH  19  23
ENDBRANCH  12  15
TORSDOF 2
ENDMDL
MODEL       41
REMARK 921   NORMALIZED FREE ENERGY PREDICTED BY IDOCK:   -5.84 KCAL/MOL
REMARK 922        TOTAL FREE ENERGY PREDICTED BY IDOCK:   -6.86 KCAL/MOL
REMARK 923 INTER-LIGAND FREE ENERGY PREDICTED BY IDOCK:   -6.44 KCAL/MOL
REMARK 924 INTRA-LIGAND FREE ENERGY PREDICTED BY IDOCK:   -0.43 KCAL/MOL
REMARK 927      BINDING AFFINITY PREDICTED BY RF-SCORE:    0.00 PKD
ROOT
HETATM    1  N   UNL     1      -5.361  17.437  69.191  1.00  0.00    -0.160 NA 
HETATM    2  C   UNL     1      -6.445  18.106  68.723  1.00  0.00    -0.221 C  
HETATM    3  H2  UNL     1      -4.470  17.924  69.283  1.00  0.00     0.000 HD 
HETATM    4  H1  UNL     1      -5.426  16.453  69.452  1.00  0.00     0.000 HD 
HETATM    5  N   UNL     1      -6.362  19.360  68.390  1.00  0.00    -0.235 N  
HETATM    6  C   UNL     1      -7.490  20.027  67.885  1.00  0.00    -0.295 C  
HETATM    7  H   UNL     1      -5.479  19.859  68.496  1.00  0.00     0.000 HD 
HETATM    8  C   UNL     1      -8.697  19.199  67.738  1.00  0.00    -0.301 A  
HETATM    9  O   UNL     1      -7.471  21.218  67.592  1.00  0.00    -0.350 OA 
HETATM   10  C   UNL     1      -8.660  17.888  68.132  1.00  0.00    -0.264 A  
HETATM   11  N   UNL     1      -7.564  17.319  68.652  1.00  0.00    -0.251 NA 
HETATM   12  N   UNL     1      -9.891  17.361  67.898  1.00  0.00    -0.276 NA 
HETATM   13  N   UNL     1      -9.945  19.499  67.240  1.00  0.00    -0.355 NA 
HETATM   14  C   UNL     1     -10.637  18.377  67.351  1.00  0.00    -0.413 A  
ENDROOT
BRANCH  12  15
HETATM   15  C   UNL     1     -10.334  16.034  68.267  1.00  0.00    -0.261 C  
HETATM   16  C   UNL     1     -11.769  15.967  68.789  1.00  0.00    -0.355 C  
HETATM   17  C   UNL     1     -12.009  14.464  68.851  1.00  0.00    -0.302 C  
HETATM   18  O   UNL     1     -11.336  13.949  70.006  1.00  0.00    -0.449 OA 
HETATM   19  C   UNL     1     -11.342  13.895  67.575  1.00  0.00    -0.342 C  
HETATM   20  C   UNL     1     -10.311  14.963  67.198  1.00  0.00    -0.260 C  
HETATM   21  H   UNL     1     -11.485  13.012  70.044  1.00  0.00     0.000 HD 
HETATM   22  C   UNL     1      -9.539  14.931  66.099  1.00  0.00    -0.340 C  
BRANCH  19  23
HETATM   23  C   UNL     1     -12.377  13.614  66.481  1.00  0.00    -0.361 C  
HETATM   24  O   UNL     1     -12.285  12.279  65.999  1.00  0.00    -0.646 OA 
HETATM   25  H   UNL     1     -12.927  12.105  65.320  1.00  0.00     0.000 HD 
ENDBRANCH  19  23
ENDBRANCH  12  15
TORSDOF 2
ENDMDL
MODEL       42
REMARK 921   NORMALIZED FREE ENERGY PREDICTED BY IDOCK:   -5.80 KCAL/MOL
REMARK 922        TOTAL FREE ENERGY PREDICTED BY IDOCK:   -6.81 KCAL/MOL
REMARK 923 INTER-LIGAND FREE ENERGY PREDICTED BY IDOCK:   -6.80 KCAL/MOL
REMARK 924 INTRA-LIGAND FREE ENERGY PREDICTED BY IDOCK:   -0.01 KCAL/MOL
REMARK 927      BINDING AFFINITY PREDICTED BY RF-SCORE:    0.00 PKD
ROOT
HETATM    1  N   UNL     1     -12.269  15.670  68.977  1.00  0.00    -0.594 NA 
HETATM    2  C   UNL     1     -11.933  14.563  68.266  1.00  0.00    -0.268 C  
HETATM    3  H2  UNL     1     -12.290  16.578  68.514  1.00  0.00     0.000 HD 
HETATM    4  H1  UNL     1     -12.499  15.605  69.969  1.00  0.00     0.000 HD 
HETATM    5  N   UNL     1     -11.639  14.647  67.003  1.00  0.00    -0.373 N  
HETATM    6  C   UNL     1     -11.270  13.494  66.291  1.00  0.00    -0.297 C  
HETATM    7  H   UNL     1     -11.676  15.549  66.529  1.00  0.00     0.000 HD 
HETATM    8  C   UNL     1     -11.213  12.256  67.086  1.00  0.00    -0.307 A  
HETATM    9  O   UNL     1     -11.020  13.515  65.091  1.00  0.00    -0.299 OA 
HETATM   10  C   UNL     1     -11.554  12.297  68.411  1.00  0.00    -0.326 A  
HETATM   11  N   UNL     1     -11.943  13.423  69.024  1.00  0.00    -0.327 NA 
HETATM   12  N   UNL     1     -11.423  11.036  68.902  1.00  0.00    -0.270 NA 
HETATM   13  N   UNL     1     -10.851  10.974  66.739  1.00  0.00    -0.268 NA 
HETATM   14  C   UNL     1     -10.988  10.267  67.849  1.00  0.00    -0.292 A  
ENDROOT
BRANCH  12  15
HETATM   15  C   UNL     1     -11.786  10.596  70.231  1.00  0.00    -0.344 C  
HETATM   16  C   UNL     1     -13.217  10.073  70.357  1.00  0.00     0.066 C  
HETATM   17  C   UNL     1     -13.209   9.479  71.759  1.00  0.00    -0.422 C  
HETATM   18  O   UNL     1     -13.289  10.553  72.703  1.00  0.00    -0.430 OA 
HETATM   19  C   UNL     1     -11.834   8.780  71.895  1.00  0.00    -0.437 C  
HETATM   20  C   UNL     1     -10.964   9.489  70.854  1.00  0.00    -0.407 C  
HETATM   21  H   UNL     1     -13.284  10.183  73.578  1.00  0.00     0.000 HD 
HETATM   22  C   UNL     1      -9.695   9.158  70.561  1.00  0.00    -0.287 C  
BRANCH  19  23
HETATM   23  C   UNL     1     -11.952   7.267  71.685  1.00  0.00    -0.308 C  
HETATM   24  O   UNL     1     -12.452   6.952  70.391  1.00  0.00    -0.611 OA 
HETATM   25  H   UNL     1     -12.524   6.014  70.261  1.00  0.00     0.000 HD 
ENDBRANCH  19  23
ENDBRANCH  12  15
TORSDOF 2
ENDMDL
MODEL       43
REMARK 921   NORMALIZED FREE ENERGY PREDICTED BY IDOCK:   -5.79 KCAL/MOL
REMARK 922        TOTAL FREE ENERGY PREDICTED BY IDOCK:   -6.81 KCAL/MOL
REMARK 923 INTER-LIGAND FREE ENERGY PREDICTED BY IDOCK:   -6.36 KCAL/MOL
REMARK 924 INTRA-LIGAND FREE ENERGY PREDICTED BY IDOCK:   -0.45 KCAL/MOL
REMARK 927      BINDING AFFINITY PREDICTED BY RF-SCORE:    0.00 PKD
ROOT
HETATM    1  N   UNL     1     -10.774  11.924  68.849  1.00  0.00    -0.290 NA 
HETATM    2  C   UNL     1     -11.060  12.594  67.704  1.00  0.00    -0.263 C  
HETATM    3  H2  UNL     1     -11.218  11.024  69.030  1.00  0.00     0.000 HD 
HETATM    4  H1  UNL     1     -10.121  12.310  69.532  1.00  0.00     0.000 HD 
HETATM    5  N   UNL     1     -11.892  12.102  66.834  1.00  0.00    -0.295 N  
HETATM    6  C   UNL     1     -12.192  12.823  65.667  1.00  0.00    -0.444 C  
HETATM    7  H   UNL     1     -12.326  11.195  67.000  1.00  0.00     0.000 HD 
HETATM    8  C   UNL     1     -11.538  14.136  65.553  1.00  0.00    -0.337 A  
HETATM    9  O   UNL     1     -12.942  12.385  64.800  1.00  0.00    -0.786 OA 
HETATM   10  C   UNL     1     -10.674  14.540  66.536  1.00  0.00    -0.312 A  
HETATM   11  N   UNL     1     -10.392  13.785  67.606  1.00  0.00    -0.237 NA 
HETATM   12  N   UNL     1     -10.212  15.770  66.187  1.00  0.00    -0.296 NA 
HETATM   13  N   UNL     1     -11.636  15.115  64.590  1.00  0.00    -0.395 NA 
HETATM   14  C   UNL     1     -10.829  16.080  64.999  1.00  0.00    -0.404 A  
ENDROOT
BRANCH  12  15
HETATM   15  C   UNL     1      -9.190  16.524  66.880  1.00  0.00    -0.226 C  
HETATM   16  C   UNL     1      -8.233  17.286  65.964  1.00  0.00    -0.175 C  
HETATM   17  C   UNL     1      -7.465  18.145  66.960  1.00  0.00    -0.208 C  
HETATM   18  O   UNL     1      -6.509  17.313  67.627  1.00  0.00    -0.142 OA 
HETATM   19  C   UNL     1      -8.525  18.625  67.981  1.00  0.00    -0.314 C  
HETATM   20  C   UNL     1      -9.644  17.588  67.856  1.00  0.00    -0.277 C  
HETATM   21  H   UNL     1      -6.030  17.849  68.248  1.00  0.00     0.000 HD 
HETATM   22  C   UNL     1     -10.818  17.643  68.508  1.00  0.00    -0.075 C  
BRANCH  19  23
HETATM   23  C   UNL     1      -8.970  20.063  67.691  1.00  0.00    -0.331 C  
HETATM   24  O   UNL     1      -8.041  20.744  66.858  1.00  0.00    -0.551 OA 
HETATM   25  H   UNL     1      -8.318  21.635  66.678  1.00  0.00     0.000 HD 
ENDBRANCH  19  23
ENDBRANCH  12  15
TORSDOF 2
ENDMDL
MODEL       44
REMARK 921   NORMALIZED FREE ENERGY PREDICTED BY IDOCK:   -5.77 KCAL/MOL
REMARK 922        TOTAL FREE ENERGY PREDICTED BY IDOCK:   -6.78 KCAL/MOL
REMARK 923 INTER-LIGAND FREE ENERGY PREDICTED BY IDOCK:   -6.74 KCAL/MOL
REMARK 924 INTRA-LIGAND FREE ENERGY PREDICTED BY IDOCK:   -0.05 KCAL/MOL
REMARK 927      BINDING AFFINITY PREDICTED BY RF-SCORE:    0.00 PKD
ROOT
HETATM    1  N   UNL     1     -10.766  12.132  69.267  1.00  0.00    -0.437 NA 
HETATM    2  C   UNL     1     -10.991  12.710  68.060  1.00  0.00    -0.235 C  
HETATM    3  H2  UNL     1     -11.138  11.201  69.457  1.00  0.00     0.000 HD 
HETATM    4  H1  UNL     1     -10.230  12.616  69.987  1.00  0.00     0.000 HD 
HETATM    5  N   UNL     1     -11.675  12.093  67.142  1.00  0.00    -0.335 N  
HETATM    6  C   UNL     1     -11.917  12.719  65.909  1.00  0.00    -0.449 C  
HETATM    7  H   UNL     1     -12.035  11.155  67.318  1.00  0.00     0.000 HD 
HETATM    8  C   UNL     1     -11.385  14.085  65.782  1.00  0.00    -0.312 A  
HETATM    9  O   UNL     1     -12.524  12.163  64.999  1.00  0.00    -0.490 OA 
HETATM   10  C   UNL     1     -10.673  14.624  66.820  1.00  0.00    -0.301 A  
HETATM   11  N   UNL     1     -10.435  13.957  67.958  1.00  0.00    -0.238 NA 
HETATM   12  N   UNL     1     -10.296  15.875  66.445  1.00  0.00    -0.296 NA 
HETATM   13  N   UNL     1     -11.473  14.998  64.756  1.00  0.00    -0.412 NA 
HETATM   14  C   UNL     1     -10.810  16.060  65.185  1.00  0.00    -0.395 A  
ENDROOT
BRANCH  12  15
HETATM   15  C   UNL     1      -9.432  16.764  67.191  1.00  0.00    -0.232 C  
HETATM   16  C   UNL     1      -8.910  17.958  66.393  1.00  0.00    -0.251 C  
HETATM   17  C   UNL     1      -8.262  18.803  67.482  1.00  0.00    -0.260 C  
HETATM   18  O   UNL     1      -7.006  18.207  67.824  1.00  0.00    -0.201 OA 
HETATM   19  C   UNL     1      -9.221  18.705  68.694  1.00  0.00    -0.361 C  
HETATM   20  C   UNL     1      -9.997  17.410  68.437  1.00  0.00    -0.329 C  
HETATM   21  H   UNL     1      -6.602  18.733  68.504  1.00  0.00     0.000 HD 
HETATM   22  C   UNL     1     -11.004  16.955  69.202  1.00  0.00    -0.151 C  
BRANCH  19  23
HETATM   23  C   UNL     1     -10.106  19.951  68.808  1.00  0.00    -0.379 C  
HETATM   24  O   UNL     1     -10.516  20.184  70.150  1.00  0.00    -0.672 OA 
HETATM   25  H   UNL     1     -11.064  20.957  70.221  1.00  0.00     0.000 HD 
ENDBRANCH  19  23
ENDBRANCH  12  15
TORSDOF 2
ENDMDL
MODEL       45
REMARK 921   NORMALIZED FREE ENERGY PREDICTED BY IDOCK:   -5.77 KCAL/MOL
REMARK 922        TOTAL FREE ENERGY PREDICTED BY IDOCK:   -6.78 KCAL/MOL
REMARK 923 INTER-LIGAND FREE ENERGY PREDICTED BY IDOCK:   -6.68 KCAL/MOL
REMARK 924 INTRA-LIGAND FREE ENERGY PREDICTED BY IDOCK:   -0.10 KCAL/MOL
REMARK 927      BINDING AFFINITY PREDICTED BY RF-SCORE:    0.00 PKD
ROOT
HETATM    1  N   UNL     1     -12.735  14.783  70.089  1.00  0.00    -0.555 NA 
HETATM    2  C   UNL     1     -12.102  13.819  69.373  1.00  0.00    -0.328 C  
HETATM    3  H2  UNL     1     -12.843  15.716  69.691  1.00  0.00     0.000 HD 
HETATM    4  H1  UNL     1     -13.103  14.587  71.020  1.00  0.00     0.000 HD 
HETATM    5  N   UNL     1     -11.632  14.069  68.187  1.00  0.00    -0.314 N  
HETATM    6  C   UNL     1     -10.959  13.064  67.474  1.00  0.00    -0.259 C  
HETATM    7  H   UNL     1     -11.752  14.994  67.775  1.00  0.00     0.000 HD 
HETATM    8  C   UNL     1     -10.811  11.782  68.182  1.00  0.00    -0.217 A  
HETATM    9  O   UNL     1     -10.531  13.240  66.338  1.00  0.00    -0.276 OA 
HETATM   10  C   UNL     1     -11.357  11.641  69.429  1.00  0.00    -0.278 A  
HETATM   11  N   UNL     1     -12.030  12.625  70.040  1.00  0.00    -0.341 NA 
HETATM   12  N   UNL     1     -11.084  10.377  69.849  1.00  0.00    -0.284 NA 
HETATM   13  N   UNL     1     -10.178  10.616  67.817  1.00  0.00    -0.173 NA 
HETATM   14  C   UNL     1     -10.361   9.793  68.837  1.00  0.00    -0.210 A  
ENDROOT
BRANCH  12  15
HETATM   15  C   UNL     1     -11.569   9.759  71.065  1.00  0.00    -0.376 C  
HETATM   16  C   UNL     1     -12.831   8.915  70.887  1.00  0.00     0.058 C  
HETATM   17  C   UNL     1     -12.938   8.226  72.241  1.00  0.00    -0.257 C  
HETATM   18  O   UNL     1     -13.445   9.174  73.188  1.00  0.00    -0.899 OA 
HETATM   19  C   UNL     1     -11.484   7.852  72.621  1.00  0.00    -0.454 C  
HETATM   20  C   UNL     1     -10.634   8.823  71.797  1.00  0.00    -0.417 C  
HETATM   21  H   UNL     1     -13.511   8.744  74.033  1.00  0.00     0.000 HD 
HETATM   22  C   UNL     1      -9.291   8.815  71.749  1.00  0.00    -0.350 C  
BRANCH  19  23
HETATM   23  C   UNL     1     -11.195   6.374  72.338  1.00  0.00    -0.277 C  
HETATM   24  O   UNL     1     -11.373   5.570  73.498  1.00  0.00    -0.469 OA 
HETATM   25  H   UNL     1     -11.194   4.654  73.322  1.00  0.00     0.000 HD 
ENDBRANCH  19  23
ENDBRANCH  12  15
TORSDOF 2
ENDMDL
MODEL       46
REMARK 921   NORMALIZED FREE ENERGY PREDICTED BY IDOCK:   -5.76 KCAL/MOL
REMARK 922        TOTAL FREE ENERGY PREDICTED BY IDOCK:   -6.78 KCAL/MOL
REMARK 923 INTER-LIGAND FREE ENERGY PREDICTED BY IDOCK:   -6.40 KCAL/MOL
REMARK 924 INTRA-LIGAND FREE ENERGY PREDICTED BY IDOCK:   -0.38 KCAL/MOL
REMARK 927      BINDING AFFINITY PREDICTED BY RF-SCORE:    0.00 PKD
ROOT
HETATM    1  N   UNL     1     -13.841   8.411  72.227  1.00  0.00    -0.560 NA 
HETATM    2  C   UNL     1     -12.492   8.505  72.118  1.00  0.00    -0.379 C  
HETATM    3  H2  UNL     1     -14.249   7.910  73.017  1.00  0.00     0.000 HD 
HETATM    4  H1  UNL     1     -14.453   8.835  71.530  1.00  0.00     0.000 HD 
HETATM    5  N   UNL     1     -11.712   7.965  73.007  1.00  0.00    -0.579 N  
HETATM    6  C   UNL     1     -10.318   8.053  72.862  1.00  0.00    -0.327 C  
HETATM    7  H   UNL     1     -12.112   7.479  73.808  1.00  0.00     0.000 HD 
HETATM    8  C   UNL     1      -9.854   8.744  71.648  1.00  0.00    -0.308 A  
HETATM    9  O   UNL     1      -9.541   7.593  73.692  1.00  0.00    -0.277 OA 
HETATM   10  C   UNL     1     -10.777   9.278  70.789  1.00  0.00    -0.284 A  
HETATM   11  N   UNL     1     -12.098   9.201  71.007  1.00  0.00    -0.285 NA 
HETATM   12  N   UNL     1     -10.092   9.857  69.767  1.00  0.00    -0.229 NA 
HETATM   13  N   UNL     1      -8.586   8.970  71.164  1.00  0.00    -0.239 NA 
HETATM   14  C   UNL     1      -8.762   9.639  70.037  1.00  0.00    -0.231 A  
ENDROOT
BRANCH  12  15
HETATM   15  C   UNL     1     -10.664  10.637  68.692  1.00  0.00    -0.207 C  
HETATM   16  C   UNL     1     -10.049  12.026  68.519  1.00  0.00    -0.201 C  
HETATM   17  C   UNL     1     -10.666  12.479  67.203  1.00  0.00    -0.237 C  
HETATM   18  O   UNL     1     -12.020  12.874  67.455  1.00  0.00    -0.359 OA 
HETATM   19  C   UNL     1     -10.660  11.223  66.299  1.00  0.00    -0.315 C  
HETATM   20  C   UNL     1     -10.599  10.061  67.294  1.00  0.00    -0.319 C  
HETATM   21  H   UNL     1     -12.406  13.157  66.634  1.00  0.00     0.000 HD 
HETATM   22  C   UNL     1     -10.498   8.765  66.955  1.00  0.00    -0.338 C  
BRANCH  19  23
HETATM   23  C   UNL     1      -9.495  11.255  65.304  1.00  0.00    -0.221 C  
HETATM   24  O   UNL     1      -9.602  12.349  64.402  1.00  0.00    -0.502 OA 
HETATM   25  H   UNL     1      -8.879  12.369  63.786  1.00  0.00     0.000 HD 
ENDBRANCH  19  23
ENDBRANCH  12  15
TORSDOF 2
ENDMDL
MODEL       47
REMARK 921   NORMALIZED FREE ENERGY PREDICTED BY IDOCK:   -5.67 KCAL/MOL
REMARK 922        TOTAL FREE ENERGY PREDICTED BY IDOCK:   -6.67 KCAL/MOL
REMARK 923 INTER-LIGAND FREE ENERGY PREDICTED BY IDOCK:   -6.32 KCAL/MOL
REMARK 924 INTRA-LIGAND FREE ENERGY PREDICTED BY IDOCK:   -0.35 KCAL/MOL
REMARK 927      BINDING AFFINITY PREDICTED BY RF-SCORE:    0.00 PKD
ROOT
HETATM    1  N   UNL     1      -9.737  10.323  62.454  1.00  0.00    -0.700 NA 
HETATM    2  C   UNL     1     -10.381  11.033  63.415  1.00  0.00    -0.312 C  
HETATM    3  H2  UNL     1      -9.918  10.527  61.471  1.00  0.00     0.000 HD 
HETATM    4  H1  UNL     1      -9.074   9.589  62.702  1.00  0.00     0.000 HD 
HETATM    5  N   UNL     1     -11.226  11.969  63.099  1.00  0.00    -0.700 N  
HETATM    6  C   UNL     1     -11.900  12.675  64.108  1.00  0.00    -0.410 C  
HETATM    7  H   UNL     1     -11.399  12.191  62.118  1.00  0.00     0.000 HD 
HETATM    8  C   UNL     1     -11.602  12.244  65.483  1.00  0.00    -0.371 A  
HETATM    9  O   UNL     1     -12.678  13.591  63.861  1.00  0.00    -0.669 OA 
HETATM   10  C   UNL     1     -10.685  11.249  65.687  1.00  0.00    -0.217 A  
HETATM   11  N   UNL     1     -10.038  10.643  64.682  1.00  0.00    -0.334 NA 
HETATM   12  N   UNL     1     -10.594  11.051  67.029  1.00  0.00    -0.243 NA 
HETATM   13  N   UNL     1     -12.104  12.668  66.693  1.00  0.00    -0.539 NA 
HETATM   14  C   UNL     1     -11.479  11.934  67.599  1.00  0.00    -0.317 A  
ENDROOT
BRANCH  12  15
HETATM   15  C   UNL     1      -9.663  10.170  67.700  1.00  0.00    -0.161 C  
HETATM   16  C   UNL     1      -9.344  10.565  69.142  1.00  0.00    -0.200 C  
HETATM   17  C   UNL     1      -8.565   9.351  69.632  1.00  0.00    -0.168 C  
HETATM   18  O   UNL     1      -7.240   9.419  69.092  1.00  0.00    -0.064 OA 
HETATM   19  C   UNL     1      -9.300   8.128  69.030  1.00  0.00    -0.147 C  
HETATM   20  C   UNL     1     -10.042   8.711  67.823  1.00  0.00    -0.266 C  
HETATM   21  H   UNL     1      -6.755   8.661  69.398  1.00  0.00     0.000 HD 
HETATM   22  C   UNL     1     -10.882   8.021  67.033  1.00  0.00    -0.113 C  
BRANCH  19  23
HETATM   23  C   UNL     1     -10.216   7.461  70.062  1.00  0.00    -0.209 C  
HETATM   24  O   UNL     1     -10.270   6.051  69.885  1.00  0.00    -0.179 OA 
HETATM   25  H   UNL     1     -10.837   5.638  70.526  1.00  0.00     0.000 HD 
ENDBRANCH  19  23
ENDBRANCH  12  15
TORSDOF 2
ENDMDL
MODEL       48
REMARK 921   NORMALIZED FREE ENERGY PREDICTED BY IDOCK:   -5.67 KCAL/MOL
REMARK 922        TOTAL FREE ENERGY PREDICTED BY IDOCK:   -6.67 KCAL/MOL
REMARK 923 INTER-LIGAND FREE ENERGY PREDICTED BY IDOCK:   -6.49 KCAL/MOL
REMARK 924 INTRA-LIGAND FREE ENERGY PREDICTED BY IDOCK:   -0.17 KCAL/MOL
REMARK 927      BINDING AFFINITY PREDICTED BY RF-SCORE:    0.00 PKD
ROOT
HETATM    1  N   UNL     1      -6.229  14.328  67.610  1.00  0.00    -0.308 NA 
HETATM    2  C   UNL     1      -6.999  15.409  67.893  1.00  0.00    -0.145 C  
HETATM    3  H2  UNL     1      -5.226  14.362  67.793  1.00  0.00     0.000 HD 
HETATM    4  H1  UNL     1      -6.640  13.481  67.217  1.00  0.00     0.000 HD 
HETATM    5  N   UNL     1      -6.475  16.488  68.394  1.00  0.00    -0.131 N  
HETATM    6  C   UNL     1      -7.286  17.604  68.656  1.00  0.00    -0.255 C  
HETATM    7  H   UNL     1      -5.477  16.524  68.597  1.00  0.00     0.000 HD 
HETATM    8  C   UNL     1      -8.703  17.452  68.288  1.00  0.00    -0.261 A  
HETATM    9  O   UNL     1      -6.846  18.631  69.163  1.00  0.00    -0.279 OA 
HETATM   10  C   UNL     1      -9.135  16.260  67.773  1.00  0.00    -0.195 A  
HETATM   11  N   UNL     1      -8.320  15.213  67.588  1.00  0.00    -0.151 NA 
HETATM   12  N   UNL     1     -10.467  16.385  67.528  1.00  0.00    -0.300 NA 
HETATM   13  N   UNL     1      -9.754  18.338  68.355  1.00  0.00    -0.339 NA 
HETATM   14  C   UNL     1     -10.797  17.667  67.893  1.00  0.00    -0.239 A  
ENDROOT
BRANCH  12  15
HETATM   15  C   UNL     1     -11.354  15.331  67.085  1.00  0.00    -0.247 C  
HETATM   16  C   UNL     1     -10.890  14.600  65.825  1.00  0.00    -0.326 C  
HETATM   17  C   UNL     1     -11.867  13.434  65.764  1.00  0.00    -0.377 C  
HETATM   18  O   UNL     1     -13.122  13.924  65.278  1.00  0.00    -0.777 OA 
HETATM   19  C   UNL     1     -12.034  12.968  67.231  1.00  0.00    -0.379 C  
HETATM   20  C   UNL     1     -11.637  14.200  68.048  1.00  0.00    -0.368 C  
HETATM   21  H   UNL     1     -13.732  13.197  65.240  1.00  0.00     0.000 HD 
HETATM   22  C   UNL     1     -11.556  14.237  69.389  1.00  0.00    -0.354 C  
BRANCH  19  23
HETATM   23  C   UNL     1     -11.186  11.725  67.522  1.00  0.00    -0.291 C  
HETATM   24  O   UNL     1     -11.935  10.722  68.197  1.00  0.00    -0.775 OA 
HETATM   25  H   UNL     1     -11.409   9.952  68.378  1.00  0.00     0.000 HD 
ENDBRANCH  19  23
ENDBRANCH  12  15
TORSDOF 2
ENDMDL
MODEL       49
REMARK 921   NORMALIZED FREE ENERGY PREDICTED BY IDOCK:   -5.65 KCAL/MOL
REMARK 922        TOTAL FREE ENERGY PREDICTED BY IDOCK:   -6.65 KCAL/MOL
REMARK 923 INTER-LIGAND FREE ENERGY PREDICTED BY IDOCK:   -6.27 KCAL/MOL
REMARK 924 INTRA-LIGAND FREE ENERGY PREDICTED BY IDOCK:   -0.38 KCAL/MOL
REMARK 927      BINDING AFFINITY PREDICTED BY RF-SCORE:    0.00 PKD
ROOT
HETATM    1  N   UNL     1      -9.655  18.380  69.430  1.00  0.00     0.084 NA 
HETATM    2  C   UNL     1     -10.078  18.178  68.157  1.00  0.00    -0.378 C  
HETATM    3  H2  UNL     1      -9.451  19.327  69.749  1.00  0.00     0.000 HD 
HETATM    4  H1  UNL     1      -9.538  17.597  70.073  1.00  0.00     0.000 HD 
HETATM    5  N   UNL     1     -10.226  19.177  67.337  1.00  0.00    -0.373 N  
HETATM    6  C   UNL     1     -10.641  18.944  66.016  1.00  0.00    -0.403 C  
HETATM    7  H   UNL     1     -10.041  20.128  67.654  1.00  0.00     0.000 HD 
HETATM    8  C   UNL     1     -10.840  17.529  65.660  1.00  0.00     0.013 A  
HETATM    9  O   UNL     1     -10.831  19.855  65.218  1.00  0.00    -0.341 OA 
HETATM   10  C   UNL     1     -10.658  16.567  66.617  1.00  0.00    -0.216 A  
HETATM   11  N   UNL     1     -10.305  16.857  67.877  1.00  0.00    -0.318 NA 
HETATM   12  N   UNL     1     -10.908  15.365  66.034  1.00  0.00    -0.321 NA 
HETATM   13  N   UNL     1     -11.190  16.938  64.468  1.00  0.00    -1.066 NA 
HETATM   14  C   UNL     1     -11.223  15.640  64.725  1.00  0.00    -0.382 A  
ENDROOT
BRANCH  12  15
HETATM   15  C   UNL     1     -10.944  14.084  66.705  1.00  0.00    -0.297 C  
HETATM   16  C   UNL     1     -11.871  13.055  66.058  1.00  0.00    -0.471 C  
HETATM   17  C   UNL     1     -11.509  11.787  66.819  1.00  0.00    -0.281 C  
HETATM   18  O   UNL     1     -12.124  11.847  68.111  1.00  0.00    -0.516 OA 
HETATM   19  C   UNL     1      -9.970  11.838  66.982  1.00  0.00    -0.224 C  
HETATM   20  C   UNL     1      -9.641  13.327  66.844  1.00  0.00    -0.249 C  
HETATM   21  H   UNL     1     -11.898  11.056  68.586  1.00  0.00     0.000 HD 
HETATM   22  C   UNL     1      -8.400  13.841  66.843  1.00  0.00    -0.029 C  
BRANCH  19  23
HETATM   23  C   UNL     1      -9.269  10.945  65.953  1.00  0.00    -0.191 C  
HETATM   24  O   UNL     1     -10.201  10.221  65.161  1.00  0.00    -0.314 OA 
HETATM   25  H   UNL     1      -9.766   9.668  64.522  1.00  0.00     0.000 HD 
ENDBRANCH  19  23
ENDBRANCH  12  15
TORSDOF 2
ENDMDL
MODEL       50
REMARK 921   NORMALIZED FREE ENERGY PREDICTED BY IDOCK:   -5.61 KCAL/MOL
REMARK 922        TOTAL FREE ENERGY PREDICTED BY IDOCK:   -6.61 KCAL/MOL
REMARK 923 INTER-LIGAND FREE ENERGY PREDICTED BY IDOCK:   -6.19 KCAL/MOL
REMARK 924 INTRA-LIGAND FREE ENERGY PREDICTED BY IDOCK:   -0.41 KCAL/MOL
REMARK 927      BINDING AFFINITY PREDICTED BY RF-SCORE:    0.00 PKD
ROOT
HETATM    1  N   UNL     1     -10.123  12.708  64.190  1.00  0.00    -0.581 NA 
HETATM    2  C   UNL     1     -10.538  12.979  65.453  1.00  0.00    -0.292 C  
HETATM    3  H2  UNL     1     -10.325  11.797  63.778  1.00  0.00     0.000 HD 
HETATM    4  H1  UNL     1      -9.610  13.403  63.648  1.00  0.00     0.000 HD 
HETATM    5  N   UNL     1     -11.192  12.093  66.145  1.00  0.00    -0.323 N  
HETATM    6  C   UNL     1     -11.592  12.384  67.459  1.00  0.00    -0.365 C  
HETATM    7  H   UNL     1     -11.414  11.187  65.733  1.00  0.00     0.000 HD 
HETATM    8  C   UNL     1     -11.183  13.706  67.961  1.00  0.00    -0.267 A  
HETATM    9  O   UNL     1     -12.242  11.596  68.137  1.00  0.00    -0.537 OA 
HETATM   10  C   UNL     1     -10.501  14.555  67.131  1.00  0.00    -0.267 A  
HETATM   11  N   UNL     1     -10.188  14.236  65.868  1.00  0.00    -0.310 NA 
HETATM   12  N   UNL     1     -10.254  15.694  67.832  1.00  0.00    -0.236 NA 
HETATM   13  N   UNL     1     -11.353  14.298  69.192  1.00  0.00    -0.262 NA 
HETATM   14  C   UNL     1     -10.786  15.488  69.082  1.00  0.00    -0.251 A  
ENDROOT
BRANCH  12  15
HETATM   15  C   UNL     1      -9.656  16.903  67.310  1.00  0.00    -0.246 C  
HETATM   16  C   UNL     1     -10.254  18.196  67.863  1.00  0.00    -0.391 C  
HETATM   17  C   UNL     1      -9.282  19.241  67.332  1.00  0.00    -0.300 C  
HETATM   18  O   UNL     1      -9.562  19.452  65.944  1.00  0.00    -0.410 OA 
HETATM   19  C   UNL     1      -7.879  18.601  67.479  1.00  0.00    -0.242 C  
HETATM   20  C   UNL     1      -8.170  17.099  67.520  1.00  0.00    -0.196 C  
HETATM   21  H   UNL     1      -8.956  20.103  65.612  1.00  0.00     0.000 HD 
HETATM   22  C   UNL     1      -7.246  16.144  67.716  1.00  0.00    -0.157 C  
BRANCH  19  23
HETATM   23  C   UNL     1      -7.150  19.130  68.719  1.00  0.00    -0.331 C  
HETATM   24  O   UNL     1      -6.911  20.529  68.632  1.00  0.00    -0.227 OA 
HETATM   25  H   UNL     1      -6.459  20.857  69.402  1.00  0.00     0.000 HD 
ENDBRANCH  19  23
ENDBRANCH  12  15
TORSDOF 2
ENDMDL
MODEL       51
REMARK 921   NORMALIZED FREE ENERGY PREDICTED BY IDOCK:   -5.59 KCAL/MOL
REMARK 922        TOTAL FREE ENERGY PREDICTED BY IDOCK:   -6.58 KCAL/MOL
REMARK 923 INTER-LIGAND FREE ENERGY PREDICTED BY IDOCK:   -6.53 KCAL/MOL
REMARK 924 INTRA-LIGAND FREE ENERGY PREDICTED BY IDOCK:   -0.05 KCAL/MOL
REMARK 927      BINDING AFFINITY PREDICTED BY RF-SCORE:    0.00 PKD
ROOT
HETATM    1  N   UNL     1     -11.813  11.797  67.266  1.00  0.00    -0.624 NA 
HETATM    2  C   UNL     1     -11.810  12.710  66.262  1.00  0.00    -0.410 C  
HETATM    3  H2  UNL     1     -12.152  10.852  67.085  1.00  0.00     0.000 HD 
HETATM    4  H1  UNL     1     -11.481  12.043  68.198  1.00  0.00     0.000 HD 
HETATM    5  N   UNL     1     -12.233  12.396  65.073  1.00  0.00    -0.435 N  
HETATM    6  C   UNL     1     -12.244  13.363  64.055  1.00  0.00    -0.405 C  
HETATM    7  H   UNL     1     -12.557  11.449  64.881  1.00  0.00     0.000 HD 
HETATM    8  C   UNL     1     -11.792  14.705  64.457  1.00  0.00    -0.431 A  
HETATM    9  O   UNL     1     -12.599  13.106  62.909  1.00  0.00    -0.427 OA 
HETATM   10  C   UNL     1     -11.363  14.908  65.741  1.00  0.00    -0.314 A  
HETATM   11  N   UNL     1     -11.332  13.931  66.658  1.00  0.00    -0.320 NA 
HETATM   12  N   UNL     1     -11.001  16.215  65.844  1.00  0.00    -0.148 NA 
HETATM   13  N   UNL     1     -11.719  15.884  63.751  1.00  0.00    -0.537 NA 
HETATM   14  C   UNL     1     -11.240  16.769  64.610  1.00  0.00     0.105 A  
ENDROOT
BRANCH  12  15
HETATM   15  C   UNL     1     -10.383  16.840  66.993  1.00  0.00    -0.300 C  
HETATM   16  C   UNL     1     -11.049  16.509  68.329  1.00  0.00    -0.321 C  
HETATM   17  C   UNL     1     -10.055  17.091  69.325  1.00  0.00    -0.208 C  
HETATM   18  O   UNL     1     -10.223  18.513  69.348  1.00  0.00    -0.410 OA 
HETATM   19  C   UNL     1      -8.659  16.750  68.750  1.00  0.00    -0.255 C  
HETATM   20  C   UNL     1      -8.924  16.538  67.258  1.00  0.00    -0.212 C  
HETATM   21  H   UNL     1      -9.603  18.876  69.970  1.00  0.00     0.000 HD 
HETATM   22  C   UNL     1      -8.002  16.145  66.362  1.00  0.00    -0.252 C  
BRANCH  19  23
HETATM   23  C   UNL     1      -8.046  15.534  69.454  1.00  0.00    -0.241 C  
HETATM   24  O   UNL     1      -8.979  14.468  69.572  1.00  0.00    -0.389 OA 
HETATM   25  H   UNL     1      -8.598  13.714  70.009  1.00  0.00     0.000 HD 
ENDBRANCH  19  23
ENDBRANCH  12  15
TORSDOF 2
ENDMDL
MODEL       52
REMARK 921   NORMALIZED FREE ENERGY PREDICTED BY IDOCK:   -5.56 KCAL/MOL
REMARK 922        TOTAL FREE ENERGY PREDICTED BY IDOCK:   -6.55 KCAL/MOL
REMARK 923 INTER-LIGAND FREE ENERGY PREDICTED BY IDOCK:   -6.36 KCAL/MOL
REMARK 924 INTRA-LIGAND FREE ENERGY PREDICTED BY IDOCK:   -0.18 KCAL/MOL
REMARK 927      BINDING AFFINITY PREDICTED BY RF-SCORE:    0.00 PKD
ROOT
HETATM    1  N   UNL     1     -12.625  11.445  62.929  1.00  0.00    -0.847 NA 
HETATM    2  C   UNL     1     -12.142  12.416  63.746  1.00  0.00    -0.529 C  
HETATM    3  H2  UNL     1     -13.194  11.703  62.123  1.00  0.00     0.000 HD 
HETATM    4  H1  UNL     1     -12.427  10.462  63.112  1.00  0.00     0.000 HD 
HETATM    5  N   UNL     1     -12.395  13.670  63.513  1.00  0.00    -0.962 N  
HETATM    6  C   UNL     1     -11.905  14.657  64.384  1.00  0.00    -0.390 C  
HETATM    7  H   UNL     1     -12.948  13.936  62.699  1.00  0.00     0.000 HD 
HETATM    8  C   UNL     1     -11.154  14.154  65.545  1.00  0.00    -0.310 A  
HETATM    9  O   UNL     1     -12.086  15.854  64.187  1.00  0.00    -0.615 OA 
HETATM   10  C   UNL     1     -10.948  12.807  65.676  1.00  0.00    -0.273 A  
HETATM   11  N   UNL     1     -11.402  11.916  64.784  1.00  0.00    -0.307 NA 
HETATM   12  N   UNL     1     -10.232  12.616  66.815  1.00  0.00    -0.235 NA 
HETATM   13  N   UNL     1     -10.584  14.816  66.609  1.00  0.00    -0.293 NA 
HETATM   14  C   UNL     1     -10.038  13.866  67.351  1.00  0.00    -0.244 A  
ENDROOT
BRANCH  12  15
HETATM   15  C   UNL     1      -9.695  11.356  67.283  1.00  0.00    -0.185 C  
HETATM   16  C   UNL     1     -10.712  10.216  67.342  1.00  0.00    -0.336 C  
HETATM   17  C   UNL     1      -9.819   9.015  67.620  1.00  0.00    -0.173 C  
HETATM   18  O   UNL     1      -9.446   9.043  69.003  1.00  0.00    -0.153 OA 
HETATM   19  C   UNL     1      -8.559   9.237  66.747  1.00  0.00    -0.134 C  
HETATM   20  C   UNL     1      -8.550  10.748  66.504  1.00  0.00    -0.150 C  
HETATM   21  H   UNL     1      -8.889   8.294  69.177  1.00  0.00     0.000 HD 
HETATM   22  C   UNL     1      -7.667  11.394  65.723  1.00  0.00     0.328 C  
BRANCH  19  23
HETATM   23  C   UNL     1      -8.613   8.398  65.466  1.00  0.00    -0.176 C  
HETATM   24  O   UNL     1      -9.301   7.170  65.668  1.00  0.00    -0.381 OA 
HETATM   25  H   UNL     1      -9.334   6.651  64.872  1.00  0.00     0.000 HD 
ENDBRANCH  19  23
ENDBRANCH  12  15
TORSDOF 2
ENDMDL
MODEL       53
REMARK 921   NORMALIZED FREE ENERGY PREDICTED BY IDOCK:   -5.55 KCAL/MOL
REMARK 922        TOTAL FREE ENERGY PREDICTED BY IDOCK:   -6.53 KCAL/MOL
REMARK 923 INTER-LIGAND FREE ENERGY PREDICTED BY IDOCK:   -6.24 KCAL/MOL
REMARK 924 INTRA-LIGAND FREE ENERGY PREDICTED BY IDOCK:   -0.29 KCAL/MOL
REMARK 927      BINDING AFFINITY PREDICTED BY RF-SCORE:    0.00 PKD
ROOT
HETATM    1  N   UNL     1     -11.496  16.539  63.892  1.00  0.00    -1.599 NA 
HETATM    2  C   UNL     1     -10.933  16.689  65.118  1.00  0.00    -0.151 C  
HETATM    3  H2  UNL     1     -11.532  17.334  63.254  1.00  0.00     0.000 HD 
HETATM    4  H1  UNL     1     -11.883  15.642  63.600  1.00  0.00     0.000 HD 
HETATM    5  N   UNL     1     -10.439  17.832  65.490  1.00  0.00    -0.165 N  
HETATM    6  C   UNL     1      -9.884  17.972  66.772  1.00  0.00    -0.335 C  
HETATM    7  H   UNL     1     -10.456  18.627  64.852  1.00  0.00     0.000 HD 
HETATM    8  C   UNL     1      -9.949  16.771  67.620  1.00  0.00    -0.262 A  
HETATM    9  O   UNL     1      -9.373  19.019  67.155  1.00  0.00    -0.297 OA 
HETATM   10  C   UNL     1     -10.489  15.621  67.109  1.00  0.00    -0.303 A  
HETATM   11  N   UNL     1     -10.962  15.537  65.858  1.00  0.00    -0.300 NA 
HETATM   12  N   UNL     1     -10.423  14.676  68.084  1.00  0.00    -0.234 NA 
HETATM   13  N   UNL     1      -9.556  16.561  68.922  1.00  0.00    -0.253 NA 
HETATM   14  C   UNL     1      -9.852  15.295  69.170  1.00  0.00    -0.239 A  
ENDROOT
BRANCH  12  15
HETATM   15  C   UNL     1     -10.777  13.280  67.943  1.00  0.00    -0.239 C  
HETATM   16  C   UNL     1      -9.591  12.318  67.982  1.00  0.00    -0.206 C  
HETATM   17  C   UNL     1     -10.288  10.966  68.059  1.00  0.00    -0.185 C  
HETATM   18  O   UNL     1     -10.785  10.642  66.755  1.00  0.00    -0.250 OA 
HETATM   19  C   UNL     1     -11.481  11.180  69.022  1.00  0.00    -0.364 C  
HETATM   20  C   UNL     1     -11.726  12.690  68.964  1.00  0.00    -0.367 C  
HETATM   21  H   UNL     1     -11.221   9.799  66.803  1.00  0.00     0.000 HD 
HETATM   22  C   UNL     1     -12.630  13.350  69.707  1.00  0.00     0.024 C  
BRANCH  19  23
HETATM   23  C   UNL     1     -11.168  10.652  70.426  1.00  0.00    -0.252 C  
HETATM   24  O   UNL     1     -10.032   9.797  70.426  1.00  0.00    -0.261 OA 
HETATM   25  H   UNL     1      -9.839   9.470  71.298  1.00  0.00     0.000 HD 
ENDBRANCH  19  23
ENDBRANCH  12  15
TORSDOF 2
ENDMDL
MODEL       54
REMARK 921   NORMALIZED FREE ENERGY PREDICTED BY IDOCK:   -5.54 KCAL/MOL
REMARK 922        TOTAL FREE ENERGY PREDICTED BY IDOCK:   -6.53 KCAL/MOL
REMARK 923 INTER-LIGAND FREE ENERGY PREDICTED BY IDOCK:   -7.19 KCAL/MOL
REMARK 924 INTRA-LIGAND FREE ENERGY PREDICTED BY IDOCK:    0.66 KCAL/MOL
REMARK 927      BINDING AFFINITY PREDICTED BY RF-SCORE:    0.00 PKD
ROOT
HETATM    1  N   UNL     1     -11.262   6.308  66.453  1.00  0.00    -0.632 NA 
HETATM    2  C   UNL     1     -10.910   7.305  67.305  1.00  0.00    -0.284 C  
HETATM    3  H2  UNL     1     -11.576   5.413  66.828  1.00  0.00     0.000 HD 
HETATM    4  H1  UNL     1     -11.216   6.443  65.443  1.00  0.00     0.000 HD 
HETATM    5  N   UNL     1     -10.969   7.134  68.592  1.00  0.00    -0.438 N  
HETATM    6  C   UNL     1     -10.577   8.169  69.455  1.00  0.00    -0.213 C  
HETATM    7  H   UNL     1     -11.299   6.248  68.974  1.00  0.00     0.000 HD 
HETATM    8  C   UNL     1     -10.081   9.387  68.793  1.00  0.00    -0.193 A  
HETATM    9  O   UNL     1     -10.649   8.069  70.676  1.00  0.00    -0.212 OA 
HETATM   10  C   UNL     1     -10.076   9.448  67.425  1.00  0.00    -0.215 A  
HETATM   11  N   UNL     1     -10.507   8.440  66.654  1.00  0.00    -0.249 NA 
HETATM   12  N   UNL     1      -9.582  10.666  67.077  1.00  0.00    -0.167 NA 
HETATM   13  N   UNL     1      -9.578  10.558  69.312  1.00  0.00    -0.204 NA 
HETATM   14  C   UNL     1      -9.289  11.304  68.258  1.00  0.00    -0.180 A  
ENDROOT
BRANCH  12  15
HETATM   15  C   UNL     1      -9.504  11.201  65.735  1.00  0.00    -0.221 C  
HETATM   16  C   UNL     1      -9.979  10.245  64.642  1.00  0.00    -0.377 C  
HETATM   17  C   UNL     1     -10.008  11.155  63.422  1.00  0.00    -0.387 C  
HETATM   18  O   UNL     1      -8.661  11.344  62.971  1.00  0.00    -0.479 OA 
HETATM   19  C   UNL     1     -10.569  12.503  63.935  1.00  0.00    -0.472 C  
HETATM   20  C   UNL     1     -10.277  12.467  65.438  1.00  0.00    -0.303 C  
HETATM   21  H   UNL     1      -8.679  11.912  62.210  1.00  0.00     0.000 HD 
HETATM   22  C   UNL     1     -10.660  13.409  66.317  1.00  0.00    -0.292 C  
BRANCH  19  23
HETATM   23  C   UNL     1     -12.054  12.659  63.591  1.00  0.00    -0.547 C  
HETATM   24  O   UNL     1     -12.345  13.955  63.084  1.00  0.00    -1.122 OA 
HETATM   25  H   UNL     1     -13.266  14.051  62.870  1.00  0.00     0.000 HD 
ENDBRANCH  19  23
ENDBRANCH  12  15
TORSDOF 2
ENDMDL
MODEL       55
REMARK 921   NORMALIZED FREE ENERGY PREDICTED BY IDOCK:   -5.44 KCAL/MOL
REMARK 922        TOTAL FREE ENERGY PREDICTED BY IDOCK:   -6.42 KCAL/MOL
REMARK 923 INTER-LIGAND FREE ENERGY PREDICTED BY IDOCK:   -5.96 KCAL/MOL
REMARK 924 INTRA-LIGAND FREE ENERGY PREDICTED BY IDOCK:   -0.45 KCAL/MOL
REMARK 927      BINDING AFFINITY PREDICTED BY RF-SCORE:    0.00 PKD
ROOT
HETATM    1  N   UNL     1     -12.366  14.453  68.092  1.00  0.00    -0.590 NA 
HETATM    2  C   UNL     1     -12.105  13.783  66.941  1.00  0.00    -0.413 C  
HETATM    3  H2  UNL     1     -12.872  15.338  68.055  1.00  0.00     0.000 HD 
HETATM    4  H1  UNL     1     -12.061  14.084  68.992  1.00  0.00     0.000 HD 
HETATM    5  N   UNL     1     -12.494  14.253  65.793  1.00  0.00    -0.431 N  
HETATM    6  C   UNL     1     -12.193  13.556  64.611  1.00  0.00    -0.406 C  
HETATM    7  H   UNL     1     -13.016  15.128  65.750  1.00  0.00     0.000 HD 
HETATM    8  C   UNL     1     -11.401  12.328  64.791  1.00  0.00    -0.323 A  
HETATM    9  O   UNL     1     -12.569  13.940  63.509  1.00  0.00    -0.842 OA 
HETATM   10  C   UNL     1     -11.059  11.932  66.056  1.00  0.00    -0.322 A  
HETATM   11  N   UNL     1     -11.416  12.618  67.150  1.00  0.00    -0.325 NA 
HETATM   12  N   UNL     1     -10.345  10.781  65.940  1.00  0.00    -0.254 NA 
HETATM   13  N   UNL     1     -10.892  11.438  63.872  1.00  0.00    -0.385 NA 
HETATM   14  C   UNL     1     -10.266  10.522  64.593  1.00  0.00    -0.294 A  
ENDROOT
BRANCH  12  15
HETATM   15  C   UNL     1      -9.878   9.955  67.032  1.00  0.00    -0.191 C  
HETATM   16  C   UNL     1     -10.067   8.453  66.816  1.00  0.00    -0.373 C  
HETATM   17  C   UNL     1      -9.280   7.869  67.981  1.00  0.00    -0.131 C  
HETATM   18  O   UNL     1     -10.063   8.016  69.171  1.00  0.00    -0.190 OA 
HETATM   19  C   UNL     1      -8.010   8.749  68.093  1.00  0.00    -0.106 C  
HETATM   20  C   UNL     1      -8.419  10.061  67.418  1.00  0.00    -0.121 C  
HETATM   21  H   UNL     1      -9.572   7.652  69.898  1.00  0.00     0.000 HD 
HETATM   22  C   UNL     1      -7.599  11.105  67.213  1.00  0.00    -0.126 C  
BRANCH  19  23
HETATM   23  C   UNL     1      -6.798   8.066  67.450  1.00  0.00    -0.070 C  
HETATM   24  O   UNL     1      -6.945   6.652  67.420  1.00  0.00    -0.073 OA 
HETATM   25  H   UNL     1      -6.193   6.229  67.021  1.00  0.00     0.000 HD 
ENDBRANCH  19  23
ENDBRANCH  12  15
TORSDOF 2
ENDMDL
MODEL       56
REMARK 921   NORMALIZED FREE ENERGY PREDICTED BY IDOCK:   -5.43 KCAL/MOL
REMARK 922        TOTAL FREE ENERGY PREDICTED BY IDOCK:   -6.40 KCAL/MOL
REMARK 923 INTER-LIGAND FREE ENERGY PREDICTED BY IDOCK:   -6.30 KCAL/MOL
REMARK 924 INTRA-LIGAND FREE ENERGY PREDICTED BY IDOCK:   -0.11 KCAL/MOL
REMARK 927      BINDING AFFINITY PREDICTED BY RF-SCORE:    0.00 PKD
ROOT
HETATM    1  N   UNL     1      -7.128   8.833  70.936  1.00  0.00    -0.066 NA 
HETATM    2  C   UNL     1      -8.473   8.984  71.044  1.00  0.00    -0.203 C  
HETATM    3  H2  UNL     1      -6.635   8.229  71.594  1.00  0.00     0.000 HD 
HETATM    4  H1  UNL     1      -6.604   9.315  70.206  1.00  0.00     0.000 HD 
HETATM    5  N   UNL     1      -9.141   8.369  71.974  1.00  0.00    -0.205 N  
HETATM    6  C   UNL     1     -10.528   8.558  72.083  1.00  0.00    -0.342 C  
HETATM    7  H   UNL     1      -8.657   7.750  72.625  1.00  0.00     0.000 HD 
HETATM    8  C   UNL     1     -11.111   9.503  71.117  1.00  0.00    -0.379 A  
HETATM    9  O   UNL     1     -11.206   7.972  72.920  1.00  0.00    -0.401 OA 
HETATM   10  C   UNL     1     -10.302  10.083  70.178  1.00  0.00    -0.266 A  
HETATM   11  N   UNL     1      -8.989   9.826  70.095  1.00  0.00    -0.228 NA 
HETATM   12  N   UNL     1     -11.083  10.896  69.418  1.00  0.00    -0.241 NA 
HETATM   13  N   UNL     1     -12.401   9.959  70.965  1.00  0.00    -0.336 NA 
HETATM   14  C   UNL     1     -12.350  10.791  69.937  1.00  0.00    -0.271 A  
ENDROOT
BRANCH  12  15
HETATM   15  C   UNL     1     -10.663  11.620  68.238  1.00  0.00    -0.213 C  
HETATM   16  C   UNL     1     -10.873  10.867  66.924  1.00  0.00    -0.307 C  
HETATM   17  C   UNL     1     -10.580  11.949  65.894  1.00  0.00    -0.266 C  
HETATM   18  O   UNL     1      -9.160  12.124  65.817  1.00  0.00    -0.425 OA 
HETATM   19  C   UNL     1     -11.223  13.236  66.465  1.00  0.00    -0.329 C  
HETATM   20  C   UNL     1     -11.314  12.960  67.968  1.00  0.00    -0.333 C  
HETATM   21  H   UNL     1      -8.978  12.799  65.175  1.00  0.00     0.000 HD 
HETATM   22  C   UNL     1     -11.883  13.780  68.866  1.00  0.00    -0.396 C  
BRANCH  19  23
HETATM   23  C   UNL     1     -12.574  13.528  65.802  1.00  0.00    -0.434 C  
HETATM   24  O   UNL     1     -12.662  12.946  64.507  1.00  0.00    -0.654 OA 
HETATM   25  H   UNL     1     -13.500  13.127  64.096  1.00  0.00     0.000 HD 
ENDBRANCH  19  23
ENDBRANCH  12  15
TORSDOF 2
ENDMDL
MODEL       57
REMARK 921   NORMALIZED FREE ENERGY PREDICTED BY IDOCK:   -5.39 KCAL/MOL
REMARK 922        TOTAL FREE ENERGY PREDICTED BY IDOCK:   -6.36 KCAL/MOL
REMARK 923 INTER-LIGAND FREE ENERGY PREDICTED BY IDOCK:   -6.42 KCAL/MOL
REMARK 924 INTRA-LIGAND FREE ENERGY PREDICTED BY IDOCK:    0.06 KCAL/MOL
REMARK 927      BINDING AFFINITY PREDICTED BY RF-SCORE:    0.00 PKD
ROOT
HETATM    1  N   UNL     1     -11.285  11.602  64.787  1.00  0.00    -0.272 NA 
HETATM    2  C   UNL     1     -11.444  12.219  65.986  1.00  0.00    -0.381 C  
HETATM    3  H2  UNL     1     -11.282  12.157  63.931  1.00  0.00     0.000 HD 
HETATM    4  H1  UNL     1     -11.167  10.590  64.731  1.00  0.00     0.000 HD 
HETATM    5  N   UNL     1     -11.594  13.508  66.057  1.00  0.00    -0.326 N  
HETATM    6  C   UNL     1     -11.782  14.124  67.305  1.00  0.00    -0.392 C  
HETATM    7  H   UNL     1     -11.575  14.072  65.207  1.00  0.00     0.000 HD 
HETATM    8  C   UNL     1     -11.831  13.208  68.456  1.00  0.00    -0.342 A  
HETATM    9  O   UNL     1     -11.890  15.339  67.427  1.00  0.00    -0.215 OA 
HETATM   10  C   UNL     1     -11.652  11.867  68.251  1.00  0.00    -0.327 A  
HETATM   11  N   UNL     1     -11.430  11.343  67.038  1.00  0.00    -0.487 NA 
HETATM   12  N   UNL     1     -11.737  11.258  69.464  1.00  0.00    -0.313 NA 
HETATM   13  N   UNL     1     -12.046  13.449  69.794  1.00  0.00    -0.325 NA 
HETATM   14  C   UNL     1     -11.982  12.260  70.371  1.00  0.00    -0.263 A  
ENDROOT
BRANCH  12  15
HETATM   15  C   UNL     1     -11.498   9.856  69.732  1.00  0.00    -0.143 C  
HETATM   16  C   UNL     1     -10.022   9.475  69.841  1.00  0.00    -0.259 C  
HETATM   17  C   UNL     1     -10.107   8.044  70.356  1.00  0.00    -0.194 C  
HETATM   18  O   UNL     1     -10.468   7.194  69.262  1.00  0.00    -0.201 OA 
HETATM   19  C   UNL     1     -11.254   8.055  71.396  1.00  0.00    -0.287 C  
HETATM   20  C   UNL     1     -12.094   9.271  70.994  1.00  0.00    -0.349 C  
HETATM   21  H   UNL     1     -10.521   6.301  69.583  1.00  0.00     0.000 HD 
HETATM   22  C   UNL     1     -13.165   9.720  71.669  1.00  0.00    -0.514 C  
BRANCH  19  23
HETATM   23  C   UNL     1     -10.712   8.117  72.828  1.00  0.00    -0.321 C  
HETATM   24  O   UNL     1     -11.297   7.120  73.656  1.00  0.00    -0.507 OA 
HETATM   25  H   UNL     1     -10.960   7.158  74.544  1.00  0.00     0.000 HD 
ENDBRANCH  19  23
ENDBRANCH  12  15
TORSDOF 2
ENDMDL
MODEL       58
REMARK 921   NORMALIZED FREE ENERGY PREDICTED BY IDOCK:   -5.38 KCAL/MOL
REMARK 922        TOTAL FREE ENERGY PREDICTED BY IDOCK:   -6.35 KCAL/MOL
REMARK 923 INTER-LIGAND FREE ENERGY PREDICTED BY IDOCK:   -6.08 KCAL/MOL
REMARK 924 INTRA-LIGAND FREE ENERGY PREDICTED BY IDOCK:   -0.27 KCAL/MOL
REMARK 927      BINDING AFFINITY PREDICTED BY RF-SCORE:    0.00 PKD
ROOT
HETATM    1  N   UNL     1      -5.758  16.407  66.872  1.00  0.00    -0.346 NA 
HETATM    2  C   UNL     1      -6.943  16.824  67.386  1.00  0.00    -0.153 C  
HETATM    3  H2  UNL     1      -4.957  17.039  66.878  1.00  0.00     0.000 HD 
HETATM    4  H1  UNL     1      -5.658  15.471  66.480  1.00  0.00     0.000 HD 
HETATM    5  N   UNL     1      -7.071  18.017  67.886  1.00  0.00    -0.212 N  
HETATM    6  C   UNL     1      -8.312  18.437  68.390  1.00  0.00    -0.308 C  
HETATM    7  H   UNL     1      -6.270  18.648  67.912  1.00  0.00     0.000 HD 
HETATM    8  C   UNL     1      -9.405  17.458  68.265  1.00  0.00    -0.278 A  
HETATM    9  O   UNL     1      -8.473  19.538  68.905  1.00  0.00    -0.358 OA 
HETATM   10  C   UNL     1      -9.141  16.228  67.725  1.00  0.00    -0.195 A  
HETATM   11  N   UNL     1      -7.921  15.869  67.303  1.00  0.00    -0.164 NA 
HETATM   12  N   UNL     1     -10.306  15.526  67.731  1.00  0.00    -0.258 NA 
HETATM   13  N   UNL     1     -10.737  17.543  68.599  1.00  0.00    -0.276 NA 
HETATM   14  C   UNL     1     -11.249  16.369  68.268  1.00  0.00    -0.300 A  
ENDROOT
BRANCH  12  15
HETATM   15  C   UNL     1     -10.466  14.138  67.355  1.00  0.00    -0.271 C  
HETATM   16  C   UNL     1     -11.666  13.442  67.997  1.00  0.00    -0.391 C  
HETATM   17  C   UNL     1     -11.704  12.123  67.237  1.00  0.00    -0.299 C  
HETATM   18  O   UNL     1     -10.666  11.279  67.750  1.00  0.00    -0.196 OA 
HETATM   19  C   UNL     1     -11.383  12.492  65.768  1.00  0.00    -0.373 C  
HETATM   20  C   UNL     1     -10.639  13.825  65.885  1.00  0.00    -0.289 C  
HETATM   21  H   UNL     1     -10.690  10.456  67.276  1.00  0.00     0.000 HD 
HETATM   22  C   UNL     1     -10.227  14.567  64.844  1.00  0.00    -0.338 C  
BRANCH  19  23
HETATM   23  C   UNL     1     -12.657  12.561  64.918  1.00  0.00    -0.390 C  
HETATM   24  O   UNL     1     -13.399  13.747  65.176  1.00  0.00    -0.688 OA 
HETATM   25  H   UNL     1     -14.188  13.789  64.649  1.00  0.00     0.000 HD 
ENDBRANCH  19  23
ENDBRANCH  12  15
TORSDOF 2
ENDMDL
MODEL       59
REMARK 921   NORMALIZED FREE ENERGY PREDICTED BY IDOCK:   -5.34 KCAL/MOL
REMARK 922        TOTAL FREE ENERGY PREDICTED BY IDOCK:   -6.30 KCAL/MOL
REMARK 923 INTER-LIGAND FREE ENERGY PREDICTED BY IDOCK:   -6.20 KCAL/MOL
REMARK 924 INTRA-LIGAND FREE ENERGY PREDICTED BY IDOCK:   -0.10 KCAL/MOL
REMARK 927      BINDING AFFINITY PREDICTED BY RF-SCORE:    0.00 PKD
ROOT
HETATM    1  N   UNL     1      -7.721  11.676  66.749  1.00  0.00    -0.260 NA 
HETATM    2  C   UNL     1      -8.894  11.898  66.102  1.00  0.00    -0.063 C  
HETATM    3  H2  UNL     1      -7.077  10.969  66.395  1.00  0.00     0.000 HD 
HETATM    4  H1  UNL     1      -7.476  12.207  67.585  1.00  0.00     0.000 HD 
HETATM    5  N   UNL     1      -9.206  11.221  65.037  1.00  0.00    -0.347 N  
HETATM    6  C   UNL     1     -10.435  11.449  64.397  1.00  0.00    -0.330 C  
HETATM    7  H   UNL     1      -8.559  10.525  64.667  1.00  0.00     0.000 HD 
HETATM    8  C   UNL     1     -11.303  12.448  65.041  1.00  0.00    -0.320 A  
HETATM    9  O   UNL     1     -10.758  10.863  63.369  1.00  0.00    -0.233 OA 
HETATM   10  C   UNL     1     -10.857  13.101  66.159  1.00  0.00    -0.279 A  
HETATM   11  N   UNL     1      -9.651  12.871  66.697  1.00  0.00    -0.252 NA 
HETATM   12  N   UNL     1     -11.837  13.961  66.543  1.00  0.00    -0.392 NA 
HETATM   13  N   UNL     1     -12.571  12.881  64.726  1.00  0.00    -0.649 NA 
HETATM   14  C   UNL     1     -12.862  13.788  65.645  1.00  0.00    -0.408 A  
ENDROOT
BRANCH  12  15
HETATM   15  C   UNL     1     -11.747  14.932  67.612  1.00  0.00    -0.307 C  
HETATM   16  C   UNL     1     -11.345  14.348  68.967  1.00  0.00    -0.297 C  
HETATM   17  C   UNL     1     -11.103  15.607  69.789  1.00  0.00    -0.313 C  
HETATM   18  O   UNL     1     -12.374  16.153  70.159  1.00  0.00    -0.341 OA 
HETATM   19  C   UNL     1     -10.386  16.586  68.828  1.00  0.00    -0.286 C  
HETATM   20  C   UNL     1     -10.779  16.081  67.437  1.00  0.00    -0.306 C  
HETATM   21  H   UNL     1     -12.223  16.938  70.671  1.00  0.00     0.000 HD 
HETATM   22  C   UNL     1     -10.321  16.587  66.280  1.00  0.00    -0.327 C  
BRANCH  19  23
HETATM   23  C   UNL     1      -8.874  16.610  69.080  1.00  0.00    -0.201 C  
HETATM   24  O   UNL     1      -8.277  17.803  68.588  1.00  0.00    -0.291 OA 
HETATM   25  H   UNL     1      -7.340  17.818  68.744  1.00  0.00     0.000 HD 
ENDBRANCH  19  23
ENDBRANCH  12  15
TORSDOF 2
ENDMDL
MODEL       60
REMARK 921   NORMALIZED FREE ENERGY PREDICTED BY IDOCK:   -5.32 KCAL/MOL
REMARK 922        TOTAL FREE ENERGY PREDICTED BY IDOCK:   -6.28 KCAL/MOL
REMARK 923 INTER-LIGAND FREE ENERGY PREDICTED BY IDOCK:   -5.85 KCAL/MOL
REMARK 924 INTRA-LIGAND FREE ENERGY PREDICTED BY IDOCK:   -0.43 KCAL/MOL
REMARK 927      BINDING AFFINITY PREDICTED BY RF-SCORE:    0.00 PKD
ROOT
HETATM    1  N   UNL     1      -8.378   9.203  64.227  1.00  0.00    -0.165 NA 
HETATM    2  C   UNL     1      -9.220   9.439  65.265  1.00  0.00    -0.238 C  
HETATM    3  H2  UNL     1      -8.085   8.247  64.023  1.00  0.00     0.000 HD 
HETATM    4  H1  UNL     1      -8.034   9.969  63.647  1.00  0.00     0.000 HD 
HETATM    5  N   UNL     1      -9.657   8.463  66.003  1.00  0.00    -0.429 N  
HETATM    6  C   UNL     1     -10.508   8.731  67.088  1.00  0.00    -0.283 C  
HETATM    7  H   UNL     1      -9.383   7.503  65.795  1.00  0.00     0.000 HD 
HETATM    8  C   UNL     1     -10.804  10.155  67.317  1.00  0.00    -0.230 A  
HETATM    9  O   UNL     1     -10.977   7.842  67.790  1.00  0.00    -0.075 OA 
HETATM   10  C   UNL     1     -10.287  11.091  66.462  1.00  0.00    -0.245 A  
HETATM   11  N   UNL     1      -9.517  10.767  65.414  1.00  0.00    -0.201 NA 
HETATM   12  N   UNL     1     -10.713  12.309  66.891  1.00  0.00    -0.227 NA 
HETATM   13  N   UNL     1     -11.545  10.778  68.295  1.00  0.00    -0.460 NA 
HETATM   14  C   UNL     1     -11.471  12.068  68.011  1.00  0.00    -0.328 A  
ENDROOT
BRANCH  12  15
HETATM   15  C   UNL     1     -10.497  13.572  66.219  1.00  0.00    -0.290 C  
HETATM   16  C   UNL     1     -11.672  14.546  66.307  1.00  0.00    -0.364 C  
HETATM   17  C   UNL     1     -11.063  15.822  65.743  1.00  0.00    -0.124 C  
HETATM   18  O   UNL     1     -10.995  15.695  64.317  1.00  0.00    -0.761 OA 
HETATM   19  C   UNL     1      -9.627  15.874  66.320  1.00  0.00    -0.345 C  
HETATM   20  C   UNL     1      -9.324  14.415  66.669  1.00  0.00    -0.297 C  
HETATM   21  H   UNL     1     -10.614  16.491  63.965  1.00  0.00     0.000 HD 
HETATM   22  C   UNL     1      -8.203  13.987  67.274  1.00  0.00    -0.187 C  
BRANCH  19  23
HETATM   23  C   UNL     1      -9.539  16.832  67.513  1.00  0.00    -0.240 C  
HETATM   24  O   UNL     1     -10.734  17.585  67.674  1.00  0.00    -0.362 OA 
HETATM   25  H   UNL     1     -10.679  18.179  68.414  1.00  0.00     0.000 HD 
ENDBRANCH  19  23
ENDBRANCH  12  15
TORSDOF 2
ENDMDL
MODEL       61
REMARK 921   NORMALIZED FREE ENERGY PREDICTED BY IDOCK:   -5.30 KCAL/MOL
REMARK 922        TOTAL FREE ENERGY PREDICTED BY IDOCK:   -6.26 KCAL/MOL
REMARK 923 INTER-LIGAND FREE ENERGY PREDICTED BY IDOCK:   -6.09 KCAL/MOL
REMARK 924 INTRA-LIGAND FREE ENERGY PREDICTED BY IDOCK:   -0.17 KCAL/MOL
REMARK 927      BINDING AFFINITY PREDICTED BY RF-SCORE:    0.00 PKD
ROOT
HETATM    1  N   UNL     1     -12.275  14.074  67.852  1.00  0.00    -0.520 NA 
HETATM    2  C   UNL     1     -11.931  13.592  66.630  1.00  0.00    -0.415 C  
HETATM    3  H2  UNL     1     -13.020  14.766  67.928  1.00  0.00     0.000 HD 
HETATM    4  H1  UNL     1     -11.799  13.752  68.695  1.00  0.00     0.000 HD 
HETATM    5  N   UNL     1     -12.538  14.003  65.557  1.00  0.00    -0.518 N  
HETATM    6  C   UNL     1     -12.149  13.511  64.300  1.00  0.00    -0.431 C  
HETATM    7  H   UNL     1     -13.295  14.682  65.627  1.00  0.00     0.000 HD 
HETATM    8  C   UNL     1     -11.020  12.567  64.317  1.00  0.00    -0.360 A  
HETATM    9  O   UNL     1     -12.715  13.839  63.263  1.00  0.00    -0.783 OA 
HETATM   10  C   UNL     1     -10.468  12.206  65.517  1.00  0.00    -0.265 A  
HETATM   11  N   UNL     1     -10.915  12.676  66.690  1.00  0.00    -0.251 NA 
HETATM   12  N   UNL     1      -9.461  11.332  65.252  1.00  0.00    -0.223 NA 
HETATM   13  N   UNL     1     -10.354  11.935  63.291  1.00  0.00    -0.426 NA 
HETATM   14  C   UNL     1      -9.426  11.201  63.885  1.00  0.00    -0.227 A  
ENDROOT
BRANCH  12  15
HETATM   15  C   UNL     1      -8.680  10.610  66.233  1.00  0.00    -0.156 C  
HETATM   16  C   UNL     1      -7.896  11.499  67.198  1.00  0.00    -0.160 C  
HETATM   17  C   UNL     1      -7.398  10.487  68.221  1.00  0.00    -0.088 C  
HETATM   18  O   UNL     1      -6.298   9.772  67.646  1.00  0.00    -0.059 OA 
HETATM   19  C   UNL     1      -8.583   9.514  68.437  1.00  0.00    -0.120 C  
HETATM   20  C   UNL     1      -9.415   9.668  67.161  1.00  0.00    -0.185 C  
HETATM   21  H   UNL     1      -5.988   9.140  68.284  1.00  0.00     0.000 HD 
HETATM   22  C   UNL     1     -10.593   9.062  66.936  1.00  0.00    -0.243 C  
BRANCH  19  23
HETATM   23  C   UNL     1      -9.348   9.842  69.724  1.00  0.00    -0.221 C  
HETATM   24  O   UNL     1     -10.122  11.027  69.590  1.00  0.00    -0.440 OA 
HETATM   25  H   UNL     1     -10.596  11.230  70.388  1.00  0.00     0.000 HD 
ENDBRANCH  19  23
ENDBRANCH  12  15
TORSDOF 2
ENDMDL
MODEL       62
REMARK 921   NORMALIZED FREE ENERGY PREDICTED BY IDOCK:   -5.29 KCAL/MOL
REMARK 922        TOTAL FREE ENERGY PREDICTED BY IDOCK:   -6.25 KCAL/MOL
REMARK 923 INTER-LIGAND FREE ENERGY PREDICTED BY IDOCK:   -6.81 KCAL/MOL
REMARK 924 INTRA-LIGAND FREE ENERGY PREDICTED BY IDOCK:    0.56 KCAL/MOL
REMARK 927      BINDING AFFINITY PREDICTED BY RF-SCORE:    0.00 PKD
ROOT
HETATM    1  N   UNL     1     -12.322  14.610  67.865  1.00  0.00    -0.588 NA 
HETATM    2  C   UNL     1     -12.069  13.937  66.713  1.00  0.00    -0.439 C  
HETATM    3  H2  UNL     1     -12.812  15.504  67.828  1.00  0.00     0.000 HD 
HETATM    4  H1  UNL     1     -12.028  14.234  68.766  1.00  0.00     0.000 HD 
HETATM    5  N   UNL     1     -12.444  14.417  65.564  1.00  0.00    -0.385 N  
HETATM    6  C   UNL     1     -12.151  13.717  64.383  1.00  0.00    -0.427 C  
HETATM    7  H   UNL     1     -12.950  15.301  65.522  1.00  0.00     0.000 HD 
HETATM    8  C   UNL     1     -11.383  12.474  64.563  1.00  0.00    -0.330 A  
HETATM    9  O   UNL     1     -12.515  14.109  63.280  1.00  0.00    -0.758 OA 
HETATM   10  C   UNL     1     -11.053  12.070  65.829  1.00  0.00    -0.324 A  
HETATM   11  N   UNL     1     -11.402  12.760  66.923  1.00  0.00    -0.303 NA 
HETATM   12  N   UNL     1     -10.360  10.906  65.714  1.00  0.00    -0.251 NA 
HETATM   13  N   UNL     1     -10.887  11.576  63.645  1.00  0.00    -0.402 NA 
HETATM   14  C   UNL     1     -10.280  10.648  64.367  1.00  0.00    -0.330 A  
ENDROOT
BRANCH  12  15
HETATM   15  C   UNL     1      -9.913  10.069  66.806  1.00  0.00    -0.210 C  
HETATM   16  C   UNL     1     -11.021   9.629  67.762  1.00  0.00    -0.203 C  
HETATM   17  C   UNL     1     -10.301   8.598  68.621  1.00  0.00    -0.193 C  
HETATM   18  O   UNL     1      -9.472   9.294  69.559  1.00  0.00    -0.160 OA 
HETATM   19  C   UNL     1      -9.406   7.806  67.637  1.00  0.00    -0.160 C  
HETATM   20  C   UNL     1      -9.229   8.765  66.457  1.00  0.00    -0.228 C  
HETATM   21  H   UNL     1      -9.022   8.651  70.094  1.00  0.00     0.000 HD 
HETATM   22  C   UNL     1      -8.579   8.469  65.319  1.00  0.00    -0.192 C  
BRANCH  19  23
HETATM   23  C   UNL     1     -10.041   6.463  67.260  1.00  0.00    -0.163 C  
HETATM   24  O   UNL     1     -11.459   6.553  67.186  1.00  0.00    -0.768 OA 
HETATM   25  H   UNL     1     -11.852   5.720  66.952  1.00  0.00     0.000 HD 
ENDBRANCH  19  23
ENDBRANCH  12  15
TORSDOF 2
ENDMDL
MODEL       63
REMARK 921   NORMALIZED FREE ENERGY PREDICTED BY IDOCK:   -5.27 KCAL/MOL
REMARK 922        TOTAL FREE ENERGY PREDICTED BY IDOCK:   -6.22 KCAL/MOL
REMARK 923 INTER-LIGAND FREE ENERGY PREDICTED BY IDOCK:   -6.53 KCAL/MOL
REMARK 924 INTRA-LIGAND FREE ENERGY PREDICTED BY IDOCK:    0.31 KCAL/MOL
REMARK 927      BINDING AFFINITY PREDICTED BY RF-SCORE:    0.00 PKD
ROOT
HETATM    1  N   UNL     1      -8.453  15.087  69.239  1.00  0.00    -0.324 NA 
HETATM    2  C   UNL     1      -9.080  15.845  68.304  1.00  0.00    -0.185 C  
HETATM    3  H2  UNL     1      -7.952  15.542  70.002  1.00  0.00     0.000 HD 
HETATM    4  H1  UNL     1      -8.475  14.068  69.188  1.00  0.00     0.000 HD 
HETATM    5  N   UNL     1      -9.052  17.143  68.369  1.00  0.00    -0.255 N  
HETATM    6  C   UNL     1      -9.686  17.908  67.377  1.00  0.00    -0.288 C  
HETATM    7  H   UNL     1      -8.569  17.604  69.139  1.00  0.00     0.000 HD 
HETATM    8  C   UNL     1     -10.317  17.136  66.295  1.00  0.00    -0.313 A  
HETATM    9  O   UNL     1      -9.719  19.134  67.415  1.00  0.00    -0.306 OA 
HETATM   10  C   UNL     1     -10.285  15.768  66.343  1.00  0.00    -0.293 A  
HETATM   11  N   UNL     1      -9.702  15.093  67.343  1.00  0.00    -0.209 NA 
HETATM   12  N   UNL     1     -10.936  15.309  65.241  1.00  0.00    -0.372 NA 
HETATM   13  N   UNL     1     -10.972  17.545  65.155  1.00  0.00    -0.606 NA 
HETATM   14  C   UNL     1     -11.331  16.427  64.546  1.00  0.00    -0.114 A  
ENDROOT
BRANCH  12  15
HETATM   15  C   UNL     1     -11.238  13.926  64.944  1.00  0.00    -0.356 C  
HETATM   16  C   UNL     1     -10.047  13.111  64.440  1.00  0.00    -0.224 C  
HETATM   17  C   UNL     1     -10.609  11.695  64.458  1.00  0.00    -0.318 C  
HETATM   18  O   UNL     1     -11.471  11.540  63.325  1.00  0.00    -0.781 OA 
HETATM   19  C   UNL     1     -11.449  11.609  65.756  1.00  0.00    -0.175 C  
HETATM   20  C   UNL     1     -11.784  13.070  66.067  1.00  0.00    -0.442 C  
HETATM   21  H   UNL     1     -11.822  10.657  63.336  1.00  0.00     0.000 HD 
HETATM   22  C   UNL     1     -12.444  13.490  67.159  1.00  0.00    -0.056 C  
BRANCH  19  23
HETATM   23  C   UNL     1     -10.682  10.893  66.872  1.00  0.00    -0.264 C  
HETATM   24  O   UNL     1     -11.561  10.259  67.793  1.00  0.00    -0.651 OA 
HETATM   25  H   UNL     1     -11.085   9.814  68.485  1.00  0.00     0.000 HD 
ENDBRANCH  19  23
ENDBRANCH  12  15
TORSDOF 2
ENDMDL
MODEL       64
REMARK 921   NORMALIZED FREE ENERGY PREDICTED BY IDOCK:   -5.25 KCAL/MOL
REMARK 922        TOTAL FREE ENERGY PREDICTED BY IDOCK:   -6.20 KCAL/MOL
REMARK 923 INTER-LIGAND FREE ENERGY PREDICTED BY IDOCK:   -5.78 KCAL/MOL
REMARK 924 INTRA-LIGAND FREE ENERGY PREDICTED BY IDOCK:   -0.42 KCAL/MOL
REMARK 927      BINDING AFFINITY PREDICTED BY RF-SCORE:    0.00 PKD
ROOT
HETATM    1  N   UNL     1      -6.874  11.602  66.524  1.00  0.00    -0.365 NA 
HETATM    2  C   UNL     1      -8.171  11.903  66.789  1.00  0.00    -0.129 C  
HETATM    3  H2  UNL     1      -6.385  12.095  65.776  1.00  0.00     0.000 HD 
HETATM    4  H1  UNL     1      -6.382  10.889  67.062  1.00  0.00     0.000 HD 
HETATM    5  N   UNL     1      -8.798  12.811  66.102  1.00  0.00    -0.413 N  
HETATM    6  C   UNL     1     -10.146  13.090  66.376  1.00  0.00    -0.279 C  
HETATM    7  H   UNL     1      -8.311  13.320  65.365  1.00  0.00     0.000 HD 
HETATM    8  C   UNL     1     -10.756  12.267  67.432  1.00  0.00    -0.230 A  
HETATM    9  O   UNL     1     -10.770  13.963  65.781  1.00  0.00    -0.279 OA 
HETATM   10  C   UNL     1      -9.987  11.345  68.089  1.00  0.00    -0.189 A  
HETATM   11  N   UNL     1      -8.689  11.156  67.813  1.00  0.00    -0.130 NA 
HETATM   12  N   UNL     1     -10.783  10.734  69.007  1.00  0.00    -0.213 NA 
HETATM   13  N   UNL     1     -12.043  12.230  67.921  1.00  0.00    -0.434 NA 
HETATM   14  C   UNL     1     -12.025  11.303  68.864  1.00  0.00    -0.310 A  
ENDROOT
BRANCH  12  15
HETATM   15  C   UNL     1     -10.356   9.771  69.998  1.00  0.00    -0.263 C  
HETATM   16  C   UNL     1     -11.156   9.804  71.300  1.00  0.00    -0.375 C  
HETATM   17  C   UNL     1     -10.648   8.556  72.010  1.00  0.00    -0.338 C  
HETATM   18  O   UNL     1      -9.352   8.841  72.548  1.00  0.00    -0.326 OA 
HETATM   19  C   UNL     1     -10.517   7.484  70.901  1.00  0.00    -0.218 C  
HETATM   20  C   UNL     1     -10.391   8.307  69.616  1.00  0.00    -0.218 C  
HETATM   21  H   UNL     1      -9.035   8.063  72.990  1.00  0.00     0.000 HD 
HETATM   22  C   UNL     1     -10.329   7.791  68.377  1.00  0.00    -0.231 C  
BRANCH  19  23
HETATM   23  C   UNL     1     -11.710   6.521  70.910  1.00  0.00    -0.356 C  
HETATM   24  O   UNL     1     -12.274   6.394  72.209  1.00  0.00    -0.483 OA 
HETATM   25  H   UNL     1     -13.014   5.797  72.215  1.00  0.00     0.000 HD 
ENDBRANCH  19  23
ENDBRANCH  12  15
TORSDOF 2
ENDMDL
MODEL       65
REMARK 921   NORMALIZED FREE ENERGY PREDICTED BY IDOCK:   -5.22 KCAL/MOL
REMARK 922        TOTAL FREE ENERGY PREDICTED BY IDOCK:   -6.17 KCAL/MOL
REMARK 923 INTER-LIGAND FREE ENERGY PREDICTED BY IDOCK:   -5.99 KCAL/MOL
REMARK 924 INTRA-LIGAND FREE ENERGY PREDICTED BY IDOCK:   -0.18 KCAL/MOL
REMARK 927      BINDING AFFINITY PREDICTED BY RF-SCORE:    0.00 PKD
ROOT
HETATM    1  N   UNL     1     -10.927  15.295  70.963  1.00  0.00    -0.516 NA 
HETATM    2  C   UNL     1     -10.676  15.846  69.749  1.00  0.00    -0.324 C  
HETATM    3  H2  UNL     1     -11.145  15.899  71.755  1.00  0.00     0.000 HD 
HETATM    4  H1  UNL     1     -10.901  14.283  71.095  1.00  0.00     0.000 HD 
HETATM    5  N   UNL     1     -10.709  17.135  69.582  1.00  0.00    -0.325 N  
HETATM    6  C   UNL     1     -10.422  17.686  68.323  1.00  0.00    -0.375 C  
HETATM    7  H   UNL     1     -10.943  17.745  70.365  1.00  0.00     0.000 HD 
HETATM    8  C   UNL     1     -10.060  16.714  67.279  1.00  0.00    -0.279 A  
HETATM    9  O   UNL     1     -10.477  18.892  68.107  1.00  0.00    -0.374 OA 
HETATM   10  C   UNL     1     -10.068  15.378  67.578  1.00  0.00    -0.233 A  
HETATM   11  N   UNL     1     -10.397  14.910  68.790  1.00  0.00    -0.237 NA 
HETATM   12  N   UNL     1      -9.706  14.709  66.451  1.00  0.00    -0.281 NA 
HETATM   13  N   UNL     1      -9.678  16.894  65.969  1.00  0.00    -0.461 NA 
HETATM   14  C   UNL     1      -9.474  15.674  65.500  1.00  0.00    -0.129 A  
ENDROOT
BRANCH  12  15
HETATM   15  C   UNL     1      -9.691  13.273  66.280  1.00  0.00    -0.268 C  
HETATM   16  C   UNL     1      -8.835  12.522  67.300  1.00  0.00    -0.195 C  
HETATM   17  C   UNL     1      -9.213  11.074  67.019  1.00  0.00    -0.153 C  
HETATM   18  O   UNL     1      -8.540  10.657  65.825  1.00  0.00    -0.170 OA 
HETATM   19  C   UNL     1     -10.740  11.097  66.764  1.00  0.00    -0.326 C  
HETATM   20  C   UNL     1     -11.016  12.544  66.348  1.00  0.00    -0.309 C  
HETATM   21  H   UNL     1      -8.776   9.754  65.650  1.00  0.00     0.000 HD 
HETATM   22  C   UNL     1     -12.234  13.051  66.098  1.00  0.00    -0.428 C  
BRANCH  19  23
HETATM   23  C   UNL     1     -11.521  10.644  68.002  1.00  0.00    -0.212 C  
HETATM   24  O   UNL     1     -10.916   9.516  68.623  1.00  0.00    -0.395 OA 
HETATM   25  H   UNL     1     -11.401   9.236  69.391  1.00  0.00     0.000 HD 
ENDBRANCH  19  23
ENDBRANCH  12  15
TORSDOF 2
ENDMDL
MODEL       66
REMARK 921   NORMALIZED FREE ENERGY PREDICTED BY IDOCK:   -5.21 KCAL/MOL
REMARK 922        TOTAL FREE ENERGY PREDICTED BY IDOCK:   -6.16 KCAL/MOL
REMARK 923 INTER-LIGAND FREE ENERGY PREDICTED BY IDOCK:   -5.73 KCAL/MOL
REMARK 924 INTRA-LIGAND FREE ENERGY PREDICTED BY IDOCK:   -0.42 KCAL/MOL
REMARK 927      BINDING AFFINITY PREDICTED BY RF-SCORE:    0.00 PKD
ROOT
HETATM    1  N   UNL     1     -11.904  12.392  67.401  1.00  0.00    -0.505 NA 
HETATM    2  C   UNL     1     -11.224  11.236  67.191  1.00  0.00    -0.275 C  
HETATM    3  H2  UNL     1     -11.881  13.126  66.692  1.00  0.00     0.000 HD 
HETATM    4  H1  UNL     1     -12.437  12.537  68.258  1.00  0.00     0.000 HD 
HETATM    5  N   UNL     1     -10.544  11.052  66.098  1.00  0.00    -0.250 N  
HETATM    6  C   UNL     1      -9.828   9.859  65.911  1.00  0.00    -0.274 C  
HETATM    7  H   UNL     1     -10.531  11.774  65.378  1.00  0.00     0.000 HD 
HETATM    8  C   UNL     1      -9.888   8.908  67.033  1.00  0.00    -0.214 A  
HETATM    9  O   UNL     1      -9.202   9.623  64.883  1.00  0.00    -0.229 OA 
HETATM   10  C   UNL     1     -10.647   9.215  68.130  1.00  0.00    -0.183 A  
HETATM   11  N   UNL     1     -11.347  10.354  68.230  1.00  0.00    -0.268 NA 
HETATM   12  N   UNL     1     -10.534   8.179  69.003  1.00  0.00    -0.217 NA 
HETATM   13  N   UNL     1      -9.281   7.686  67.216  1.00  0.00    -0.129 NA 
HETATM   14  C   UNL     1      -9.689   7.275  68.405  1.00  0.00    -0.148 A  
ENDROOT
BRANCH  12  15
HETATM   15  C   UNL     1     -11.258   8.030  70.247  1.00  0.00    -0.190 C  
HETATM   16  C   UNL     1     -11.901   6.657  70.445  1.00  0.00    -0.407 C  
HETATM   17  C   UNL     1     -12.355   6.732  71.897  1.00  0.00    -0.326 C  
HETATM   18  O   UNL     1     -13.539   7.535  71.956  1.00  0.00    -0.494 OA 
HETATM   19  C   UNL     1     -11.208   7.458  72.642  1.00  0.00    -0.379 C  
HETATM   20  C   UNL     1     -10.491   8.234  71.535  1.00  0.00    -0.289 C  
HETATM   21  H   UNL     1     -13.822   7.583  72.862  1.00  0.00     0.000 HD 
HETATM   22  C   UNL     1      -9.372   8.959  71.706  1.00  0.00    -0.304 C  
BRANCH  19  23
HETATM   23  C   UNL     1     -10.311   6.465  73.390  1.00  0.00    -0.250 C  
HETATM   24  O   UNL     1     -11.073   5.492  74.093  1.00  0.00    -0.403 OA 
HETATM   25  H   UNL     1     -10.517   4.876  74.556  1.00  0.00     0.000 HD 
ENDBRANCH  19  23
ENDBRANCH  12  15
TORSDOF 2
ENDMDL
MODEL       67
REMARK 921   NORMALIZED FREE ENERGY PREDICTED BY IDOCK:   -5.21 KCAL/MOL
REMARK 922        TOTAL FREE ENERGY PREDICTED BY IDOCK:   -6.15 KCAL/MOL
REMARK 923 INTER-LIGAND FREE ENERGY PREDICTED BY IDOCK:   -5.87 KCAL/MOL
REMARK 924 INTRA-LIGAND FREE ENERGY PREDICTED BY IDOCK:   -0.28 KCAL/MOL
REMARK 927      BINDING AFFINITY PREDICTED BY RF-SCORE:    0.00 PKD
ROOT
HETATM    1  N   UNL     1     -12.159  16.207  63.460  1.00  0.00    -0.676 NA 
HETATM    2  C   UNL     1     -12.099  14.998  64.076  1.00  0.00    -0.094 C  
HETATM    3  H2  UNL     1     -12.484  16.264  62.495  1.00  0.00     0.000 HD 
HETATM    4  H1  UNL     1     -11.883  17.058  63.949  1.00  0.00     0.000 HD 
HETATM    5  N   UNL     1     -12.450  13.914  63.451  1.00  0.00    -1.110 N  
HETATM    6  C   UNL     1     -12.357  12.671  64.098  1.00  0.00    -0.436 C  
HETATM    7  H   UNL     1     -12.793  13.965  62.492  1.00  0.00     0.000 HD 
HETATM    8  C   UNL     1     -11.812  12.713  65.465  1.00  0.00    -0.431 A  
HETATM    9  O   UNL     1     -12.711  11.625  63.565  1.00  0.00    -0.445 OA 
HETATM   10  C   UNL     1     -11.484  13.923  66.016  1.00  0.00    -0.340 A  
HETATM   11  N   UNL     1     -11.640  15.082  65.363  1.00  0.00    -0.281 NA 
HETATM   12  N   UNL     1     -11.016  13.682  67.270  1.00  0.00    -0.284 NA 
HETATM   13  N   UNL     1     -11.538  11.705  66.361  1.00  0.00    -0.446 NA 
HETATM   14  C   UNL     1     -11.064  12.319  67.433  1.00  0.00    -0.282 A  
ENDROOT
BRANCH  12  15
HETATM   15  C   UNL     1     -10.660  14.682  68.253  1.00  0.00    -0.235 C  
HETATM   16  C   UNL     1     -10.670  14.182  69.698  1.00  0.00     0.016 C  
HETATM   17  C   UNL     1     -10.034  15.352  70.437  1.00  0.00     0.214 C  
HETATM   18  O   UNL     1     -11.013  16.390  70.562  1.00  0.00    -0.296 OA 
HETATM   19  C   UNL     1      -8.889  15.838  69.516  1.00  0.00    -0.169 C  
HETATM   20  C   UNL     1      -9.301  15.335  68.130  1.00  0.00    -0.198 C  
HETATM   21  H   UNL     1     -10.617  17.120  71.022  1.00  0.00     0.000 HD 
HETATM   22  C   UNL     1      -8.560  15.461  67.016  1.00  0.00    -0.262 C  
BRANCH  19  23
HETATM   23  C   UNL     1      -7.529  15.314  69.991  1.00  0.00     0.083 C  
HETATM   24  O   UNL     1      -6.482  16.233  69.705  1.00  0.00    -0.196 OA 
HETATM   25  H   UNL     1      -5.639  15.908  70.000  1.00  0.00     0.000 HD 
ENDBRANCH  19  23
ENDBRANCH  12  15
TORSDOF 2
ENDMDL
MODEL       68
REMARK 921   NORMALIZED FREE ENERGY PREDICTED BY IDOCK:   -5.15 KCAL/MOL
REMARK 922        TOTAL FREE ENERGY PREDICTED BY IDOCK:   -6.09 KCAL/MOL
REMARK 923 INTER-LIGAND FREE ENERGY PREDICTED BY IDOCK:   -6.87 KCAL/MOL
REMARK 924 INTRA-LIGAND FREE ENERGY PREDICTED BY IDOCK:    0.79 KCAL/MOL
REMARK 927      BINDING AFFINITY PREDICTED BY RF-SCORE:    0.00 PKD
ROOT
HETATM    1  N   UNL     1      -6.962  17.210  68.348  1.00  0.00    -0.186 NA 
HETATM    2  C   UNL     1      -8.023  17.463  67.540  1.00  0.00    -0.195 C  
HETATM    3  H2  UNL     1      -6.461  17.987  68.779  1.00  0.00     0.000 HD 
HETATM    4  H1  UNL     1      -6.660  16.253  68.530  1.00  0.00     0.000 HD 
HETATM    5  N   UNL     1      -8.408  18.683  67.308  1.00  0.00    -0.258 N  
HETATM    6  C   UNL     1      -9.493  18.924  66.449  1.00  0.00    -0.336 C  
HETATM    7  H   UNL     1      -7.923  19.464  67.749  1.00  0.00     0.000 HD 
HETATM    8  C   UNL     1     -10.090  17.725  65.839  1.00  0.00    -0.174 A  
HETATM    9  O   UNL     1      -9.917  20.054  66.229  1.00  0.00    -0.436 OA 
HETATM   10  C   UNL     1      -9.598  16.491  66.170  1.00  0.00    -0.315 A  
HETATM   11  N   UNL     1      -8.588  16.323  67.034  1.00  0.00    -0.186 NA 
HETATM   12  N   UNL     1     -10.321  15.569  65.481  1.00  0.00    -0.365 NA 
HETATM   13  N   UNL     1     -11.114  17.588  64.930  1.00  0.00    -0.773 NA 
HETATM   14  C   UNL     1     -11.228  16.284  64.736  1.00  0.00    -0.259 A  
ENDROOT
BRANCH  12  15
HETATM   15  C   UNL     1     -10.217  14.132  65.612  1.00  0.00    -0.339 C  
HETATM   16  C   UNL     1      -9.320  13.665  66.758  1.00  0.00    -0.269 C  
HETATM   17  C   UNL     1      -9.606  12.169  66.788  1.00  0.00    -0.211 C  
HETATM   18  O   UNL     1      -8.903  11.556  65.701  1.00  0.00    -0.360 OA 
HETATM   19  C   UNL     1     -11.130  12.044  66.547  1.00  0.00    -0.362 C  
HETATM   20  C   UNL     1     -11.493  13.353  65.841  1.00  0.00    -0.344 C  
HETATM   21  H   UNL     1      -9.082  10.623  65.719  1.00  0.00     0.000 HD 
HETATM   22  C   UNL     1     -12.740  13.722  65.502  1.00  0.00    -0.530 C  
BRANCH  19  23
HETATM   23  C   UNL     1     -11.887  11.811  67.859  1.00  0.00    -0.219 C  
HETATM   24  O   UNL     1     -11.982  10.427  68.174  1.00  0.00    -0.756 OA 
HETATM   25  H   UNL     1     -12.451  10.283  68.988  1.00  0.00     0.000 HD 
ENDBRANCH  19  23
ENDBRANCH  12  15
TORSDOF 2
ENDMDL
MODEL       69
REMARK 921   NORMALIZED FREE ENERGY PREDICTED BY IDOCK:   -5.14 KCAL/MOL
REMARK 922        TOTAL FREE ENERGY PREDICTED BY IDOCK:   -6.08 KCAL/MOL
REMARK 923 INTER-LIGAND FREE ENERGY PREDICTED BY IDOCK:   -5.93 KCAL/MOL
REMARK 924 INTRA-LIGAND FREE ENERGY PREDICTED BY IDOCK:   -0.15 KCAL/MOL
REMARK 927      BINDING AFFINITY PREDICTED BY RF-SCORE:    0.00 PKD
ROOT
HETATM    1  N   UNL     1      -5.487  16.977  66.420  1.00  0.00    -0.351 NA 
HETATM    2  C   UNL     1      -6.448  17.925  66.559  1.00  0.00    -0.210 C  
HETATM    3  H2  UNL     1      -4.508  17.257  66.368  1.00  0.00     0.000 HD 
HETATM    4  H1  UNL     1      -5.731  15.988  66.368  1.00  0.00     0.000 HD 
HETATM    5  N   UNL     1      -6.137  19.185  66.626  1.00  0.00    -0.166 N  
HETATM    6  C   UNL     1      -7.149  20.152  66.745  1.00  0.00    -0.244 C  
HETATM    7  H   UNL     1      -5.159  19.472  66.592  1.00  0.00     0.000 HD 
HETATM    8  C   UNL     1      -8.523  19.626  66.745  1.00  0.00    -0.311 A  
HETATM    9  O   UNL     1      -6.904  21.349  66.849  1.00  0.00    -0.478 OA 
HETATM   10  C   UNL     1      -8.721  18.273  66.676  1.00  0.00    -0.277 A  
HETATM   11  N   UNL     1      -7.710  17.396  66.610  1.00  0.00    -0.233 NA 
HETATM   12  N   UNL     1     -10.064  18.059  66.698  1.00  0.00    -0.353 NA 
HETATM   13  N   UNL     1      -9.738  20.271  66.794  1.00  0.00    -0.430 NA 
HETATM   14  C   UNL     1     -10.641  19.304  66.766  1.00  0.00    -0.448 A  
ENDROOT
BRANCH  12  15
HETATM   15  C   UNL     1     -10.721  16.771  66.757  1.00  0.00    -0.117 C  
HETATM   16  C   UNL     1     -10.297  15.793  65.662  1.00  0.00    -0.411 C  
HETATM   17  C   UNL     1     -10.951  14.500  66.129  1.00  0.00    -0.322 C  
HETATM   18  O   UNL     1     -12.349  14.568  65.827  1.00  0.00    -0.336 OA 
HETATM   19  C   UNL     1     -10.760  14.482  67.666  1.00  0.00    -0.254 C  
HETATM   20  C   UNL     1     -10.556  15.957  68.022  1.00  0.00    -0.287 C  
HETATM   21  H   UNL     1     -12.757  13.762  66.119  1.00  0.00     0.000 HD 
HETATM   22  C   UNL     1     -10.275  16.417  69.252  1.00  0.00    -0.278 C  
BRANCH  19  23
HETATM   23  C   UNL     1      -9.595  13.574  68.074  1.00  0.00    -0.221 C  
HETATM   24  O   UNL     1     -10.011  12.224  68.237  1.00  0.00    -0.208 OA 
HETATM   25  H   UNL     1      -9.288  11.661  68.490  1.00  0.00     0.000 HD 
ENDBRANCH  19  23
ENDBRANCH  12  15
TORSDOF 2
ENDMDL
MODEL       70
REMARK 921   NORMALIZED FREE ENERGY PREDICTED BY IDOCK:   -5.13 KCAL/MOL
REMARK 922        TOTAL FREE ENERGY PREDICTED BY IDOCK:   -6.06 KCAL/MOL
REMARK 923 INTER-LIGAND FREE ENERGY PREDICTED BY IDOCK:   -5.85 KCAL/MOL
REMARK 924 INTRA-LIGAND FREE ENERGY PREDICTED BY IDOCK:   -0.22 KCAL/MOL
REMARK 927      BINDING AFFINITY PREDICTED BY RF-SCORE:    0.00 PKD
ROOT
HETATM    1  N   UNL     1      -8.061  10.655  64.120  1.00  0.00    -0.352 NA 
HETATM    2  C   UNL     1      -9.079  11.157  64.863  1.00  0.00    -0.095 C  
HETATM    3  H2  UNL     1      -7.850  11.068  63.211  1.00  0.00     0.000 HD 
HETATM    4  H1  UNL     1      -7.504   9.870  64.457  1.00  0.00     0.000 HD 
HETATM    5  N   UNL     1      -9.789  12.158  64.433  1.00  0.00    -0.468 N  
HETATM    6  C   UNL     1     -10.853  12.647  65.207  1.00  0.00    -0.288 C  
HETATM    7  H   UNL     1      -9.572  12.587  63.534  1.00  0.00     0.000 HD 
HETATM    8  C   UNL     1     -11.098  11.925  66.466  1.00  0.00    -0.306 A  
HETATM    9  O   UNL     1     -11.527  13.611  64.861  1.00  0.00    -0.320 OA 
HETATM   10  C   UNL     1     -10.274  10.889  66.813  1.00  0.00    -0.231 A  
HETATM   11  N   UNL     1      -9.243  10.498  66.052  1.00  0.00    -0.170 NA 
HETATM   12  N   UNL     1     -10.710  10.407  68.008  1.00  0.00    -0.228 NA 
HETATM   13  N   UNL     1     -12.066  12.092  67.431  1.00  0.00    -0.520 NA 
HETATM   14  C   UNL     1     -11.805  11.168  68.341  1.00  0.00    -0.232 A  
ENDROOT
BRANCH  12  15
HETATM   15  C   UNL     1     -10.066   9.383  68.800  1.00  0.00    -0.193 C  
HETATM   16  C   UNL     1     -10.450   9.391  70.280  1.00  0.00    -0.298 C  
HETATM   17  C   UNL     1      -9.826   8.092  70.771  1.00  0.00    -0.183 C  
HETATM   18  O   UNL     1      -8.416   8.296  70.914  1.00  0.00    -0.118 OA 
HETATM   19  C   UNL     1     -10.082   7.067  69.640  1.00  0.00    -0.194 C  
HETATM   20  C   UNL     1     -10.290   7.941  68.400  1.00  0.00    -0.235 C  
HETATM   21  H   UNL     1      -8.026   7.486  71.220  1.00  0.00     0.000 HD 
HETATM   22  C   UNL     1     -10.620   7.479  67.182  1.00  0.00    -0.415 C  
BRANCH  19  23
HETATM   23  C   UNL     1     -11.270   6.156  69.968  1.00  0.00    -0.401 C  
HETATM   24  O   UNL     1     -12.477   6.895  70.108  1.00  0.00    -0.602 OA 
HETATM   25  H   UNL     1     -13.214   6.330  70.312  1.00  0.00     0.000 HD 
ENDBRANCH  19  23
ENDBRANCH  12  15
TORSDOF 2
ENDMDL
MODEL       71
REMARK 921   NORMALIZED FREE ENERGY PREDICTED BY IDOCK:   -5.13 KCAL/MOL
REMARK 922        TOTAL FREE ENERGY PREDICTED BY IDOCK:   -6.06 KCAL/MOL
REMARK 923 INTER-LIGAND FREE ENERGY PREDICTED BY IDOCK:   -5.79 KCAL/MOL
REMARK 924 INTRA-LIGAND FREE ENERGY PREDICTED BY IDOCK:   -0.28 KCAL/MOL
REMARK 927      BINDING AFFINITY PREDICTED BY RF-SCORE:    0.00 PKD
ROOT
HETATM    1  N   UNL     1     -11.736  15.606  69.130  1.00  0.00    -0.375 NA 
HETATM    2  C   UNL     1     -12.147  14.592  69.933  1.00  0.00    -0.335 C  
HETATM    3  H2  UNL     1     -12.179  16.521  69.207  1.00  0.00     0.000 HD 
HETATM    4  H1  UNL     1     -10.990  15.464  68.449  1.00  0.00     0.000 HD 
HETATM    5  N   UNL     1     -13.099  14.773  70.801  1.00  0.00    -0.484 N  
HETATM    6  C   UNL     1     -13.526  13.705  71.605  1.00  0.00    -0.322 C  
HETATM    7  H   UNL     1     -13.534  15.690  70.896  1.00  0.00     0.000 HD 
HETATM    8  C   UNL     1     -12.854  12.420  71.353  1.00  0.00    -0.260 A  
HETATM    9  O   UNL     1     -14.393  13.835  72.463  1.00  0.00    -0.696 OA 
HETATM   10  C   UNL     1     -11.859  12.359  70.414  1.00  0.00    -0.161 A  
HETATM   11  N   UNL     1     -11.464  13.427  69.709  1.00  0.00    -0.213 NA 
HETATM   12  N   UNL     1     -11.410  11.076  70.384  1.00  0.00    -0.229 NA 
HETATM   13  N   UNL     1     -13.047  11.174  71.906  1.00  0.00    -0.478 NA 
HETATM   14  C   UNL     1     -12.166  10.392  71.305  1.00  0.00    -0.389 A  
ENDROOT
BRANCH  12  15
HETATM   15  C   UNL     1     -10.286  10.585  69.617  1.00  0.00    -0.193 C  
HETATM   16  C   UNL     1      -9.690   9.276  70.133  1.00  0.00    -0.252 C  
HETATM   17  C   UNL     1      -8.728   8.907  69.012  1.00  0.00    -0.136 C  
HETATM   18  O   UNL     1      -7.564   9.734  69.128  1.00  0.00    -0.076 OA 
HETATM   19  C   UNL     1      -9.477   9.260  67.704  1.00  0.00    -0.156 C  
HETATM   20  C   UNL     1     -10.511  10.299  68.148  1.00  0.00    -0.224 C  
HETATM   21  H   UNL     1      -6.965   9.505  68.428  1.00  0.00     0.000 HD 
HETATM   22  C   UNL     1     -11.446  10.840  67.350  1.00  0.00    -0.113 C  
BRANCH  19  23
HETATM   23  C   UNL     1     -10.086   8.012  67.054  1.00  0.00    -0.279 C  
HETATM   24  O   UNL     1      -9.606   7.821  65.729  1.00  0.00    -0.417 OA 
HETATM   25  H   UNL     1      -9.983   7.047  65.326  1.00  0.00     0.000 HD 
ENDBRANCH  19  23
ENDBRANCH  12  15
TORSDOF 2
ENDMDL
MODEL       72
REMARK 921   NORMALIZED FREE ENERGY PREDICTED BY IDOCK:   -5.11 KCAL/MOL
REMARK 922        TOTAL FREE ENERGY PREDICTED BY IDOCK:   -6.05 KCAL/MOL
REMARK 923 INTER-LIGAND FREE ENERGY PREDICTED BY IDOCK:   -5.70 KCAL/MOL
REMARK 924 INTRA-LIGAND FREE ENERGY PREDICTED BY IDOCK:   -0.35 KCAL/MOL
REMARK 927      BINDING AFFINITY PREDICTED BY RF-SCORE:    0.00 PKD
ROOT
HETATM    1  N   UNL     1      -7.465  18.812  65.497  1.00  0.00    -0.467 NA 
HETATM    2  C   UNL     1      -8.274  18.498  66.541  1.00  0.00    -0.281 C  
HETATM    3  H2  UNL     1      -7.185  19.781  65.351  1.00  0.00     0.000 HD 
HETATM    4  H1  UNL     1      -7.134  18.090  64.856  1.00  0.00     0.000 HD 
HETATM    5  N   UNL     1      -8.696  19.417  67.357  1.00  0.00    -0.295 N  
HETATM    6  C   UNL     1      -9.552  19.075  68.416  1.00  0.00    -0.373 C  
HETATM    7  H   UNL     1      -8.405  20.386  67.228  1.00  0.00     0.000 HD 
HETATM    8  C   UNL     1      -9.935  17.656  68.481  1.00  0.00    -0.368 A  
HETATM    9  O   UNL     1      -9.946  19.900  69.234  1.00  0.00    -0.370 OA 
HETATM   10  C   UNL     1      -9.417  16.781  67.564  1.00  0.00    -0.237 A  
HETATM   11  N   UNL     1      -8.566  17.161  66.602  1.00  0.00    -0.236 NA 
HETATM   12  N   UNL     1      -9.922  15.551  67.849  1.00  0.00    -0.218 NA 
HETATM   13  N   UNL     1     -10.780  16.985  69.336  1.00  0.00    -0.279 NA 
HETATM   14  C   UNL     1     -10.749  15.726  68.932  1.00  0.00    -0.248 A  
ENDROOT
BRANCH  12  15
HETATM   15  C   UNL     1      -9.555  14.309  67.203  1.00  0.00    -0.245 C  
HETATM   16  C   UNL     1      -8.899  13.284  68.128  1.00  0.00    -0.187 C  
HETATM   17  C   UNL     1      -8.863  12.045  67.244  1.00  0.00    -0.183 C  
HETATM   18  O   UNL     1      -7.796  12.197  66.300  1.00  0.00    -0.357 OA 
HETATM   19  C   UNL     1     -10.216  12.046  66.490  1.00  0.00    -0.232 C  
HETATM   20  C   UNL     1     -10.655  13.512  66.538  1.00  0.00    -0.281 C  
HETATM   21  H   UNL     1      -7.774  11.424  65.748  1.00  0.00     0.000 HD 
HETATM   22  C   UNL     1     -11.824  13.978  66.068  1.00  0.00    -0.401 C  
BRANCH  19  23
HETATM   23  C   UNL     1     -11.213  11.074  67.130  1.00  0.00    -0.217 C  
HETATM   24  O   UNL     1     -10.555   9.982  67.760  1.00  0.00    -0.224 OA 
HETATM   25  H   UNL     1     -11.174   9.380  68.156  1.00  0.00     0.000 HD 
ENDBRANCH  19  23
ENDBRANCH  12  15
TORSDOF 2
ENDMDL
MODEL       73
REMARK 921   NORMALIZED FREE ENERGY PREDICTED BY IDOCK:   -5.09 KCAL/MOL
REMARK 922        TOTAL FREE ENERGY PREDICTED BY IDOCK:   -6.03 KCAL/MOL
REMARK 923 INTER-LIGAND FREE ENERGY PREDICTED BY IDOCK:   -6.11 KCAL/MOL
REMARK 924 INTRA-LIGAND FREE ENERGY PREDICTED BY IDOCK:    0.09 KCAL/MOL
REMARK 927      BINDING AFFINITY PREDICTED BY RF-SCORE:    0.00 PKD
ROOT
HETATM    1  N   UNL     1      -7.554   6.723  66.145  1.00  0.00    -0.084 NA 
HETATM    2  C   UNL     1      -8.500   7.331  66.905  1.00  0.00    -0.119 C  
HETATM    3  H2  UNL     1      -7.213   5.798  66.410  1.00  0.00     0.000 HD 
HETATM    4  H1  UNL     1      -7.179   7.178  65.313  1.00  0.00     0.000 HD 
HETATM    5  N   UNL     1      -8.977   6.750  67.966  1.00  0.00    -0.119 N  
HETATM    6  C   UNL     1      -9.937   7.407  68.752  1.00  0.00    -0.169 C  
HETATM    7  H   UNL     1      -8.654   5.819  68.227  1.00  0.00     0.000 HD 
HETATM    8  C   UNL     1     -10.298   8.761  68.302  1.00  0.00    -0.207 A  
HETATM    9  O   UNL     1     -10.444   6.886  69.740  1.00  0.00    -0.202 OA 
HETATM   10  C   UNL     1      -9.729   9.260  67.162  1.00  0.00    -0.172 A  
HETATM   11  N   UNL     1      -8.851   8.565  66.427  1.00  0.00    -0.141 NA 
HETATM   12  N   UNL     1     -10.233  10.509  66.972  1.00  0.00    -0.216 NA 
HETATM   13  N   UNL     1     -11.150   9.697  68.845  1.00  0.00    -0.121 NA 
HETATM   14  C   UNL     1     -11.089  10.732  68.023  1.00  0.00    -0.299 A  
ENDROOT
BRANCH  12  15
HETATM   15  C   UNL     1      -9.992  11.360  65.827  1.00  0.00    -0.230 C  
HETATM   16  C   UNL     1     -10.771  10.969  64.571  1.00  0.00    -0.335 C  
HETATM   17  C   UNL     1     -10.504  12.157  63.656  1.00  0.00    -0.460 C  
HETATM   18  O   UNL     1      -9.176  12.030  63.133  1.00  0.00    -0.662 OA 
HETATM   19  C   UNL     1     -10.574  13.400  64.576  1.00  0.00    -0.441 C  
HETATM   20  C   UNL     1     -10.298  12.835  65.971  1.00  0.00    -0.291 C  
HETATM   21  H   UNL     1      -9.009  12.771  62.563  1.00  0.00     0.000 HD 
HETATM   22  C   UNL     1     -10.334  13.548  67.109  1.00  0.00    -0.250 C  
BRANCH  19  23
HETATM   23  C   UNL     1     -11.925  14.114  64.448  1.00  0.00    -0.457 C  
HETATM   24  O   UNL     1     -12.429  14.054  63.120  1.00  0.00    -1.137 OA 
HETATM   25  H   UNL     1     -13.266  14.497  63.041  1.00  0.00     0.000 HD 
ENDBRANCH  19  23
ENDBRANCH  12  15
TORSDOF 2
ENDMDL
MODEL       74
REMARK 921   NORMALIZED FREE ENERGY PREDICTED BY IDOCK:   -5.09 KCAL/MOL
REMARK 922        TOTAL FREE ENERGY PREDICTED BY IDOCK:   -6.02 KCAL/MOL
REMARK 923 INTER-LIGAND FREE ENERGY PREDICTED BY IDOCK:   -5.92 KCAL/MOL
REMARK 924 INTRA-LIGAND FREE ENERGY PREDICTED BY IDOCK:   -0.10 KCAL/MOL
REMARK 927      BINDING AFFINITY PREDICTED BY RF-SCORE:    0.00 PKD
ROOT
HETATM    1  N   UNL     1      -9.073  18.413  68.059  1.00  0.00    -0.287 NA 
HETATM    2  C   UNL     1      -9.825  17.537  67.344  1.00  0.00    -0.297 C  
HETATM    3  H2  UNL     1      -8.668  19.225  67.593  1.00  0.00     0.000 HD 
HETATM    4  H1  UNL     1      -8.909  18.269  69.055  1.00  0.00     0.000 HD 
HETATM    5  N   UNL     1     -10.035  17.719  66.074  1.00  0.00    -0.257 N  
HETATM    6  C   UNL     1     -10.794  16.788  65.348  1.00  0.00    -0.141 C  
HETATM    7  H   UNL     1      -9.648  18.538  65.606  1.00  0.00     0.000 HD 
HETATM    8  C   UNL     1     -11.268  15.627  66.119  1.00  0.00    -0.036 A  
HETATM    9  O   UNL     1     -11.051  16.935  64.158  1.00  0.00    -1.032 OA 
HETATM   10  C   UNL     1     -10.987  15.552  67.456  1.00  0.00    -0.316 A  
HETATM   11  N   UNL     1     -10.294  16.499  68.104  1.00  0.00    -0.283 NA 
HETATM   12  N   UNL     1     -11.537  14.399  67.921  1.00  0.00    -0.327 NA 
HETATM   13  N   UNL     1     -11.982  14.515  65.732  1.00  0.00    -0.341 NA 
HETATM   14  C   UNL     1     -12.128  13.800  66.835  1.00  0.00    -0.413 A  
ENDROOT
BRANCH  12  15
HETATM   15  C   UNL     1     -11.580  13.972  69.303  1.00  0.00    -0.309 C  
HETATM   16  C   UNL     1     -12.874  14.325  70.035  1.00  0.00    -0.037 C  
HETATM   17  C   UNL     1     -12.717  13.552  71.338  1.00  0.00    -0.336 C  
HETATM   18  O   UNL     1     -11.796  14.263  72.174  1.00  0.00    -0.161 OA 
HETATM   19  C   UNL     1     -12.093  12.195  70.930  1.00  0.00    -0.181 C  
HETATM   20  C   UNL     1     -11.421  12.494  69.587  1.00  0.00    -0.255 C  
HETATM   21  H   UNL     1     -11.697  13.780  72.986  1.00  0.00     0.000 HD 
HETATM   22  C   UNL     1     -10.810  11.581  68.814  1.00  0.00    -0.258 C  
BRANCH  19  23
HETATM   23  C   UNL     1     -13.152  11.089  70.865  1.00  0.00    -0.112 C  
HETATM   24  O   UNL     1     -13.296  10.423  72.114  1.00  0.00    -0.543 OA 
HETATM   25  H   UNL     1     -13.953   9.738  72.073  1.00  0.00     0.000 HD 
ENDBRANCH  19  23
ENDBRANCH  12  15
TORSDOF 2
ENDMDL
MODEL       75
REMARK 921   NORMALIZED FREE ENERGY PREDICTED BY IDOCK:   -5.07 KCAL/MOL
REMARK 922        TOTAL FREE ENERGY PREDICTED BY IDOCK:   -6.00 KCAL/MOL
REMARK 923 INTER-LIGAND FREE ENERGY PREDICTED BY IDOCK:   -5.61 KCAL/MOL
REMARK 924 INTRA-LIGAND FREE ENERGY PREDICTED BY IDOCK:   -0.40 KCAL/MOL
REMARK 927      BINDING AFFINITY PREDICTED BY RF-SCORE:    0.00 PKD
ROOT
HETATM    1  N   UNL     1     -11.493   4.525  65.238  1.00  0.00    -1.068 NA 
HETATM    2  C   UNL     1     -10.595   4.770  66.226  1.00  0.00    -0.198 C  
HETATM    3  H2  UNL     1     -11.557   3.589  64.837  1.00  0.00     0.000 HD 
HETATM    4  H1  UNL     1     -12.104   5.264  64.891  1.00  0.00     0.000 HD 
HETATM    5  N   UNL     1      -9.816   3.828  66.668  1.00  0.00    -0.389 N  
HETATM    6  C   UNL     1      -8.877   4.109  67.674  1.00  0.00    -0.113 C  
HETATM    7  H   UNL     1      -9.887   2.886  66.285  1.00  0.00     0.000 HD 
HETATM    8  C   UNL     1      -8.838   5.510  68.123  1.00  0.00    -0.105 A  
HETATM    9  O   UNL     1      -8.146   3.247  68.149  1.00  0.00    -0.072 OA 
HETATM   10  C   UNL     1      -9.718   6.410  67.584  1.00  0.00    -0.118 A  
HETATM   11  N   UNL     1     -10.625   6.069  66.657  1.00  0.00    -0.259 NA 
HETATM   12  N   UNL     1      -9.476   7.613  68.169  1.00  0.00    -0.144 NA 
HETATM   13  N   UNL     1      -8.028   6.144  69.037  1.00  0.00    -0.107 NA 
HETATM   14  C   UNL     1      -8.436   7.403  69.043  1.00  0.00    -0.129 A  
ENDROOT
BRANCH  12  15
HETATM   15  C   UNL     1     -10.247   8.823  67.981  1.00  0.00    -0.213 C  
HETATM   16  C   UNL     1     -10.253   9.764  69.185  1.00  0.00    -0.211 C  
HETATM   17  C   UNL     1     -10.913  11.008  68.605  1.00  0.00    -0.224 C  
HETATM   18  O   UNL     1     -12.322  10.767  68.512  1.00  0.00    -0.825 OA 
HETATM   19  C   UNL     1     -10.325  11.151  67.180  1.00  0.00    -0.249 C  
HETATM   20  C   UNL     1      -9.853   9.735  66.839  1.00  0.00    -0.256 C  
HETATM   21  H   UNL     1     -12.734  11.542  68.150  1.00  0.00     0.000 HD 
HETATM   22  C   UNL     1      -9.201   9.393  65.716  1.00  0.00    -0.276 C  
BRANCH  19  23
HETATM   23  C   UNL     1      -9.214  12.206  67.137  1.00  0.00    -0.193 C  
HETATM   24  O   UNL     1      -9.371  13.092  66.037  1.00  0.00    -0.458 OA 
HETATM   25  H   UNL     1      -8.682  13.747  66.011  1.00  0.00     0.000 HD 
ENDBRANCH  19  23
ENDBRANCH  12  15
TORSDOF 2
ENDMDL
MODEL       76
REMARK 921   NORMALIZED FREE ENERGY PREDICTED BY IDOCK:   -5.06 KCAL/MOL
REMARK 922        TOTAL FREE ENERGY PREDICTED BY IDOCK:   -5.98 KCAL/MOL
REMARK 923 INTER-LIGAND FREE ENERGY PREDICTED BY IDOCK:   -5.64 KCAL/MOL
REMARK 924 INTRA-LIGAND FREE ENERGY PREDICTED BY IDOCK:   -0.34 KCAL/MOL
REMARK 927      BINDING AFFINITY PREDICTED BY RF-SCORE:    0.00 PKD
ROOT
HETATM    1  N   UNL     1     -11.109  15.268  71.281  1.00  0.00    -0.512 NA 
HETATM    2  C   UNL     1     -10.937  15.514  69.957  1.00  0.00    -0.319 C  
HETATM    3  H2  UNL     1     -11.301  16.044  71.916  1.00  0.00     0.000 HD 
HETATM    4  H1  UNL     1     -11.049  14.319  71.649  1.00  0.00     0.000 HD 
HETATM    5  N   UNL     1     -11.013  16.724  69.488  1.00  0.00    -0.358 N  
HETATM    6  C   UNL     1     -10.807  16.959  68.119  1.00  0.00    -0.351 C  
HETATM    7  H   UNL     1     -11.221  17.502  70.114  1.00  0.00     0.000 HD 
HETATM    8  C   UNL     1     -10.473  15.769  67.320  1.00  0.00    -0.308 A  
HETATM    9  O   UNL     1     -10.904  18.077  67.623  1.00  0.00    -0.390 OA 
HETATM   10  C   UNL     1     -10.431  14.545  67.931  1.00  0.00    -0.242 A  
HETATM   11  N   UNL     1     -10.683  14.378  69.236  1.00  0.00    -0.235 NA 
HETATM   12  N   UNL     1     -10.110  13.629  66.978  1.00  0.00    -0.245 NA 
HETATM   13  N   UNL     1     -10.165  15.633  65.985  1.00  0.00    -0.312 NA 
HETATM   14  C   UNL     1      -9.954  14.339  65.812  1.00  0.00    -0.323 A  
ENDROOT
BRANCH  12  15
HETATM   15  C   UNL     1     -10.066  12.194  67.157  1.00  0.00    -0.206 C  
HETATM   16  C   UNL     1     -10.817  11.399  66.089  1.00  0.00    -0.310 C  
HETATM   17  C   UNL     1     -10.387   9.972  66.403  1.00  0.00    -0.179 C  
HETATM   18  O   UNL     1     -11.115   9.527  67.553  1.00  0.00    -0.450 OA 
HETATM   19  C   UNL     1      -8.883  10.070  66.756  1.00  0.00    -0.144 C  
HETATM   20  C   UNL     1      -8.706  11.531  67.180  1.00  0.00    -0.160 C  
HETATM   21  H   UNL     1     -10.847   8.637  67.750  1.00  0.00     0.000 HD 
HETATM   22  C   UNL     1      -7.533  12.098  67.505  1.00  0.00    -0.148 C  
BRANCH  19  23
HETATM   23  C   UNL     1      -8.002   9.652  65.574  1.00  0.00    -0.115 C  
HETATM   24  O   UNL     1      -8.033  10.614  64.528  1.00  0.00    -0.335 OA 
HETATM   25  H   UNL     1      -7.487  10.355  63.795  1.00  0.00     0.000 HD 
ENDBRANCH  19  23
ENDBRANCH  12  15
TORSDOF 2
ENDMDL
MODEL       77
REMARK 921   NORMALIZED FREE ENERGY PREDICTED BY IDOCK:   -5.05 KCAL/MOL
REMARK 922        TOTAL FREE ENERGY PREDICTED BY IDOCK:   -5.98 KCAL/MOL
REMARK 923 INTER-LIGAND FREE ENERGY PREDICTED BY IDOCK:   -5.94 KCAL/MOL
REMARK 924 INTRA-LIGAND FREE ENERGY PREDICTED BY IDOCK:   -0.05 KCAL/MOL
REMARK 927      BINDING AFFINITY PREDICTED BY RF-SCORE:    0.00 PKD
ROOT
HETATM    1  N   UNL     1      -7.397  14.209  67.780  1.00  0.00    -0.150 NA 
HETATM    2  C   UNL     1      -8.731  14.322  67.552  1.00  0.00    -0.199 C  
HETATM    3  H2  UNL     1      -6.944  14.842  68.439  1.00  0.00     0.000 HD 
HETATM    4  H1  UNL     1      -6.843  13.500  67.300  1.00  0.00     0.000 HD 
HETATM    5  N   UNL     1      -9.437  15.227  68.163  1.00  0.00    -0.201 N  
HETATM    6  C   UNL     1     -10.810  15.343  67.894  1.00  0.00    -0.300 C  
HETATM    7  H   UNL     1      -8.994  15.851  68.836  1.00  0.00     0.000 HD 
HETATM    8  C   UNL     1     -11.332  14.416  66.877  1.00  0.00    -0.348 A  
HETATM    9  O   UNL     1     -11.526  16.154  68.472  1.00  0.00    -0.376 OA 
HETATM   10  C   UNL     1     -10.486  13.502  66.309  1.00  0.00    -0.290 A  
HETATM   11  N   UNL     1      -9.192  13.409  66.641  1.00  0.00    -0.241 NA 
HETATM   12  N   UNL     1     -11.214  12.776  65.419  1.00  0.00    -0.285 NA 
HETATM   13  N   UNL     1     -12.591  14.282  66.337  1.00  0.00    -0.286 NA 
HETATM   14  C   UNL     1     -12.487  13.290  65.467  1.00  0.00    -0.474 A  
ENDROOT
BRANCH  12  15
HETATM   15  C   UNL     1     -10.748  11.627  64.673  1.00  0.00    -0.315 C  
HETATM   16  C   UNL     1      -9.702  11.945  63.606  1.00  0.00    -0.266 C  
HETATM   17  C   UNL     1      -9.248  10.553  63.188  1.00  0.00    -0.292 C  
HETATM   18  O   UNL     1     -10.255   9.988  62.341  1.00  0.00    -0.496 OA 
HETATM   19  C   UNL     1      -9.174   9.740  64.504  1.00  0.00    -0.310 C  
HETATM   20  C   UNL     1     -10.107  10.498  65.451  1.00  0.00    -0.358 C  
HETATM   21  H   UNL     1      -9.973   9.119  62.080  1.00  0.00     0.000 HD 
HETATM   22  C   UNL     1     -10.299  10.194  66.746  1.00  0.00    -0.285 C  
BRANCH  19  23
HETATM   23  C   UNL     1      -7.731   9.625  65.009  1.00  0.00    -0.119 C  
HETATM   24  O   UNL     1      -7.256  10.859  65.532  1.00  0.00    -0.345 OA 
HETATM   25  H   UNL     1      -6.361  10.787  65.845  1.00  0.00     0.000 HD 
ENDBRANCH  19  23
ENDBRANCH  12  15
TORSDOF 2
ENDMDL
MODEL       78
REMARK 921   NORMALIZED FREE ENERGY PREDICTED BY IDOCK:   -5.04 KCAL/MOL
REMARK 922        TOTAL FREE ENERGY PREDICTED BY IDOCK:   -5.96 KCAL/MOL
REMARK 923 INTER-LIGAND FREE ENERGY PREDICTED BY IDOCK:   -5.94 KCAL/MOL
REMARK 924 INTRA-LIGAND FREE ENERGY PREDICTED BY IDOCK:   -0.02 KCAL/MOL
REMARK 927      BINDING AFFINITY PREDICTED BY RF-SCORE:    0.00 PKD
ROOT
HETATM    1  N   UNL     1     -12.001  14.866  68.443  1.00  0.00    -0.538 NA 
HETATM    2  C   UNL     1     -12.174  13.888  69.369  1.00  0.00    -0.292 C  
HETATM    3  H2  UNL     1     -12.347  15.806  68.634  1.00  0.00     0.000 HD 
HETATM    4  H1  UNL     1     -11.531  14.672  67.559  1.00  0.00     0.000 HD 
HETATM    5  N   UNL     1     -12.773  14.136  70.496  1.00  0.00    -0.334 N  
HETATM    6  C   UNL     1     -12.963  13.104  71.430  1.00  0.00    -0.298 C  
HETATM    7  H   UNL     1     -13.106  15.077  70.701  1.00  0.00     0.000 HD 
HETATM    8  C   UNL     1     -12.478  11.779  71.010  1.00  0.00    -0.309 A  
HETATM    9  O   UNL     1     -13.489  13.295  72.521  1.00  0.00    -0.573 OA 
HETATM   10  C   UNL     1     -11.855  11.649  69.798  1.00  0.00    -0.357 A  
HETATM   11  N   UNL     1     -11.662  12.683  68.968  1.00  0.00    -0.305 NA 
HETATM   12  N   UNL     1     -11.506  10.342  69.662  1.00  0.00    -0.249 NA 
HETATM   13  N   UNL     1     -12.539  10.554  71.635  1.00  0.00    -0.407 NA 
HETATM   14  C   UNL     1     -11.947   9.715  70.802  1.00  0.00    -0.277 A  
ENDROOT
BRANCH  12  15
HETATM   15  C   UNL     1     -10.726   9.777  68.582  1.00  0.00    -0.216 C  
HETATM   16  C   UNL     1     -11.132  10.256  67.189  1.00  0.00    -0.165 C  
HETATM   17  C   UNL     1     -10.007   9.698  66.327  1.00  0.00    -0.264 C  
HETATM   18  O   UNL     1     -10.233   8.295  66.146  1.00  0.00    -0.457 OA 
HETATM   19  C   UNL     1      -8.718   9.905  67.160  1.00  0.00    -0.136 C  
HETATM   20  C   UNL     1      -9.231  10.010  68.599  1.00  0.00    -0.152 C  
HETATM   21  H   UNL     1      -9.531   7.947  65.609  1.00  0.00     0.000 HD 
HETATM   22  C   UNL     1      -8.463  10.271  69.670  1.00  0.00    -0.132 C  
BRANCH  19  23
HETATM   23  C   UNL     1      -7.936  11.134  66.685  1.00  0.00    -0.159 C  
HETATM   24  O   UNL     1      -8.785  12.261  66.504  1.00  0.00    -0.324 OA 
HETATM   25  H   UNL     1      -8.300  13.023  66.209  1.00  0.00     0.000 HD 
ENDBRANCH  19  23
ENDBRANCH  12  15
TORSDOF 2
ENDMDL
MODEL       79
REMARK 921   NORMALIZED FREE ENERGY PREDICTED BY IDOCK:   -5.03 KCAL/MOL
REMARK 922        TOTAL FREE ENERGY PREDICTED BY IDOCK:   -5.96 KCAL/MOL
REMARK 923 INTER-LIGAND FREE ENERGY PREDICTED BY IDOCK:   -5.57 KCAL/MOL
REMARK 924 INTRA-LIGAND FREE ENERGY PREDICTED BY IDOCK:   -0.39 KCAL/MOL
REMARK 927      BINDING AFFINITY PREDICTED BY RF-SCORE:    0.00 PKD
ROOT
HETATM    1  N   UNL     1      -6.460  16.913  69.513  1.00  0.00    -0.233 NA 
HETATM    2  C   UNL     1      -7.370  17.015  68.511  1.00  0.00    -0.220 C  
HETATM    3  H2  UNL     1      -5.734  17.624  69.607  1.00  0.00     0.000 HD 
HETATM    4  H1  UNL     1      -6.492  16.136  70.172  1.00  0.00     0.000 HD 
HETATM    5  N   UNL     1      -7.328  18.006  67.670  1.00  0.00    -0.206 N  
HETATM    6  C   UNL     1      -8.264  18.080  66.626  1.00  0.00    -0.261 C  
HETATM    7  H   UNL     1      -6.616  18.729  67.770  1.00  0.00     0.000 HD 
HETATM    8  C   UNL     1      -9.219  16.961  66.558  1.00  0.00    -0.269 A  
HETATM    9  O   UNL     1      -8.289  19.014  65.832  1.00  0.00    -0.463 OA 
HETATM   10  C   UNL     1      -9.165  15.978  67.509  1.00  0.00    -0.211 A  
HETATM   11  N   UNL     1      -8.275  15.988  68.511  1.00  0.00    -0.172 NA 
HETATM   12  N   UNL     1     -10.146  15.082  67.220  1.00  0.00    -0.235 NA 
HETATM   13  N   UNL     1     -10.222  16.683  65.658  1.00  0.00    -0.557 NA 
HETATM   14  C   UNL     1     -10.759  15.551  66.083  1.00  0.00    -0.313 A  
ENDROOT
BRANCH  12  15
HETATM   15  C   UNL     1     -10.523  13.942  68.027  1.00  0.00    -0.243 C  
HETATM   16  C   UNL     1     -12.004  13.570  67.945  1.00  0.00    -0.372 C  
HETATM   17  C   UNL     1     -12.030  12.235  68.677  1.00  0.00    -0.227 C  
HETATM   18  O   UNL     1     -11.950  12.492  70.084  1.00  0.00    -0.378 OA 
HETATM   19  C   UNL     1     -10.749  11.497  68.219  1.00  0.00    -0.247 C  
HETATM   20  C   UNL     1      -9.828  12.627  67.753  1.00  0.00    -0.212 C  
HETATM   21  H   UNL     1     -11.967  11.659  70.540  1.00  0.00     0.000 HD 
HETATM   22  C   UNL     1      -8.618  12.450  67.195  1.00  0.00    -0.189 C  
BRANCH  19  23
HETATM   23  C   UNL     1     -11.059  10.457  67.136  1.00  0.00    -0.122 C  
HETATM   24  O   UNL     1     -10.896   9.129  67.617  1.00  0.00    -0.447 OA 
HETATM   25  H   UNL     1     -11.089   8.485  66.946  1.00  0.00     0.000 HD 
ENDBRANCH  19  23
ENDBRANCH  12  15
TORSDOF 2
ENDMDL
MODEL       80
REMARK 921   NORMALIZED FREE ENERGY PREDICTED BY IDOCK:   -5.02 KCAL/MOL
REMARK 922        TOTAL FREE ENERGY PREDICTED BY IDOCK:   -5.95 KCAL/MOL
REMARK 923 INTER-LIGAND FREE ENERGY PREDICTED BY IDOCK:   -5.77 KCAL/MOL
REMARK 924 INTRA-LIGAND FREE ENERGY PREDICTED BY IDOCK:   -0.17 KCAL/MOL
REMARK 927      BINDING AFFINITY PREDICTED BY RF-SCORE:    0.00 PKD
ROOT
HETATM    1  N   UNL     1      -7.781  10.817  64.557  1.00  0.00    -0.347 NA 
HETATM    2  C   UNL     1      -8.688  10.407  65.479  1.00  0.00    -0.177 C  
HETATM    3  H2  UNL     1      -7.274  10.124  64.006  1.00  0.00     0.000 HD 
HETATM    4  H1  UNL     1      -7.599  11.809  64.406  1.00  0.00     0.000 HD 
HETATM    5  N   UNL     1      -8.919   9.142  65.670  1.00  0.00    -0.190 N  
HETATM    6  C   UNL     1      -9.843   8.738  66.647  1.00  0.00    -0.265 C  
HETATM    7  H   UNL     1      -8.429   8.444  65.112  1.00  0.00     0.000 HD 
HETATM    8  C   UNL     1     -10.459   9.830  67.419  1.00  0.00    -0.259 A  
HETATM    9  O   UNL     1     -10.123   7.560  66.839  1.00  0.00    -0.224 OA 
HETATM   10  C   UNL     1     -10.138  11.126  67.117  1.00  0.00    -0.191 A  
HETATM   11  N   UNL     1      -9.281  11.450  66.139  1.00  0.00    -0.206 NA 
HETATM   12  N   UNL     1     -10.841  11.925  67.963  1.00  0.00    -0.206 NA 
HETATM   13  N   UNL     1     -11.353   9.805  68.466  1.00  0.00    -0.008 NA 
HETATM   14  C   UNL     1     -11.562  11.076  68.768  1.00  0.00    -0.318 A  
ENDROOT
BRANCH  12  15
HETATM   15  C   UNL     1     -10.893  13.370  67.925  1.00  0.00    -0.247 C  
HETATM   16  C   UNL     1      -9.525  14.053  67.904  1.00  0.00    -0.210 C  
HETATM   17  C   UNL     1      -9.903  15.500  67.621  1.00  0.00    -0.213 C  
HETATM   18  O   UNL     1     -10.413  16.076  68.830  1.00  0.00    -0.226 OA 
HETATM   19  C   UNL     1     -11.040  15.424  66.573  1.00  0.00    -0.227 C  
HETATM   20  C   UNL     1     -11.612  14.017  66.761  1.00  0.00    -0.406 C  
HETATM   21  H   UNL     1     -10.649  16.979  68.653  1.00  0.00     0.000 HD 
HETATM   22  C   UNL     1     -12.581  13.474  66.004  1.00  0.00    -0.408 C  
BRANCH  19  23
HETATM   23  C   UNL     1     -10.517  15.702  65.159  1.00  0.00    -0.389 C  
HETATM   24  O   UNL     1     -11.396  16.548  64.429  1.00  0.00    -1.058 OA 
HETATM   25  H   UNL     1     -11.071  16.720  63.552  1.00  0.00     0.000 HD 
ENDBRANCH  19  23
ENDBRANCH  12  15
TORSDOF 2
ENDMDL
MODEL       81
REMARK 921   NORMALIZED FREE ENERGY PREDICTED BY IDOCK:   -5.02 KCAL/MOL
REMARK 922        TOTAL FREE ENERGY PREDICTED BY IDOCK:   -5.94 KCAL/MOL
REMARK 923 INTER-LIGAND FREE ENERGY PREDICTED BY IDOCK:   -5.85 KCAL/MOL
REMARK 924 INTRA-LIGAND FREE ENERGY PREDICTED BY IDOCK:   -0.09 KCAL/MOL
REMARK 927      BINDING AFFINITY PREDICTED BY RF-SCORE:    0.00 PKD
ROOT
HETATM    1  N   UNL     1      -9.437   8.706  65.792  1.00  0.00    -0.428 NA 
HETATM    2  C   UNL     1     -10.082   9.432  66.740  1.00  0.00    -0.256 C  
HETATM    3  H2  UNL     1      -9.461   9.014  64.819  1.00  0.00     0.000 HD 
HETATM    4  H1  UNL     1      -8.930   7.856  66.038  1.00  0.00     0.000 HD 
HETATM    5  N   UNL     1     -10.728  10.515  66.425  1.00  0.00    -0.149 N  
HETATM    6  C   UNL     1     -11.409  11.239  67.417  1.00  0.00    -0.276 C  
HETATM    7  H   UNL     1     -10.741  10.839  65.458  1.00  0.00     0.000 HD 
HETATM    8  C   UNL     1     -11.354  10.657  68.768  1.00  0.00    -0.277 A  
HETATM    9  O   UNL     1     -12.001  12.286  67.177  1.00  0.00    -0.564 OA 
HETATM   10  C   UNL     1     -10.632   9.512  68.974  1.00  0.00    -0.219 A  
HETATM   11  N   UNL     1      -9.964   8.892  67.992  1.00  0.00    -0.169 NA 
HETATM   12  N   UNL     1     -10.742   9.197  70.292  1.00  0.00    -0.220 NA 
HETATM   13  N   UNL     1     -11.934  11.059  69.950  1.00  0.00    -0.321 NA 
HETATM   14  C   UNL     1     -11.547  10.164  70.844  1.00  0.00    -0.372 A  
ENDROOT
BRANCH  12  15
HETATM   15  C   UNL     1     -10.047   8.126  70.972  1.00  0.00    -0.187 C  
HETATM   16  C   UNL     1      -9.959   8.290  72.489  1.00  0.00    -0.373 C  
HETATM   17  C   UNL     1      -9.415   6.934  72.919  1.00  0.00    -0.140 C  
HETATM   18  O   UNL     1      -8.014   6.899  72.625  1.00  0.00    -0.101 OA 
HETATM   19  C   UNL     1     -10.150   5.903  72.029  1.00  0.00    -0.223 C  
HETATM   20  C   UNL     1     -10.592   6.723  70.814  1.00  0.00    -0.254 C  
HETATM   21  H   UNL     1      -7.674   6.053  72.893  1.00  0.00     0.000 HD 
HETATM   22  C   UNL     1     -11.340   6.253  69.802  1.00  0.00    -0.506 C  
BRANCH  19  23
HETATM   23  C   UNL     1     -11.304   5.234  72.784  1.00  0.00    -0.276 C  
HETATM   24  O   UNL     1     -12.516   5.967  72.651  1.00  0.00    -0.543 OA 
HETATM   25  H   UNL     1     -13.231   5.552  73.119  1.00  0.00     0.000 HD 
ENDBRANCH  19  23
ENDBRANCH  12  15
TORSDOF 2
ENDMDL
MODEL       82
REMARK 921   NORMALIZED FREE ENERGY PREDICTED BY IDOCK:   -4.99 KCAL/MOL
REMARK 922        TOTAL FREE ENERGY PREDICTED BY IDOCK:   -5.91 KCAL/MOL
REMARK 923 INTER-LIGAND FREE ENERGY PREDICTED BY IDOCK:   -5.78 KCAL/MOL
REMARK 924 INTRA-LIGAND FREE ENERGY PREDICTED BY IDOCK:   -0.13 KCAL/MOL
REMARK 927      BINDING AFFINITY PREDICTED BY RF-SCORE:    0.00 PKD
ROOT
HETATM    1  N   UNL     1     -13.972   7.583  71.162  1.00  0.00    -0.642 NA 
HETATM    2  C   UNL     1     -12.764   6.990  71.345  1.00  0.00    -0.374 C  
HETATM    3  H2  UNL     1     -14.712   7.439  71.849  1.00  0.00     0.000 HD 
HETATM    4  H1  UNL     1     -14.148   8.169  70.347  1.00  0.00     0.000 HD 
HETATM    5  N   UNL     1     -12.539   6.242  72.385  1.00  0.00    -0.533 N  
HETATM    6  C   UNL     1     -11.291   5.619  72.543  1.00  0.00    -0.294 C  
HETATM    7  H   UNL     1     -13.268   6.109  73.085  1.00  0.00     0.000 HD 
HETATM    8  C   UNL     1     -10.331   5.850  71.452  1.00  0.00    -0.218 A  
HETATM    9  O   UNL     1     -11.018   4.935  73.524  1.00  0.00    -0.279 OA 
HETATM   10  C   UNL     1     -10.685   6.666  70.411  1.00  0.00    -0.250 A  
HETATM   11  N   UNL     1     -11.878   7.271  70.340  1.00  0.00    -0.191 NA 
HETATM   12  N   UNL     1      -9.628   6.713  69.556  1.00  0.00    -0.147 NA 
HETATM   13  N   UNL     1      -9.057   5.368  71.251  1.00  0.00    -0.141 NA 
HETATM   14  C   UNL     1      -8.664   5.904  70.107  1.00  0.00    -0.141 A  
ENDROOT
BRANCH  12  15
HETATM   15  C   UNL     1      -9.523   7.545  68.377  1.00  0.00    -0.148 C  
HETATM   16  C   UNL     1     -10.722   7.461  67.433  1.00  0.00    -0.348 C  
HETATM   17  C   UNL     1     -10.431   8.594  66.458  1.00  0.00    -0.057 C  
HETATM   18  O   UNL     1      -9.412   8.157  65.552  1.00  0.00    -0.416 OA 
HETATM   19  C   UNL     1      -9.877   9.747  67.331  1.00  0.00    -0.219 C  
HETATM   20  C   UNL     1      -9.356   9.035  68.582  1.00  0.00    -0.136 C  
HETATM   21  H   UNL     1      -9.230   8.863  64.944  1.00  0.00     0.000 HD 
HETATM   22  C   UNL     1      -8.849   9.654  69.662  1.00  0.00    -0.212 C  
BRANCH  19  23
HETATM   23  C   UNL     1     -10.954  10.800  67.615  1.00  0.00    -0.306 C  
HETATM   24  O   UNL     1     -11.986  10.287  68.447  1.00  0.00    -0.730 OA 
HETATM   25  H   UNL     1     -12.653  10.941  68.623  1.00  0.00     0.000 HD 
ENDBRANCH  19  23
ENDBRANCH  12  15
TORSDOF 2
ENDMDL
MODEL       83
REMARK 921   NORMALIZED FREE ENERGY PREDICTED BY IDOCK:   -4.98 KCAL/MOL
REMARK 922        TOTAL FREE ENERGY PREDICTED BY IDOCK:   -5.90 KCAL/MOL
REMARK 923 INTER-LIGAND FREE ENERGY PREDICTED BY IDOCK:   -5.97 KCAL/MOL
REMARK 924 INTRA-LIGAND FREE ENERGY PREDICTED BY IDOCK:    0.07 KCAL/MOL
REMARK 927      BINDING AFFINITY PREDICTED BY RF-SCORE:    0.00 PKD
ROOT
HETATM    1  N   UNL     1     -13.575  14.268  72.307  1.00  0.00    -0.432 NA 
HETATM    2  C   UNL     1     -13.129  13.134  71.710  1.00  0.00    -0.383 C  
HETATM    3  H2  UNL     1     -14.072  14.207  73.196  1.00  0.00     0.000 HD 
HETATM    4  H1  UNL     1     -13.419  15.181  71.879  1.00  0.00     0.000 HD 
HETATM    5  N   UNL     1     -13.328  11.971  72.256  1.00  0.00    -0.546 N  
HETATM    6  C   UNL     1     -12.880  10.807  71.610  1.00  0.00    -0.457 C  
HETATM    7  H   UNL     1     -13.809  11.904  73.153  1.00  0.00     0.000 HD 
HETATM    8  C   UNL     1     -12.235  11.022  70.304  1.00  0.00    -0.363 A  
HETATM    9  O   UNL     1     -13.011   9.691  72.102  1.00  0.00    -0.403 OA 
HETATM   10  C   UNL     1     -12.078  12.300  69.839  1.00  0.00    -0.249 A  
HETATM   11  N   UNL     1     -12.487  13.376  70.526  1.00  0.00    -0.309 NA 
HETATM   12  N   UNL     1     -11.458  12.217  68.632  1.00  0.00    -0.270 NA 
HETATM   13  N   UNL     1     -11.730  10.128  69.387  1.00  0.00    -0.097 NA 
HETATM   14  C   UNL     1     -11.271  10.876  68.397  1.00  0.00    -0.285 A  
ENDROOT
BRANCH  12  15
HETATM   15  C   UNL     1     -10.995  13.331  67.834  1.00  0.00    -0.249 C  
HETATM   16  C   UNL     1     -11.883  14.573  67.904  1.00  0.00    -0.370 C  
HETATM   17  C   UNL     1     -11.027  15.609  67.187  1.00  0.00    -0.270 C  
HETATM   18  O   UNL     1     -11.111  15.364  65.778  1.00  0.00    -0.324 OA 
HETATM   19  C   UNL     1      -9.580  15.341  67.667  1.00  0.00    -0.206 C  
HETATM   20  C   UNL     1      -9.617  13.882  68.130  1.00  0.00    -0.218 C  
HETATM   21  H   UNL     1     -10.577  16.009  65.331  1.00  0.00     0.000 HD 
HETATM   22  C   UNL     1      -8.589  13.232  68.702  1.00  0.00     0.026 C  
BRANCH  19  23
HETATM   23  C   UNL     1      -9.159  16.332  68.758  1.00  0.00    -0.245 C  
HETATM   24  O   UNL     1     -10.213  17.226  69.092  1.00  0.00    -0.321 OA 
HETATM   25  H   UNL     1      -9.953  17.840  69.768  1.00  0.00     0.000 HD 
ENDBRANCH  19  23
ENDBRANCH  12  15
TORSDOF 2
ENDMDL
MODEL       84
REMARK 921   NORMALIZED FREE ENERGY PREDICTED BY IDOCK:   -4.98 KCAL/MOL
REMARK 922        TOTAL FREE ENERGY PREDICTED BY IDOCK:   -5.89 KCAL/MOL
REMARK 923 INTER-LIGAND FREE ENERGY PREDICTED BY IDOCK:   -5.49 KCAL/MOL
REMARK 924 INTRA-LIGAND FREE ENERGY PREDICTED BY IDOCK:   -0.41 KCAL/MOL
REMARK 927      BINDING AFFINITY PREDICTED BY RF-SCORE:    0.00 PKD
ROOT
HETATM    1  N   UNL     1     -10.070  10.605  64.655  1.00  0.00    -0.334 NA 
HETATM    2  C   UNL     1      -9.237  10.629  65.726  1.00  0.00    -0.189 C  
HETATM    3  H2  UNL     1      -9.763  11.008  63.769  1.00  0.00     0.000 HD 
HETATM    4  H1  UNL     1     -10.999  10.190  64.723  1.00  0.00     0.000 HD 
HETATM    5  N   UNL     1      -8.053  11.158  65.638  1.00  0.00    -0.366 N  
HETATM    6  C   UNL     1      -7.217  11.195  66.766  1.00  0.00    -0.146 C  
HETATM    7  H   UNL     1      -7.733  11.547  64.752  1.00  0.00     0.000 HD 
HETATM    8  C   UNL     1      -7.799  10.641  67.999  1.00  0.00    -0.105 A  
HETATM    9  O   UNL     1      -6.079  11.650  66.724  1.00  0.00    -0.144 OA 
HETATM   10  C   UNL     1      -9.058  10.104  67.961  1.00  0.00    -0.131 A  
HETATM   11  N   UNL     1      -9.791  10.056  66.840  1.00  0.00    -0.188 NA 
HETATM   12  N   UNL     1      -9.348   9.664  69.214  1.00  0.00    -0.169 NA 
HETATM   13  N   UNL     1      -7.297  10.558  69.278  1.00  0.00    -0.100 NA 
HETATM   14  C   UNL     1      -8.249   9.967  69.982  1.00  0.00    -0.168 A  
ENDROOT
BRANCH  12  15
HETATM   15  C   UNL     1     -10.529   8.927  69.607  1.00  0.00    -0.216 C  
HETATM   16  C   UNL     1     -10.261   7.759  70.555  1.00  0.00    -0.201 C  
HETATM   17  C   UNL     1     -11.673   7.359  70.963  1.00  0.00    -0.297 C  
HETATM   18  O   UNL     1     -12.263   6.627  69.883  1.00  0.00    -0.598 OA 
HETATM   19  C   UNL     1     -12.434   8.694  71.152  1.00  0.00    -0.210 C  
HETATM   20  C   UNL     1     -11.631   9.690  70.310  1.00  0.00    -0.255 C  
HETATM   21  H   UNL     1     -13.143   6.378  70.137  1.00  0.00     0.000 HD 
HETATM   22  C   UNL     1     -11.882  11.007  70.233  1.00  0.00    -0.456 C  
BRANCH  19  23
HETATM   23  C   UNL     1     -12.540   9.073  72.633  1.00  0.00    -0.174 C  
HETATM   24  O   UNL     1     -13.816   8.747  73.170  1.00  0.00    -1.042 OA 
HETATM   25  H   UNL     1     -13.882   8.981  74.088  1.00  0.00     0.000 HD 
ENDBRANCH  19  23
ENDBRANCH  12  15
TORSDOF 2
ENDMDL
MODEL       85
REMARK 921   NORMALIZED FREE ENERGY PREDICTED BY IDOCK:   -4.98 KCAL/MOL
REMARK 922        TOTAL FREE ENERGY PREDICTED BY IDOCK:   -5.89 KCAL/MOL
REMARK 923 INTER-LIGAND FREE ENERGY PREDICTED BY IDOCK:   -5.45 KCAL/MOL
REMARK 924 INTRA-LIGAND FREE ENERGY PREDICTED BY IDOCK:   -0.45 KCAL/MOL
REMARK 927      BINDING AFFINITY PREDICTED BY RF-SCORE:    0.00 PKD
ROOT
HETATM    1  N   UNL     1     -11.090   5.044  65.789  1.00  0.00    -0.836 NA 
HETATM    2  C   UNL     1     -10.058   5.581  66.488  1.00  0.00    -0.204 C  
HETATM    3  H2  UNL     1     -10.932   4.219  65.211  1.00  0.00     0.000 HD 
HETATM    4  H1  UNL     1     -12.022   5.456  65.834  1.00  0.00     0.000 HD 
HETATM    5  N   UNL     1      -8.870   5.056  66.431  1.00  0.00    -0.114 N  
HETATM    6  C   UNL     1      -7.810   5.641  67.142  1.00  0.00    -0.101 C  
HETATM    7  H   UNL     1      -8.708   4.220  65.869  1.00  0.00     0.000 HD 
HETATM    8  C   UNL     1      -8.152   6.864  67.886  1.00  0.00    -0.114 A  
HETATM    9  O   UNL     1      -6.681   5.162  67.150  1.00  0.00    -0.052 OA 
HETATM   10  C   UNL     1      -9.445   7.314  67.874  1.00  0.00    -0.135 A  
HETATM   11  N   UNL     1     -10.424   6.684  67.211  1.00  0.00    -0.235 NA 
HETATM   12  N   UNL     1      -9.488   8.441  68.633  1.00  0.00    -0.146 NA 
HETATM   13  N   UNL     1      -7.372   7.713  68.638  1.00  0.00    -0.089 NA 
HETATM   14  C   UNL     1      -8.202   8.647  69.073  1.00  0.00    -0.122 A  
ENDROOT
BRANCH  12  15
HETATM   15  C   UNL     1     -10.677   9.186  68.987  1.00  0.00    -0.153 C  
HETATM   16  C   UNL     1     -10.675   9.744  70.410  1.00  0.00    -0.368 C  
HETATM   17  C   UNL     1     -11.899  10.650  70.390  1.00  0.00    -0.349 C  
HETATM   18  O   UNL     1     -13.068   9.829  70.482  1.00  0.00    -0.570 OA 
HETATM   19  C   UNL     1     -11.868  11.342  69.006  1.00  0.00    -0.415 C  
HETATM   20  C   UNL     1     -11.022  10.397  68.148  1.00  0.00    -0.334 C  
HETATM   21  H   UNL     1     -13.831  10.394  70.470  1.00  0.00     0.000 HD 
HETATM   22  C   UNL     1     -10.661  10.632  66.875  1.00  0.00    -0.311 C  
BRANCH  19  23
HETATM   23  C   UNL     1     -11.308  12.765  69.104  1.00  0.00    -0.281 C  
HETATM   24  O   UNL     1     -11.451  13.299  70.414  1.00  0.00    -0.516 OA 
HETATM   25  H   UNL     1     -11.103  14.181  70.475  1.00  0.00     0.000 HD 
ENDBRANCH  19  23
ENDBRANCH  12  15
TORSDOF 2
ENDMDL
MODEL       86
REMARK 921   NORMALIZED FREE ENERGY PREDICTED BY IDOCK:   -4.93 KCAL/MOL
REMARK 922        TOTAL FREE ENERGY PREDICTED BY IDOCK:   -5.84 KCAL/MOL
REMARK 923 INTER-LIGAND FREE ENERGY PREDICTED BY IDOCK:   -5.45 KCAL/MOL
REMARK 924 INTRA-LIGAND FREE ENERGY PREDICTED BY IDOCK:   -0.39 KCAL/MOL
REMARK 927      BINDING AFFINITY PREDICTED BY RF-SCORE:    0.00 PKD
ROOT
HETATM    1  N   UNL     1     -12.609  14.273  66.845  1.00  0.00    -0.483 NA 
HETATM    2  C   UNL     1     -11.971  13.284  66.170  1.00  0.00    -0.418 C  
HETATM    3  H2  UNL     1     -12.928  15.101  66.342  1.00  0.00     0.000 HD 
HETATM    4  H1  UNL     1     -12.774  14.200  67.849  1.00  0.00     0.000 HD 
HETATM    5  N   UNL     1     -11.761  13.378  64.891  1.00  0.00    -0.337 N  
HETATM    6  C   UNL     1     -11.077  12.354  64.216  1.00  0.00    -0.349 C  
HETATM    7  H   UNL     1     -12.093  14.194  64.378  1.00  0.00     0.000 HD 
HETATM    8  C   UNL     1     -10.611  11.245  65.064  1.00  0.00    -0.289 A  
HETATM    9  O   UNL     1     -10.887  12.379  63.005  1.00  0.00    -0.238 OA 
HETATM   10  C   UNL     1     -10.902  11.258  66.401  1.00  0.00    -0.251 A  
HETATM   11  N   UNL     1     -11.601  12.244  66.980  1.00  0.00    -0.419 NA 
HETATM   12  N   UNL     1     -10.368  10.130  66.942  1.00  0.00    -0.235 NA 
HETATM   13  N   UNL     1      -9.880  10.119  64.759  1.00  0.00    -0.330 NA 
HETATM   14  C   UNL     1      -9.752   9.472  65.906  1.00  0.00    -0.282 A  
ENDROOT
BRANCH  12  15
HETATM   15  C   UNL     1     -10.531   9.681  68.308  1.00  0.00    -0.219 C  
HETATM   16  C   UNL     1     -10.596   8.163  68.472  1.00  0.00    -0.142 C  
HETATM   17  C   UNL     1     -10.519   8.009  69.985  1.00  0.00    -0.228 C  
HETATM   18  O   UNL     1     -11.799   8.340  70.536  1.00  0.00    -0.469 OA 
HETATM   19  C   UNL     1      -9.478   9.058  70.446  1.00  0.00    -0.247 C  
HETATM   20  C   UNL     1      -9.473  10.086  69.311  1.00  0.00    -0.227 C  
HETATM   21  H   UNL     1     -11.751   8.245  71.480  1.00  0.00     0.000 HD 
HETATM   22  C   UNL     1      -8.654  11.149  69.242  1.00  0.00     0.142 C  
BRANCH  19  23
HETATM   23  C   UNL     1      -8.113   8.413  70.710  1.00  0.00    -0.111 C  
HETATM   24  O   UNL     1      -7.375   9.125  71.695  1.00  0.00    -0.315 OA 
HETATM   25  H   UNL     1      -6.529   8.724  71.859  1.00  0.00     0.000 HD 
ENDBRANCH  19  23
ENDBRANCH  12  15
TORSDOF 2
ENDMDL
MODEL       87
REMARK 921   NORMALIZED FREE ENERGY PREDICTED BY IDOCK:   -4.88 KCAL/MOL
REMARK 922        TOTAL FREE ENERGY PREDICTED BY IDOCK:   -5.79 KCAL/MOL
REMARK 923 INTER-LIGAND FREE ENERGY PREDICTED BY IDOCK:   -5.43 KCAL/MOL
REMARK 924 INTRA-LIGAND FREE ENERGY PREDICTED BY IDOCK:   -0.36 KCAL/MOL
REMARK 927      BINDING AFFINITY PREDICTED BY RF-SCORE:    0.00 PKD
ROOT
HETATM    1  N   UNL     1      -9.252  15.816  66.653  1.00  0.00    -0.233 NA 
HETATM    2  C   UNL     1     -10.068  15.129  65.814  1.00  0.00    -0.346 C  
HETATM    3  H2  UNL     1      -9.442  16.799  66.847  1.00  0.00     0.000 HD 
HETATM    4  H1  UNL     1      -8.452  15.362  67.093  1.00  0.00     0.000 HD 
HETATM    5  N   UNL     1     -11.088  15.708  65.253  1.00  0.00    -0.331 N  
HETATM    6  C   UNL     1     -11.905  14.986  64.368  1.00  0.00    -0.339 C  
HETATM    7  H   UNL     1     -11.294  16.686  65.455  1.00  0.00     0.000 HD 
HETATM    8  C   UNL     1     -11.488  13.596  64.121  1.00  0.00    -0.329 A  
HETATM    9  O   UNL     1     -12.899  15.476  63.844  1.00  0.00    -0.605 OA 
HETATM   10  C   UNL     1     -10.396  13.098  64.780  1.00  0.00    -0.350 A  
HETATM   11  N   UNL     1      -9.682  13.825  65.650  1.00  0.00    -0.173 NA 
HETATM   12  N   UNL     1     -10.236  11.808  64.380  1.00  0.00    -0.273 NA 
HETATM   13  N   UNL     1     -12.012  12.629  63.293  1.00  0.00    -0.505 NA 
HETATM   14  C   UNL     1     -11.239  11.569  63.472  1.00  0.00    -0.322 A  
ENDROOT
BRANCH  12  15
HETATM   15  C   UNL     1      -9.273  10.867  64.907  1.00  0.00    -0.204 C  
HETATM   16  C   UNL     1      -9.888   9.643  65.586  1.00  0.00    -0.369 C  
HETATM   17  C   UNL     1      -8.667   8.759  65.801  1.00  0.00    -0.179 C  
HETATM   18  O   UNL     1      -7.929   9.275  66.915  1.00  0.00    -0.104 OA 
HETATM   19  C   UNL     1      -7.823   8.914  64.513  1.00  0.00    -0.126 C  
HETATM   20  C   UNL     1      -8.286  10.255  63.937  1.00  0.00    -0.152 C  
HETATM   21  H   UNL     1      -7.167   8.724  67.049  1.00  0.00     0.000 HD 
HETATM   22  C   UNL     1      -7.873  10.771  62.766  1.00  0.00    -0.053 C  
BRANCH  19  23
HETATM   23  C   UNL     1      -8.023   7.726  63.566  1.00  0.00    -0.104 C  
HETATM   24  O   UNL     1      -8.499   6.577  64.256  1.00  0.00    -0.337 OA 
HETATM   25  H   UNL     1      -8.623   5.840  63.669  1.00  0.00     0.000 HD 
ENDBRANCH  19  23
ENDBRANCH  12  15
TORSDOF 2
ENDMDL
MODEL       88
REMARK 921   NORMALIZED FREE ENERGY PREDICTED BY IDOCK:   -4.88 KCAL/MOL
REMARK 922        TOTAL FREE ENERGY PREDICTED BY IDOCK:   -5.78 KCAL/MOL
REMARK 923 INTER-LIGAND FREE ENERGY PREDICTED BY IDOCK:   -5.48 KCAL/MOL
REMARK 924 INTRA-LIGAND FREE ENERGY PREDICTED BY IDOCK:   -0.30 KCAL/MOL
REMARK 927      BINDING AFFINITY PREDICTED BY RF-SCORE:    0.00 PKD
ROOT
HETATM    1  N   UNL     1     -13.480  11.743  72.153  1.00  0.00    -0.523 NA 
HETATM    2  C   UNL     1     -12.798  12.236  71.088  1.00  0.00    -0.207 C  
HETATM    3  H2  UNL     1     -13.937  12.386  72.800  1.00  0.00     0.000 HD 
HETATM    4  H1  UNL     1     -13.542  10.738  72.314  1.00  0.00     0.000 HD 
HETATM    5  N   UNL     1     -12.719  13.518  70.883  1.00  0.00    -0.318 N  
HETATM    6  C   UNL     1     -11.988  14.009  69.789  1.00  0.00    -0.334 C  
HETATM    7  H   UNL     1     -13.188  14.165  71.515  1.00  0.00     0.000 HD 
HETATM    8  C   UNL     1     -11.321  12.985  68.968  1.00  0.00    -0.289 A  
HETATM    9  O   UNL     1     -11.915  15.206  69.532  1.00  0.00    -0.312 OA 
HETATM   10  C   UNL     1     -11.487  11.663  69.284  1.00  0.00    -0.300 A  
HETATM   11  N   UNL     1     -12.237  11.254  70.316  1.00  0.00    -0.337 NA 
HETATM   12  N   UNL     1     -10.780  10.939  68.376  1.00  0.00    -0.188 NA 
HETATM   13  N   UNL     1     -10.498  13.100  67.871  1.00  0.00    -0.234 NA 
HETATM   14  C   UNL     1     -10.191  11.856  67.540  1.00  0.00    -0.196 A  
ENDROOT
BRANCH  12  15
HETATM   15  C   UNL     1     -10.763   9.496  68.264  1.00  0.00    -0.194 C  
HETATM   16  C   UNL     1     -10.489   8.973  66.854  1.00  0.00    -0.293 C  
HETATM   17  C   UNL     1     -10.294   7.484  67.106  1.00  0.00    -0.313 C  
HETATM   18  O   UNL     1     -11.582   6.891  67.310  1.00  0.00    -0.668 OA 
HETATM   19  C   UNL     1      -9.479   7.400  68.420  1.00  0.00    -0.143 C  
HETATM   20  C   UNL     1      -9.761   8.738  69.107  1.00  0.00    -0.175 C  
HETATM   21  H   UNL     1     -11.460   5.962  67.467  1.00  0.00     0.000 HD 
HETATM   22  C   UNL     1      -9.197   9.144  70.258  1.00  0.00    -0.249 C  
BRANCH  19  23
HETATM   23  C   UNL     1      -7.994   7.142  68.141  1.00  0.00    -0.119 C  
HETATM   24  O   UNL     1      -7.339   8.307  67.657  1.00  0.00    -0.089 OA 
HETATM   25  H   UNL     1      -6.418   8.147  67.485  1.00  0.00     0.000 HD 
ENDBRANCH  19  23
ENDBRANCH  12  15
TORSDOF 2
ENDMDL
MODEL       89
REMARK 921   NORMALIZED FREE ENERGY PREDICTED BY IDOCK:   -4.86 KCAL/MOL
REMARK 922        TOTAL FREE ENERGY PREDICTED BY IDOCK:   -5.76 KCAL/MOL
REMARK 923 INTER-LIGAND FREE ENERGY PREDICTED BY IDOCK:   -5.72 KCAL/MOL
REMARK 924 INTRA-LIGAND FREE ENERGY PREDICTED BY IDOCK:   -0.04 KCAL/MOL
REMARK 927      BINDING AFFINITY PREDICTED BY RF-SCORE:    0.00 PKD
ROOT
HETATM    1  N   UNL     1     -13.936   8.940  73.172  1.00  0.00    -1.215 NA 
HETATM    2  C   UNL     1     -13.062   9.302  72.198  1.00  0.00    -0.443 C  
HETATM    3  H2  UNL     1     -14.836   9.416  73.242  1.00  0.00     0.000 HD 
HETATM    4  H1  UNL     1     -13.705   8.199  73.833  1.00  0.00     0.000 HD 
HETATM    5  N   UNL     1     -13.356  10.247  71.355  1.00  0.00    -0.338 N  
HETATM    6  C   UNL     1     -12.428  10.623  70.371  1.00  0.00    -0.338 C  
HETATM    7  H   UNL     1     -14.261  10.714  71.408  1.00  0.00     0.000 HD 
HETATM    8  C   UNL     1     -11.142   9.907  70.415  1.00  0.00    -0.319 A  
HETATM    9  O   UNL     1     -12.673  11.482  69.531  1.00  0.00     0.003 OA 
HETATM   10  C   UNL     1     -10.955   8.925  71.349  1.00  0.00    -0.310 A  
HETATM   11  N   UNL     1     -11.900   8.579  72.235  1.00  0.00    -0.379 NA 
HETATM   12  N   UNL     1      -9.702   8.428  71.169  1.00  0.00    -0.175 NA 
HETATM   13  N   UNL     1     -10.004  10.046  69.652  1.00  0.00    -0.225 NA 
HETATM   14  C   UNL     1      -9.161   9.145  70.129  1.00  0.00    -0.206 A  
ENDROOT
BRANCH  12  15
HETATM   15  C   UNL     1      -9.125   7.299  71.864  1.00  0.00    -0.133 C  
HETATM   16  C   UNL     1      -9.274   7.347  73.385  1.00  0.00    -0.249 C  
HETATM   17  C   UNL     1      -8.808   5.954  73.788  1.00  0.00    -0.124 C  
HETATM   18  O   UNL     1      -7.378   5.920  73.713  1.00  0.00    -0.088 OA 
HETATM   19  C   UNL     1      -9.400   5.004  72.718  1.00  0.00    -0.150 C  
HETATM   20  C   UNL     1      -9.644   5.920  71.517  1.00  0.00    -0.175 C  
HETATM   21  H   UNL     1      -7.088   5.051  73.964  1.00  0.00     0.000 HD 
HETATM   22  C   UNL     1     -10.227   5.539  70.367  1.00  0.00    -0.321 C  
BRANCH  19  23
HETATM   23  C   UNL     1     -10.659   4.298  73.232  1.00  0.00    -0.204 C  
HETATM   24  O   UNL     1     -11.355   5.090  74.187  1.00  0.00    -0.334 OA 
HETATM   25  H   UNL     1     -12.136   4.653  74.505  1.00  0.00     0.000 HD 
ENDBRANCH  19  23
ENDBRANCH  12  15
TORSDOF 2
ENDMDL
MODEL       90
REMARK 921   NORMALIZED FREE ENERGY PREDICTED BY IDOCK:   -4.85 KCAL/MOL
REMARK 922        TOTAL FREE ENERGY PREDICTED BY IDOCK:   -5.75 KCAL/MOL
REMARK 923 INTER-LIGAND FREE ENERGY PREDICTED BY IDOCK:   -5.34 KCAL/MOL
REMARK 924 INTRA-LIGAND FREE ENERGY PREDICTED BY IDOCK:   -0.41 KCAL/MOL
REMARK 927      BINDING AFFINITY PREDICTED BY RF-SCORE:    0.00 PKD
ROOT
HETATM    1  N   UNL     1     -11.841  12.006  70.215  1.00  0.00    -0.502 NA 
HETATM    2  C   UNL     1     -12.120  10.772  70.708  1.00  0.00    -0.372 C  
HETATM    3  H2  UNL     1     -12.434  12.796  70.469  1.00  0.00     0.000 HD 
HETATM    4  H1  UNL     1     -11.046  12.153  69.593  1.00  0.00     0.000 HD 
HETATM    5  N   UNL     1     -13.134  10.585  71.500  1.00  0.00    -0.423 N  
HETATM    6  C   UNL     1     -13.420   9.297  71.979  1.00  0.00    -0.451 C  
HETATM    7  H   UNL     1     -13.721  11.373  71.773  1.00  0.00     0.000 HD 
HETATM    8  C   UNL     1     -12.530   8.232  71.488  1.00  0.00    -0.312 A  
HETATM    9  O   UNL     1     -14.342   9.075  72.757  1.00  0.00    -0.596 OA 
HETATM   10  C   UNL     1     -11.490   8.558  70.661  1.00  0.00    -0.228 A  
HETATM   11  N   UNL     1     -11.240   9.817  70.274  1.00  0.00    -0.270 NA 
HETATM   12  N   UNL     1     -10.832   7.406  70.364  1.00  0.00    -0.239 NA 
HETATM   13  N   UNL     1     -12.542   6.872  71.704  1.00  0.00    -0.371 NA 
HETATM   14  C   UNL     1     -11.511   6.407  71.018  1.00  0.00    -0.334 A  
ENDROOT
BRANCH  12  15
HETATM   15  C   UNL     1      -9.602   7.298  69.610  1.00  0.00    -0.155 C  
HETATM   16  C   UNL     1      -8.555   6.375  70.234  1.00  0.00    -0.135 C  
HETATM   17  C   UNL     1      -7.520   6.280  69.122  1.00  0.00    -0.094 C  
HETATM   18  O   UNL     1      -6.759   7.493  69.111  1.00  0.00    -0.046 OA 
HETATM   19  C   UNL     1      -8.341   6.181  67.813  1.00  0.00    -0.116 C  
HETATM   20  C   UNL     1      -9.693   6.792  68.187  1.00  0.00    -0.129 C  
HETATM   21  H   UNL     1      -6.113   7.434  68.417  1.00  0.00     0.000 HD 
HETATM   22  C   UNL     1     -10.761   6.850  67.373  1.00  0.00    -0.396 C  
BRANCH  19  23
HETATM   23  C   UNL     1      -8.426   4.734  67.315  1.00  0.00    -0.105 C  
HETATM   24  O   UNL     1      -7.141   4.200  67.023  1.00  0.00    -0.064 OA 
HETATM   25  H   UNL     1      -7.194   3.303  66.714  1.00  0.00     0.000 HD 
ENDBRANCH  19  23
ENDBRANCH  12  15
TORSDOF 2
ENDMDL
MODEL       91
REMARK 921   NORMALIZED FREE ENERGY PREDICTED BY IDOCK:   -4.79 KCAL/MOL
REMARK 922        TOTAL FREE ENERGY PREDICTED BY IDOCK:   -5.69 KCAL/MOL
REMARK 923 INTER-LIGAND FREE ENERGY PREDICTED BY IDOCK:   -5.44 KCAL/MOL
REMARK 924 INTRA-LIGAND FREE ENERGY PREDICTED BY IDOCK:   -0.25 KCAL/MOL
REMARK 927      BINDING AFFINITY PREDICTED BY RF-SCORE:    0.00 PKD
ROOT
HETATM    1  N   UNL     1     -12.816  14.657  70.133  1.00  0.00    -0.567 NA 
HETATM    2  C   UNL     1     -12.283  13.936  69.113  1.00  0.00    -0.267 C  
HETATM    3  H2  UNL     1     -13.293  15.536  69.933  1.00  0.00     0.000 HD 
HETATM    4  H1  UNL     1     -12.744  14.331  71.097  1.00  0.00     0.000 HD 
HETATM    5  N   UNL     1     -12.374  14.352  67.885  1.00  0.00    -0.599 N  
HETATM    6  C   UNL     1     -11.795  13.604  66.847  1.00  0.00    -0.411 C  
HETATM    7  H   UNL     1     -12.865  15.221  67.675  1.00  0.00     0.000 HD 
HETATM    8  C   UNL     1     -11.079  12.390  67.271  1.00  0.00    -0.281 A  
HETATM    9  O   UNL     1     -11.886  13.935  65.670  1.00  0.00    -0.342 OA 
HETATM   10  C   UNL     1     -11.061  12.055  68.598  1.00  0.00    -0.250 A  
HETATM   11  N   UNL     1     -11.673  12.787  69.539  1.00  0.00    -0.316 NA 
HETATM   12  N   UNL     1     -10.346  10.903  68.714  1.00  0.00    -0.189 NA 
HETATM   13  N   UNL     1     -10.364  11.463  66.548  1.00  0.00    -0.228 NA 
HETATM   14  C   UNL     1      -9.939  10.584  67.441  1.00  0.00    -0.179 A  
ENDROOT
BRANCH  12  15
HETATM   15  C   UNL     1     -10.167  10.130  69.924  1.00  0.00    -0.237 C  
HETATM   16  C   UNL     1     -10.966   8.828  69.967  1.00  0.00    -0.216 C  
HETATM   17  C   UNL     1     -10.391   8.151  71.204  1.00  0.00    -0.198 C  
HETATM   18  O   UNL     1     -10.948   8.783  72.363  1.00  0.00    -0.321 OA 
HETATM   19  C   UNL     1      -8.870   8.433  71.150  1.00  0.00    -0.201 C  
HETATM   20  C   UNL     1      -8.764   9.680  70.268  1.00  0.00    -0.248 C  
HETATM   21  H   UNL     1     -10.589   8.361  73.134  1.00  0.00     0.000 HD 
HETATM   22  C   UNL     1      -7.611  10.249  69.878  1.00  0.00    -0.153 C  
BRANCH  19  23
HETATM   23  C   UNL     1      -8.095   7.223  70.616  1.00  0.00    -0.108 C  
HETATM   24  O   UNL     1      -8.631   5.998  71.100  1.00  0.00    -0.127 OA 
HETATM   25  H   UNL     1      -8.151   5.248  70.769  1.00  0.00     0.000 HD 
ENDBRANCH  19  23
ENDBRANCH  12  15
TORSDOF 2
ENDMDL
MODEL       92
REMARK 921   NORMALIZED FREE ENERGY PREDICTED BY IDOCK:   -4.78 KCAL/MOL
REMARK 922        TOTAL FREE ENERGY PREDICTED BY IDOCK:   -5.68 KCAL/MOL
REMARK 923 INTER-LIGAND FREE ENERGY PREDICTED BY IDOCK:   -5.38 KCAL/MOL
REMARK 924 INTRA-LIGAND FREE ENERGY PREDICTED BY IDOCK:   -0.29 KCAL/MOL
REMARK 927      BINDING AFFINITY PREDICTED BY RF-SCORE:    0.00 PKD
ROOT
HETATM    1  N   UNL     1      -8.526  10.733  67.606  1.00  0.00    -0.119 NA 
HETATM    2  C   UNL     1      -9.569  10.890  68.460  1.00  0.00    -0.187 C  
HETATM    3  H2  UNL     1      -8.388  11.406  66.851  1.00  0.00     0.000 HD 
HETATM    4  H1  UNL     1      -7.879   9.952  67.708  1.00  0.00     0.000 HD 
HETATM    5  N   UNL     1     -10.395  11.886  68.329  1.00  0.00    -0.196 N  
HETATM    6  C   UNL     1     -11.481  12.016  69.208  1.00  0.00    -0.301 C  
HETATM    7  H   UNL     1     -10.253  12.572  67.588  1.00  0.00     0.000 HD 
HETATM    8  C   UNL     1     -11.609  10.947  70.212  1.00  0.00    -0.334 A  
HETATM    9  O   UNL     1     -12.265  12.957  69.149  1.00  0.00    -0.209 OA 
HETATM   10  C   UNL     1     -10.669   9.953  70.253  1.00  0.00    -0.310 A  
HETATM   11  N   UNL     1      -9.625   9.909  69.413  1.00  0.00    -0.202 NA 
HETATM   12  N   UNL     1     -11.015   9.110  71.262  1.00  0.00    -0.301 NA 
HETATM   13  N   UNL     1     -12.560  10.727  71.183  1.00  0.00    -0.394 NA 
HETATM   14  C   UNL     1     -12.174   9.619  71.795  1.00  0.00    -0.384 A  
ENDROOT
BRANCH  12  15
HETATM   15  C   UNL     1     -10.241   7.982  71.733  1.00  0.00    -0.202 C  
HETATM   16  C   UNL     1     -10.188   7.842  73.255  1.00  0.00    -0.367 C  
HETATM   17  C   UNL     1      -9.537   6.475  73.419  1.00  0.00    -0.155 C  
HETATM   18  O   UNL     1      -8.134   6.612  73.166  1.00  0.00    -0.105 OA 
HETATM   19  C   UNL     1     -10.170   5.590  72.317  1.00  0.00    -0.244 C  
HETATM   20  C   UNL     1     -10.663   6.602  71.280  1.00  0.00    -0.269 C  
HETATM   21  H   UNL     1      -7.727   5.760  73.268  1.00  0.00     0.000 HD 
HETATM   22  C   UNL     1     -11.355   6.289  70.171  1.00  0.00    -0.476 C  
BRANCH  19  23
HETATM   23  C   UNL     1     -11.273   4.691  72.887  1.00  0.00    -0.161 C  
HETATM   24  O   UNL     1     -12.517   5.376  72.975  1.00  0.00    -0.466 OA 
HETATM   25  H   UNL     1     -13.201   4.818  73.328  1.00  0.00     0.000 HD 
ENDBRANCH  19  23
ENDBRANCH  12  15
TORSDOF 2
ENDMDL
MODEL       93
REMARK 921   NORMALIZED FREE ENERGY PREDICTED BY IDOCK:   -4.77 KCAL/MOL
REMARK 922        TOTAL FREE ENERGY PREDICTED BY IDOCK:   -5.67 KCAL/MOL
REMARK 923 INTER-LIGAND FREE ENERGY PREDICTED BY IDOCK:   -5.27 KCAL/MOL
REMARK 924 INTRA-LIGAND FREE ENERGY PREDICTED BY IDOCK:   -0.40 KCAL/MOL
REMARK 927      BINDING AFFINITY PREDICTED BY RF-SCORE:    0.00 PKD
ROOT
HETATM    1  N   UNL     1      -8.889  16.400  65.775  1.00  0.00    -0.424 NA 
HETATM    2  C   UNL     1      -9.795  15.389  65.800  1.00  0.00    -0.364 C  
HETATM    3  H2  UNL     1      -9.128  17.278  65.315  1.00  0.00     0.000 HD 
HETATM    4  H1  UNL     1      -7.973  16.292  66.210  1.00  0.00     0.000 HD 
HETATM    5  N   UNL     1     -10.963  15.526  65.246  1.00  0.00    -0.378 N  
HETATM    6  C   UNL     1     -11.876  14.460  65.262  1.00  0.00    -0.373 C  
HETATM    7  H   UNL     1     -11.215  16.408  64.800  1.00  0.00     0.000 HD 
HETATM    8  C   UNL     1     -11.389  13.225  65.898  1.00  0.00    -0.311 A  
HETATM    9  O   UNL     1     -13.002  14.553  64.786  1.00  0.00    -0.562 OA 
HETATM   10  C   UNL     1     -10.138  13.208  66.454  1.00  0.00    -0.281 A  
HETATM   11  N   UNL     1      -9.329  14.276  66.447  1.00  0.00    -0.272 NA 
HETATM   12  N   UNL     1      -9.943  11.966  66.972  1.00  0.00    -0.201 NA 
HETATM   13  N   UNL     1     -11.981  11.991  66.049  1.00  0.00    -0.535 NA 
HETATM   14  C   UNL     1     -11.089  11.260  66.697  1.00  0.00    -0.235 A  
ENDROOT
BRANCH  12  15
HETATM   15  C   UNL     1      -8.801  11.538  67.751  1.00  0.00    -0.153 C  
HETATM   16  C   UNL     1      -9.156  10.838  69.063  1.00  0.00    -0.153 C  
HETATM   17  C   UNL     1      -7.801  10.308  69.510  1.00  0.00    -0.168 C  
HETATM   18  O   UNL     1      -7.046  11.401  70.047  1.00  0.00    -0.392 OA 
HETATM   19  C   UNL     1      -7.117   9.802  68.217  1.00  0.00    -0.077 C  
HETATM   20  C   UNL     1      -7.831  10.575  67.104  1.00  0.00    -0.112 C  
HETATM   21  H   UNL     1      -6.200  11.070  70.326  1.00  0.00     0.000 HD 
HETATM   22  C   UNL     1      -7.615  10.401  65.790  1.00  0.00    -0.147 C  
BRANCH  19  23
HETATM   23  C   UNL     1      -7.224   8.279  68.087  1.00  0.00    -0.094 C  
HETATM   24  O   UNL     1      -6.569   7.611  69.158  1.00  0.00    -0.039 OA 
HETATM   25  H   UNL     1      -6.636   6.666  69.077  1.00  0.00     0.000 HD 
ENDBRANCH  19  23
ENDBRANCH  12  15
TORSDOF 2
ENDMDL
MODEL       94
REMARK 921   NORMALIZED FREE ENERGY PREDICTED BY IDOCK:   -4.74 KCAL/MOL
REMARK 922        TOTAL FREE ENERGY PREDICTED BY IDOCK:   -5.63 KCAL/MOL
REMARK 923 INTER-LIGAND FREE ENERGY PREDICTED BY IDOCK:   -5.49 KCAL/MOL
REMARK 924 INTRA-LIGAND FREE ENERGY PREDICTED BY IDOCK:   -0.14 KCAL/MOL
REMARK 927      BINDING AFFINITY PREDICTED BY RF-SCORE:    0.00 PKD
ROOT
HETATM    1  N   UNL     1     -12.626  13.404  64.928  1.00  0.00    -0.631 NA 
HETATM    2  C   UNL     1     -12.189  12.990  66.144  1.00  0.00    -0.360 C  
HETATM    3  H2  UNL     1     -13.142  14.281  64.851  1.00  0.00     0.000 HD 
HETATM    4  H1  UNL     1     -12.446  12.851  64.091  1.00  0.00     0.000 HD 
HETATM    5  N   UNL     1     -12.420  13.695  67.212  1.00  0.00    -0.334 N  
HETATM    6  C   UNL     1     -11.980  13.236  68.464  1.00  0.00    -0.304 C  
HETATM    7  H   UNL     1     -12.919  14.581  67.140  1.00  0.00     0.000 HD 
HETATM    8  C   UNL     1     -11.305  11.928  68.452  1.00  0.00    -0.276 A  
HETATM    9  O   UNL     1     -12.140  13.883  69.493  1.00  0.00    -0.321 OA 
HETATM   10  C   UNL     1     -11.116  11.284  67.259  1.00  0.00    -0.305 A  
HETATM   11  N   UNL     1     -11.519  11.797  66.088  1.00  0.00    -0.387 NA 
HETATM   12  N   UNL     1     -10.473  10.117  67.527  1.00  0.00    -0.234 NA 
HETATM   13  N   UNL     1     -10.798  11.163  69.478  1.00  0.00    -0.222 NA 
HETATM   14  C   UNL     1     -10.306  10.085  68.890  1.00  0.00    -0.202 A  
ENDROOT
BRANCH  12  15
HETATM   15  C   UNL     1      -9.974   9.175  66.549  1.00  0.00    -0.288 C  
HETATM   16  C   UNL     1      -8.491   9.334  66.215  1.00  0.00    -0.133 C  
HETATM   17  C   UNL     1      -8.224   8.089  65.380  1.00  0.00    -0.151 C  
HETATM   18  O   UNL     1      -8.763   8.301  64.070  1.00  0.00    -0.397 OA 
HETATM   19  C   UNL     1      -9.013   6.956  66.080  1.00  0.00    -0.157 C  
HETATM   20  C   UNL     1     -10.093   7.701  66.869  1.00  0.00    -0.348 C  
HETATM   21  H   UNL     1      -8.597   7.524  63.550  1.00  0.00     0.000 HD 
HETATM   22  C   UNL     1     -10.976   7.120  67.698  1.00  0.00    -0.226 C  
BRANCH  19  23
HETATM   23  C   UNL     1      -8.094   6.088  66.947  1.00  0.00    -0.105 C  
HETATM   24  O   UNL     1      -8.460   4.714  66.891  1.00  0.00    -0.106 OA 
HETATM   25  H   UNL     1      -7.890   4.176  67.428  1.00  0.00     0.000 HD 
ENDBRANCH  19  23
ENDBRANCH  12  15
TORSDOF 2
ENDMDL
MODEL       95
REMARK 921   NORMALIZED FREE ENERGY PREDICTED BY IDOCK:   -4.73 KCAL/MOL
REMARK 922        TOTAL FREE ENERGY PREDICTED BY IDOCK:   -5.62 KCAL/MOL
REMARK 923 INTER-LIGAND FREE ENERGY PREDICTED BY IDOCK:   -5.47 KCAL/MOL
REMARK 924 INTRA-LIGAND FREE ENERGY PREDICTED BY IDOCK:   -0.14 KCAL/MOL
REMARK 927      BINDING AFFINITY PREDICTED BY RF-SCORE:    0.00 PKD
ROOT
HETATM    1  N   UNL     1     -11.697  11.531  67.390  1.00  0.00    -0.609 NA 
HETATM    2  C   UNL     1     -10.857  10.488  67.168  1.00  0.00    -0.259 C  
HETATM    3  H2  UNL     1     -11.929  12.163  66.624  1.00  0.00     0.000 HD 
HETATM    4  H1  UNL     1     -12.099  11.692  68.314  1.00  0.00     0.000 HD 
HETATM    5  N   UNL     1     -10.344  10.284  65.991  1.00  0.00    -0.214 N  
HETATM    6  C   UNL     1      -9.458   9.214  65.789  1.00  0.00    -0.254 C  
HETATM    7  H   UNL     1     -10.585  10.901  65.216  1.00  0.00     0.000 HD 
HETATM    8  C   UNL     1      -9.153   8.416  66.988  1.00  0.00    -0.144 A  
HETATM    9  O   UNL     1      -8.977   8.958  64.690  1.00  0.00    -0.134 OA 
HETATM   10  C   UNL     1      -9.764   8.727  68.172  1.00  0.00    -0.158 A  
HETATM   11  N   UNL     1     -10.639   9.736  68.291  1.00  0.00    -0.220 NA 
HETATM   12  N   UNL     1      -9.317   7.843  69.103  1.00  0.00    -0.154 NA 
HETATM   13  N   UNL     1      -8.306   7.346  67.170  1.00  0.00    -0.117 NA 
HETATM   14  C   UNL     1      -8.428   7.026  68.448  1.00  0.00    -0.123 A  
ENDROOT
BRANCH  12  15
HETATM   15  C   UNL     1      -9.785   7.733  70.468  1.00  0.00    -0.175 C  
HETATM   16  C   UNL     1      -9.807   9.053  71.239  1.00  0.00    -0.376 C  
HETATM   17  C   UNL     1     -10.554   8.661  72.506  1.00  0.00    -0.142 C  
HETATM   18  O   UNL     1      -9.655   7.933  73.351  1.00  0.00    -0.281 OA 
HETATM   19  C   UNL     1     -11.687   7.718  72.033  1.00  0.00    -0.349 C  
HETATM   20  C   UNL     1     -11.179   7.188  70.690  1.00  0.00    -0.311 C  
HETATM   21  H   UNL     1     -10.122   7.689  74.141  1.00  0.00     0.000 HD 
HETATM   22  C   UNL     1     -11.875   6.383  69.869  1.00  0.00    -0.145 C  
BRANCH  19  23
HETATM   23  C   UNL     1     -13.028   8.455  71.946  1.00  0.00    -0.355 C  
HETATM   24  O   UNL     1     -13.507   8.831  73.231  1.00  0.00    -0.954 OA 
HETATM   25  H   UNL     1     -14.339   9.289  73.176  1.00  0.00     0.000 HD 
ENDBRANCH  19  23
ENDBRANCH  12  15
TORSDOF 2
ENDMDL
MODEL       96
REMARK 921   NORMALIZED FREE ENERGY PREDICTED BY IDOCK:   -4.72 KCAL/MOL
REMARK 922        TOTAL FREE ENERGY PREDICTED BY IDOCK:   -5.61 KCAL/MOL
REMARK 923 INTER-LIGAND FREE ENERGY PREDICTED BY IDOCK:   -5.46 KCAL/MOL
REMARK 924 INTRA-LIGAND FREE ENERGY PREDICTED BY IDOCK:   -0.15 KCAL/MOL
REMARK 927      BINDING AFFINITY PREDICTED BY RF-SCORE:    0.00 PKD
ROOT
HETATM    1  N   UNL     1     -10.173   9.402  66.762  1.00  0.00    -0.250 NA 
HETATM    2  C   UNL     1     -10.787  10.117  67.739  1.00  0.00    -0.292 C  
HETATM    3  H2  UNL     1      -9.963   9.847  65.868  1.00  0.00     0.000 HD 
HETATM    4  H1  UNL     1      -9.918   8.425  66.909  1.00  0.00     0.000 HD 
HETATM    5  N   UNL     1     -11.111  11.361  67.550  1.00  0.00    -0.262 N  
HETATM    6  C   UNL     1     -11.768  12.076  68.565  1.00  0.00    -0.332 C  
HETATM    7  H   UNL     1     -10.889  11.818  66.666  1.00  0.00     0.000 HD 
HETATM    8  C   UNL     1     -12.072  11.304  69.781  1.00  0.00    -0.325 A  
HETATM    9  O   UNL     1     -12.061  13.261  68.449  1.00  0.00    -0.333 OA 
HETATM   10  C   UNL     1     -11.671   9.998  69.861  1.00  0.00    -0.125 A  
HETATM   11  N   UNL     1     -11.005   9.383  68.874  1.00  0.00    -0.114 NA 
HETATM   12  N   UNL     1     -12.067   9.527  71.074  1.00  0.00    -0.310 NA 
HETATM   13  N   UNL     1     -12.736  11.658  70.934  1.00  0.00    -0.300 NA 
HETATM   14  C   UNL     1     -12.715  10.571  71.688  1.00  0.00    -0.445 A  
ENDROOT
BRANCH  12  15
HETATM   15  C   UNL     1     -11.755   8.227  71.626  1.00  0.00    -0.292 C  
HETATM   16  C   UNL     1     -12.326   7.049  70.837  1.00  0.00    -0.361 C  
HETATM   17  C   UNL     1     -11.639   5.865  71.504  1.00  0.00    -0.078 C  
HETATM   18  O   UNL     1     -12.286   5.618  72.758  1.00  0.00    -0.522 OA 
HETATM   19  C   UNL     1     -10.186   6.333  71.762  1.00  0.00    -0.224 C  
HETATM   20  C   UNL     1     -10.295   7.859  71.775  1.00  0.00    -0.260 C  
HETATM   21  H   UNL     1     -11.858   4.879  73.174  1.00  0.00     0.000 HD 
HETATM   22  C   UNL     1      -9.254   8.702  71.893  1.00  0.00    -0.345 C  
BRANCH  19  23
HETATM   23  C   UNL     1      -9.225   5.783  70.702  1.00  0.00    -0.152 C  
HETATM   24  O   UNL     1      -9.378   6.451  69.456  1.00  0.00    -0.143 OA 
HETATM   25  H   UNL     1      -8.782   6.111  68.799  1.00  0.00     0.000 HD 
ENDBRANCH  19  23
ENDBRANCH  12  15
TORSDOF 2
ENDMDL
MODEL       97
REMARK 921   NORMALIZED FREE ENERGY PREDICTED BY IDOCK:   -4.70 KCAL/MOL
REMARK 922        TOTAL FREE ENERGY PREDICTED BY IDOCK:   -5.59 KCAL/MOL
REMARK 923 INTER-LIGAND FREE ENERGY PREDICTED BY IDOCK:   -5.25 KCAL/MOL
REMARK 924 INTRA-LIGAND FREE ENERGY PREDICTED BY IDOCK:   -0.33 KCAL/MOL
REMARK 927      BINDING AFFINITY PREDICTED BY RF-SCORE:    0.00 PKD
ROOT
HETATM    1  N   UNL     1     -10.692   9.881  71.068  1.00  0.00    -0.319 NA 
HETATM    2  C   UNL     1     -10.570   9.853  69.717  1.00  0.00    -0.264 C  
HETATM    3  H2  UNL     1     -10.923   9.023  71.570  1.00  0.00     0.000 HD 
HETATM    4  H1  UNL     1     -10.555  10.747  71.588  1.00  0.00     0.000 HD 
HETATM    5  N   UNL     1     -10.744   8.748  69.054  1.00  0.00    -0.386 N  
HETATM    6  C   UNL     1     -10.638   8.746  67.654  1.00  0.00    -0.213 C  
HETATM    7  H   UNL     1     -10.958   7.884  69.551  1.00  0.00     0.000 HD 
HETATM    8  C   UNL     1     -10.365  10.057  67.043  1.00  0.00    -0.243 A  
HETATM    9  O   UNL     1     -10.757   7.723  66.988  1.00  0.00    -0.347 OA 
HETATM   10  C   UNL     1     -10.194  11.149  67.851  1.00  0.00    -0.180 A  
HETATM   11  N   UNL     1     -10.262  11.077  69.187  1.00  0.00    -0.197 NA 
HETATM   12  N   UNL     1      -9.952  12.215  67.044  1.00  0.00    -0.201 NA 
HETATM   13  N   UNL     1     -10.248  10.433  65.724  1.00  0.00    -0.255 NA 
HETATM   14  C   UNL     1     -10.000  11.732  65.758  1.00  0.00    -0.238 A  
ENDROOT
BRANCH  12  15
HETATM   15  C   UNL     1      -9.603  13.550  67.478  1.00  0.00    -0.221 C  
HETATM   16  C   UNL     1      -8.413  14.166  66.740  1.00  0.00    -0.029 C  
HETATM   17  C   UNL     1      -8.454  15.607  67.230  1.00  0.00    -0.191 C  
HETATM   18  O   UNL     1      -7.924  15.644  68.561  1.00  0.00    -0.129 OA 
HETATM   19  C   UNL     1      -9.956  15.979  67.268  1.00  0.00    -0.242 C  
HETATM   20  C   UNL     1     -10.662  14.625  67.368  1.00  0.00    -0.280 C  
HETATM   21  H   UNL     1      -7.950  16.542  68.867  1.00  0.00     0.000 HD 
HETATM   22  C   UNL     1     -11.995  14.451  67.352  1.00  0.00    -0.407 C  
BRANCH  19  23
HETATM   23  C   UNL     1     -10.359  16.804  66.041  1.00  0.00    -0.335 C  
HETATM   24  O   UNL     1     -10.475  15.995  64.877  1.00  0.00    -0.574 OA 
HETATM   25  H   UNL     1     -10.725  16.508  64.116  1.00  0.00     0.000 HD 
ENDBRANCH  19  23
ENDBRANCH  12  15
TORSDOF 2
ENDMDL
MODEL       98
REMARK 921   NORMALIZED FREE ENERGY PREDICTED BY IDOCK:   -4.70 KCAL/MOL
REMARK 922        TOTAL FREE ENERGY PREDICTED BY IDOCK:   -5.59 KCAL/MOL
REMARK 923 INTER-LIGAND FREE ENERGY PREDICTED BY IDOCK:   -5.17 KCAL/MOL
REMARK 924 INTRA-LIGAND FREE ENERGY PREDICTED BY IDOCK:   -0.41 KCAL/MOL
REMARK 927      BINDING AFFINITY PREDICTED BY RF-SCORE:    0.00 PKD
ROOT
HETATM    1  N   UNL     1     -10.210  19.524  65.968  1.00  0.00    -0.470 NA 
HETATM    2  C   UNL     1      -9.203  18.666  66.271  1.00  0.00    -0.234 C  
HETATM    3  H2  UNL     1      -9.989  20.482  65.694  1.00  0.00     0.000 HD 
HETATM    4  H1  UNL     1     -11.184  19.225  66.011  1.00  0.00     0.000 HD 
HETATM    5  N   UNL     1      -7.962  19.049  66.217  1.00  0.00    -0.291 N  
HETATM    6  C   UNL     1      -6.936  18.152  66.558  1.00  0.00    -0.217 C  
HETATM    7  H   UNL     1      -7.733  19.999  65.927  1.00  0.00     0.000 HD 
HETATM    8  C   UNL     1      -7.386  16.822  67.000  1.00  0.00    -0.203 A  
HETATM    9  O   UNL     1      -5.750  18.454  66.487  1.00  0.00    -0.142 OA 
HETATM   10  C   UNL     1      -8.725  16.537  67.007  1.00  0.00    -0.197 A  
HETATM   11  N   UNL     1      -9.655  17.423  66.624  1.00  0.00    -0.263 NA 
HETATM   12  N   UNL     1      -8.864  15.258  67.445  1.00  0.00    -0.171 NA 
HETATM   13  N   UNL     1      -6.677  15.730  67.448  1.00  0.00    -0.186 NA 
HETATM   14  C   UNL     1      -7.592  14.810  67.705  1.00  0.00    -0.174 A  
ENDROOT
BRANCH  12  15
HETATM   15  C   UNL     1     -10.099  14.506  67.503  1.00  0.00    -0.228 C  
HETATM   16  C   UNL     1      -9.939  13.004  67.270  1.00  0.00    -0.232 C  
HETATM   17  C   UNL     1     -11.324  12.483  67.630  1.00  0.00    -0.306 C  
HETATM   18  O   UNL     1     -12.210  12.776  66.543  1.00  0.00    -0.494 OA 
HETATM   19  C   UNL     1     -11.753  13.300  68.873  1.00  0.00    -0.369 C  
HETATM   20  C   UNL     1     -10.899  14.567  68.786  1.00  0.00    -0.256 C  
HETATM   21  H   UNL     1     -13.074  12.452  66.768  1.00  0.00     0.000 HD 
HETATM   22  C   UNL     1     -10.879  15.544  69.708  1.00  0.00    -0.301 C  
BRANCH  19  23
HETATM   23  C   UNL     1     -11.552  12.499  70.165  1.00  0.00    -0.069 C  
HETATM   24  O   UNL     1     -12.620  12.701  71.081  1.00  0.00    -0.366 OA 
HETATM   25  H   UNL     1     -12.495  12.204  71.882  1.00  0.00     0.000 HD 
ENDBRANCH  19  23
ENDBRANCH  12  15
TORSDOF 2
ENDMDL
MODEL       99
REMARK 921   NORMALIZED FREE ENERGY PREDICTED BY IDOCK:   -4.65 KCAL/MOL
REMARK 922        TOTAL FREE ENERGY PREDICTED BY IDOCK:   -5.53 KCAL/MOL
REMARK 923 INTER-LIGAND FREE ENERGY PREDICTED BY IDOCK:   -5.10 KCAL/MOL
REMARK 924 INTRA-LIGAND FREE ENERGY PREDICTED BY IDOCK:   -0.44 KCAL/MOL
REMARK 927      BINDING AFFINITY PREDICTED BY RF-SCORE:    0.00 PKD
ROOT
HETATM    1  N   UNL     1     -12.891  11.865  63.102  1.00  0.00    -0.867 NA 
HETATM    2  C   UNL     1     -12.030  12.443  63.977  1.00  0.00    -0.460 C  
HETATM    3  H2  UNL     1     -13.659  12.413  62.715  1.00  0.00     0.000 HD 
HETATM    4  H1  UNL     1     -12.781  10.889  62.826  1.00  0.00     0.000 HD 
HETATM    5  N   UNL     1     -12.171  13.687  64.328  1.00  0.00    -0.565 N  
HETATM    6  C   UNL     1     -11.283  14.259  65.253  1.00  0.00    -0.337 C  
HETATM    7  H   UNL     1     -12.926  14.246  63.932  1.00  0.00     0.000 HD 
HETATM    8  C   UNL     1     -10.258  13.347  65.787  1.00  0.00    -0.295 A  
HETATM    9  O   UNL     1     -11.352  15.437  65.588  1.00  0.00    -0.263 OA 
HETATM   10  C   UNL     1     -10.208  12.057  65.332  1.00  0.00    -0.263 A  
HETATM   11  N   UNL     1     -11.058  11.582  64.410  1.00  0.00    -0.318 NA 
HETATM   12  N   UNL     1      -9.181  11.441  65.974  1.00  0.00    -0.212 NA 
HETATM   13  N   UNL     1      -9.274  13.545  66.729  1.00  0.00    -0.251 NA 
HETATM   14  C   UNL     1      -8.645  12.384  66.817  1.00  0.00    -0.129 A  
ENDROOT
BRANCH  12  15
HETATM   15  C   UNL     1      -8.696  10.102  65.717  1.00  0.00    -0.152 C  
HETATM   16  C   UNL     1      -7.174   9.979  65.658  1.00  0.00    -0.120 C  
HETATM   17  C   UNL     1      -6.983   8.469  65.626  1.00  0.00    -0.071 C  
HETATM   18  O   UNL     1      -7.288   8.005  64.306  1.00  0.00    -0.084 OA 
HETATM   19  C   UNL     1      -8.031   7.908  66.619  1.00  0.00    -0.103 C  
HETATM   20  C   UNL     1      -9.086   9.015  66.695  1.00  0.00    -0.196 C  
HETATM   21  H   UNL     1      -7.170   7.063  64.286  1.00  0.00     0.000 HD 
HETATM   22  C   UNL     1     -10.159   8.998  67.503  1.00  0.00    -0.285 C  
BRANCH  19  23
HETATM   23  C   UNL     1      -7.393   7.561  67.969  1.00  0.00    -0.096 C  
HETATM   24  O   UNL     1      -6.148   6.893  67.806  1.00  0.00    -0.030 OA 
HETATM   25  H   UNL     1      -5.752   6.678  68.643  1.00  0.00     0.000 HD 
ENDBRANCH  19  23
ENDBRANCH  12  15
TORSDOF 2
ENDMDL
MODEL      100
REMARK 921   NORMALIZED FREE ENERGY PREDICTED BY IDOCK:   -4.65 KCAL/MOL
REMARK 922        TOTAL FREE ENERGY PREDICTED BY IDOCK:   -5.53 KCAL/MOL
REMARK 923 INTER-LIGAND FREE ENERGY PREDICTED BY IDOCK:   -5.41 KCAL/MOL
REMARK 924 INTRA-LIGAND FREE ENERGY PREDICTED BY IDOCK:   -0.12 KCAL/MOL
REMARK 927      BINDING AFFINITY PREDICTED BY RF-SCORE:    0.00 PKD
ROOT
HETATM    1  N   UNL     1     -11.112   5.876  66.342  1.00  0.00    -0.759 NA 
HETATM    2  C   UNL     1     -10.986   6.596  67.486  1.00  0.00    -0.338 C  
HETATM    3  H2  UNL     1     -11.289   4.873  66.396  1.00  0.00     0.000 HD 
HETATM    4  H1  UNL     1     -11.031   6.325  65.430  1.00  0.00     0.000 HD 
HETATM    5  N   UNL     1     -11.090   6.023  68.649  1.00  0.00    -0.291 N  
HETATM    6  C   UNL     1     -10.932   6.781  69.820  1.00  0.00    -0.297 C  
HETATM    7  H   UNL     1     -11.284   5.024  68.710  1.00  0.00     0.000 HD 
HETATM    8  C   UNL     1     -10.615   8.203  69.610  1.00  0.00    -0.223 A  
HETATM    9  O   UNL     1     -11.057   6.295  70.939  1.00  0.00    -0.274 OA 
HETATM   10  C   UNL     1     -10.540   8.690  68.333  1.00  0.00    -0.120 A  
HETATM   11  N   UNL     1     -10.747   7.923  67.253  1.00  0.00    -0.284 NA 
HETATM   12  N   UNL     1     -10.244  10.014  68.421  1.00  0.00    -0.165 NA 
HETATM   13  N   UNL     1     -10.351   9.213  70.508  1.00  0.00    -0.217 NA 
HETATM   14  C   UNL     1     -10.134  10.285  69.764  1.00  0.00    -0.203 A  
ENDROOT
BRANCH  12  15
HETATM   15  C   UNL     1     -10.180  10.948  67.318  1.00  0.00    -0.205 C  
HETATM   16  C   UNL     1     -11.472  11.727  67.072  1.00  0.00    -0.368 C  
HETATM   17  C   UNL     1     -11.022  12.763  66.051  1.00  0.00    -0.278 C  
HETATM   18  O   UNL     1     -10.912  12.120  64.776  1.00  0.00    -0.291 OA 
HETATM   19  C   UNL     1      -9.616  13.210  66.521  1.00  0.00    -0.268 C  
HETATM   20  C   UNL     1      -9.134  12.039  67.382  1.00  0.00    -0.178 C  
HETATM   21  H   UNL     1     -10.631  12.766  64.140  1.00  0.00     0.000 HD 
HETATM   22  C   UNL     1      -7.978  12.016  68.068  1.00  0.00    -0.149 C  
BRANCH  19  23
HETATM   23  C   UNL     1      -9.673  14.549  67.264  1.00  0.00    -0.232 C  
HETATM   24  O   UNL     1     -10.299  15.558  66.482  1.00  0.00    -0.272 OA 
HETATM   25  H   UNL     1     -10.335  16.389  66.944  1.00  0.00     0.000 HD 
ENDBRANCH  19  23
ENDBRANCH  12  15
TORSDOF 2
ENDMDL
MODEL      101
REMARK 921   NORMALIZED FREE ENERGY PREDICTED BY IDOCK:   -4.62 KCAL/MOL
REMARK 922        TOTAL FREE ENERGY PREDICTED BY IDOCK:   -5.50 KCAL/MOL
REMARK 923 INTER-LIGAND FREE ENERGY PREDICTED BY IDOCK:   -5.45 KCAL/MOL
REMARK 924 INTRA-LIGAND FREE ENERGY PREDICTED BY IDOCK:   -0.05 KCAL/MOL
REMARK 927      BINDING AFFINITY PREDICTED BY RF-SCORE:    0.00 PKD
ROOT
HETATM    1  N   UNL     1     -10.643  11.311  63.738  1.00  0.00    -0.391 NA 
HETATM    2  C   UNL     1     -10.142  11.567  64.973  1.00  0.00    -0.270 C  
HETATM    3  H2  UNL     1     -10.788  10.345  63.444  1.00  0.00     0.000 HD 
HETATM    4  H1  UNL     1     -10.876  12.071  63.099  1.00  0.00     0.000 HD 
HETATM    5  N   UNL     1      -9.845  10.598  65.787  1.00  0.00    -0.227 N  
HETATM    6  C   UNL     1      -9.305  10.885  67.051  1.00  0.00    -0.163 C  
HETATM    7  H   UNL     1     -10.004   9.631  65.507  1.00  0.00     0.000 HD 
HETATM    8  C   UNL     1      -9.082  12.312  67.330  1.00  0.00    -0.184 A  
HETATM    9  O   UNL     1      -9.043  10.007  67.867  1.00  0.00    -0.131 OA 
HETATM   10  C   UNL     1      -9.444  13.241  66.392  1.00  0.00    -0.217 A  
HETATM   11  N   UNL     1     -10.000  12.907  65.219  1.00  0.00    -0.224 NA 
HETATM   12  N   UNL     1      -9.140  14.466  66.897  1.00  0.00    -0.241 NA 
HETATM   13  N   UNL     1      -8.535  12.945  68.423  1.00  0.00    -0.148 NA 
HETATM   14  C   UNL     1      -8.585  14.235  68.133  1.00  0.00    -0.172 A  
ENDROOT
BRANCH  12  15
HETATM   15  C   UNL     1      -9.456  15.741  66.290  1.00  0.00    -0.317 C  
HETATM   16  C   UNL     1     -10.736  16.393  66.813  1.00  0.00    -0.180 C  
HETATM   17  C   UNL     1     -10.659  17.778  66.185  1.00  0.00    -0.235 C  
HETATM   18  O   UNL     1     -11.022  17.667  64.805  1.00  0.00    -0.917 OA 
HETATM   19  C   UNL     1      -9.169  18.188  66.290  1.00  0.00    -0.213 C  
HETATM   20  C   UNL     1      -8.434  16.850  66.415  1.00  0.00    -0.325 C  
HETATM   21  H   UNL     1     -10.974  18.531  64.413  1.00  0.00     0.000 HD 
HETATM   22  C   UNL     1      -7.112  16.717  66.608  1.00  0.00    -0.257 C  
BRANCH  19  23
HETATM   23  C   UNL     1      -8.933  19.142  67.465  1.00  0.00    -0.295 C  
HETATM   24  O   UNL     1      -9.412  18.599  68.689  1.00  0.00    -0.342 OA 
HETATM   25  H   UNL     1      -9.265  19.192  69.418  1.00  0.00     0.000 HD 
ENDBRANCH  19  23
ENDBRANCH  12  15
TORSDOF 2
ENDMDL
MODEL      102
REMARK 921   NORMALIZED FREE ENERGY PREDICTED BY IDOCK:   -4.61 KCAL/MOL
REMARK 922        TOTAL FREE ENERGY PREDICTED BY IDOCK:   -5.48 KCAL/MOL
REMARK 923 INTER-LIGAND FREE ENERGY PREDICTED BY IDOCK:   -5.39 KCAL/MOL
REMARK 924 INTRA-LIGAND FREE ENERGY PREDICTED BY IDOCK:   -0.10 KCAL/MOL
REMARK 927      BINDING AFFINITY PREDICTED BY RF-SCORE:    0.00 PKD
ROOT
HETATM    1  N   UNL     1      -6.382  13.677  67.360  1.00  0.00    -0.411 NA 
HETATM    2  C   UNL     1      -7.357  12.753  67.162  1.00  0.00    -0.015 C  
HETATM    3  H2  UNL     1      -5.421  13.459  67.096  1.00  0.00     0.000 HD 
HETATM    4  H1  UNL     1      -6.599  14.586  67.768  1.00  0.00     0.000 HD 
HETATM    5  N   UNL     1      -7.080  11.594  66.642  1.00  0.00    -0.337 N  
HETATM    6  C   UNL     1      -8.099  10.642  66.469  1.00  0.00    -0.140 C  
HETATM    7  H   UNL     1      -6.125  11.376  66.360  1.00  0.00     0.000 HD 
HETATM    8  C   UNL     1      -9.429  11.052  66.948  1.00  0.00    -0.177 A  
HETATM    9  O   UNL     1      -7.895   9.550  65.949  1.00  0.00    -0.099 OA 
HETATM   10  C   UNL     1      -9.594  12.306  67.472  1.00  0.00    -0.184 A  
HETATM   11  N   UNL     1      -8.590  13.188  67.569  1.00  0.00    -0.184 NA 
HETATM   12  N   UNL     1     -10.901  12.427  67.827  1.00  0.00    -0.218 NA 
HETATM   13  N   UNL     1     -10.625  10.372  66.984  1.00  0.00    -0.251 NA 
HETATM   14  C   UNL     1     -11.487  11.224  67.515  1.00  0.00    -0.246 A  
ENDROOT
BRANCH  12  15
HETATM   15  C   UNL     1     -11.542  13.627  68.319  1.00  0.00    -0.339 C  
HETATM   16  C   UNL     1     -11.008  14.126  69.661  1.00  0.00    -0.125 C  
HETATM   17  C   UNL     1     -11.683  15.486  69.779  1.00  0.00    -0.349 C  
HETATM   18  O   UNL     1     -13.049  15.278  70.156  1.00  0.00    -0.648 OA 
HETATM   19  C   UNL     1     -11.633  16.088  68.353  1.00  0.00    -0.279 C  
HETATM   20  C   UNL     1     -11.482  14.863  67.448  1.00  0.00    -0.354 C  
HETATM   21  H   UNL     1     -13.471  16.126  70.229  1.00  0.00     0.000 HD 
HETATM   22  C   UNL     1     -11.320  14.909  66.115  1.00  0.00    -0.307 C  
BRANCH  19  23
HETATM   23  C   UNL     1     -10.497  17.108  68.217  1.00  0.00    -0.373 C  
HETATM   24  O   UNL     1     -10.832  18.152  67.311  1.00  0.00    -0.353 OA 
HETATM   25  H   UNL     1     -10.127  18.784  67.227  1.00  0.00     0.000 HD 
ENDBRANCH  19  23
ENDBRANCH  12  15
TORSDOF 2
ENDMDL
MODEL      103
REMARK 921   NORMALIZED FREE ENERGY PREDICTED BY IDOCK:   -4.60 KCAL/MOL
REMARK 922        TOTAL FREE ENERGY PREDICTED BY IDOCK:   -5.48 KCAL/MOL
REMARK 923 INTER-LIGAND FREE ENERGY PREDICTED BY IDOCK:   -5.29 KCAL/MOL
REMARK 924 INTRA-LIGAND FREE ENERGY PREDICTED BY IDOCK:   -0.19 KCAL/MOL
REMARK 927      BINDING AFFINITY PREDICTED BY RF-SCORE:    0.00 PKD
ROOT
HETATM    1  N   UNL     1     -12.132  11.109  70.661  1.00  0.00    -0.364 NA 
HETATM    2  C   UNL     1     -11.933  12.340  70.125  1.00  0.00    -0.298 C  
HETATM    3  H2  UNL     1     -12.750  11.005  71.467  1.00  0.00     0.000 HD 
HETATM    4  H1  UNL     1     -11.673  10.286  70.270  1.00  0.00     0.000 HD 
HETATM    5  N   UNL     1     -12.518  13.387  70.625  1.00  0.00    -0.334 N  
HETATM    6  C   UNL     1     -12.278  14.655  70.071  1.00  0.00    -0.333 C  
HETATM    7  H   UNL     1     -13.150  13.289  71.419  1.00  0.00     0.000 HD 
HETATM    8  C   UNL     1     -11.319  14.682  68.954  1.00  0.00    -0.283 A  
HETATM    9  O   UNL     1     -12.835  15.667  70.483  1.00  0.00    -0.445 OA 
HETATM   10  C   UNL     1     -10.774  13.506  68.513  1.00  0.00    -0.255 A  
HETATM   11  N   UNL     1     -11.078  12.319  69.056  1.00  0.00    -0.244 NA 
HETATM   12  N   UNL     1      -9.938  13.809  67.485  1.00  0.00    -0.230 NA 
HETATM   13  N   UNL     1     -10.818  15.731  68.218  1.00  0.00    -0.291 NA 
HETATM   14  C   UNL     1      -9.994  15.174  67.345  1.00  0.00    -0.226 A  
ENDROOT
BRANCH  12  15
HETATM   15  C   UNL     1      -9.236  12.859  66.650  1.00  0.00    -0.221 C  
HETATM   16  C   UNL     1      -8.454  11.794  67.419  1.00  0.00    -0.158 C  
HETATM   17  C   UNL     1      -8.051  10.837  66.305  1.00  0.00    -0.159 C  
HETATM   18  O   UNL     1      -6.962  11.423  65.582  1.00  0.00    -0.302 OA 
HETATM   19  C   UNL     1      -9.290  10.748  65.381  1.00  0.00    -0.243 C  
HETATM   20  C   UNL     1     -10.056  12.040  65.676  1.00  0.00    -0.272 C  
HETATM   21  H   UNL     1      -6.711  10.826  64.887  1.00  0.00     0.000 HD 
HETATM   22  C   UNL     1     -11.251  12.361  65.152  1.00  0.00    -0.356 C  
BRANCH  19  23
HETATM   23  C   UNL     1     -10.094   9.470  65.646  1.00  0.00    -0.087 C  
HETATM   24  O   UNL     1      -9.281   8.439  66.191  1.00  0.00    -0.189 OA 
HETATM   25  H   UNL     1      -9.780   7.647  66.355  1.00  0.00     0.000 HD 
ENDBRANCH  19  23
ENDBRANCH  12  15
TORSDOF 2
ENDMDL
MODEL      104
REMARK 921   NORMALIZED FREE ENERGY PREDICTED BY IDOCK:   -4.60 KCAL/MOL
REMARK 922        TOTAL FREE ENERGY PREDICTED BY IDOCK:   -5.47 KCAL/MOL
REMARK 923 INTER-LIGAND FREE ENERGY PREDICTED BY IDOCK:   -5.64 KCAL/MOL
REMARK 924 INTRA-LIGAND FREE ENERGY PREDICTED BY IDOCK:    0.17 KCAL/MOL
REMARK 927      BINDING AFFINITY PREDICTED BY RF-SCORE:    0.00 PKD
ROOT
HETATM    1  N   UNL     1     -10.971  14.036  69.470  1.00  0.00    -0.418 NA 
HETATM    2  C   UNL     1     -11.697  13.222  70.278  1.00  0.00    -0.143 C  
HETATM    3  H2  UNL     1     -11.170  15.037  69.453  1.00  0.00     0.000 HD 
HETATM    4  H1  UNL     1     -10.229  13.661  68.879  1.00  0.00     0.000 HD 
HETATM    5  N   UNL     1     -12.643  13.701  71.030  1.00  0.00    -0.361 N  
HETATM    6  C   UNL     1     -13.398  12.838  71.840  1.00  0.00    -0.413 C  
HETATM    7  H   UNL     1     -12.836  14.702  71.032  1.00  0.00     0.000 HD 
HETATM    8  C   UNL     1     -13.057  11.411  71.727  1.00  0.00    -0.418 A  
HETATM    9  O   UNL     1     -14.275  13.246  72.594  1.00  0.00    -0.724 OA 
HETATM   10  C   UNL     1     -12.033  11.032  70.902  1.00  0.00    -0.286 A  
HETATM   11  N   UNL     1     -11.316  11.910  70.187  1.00  0.00    -0.038 NA 
HETATM   12  N   UNL     1     -11.925   9.679  70.986  1.00  0.00    -0.322 NA 
HETATM   13  N   UNL     1     -13.610  10.299  72.321  1.00  0.00    -0.216 NA 
HETATM   14  C   UNL     1     -12.908   9.278  71.858  1.00  0.00    -0.404 A  
ENDROOT
BRANCH  12  15
HETATM   15  C   UNL     1     -10.901   8.866  70.367  1.00  0.00    -0.236 C  
HETATM   16  C   UNL     1     -10.386   9.403  69.032  1.00  0.00    -0.224 C  
HETATM   17  C   UNL     1      -9.191   8.496  68.771  1.00  0.00    -0.142 C  
HETATM   18  O   UNL     1      -9.679   7.228  68.319  1.00  0.00    -0.143 OA 
HETATM   19  C   UNL     1      -8.509   8.319  70.150  1.00  0.00    -0.126 C  
HETATM   20  C   UNL     1      -9.628   8.624  71.149  1.00  0.00    -0.281 C  
HETATM   21  H   UNL     1      -8.933   6.662  68.157  1.00  0.00     0.000 HD 
HETATM   22  C   UNL     1      -9.475   8.667  72.483  1.00  0.00    -0.247 C  
BRANCH  19  23
HETATM   23  C   UNL     1      -7.284   9.230  70.289  1.00  0.00    -0.087 C  
HETATM   24  O   UNL     1      -7.656  10.587  70.489  1.00  0.00    -0.410 OA 
HETATM   25  H   UNL     1      -6.896  11.151  70.576  1.00  0.00     0.000 HD 
ENDBRANCH  19  23
ENDBRANCH  12  15
TORSDOF 2
ENDMDL
MODEL      105
REMARK 921   NORMALIZED FREE ENERGY PREDICTED BY IDOCK:   -4.57 KCAL/MOL
REMARK 922        TOTAL FREE ENERGY PREDICTED BY IDOCK:   -5.44 KCAL/MOL
REMARK 923 INTER-LIGAND FREE ENERGY PREDICTED BY IDOCK:   -5.04 KCAL/MOL
REMARK 924 INTRA-LIGAND FREE ENERGY PREDICTED BY IDOCK:   -0.40 KCAL/MOL
REMARK 927      BINDING AFFINITY PREDICTED BY RF-SCORE:    0.00 PKD
ROOT
HETATM    1  N   UNL     1      -9.464   7.882  73.785  1.00  0.00    -0.326 NA 
HETATM    2  C   UNL     1      -9.720   7.461  72.520  1.00  0.00    -0.160 C  
HETATM    3  H2  UNL     1      -9.435   7.203  74.546  1.00  0.00     0.000 HD 
HETATM    4  H1  UNL     1      -9.300   8.869  73.985  1.00  0.00     0.000 HD 
HETATM    5  N   UNL     1      -9.930   6.204  72.266  1.00  0.00    -0.167 N  
HETATM    6  C   UNL     1     -10.218   5.793  70.954  1.00  0.00    -0.216 C  
HETATM    7  H   UNL     1      -9.885   5.517  73.018  1.00  0.00     0.000 HD 
HETATM    8  C   UNL     1     -10.295   6.875  69.959  1.00  0.00    -0.200 A  
HETATM    9  O   UNL     1     -10.386   4.615  70.657  1.00  0.00    -0.182 OA 
HETATM   10  C   UNL     1     -10.046   8.163  70.352  1.00  0.00    -0.194 A  
HETATM   11  N   UNL     1      -9.731   8.487  71.613  1.00  0.00    -0.225 NA 
HETATM   12  N   UNL     1     -10.177   8.953  69.253  1.00  0.00    -0.204 NA 
HETATM   13  N   UNL     1     -10.598   6.849  68.617  1.00  0.00    -0.215 NA 
HETATM   14  C   UNL     1     -10.518   8.110  68.223  1.00  0.00    -0.160 A  
ENDROOT
BRANCH  12  15
HETATM   15  C   UNL     1      -9.893  10.370  69.184  1.00  0.00    -0.223 C  
HETATM   16  C   UNL     1      -9.398  10.851  67.820  1.00  0.00    -0.162 C  
HETATM   17  C   UNL     1      -9.429  12.364  67.993  1.00  0.00    -0.208 C  
HETATM   18  O   UNL     1      -8.296  12.749  68.782  1.00  0.00    -0.346 OA 
HETATM   19  C   UNL     1     -10.726  12.654  68.787  1.00  0.00    -0.240 C  
HETATM   20  C   UNL     1     -11.023  11.328  69.492  1.00  0.00    -0.249 C  
HETATM   21  H   UNL     1      -8.316  13.692  68.890  1.00  0.00     0.000 HD 
HETATM   22  C   UNL     1     -12.111  11.085  70.242  1.00  0.00    -0.448 C  
BRANCH  19  23
HETATM   23  C   UNL     1     -11.850  13.136  67.863  1.00  0.00    -0.348 C  
HETATM   24  O   UNL     1     -12.501  14.289  68.383  1.00  0.00    -0.564 OA 
HETATM   25  H   UNL     1     -13.198  14.588  67.810  1.00  0.00     0.000 HD 
ENDBRANCH  19  23
ENDBRANCH  12  15
TORSDOF 2
ENDMDL
MODEL      106
REMARK 921   NORMALIZED FREE ENERGY PREDICTED BY IDOCK:   -4.57 KCAL/MOL
REMARK 922        TOTAL FREE ENERGY PREDICTED BY IDOCK:   -5.44 KCAL/MOL
REMARK 923 INTER-LIGAND FREE ENERGY PREDICTED BY IDOCK:   -5.11 KCAL/MOL
REMARK 924 INTRA-LIGAND FREE ENERGY PREDICTED BY IDOCK:   -0.33 KCAL/MOL
REMARK 927      BINDING AFFINITY PREDICTED BY RF-SCORE:    0.00 PKD
ROOT
HETATM    1  N   UNL     1      -6.704  10.222  63.807  1.00  0.00    -0.260 NA 
HETATM    2  C   UNL     1      -7.691   9.826  64.651  1.00  0.00    -0.136 C  
HETATM    3  H2  UNL     1      -6.040   9.535  63.451  1.00  0.00     0.000 HD 
HETATM    4  H1  UNL     1      -6.619  11.198  63.524  1.00  0.00     0.000 HD 
HETATM    5  N   UNL     1      -7.799   8.582  65.012  1.00  0.00    -0.105 N  
HETATM    6  C   UNL     1      -8.812   8.197  65.905  1.00  0.00    -0.158 C  
HETATM    7  H   UNL     1      -7.150   7.886  64.646  1.00  0.00     0.000 HD 
HETATM    8  C   UNL     1      -9.665   9.291  66.397  1.00  0.00    -0.258 A  
HETATM    9  O   UNL     1      -8.978   7.031  66.246  1.00  0.00    -0.150 OA 
HETATM   10  C   UNL     1      -9.455  10.562  65.935  1.00  0.00    -0.190 A  
HETATM   11  N   UNL     1      -8.498  10.859  65.044  1.00  0.00    -0.076 NA 
HETATM   12  N   UNL     1     -10.370  11.368  66.535  1.00  0.00    -0.228 NA 
HETATM   13  N   UNL     1     -10.703   9.291  67.301  1.00  0.00    -0.237 NA 
HETATM   14  C   UNL     1     -11.104  10.551  67.361  1.00  0.00    -0.252 A  
ENDROOT
BRANCH  12  15
HETATM   15  C   UNL     1     -10.584  12.771  66.256  1.00  0.00    -0.257 C  
HETATM   16  C   UNL     1     -12.053  13.178  66.141  1.00  0.00    -0.479 C  
HETATM   17  C   UNL     1     -11.954  14.697  66.097  1.00  0.00    -0.241 C  
HETATM   18  O   UNL     1     -11.521  15.080  64.786  1.00  0.00    -0.400 OA 
HETATM   19  C   UNL     1     -10.854  15.060  67.124  1.00  0.00    -0.314 C  
HETATM   20  C   UNL     1     -10.030  13.776  67.242  1.00  0.00    -0.239 C  
HETATM   21  H   UNL     1     -11.459  16.027  64.758  1.00  0.00     0.000 HD 
HETATM   22  C   UNL     1      -9.002  13.599  68.089  1.00  0.00    -0.191 C  
BRANCH  19  23
HETATM   23  C   UNL     1     -11.462  15.537  68.448  1.00  0.00    -0.363 C  
HETATM   24  O   UNL     1     -12.439  14.627  68.937  1.00  0.00    -0.576 OA 
HETATM   25  H   UNL     1     -12.816  14.922  69.758  1.00  0.00     0.000 HD 
ENDBRANCH  19  23
ENDBRANCH  12  15
TORSDOF 2
ENDMDL
MODEL      107
REMARK 921   NORMALIZED FREE ENERGY PREDICTED BY IDOCK:   -4.57 KCAL/MOL
REMARK 922        TOTAL FREE ENERGY PREDICTED BY IDOCK:   -5.44 KCAL/MOL
REMARK 923 INTER-LIGAND FREE ENERGY PREDICTED BY IDOCK:   -5.40 KCAL/MOL
REMARK 924 INTRA-LIGAND FREE ENERGY PREDICTED BY IDOCK:   -0.04 KCAL/MOL
REMARK 927      BINDING AFFINITY PREDICTED BY RF-SCORE:    0.00 PKD
ROOT
HETATM    1  N   UNL     1      -6.462  14.883  67.786  1.00  0.00    -0.158 NA 
HETATM    2  C   UNL     1      -7.622  15.182  67.147  1.00  0.00    -0.168 C  
HETATM    3  H2  UNL     1      -5.829  15.634  68.059  1.00  0.00     0.000 HD 
HETATM    4  H1  UNL     1      -6.216  13.916  67.997  1.00  0.00     0.000 HD 
HETATM    5  N   UNL     1      -7.935  16.415  66.877  1.00  0.00    -0.207 N  
HETATM    6  C   UNL     1      -9.127  16.701  66.193  1.00  0.00    -0.283 C  
HETATM    7  H   UNL     1      -7.315  17.173  67.162  1.00  0.00     0.000 HD 
HETATM    8  C   UNL     1      -9.922  15.527  65.797  1.00  0.00    -0.359 A  
HETATM    9  O   UNL     1      -9.484  17.849  65.949  1.00  0.00    -0.522 OA 
HETATM   10  C   UNL     1      -9.488  14.277  66.147  1.00  0.00    -0.222 A  
HETATM   11  N   UNL     1      -8.361  14.071  66.842  1.00  0.00    -0.096 NA 
HETATM   12  N   UNL     1     -10.396  13.385  65.670  1.00  0.00    -0.285 NA 
HETATM   13  N   UNL     1     -11.096  15.429  65.085  1.00  0.00    -0.393 NA 
HETATM   14  C   UNL     1     -11.354  14.132  65.028  1.00  0.00    -0.350 A  
ENDROOT
BRANCH  12  15
HETATM   15  C   UNL     1     -10.394  11.958  65.906  1.00  0.00    -0.242 C  
HETATM   16  C   UNL     1      -9.010  11.310  65.862  1.00  0.00    -0.206 C  
HETATM   17  C   UNL     1      -9.306   9.908  66.377  1.00  0.00    -0.167 C  
HETATM   18  O   UNL     1      -9.925   9.163  65.322  1.00  0.00    -0.397 OA 
HETATM   19  C   UNL     1     -10.322  10.105  67.528  1.00  0.00    -0.279 C  
HETATM   20  C   UNL     1     -10.959  11.463  67.220  1.00  0.00    -0.336 C  
HETATM   21  H   UNL     1     -10.110   8.289  65.643  1.00  0.00     0.000 HD 
HETATM   22  C   UNL     1     -11.856  12.085  68.003  1.00  0.00    -0.338 C  
BRANCH  19  23
HETATM   23  C   UNL     1      -9.637  10.033  68.897  1.00  0.00    -0.181 C  
HETATM   24  O   UNL     1     -10.479   9.438  69.877  1.00  0.00    -0.206 OA 
HETATM   25  H   UNL     1     -10.054   9.393  70.726  1.00  0.00     0.000 HD 
ENDBRANCH  19  23
ENDBRANCH  12  15
TORSDOF 2
ENDMDL
MODEL      108
REMARK 921   NORMALIZED FREE ENERGY PREDICTED BY IDOCK:   -4.55 KCAL/MOL
REMARK 922        TOTAL FREE ENERGY PREDICTED BY IDOCK:   -5.42 KCAL/MOL
REMARK 923 INTER-LIGAND FREE ENERGY PREDICTED BY IDOCK:   -5.06 KCAL/MOL
REMARK 924 INTRA-LIGAND FREE ENERGY PREDICTED BY IDOCK:   -0.35 KCAL/MOL
REMARK 927      BINDING AFFINITY PREDICTED BY RF-SCORE:    0.00 PKD
ROOT
HETATM    1  N   UNL     1      -9.062   9.014  72.072  1.00  0.00    -0.355 NA 
HETATM    2  C   UNL     1      -9.561   8.186  71.119  1.00  0.00    -0.160 C  
HETATM    3  H2  UNL     1      -9.017   8.697  73.041  1.00  0.00     0.000 HD 
HETATM    4  H1  UNL     1      -8.731   9.948  71.832  1.00  0.00     0.000 HD 
HETATM    5  N   UNL     1      -9.983   6.995  71.425  1.00  0.00    -0.185 N  
HETATM    6  C   UNL     1     -10.519   6.164  70.428  1.00  0.00    -0.230 C  
HETATM    7  H   UNL     1      -9.925   6.665  72.388  1.00  0.00     0.000 HD 
HETATM    8  C   UNL     1     -10.590   6.759  69.084  1.00  0.00    -0.232 A  
HETATM    9  O   UNL     1     -10.895   5.020  70.660  1.00  0.00    -0.074 OA 
HETATM   10  C   UNL     1     -10.105   8.025  68.888  1.00  0.00    -0.201 A  
HETATM   11  N   UNL     1      -9.561   8.752  69.873  1.00  0.00    -0.173 NA 
HETATM   12  N   UNL     1     -10.284   8.327  67.574  1.00  0.00    -0.223 NA 
HETATM   13  N   UNL     1     -11.091   6.265  67.901  1.00  0.00    -0.327 NA 
HETATM   14  C   UNL     1     -10.892   7.228  67.016  1.00  0.00    -0.280 A  
ENDROOT
BRANCH  12  15
HETATM   15  C   UNL     1      -9.816   9.519  66.903  1.00  0.00    -0.204 C  
HETATM   16  C   UNL     1      -9.550   9.342  65.408  1.00  0.00    -0.296 C  
HETATM   17  C   UNL     1      -9.321  10.779  64.959  1.00  0.00    -0.223 C  
HETATM   18  O   UNL     1      -8.005  11.172  65.366  1.00  0.00    -0.366 OA 
HETATM   19  C   UNL     1     -10.367  11.617  65.735  1.00  0.00    -0.292 C  
HETATM   20  C   UNL     1     -10.703  10.744  66.947  1.00  0.00    -0.309 C  
HETATM   21  H   UNL     1      -7.862  12.069  65.087  1.00  0.00     0.000 HD 
HETATM   22  C   UNL     1     -11.634  11.039  67.870  1.00  0.00    -0.306 C  
BRANCH  19  23
HETATM   23  C   UNL     1     -11.576  11.955  64.855  1.00  0.00    -0.226 C  
HETATM   24  O   UNL     1     -12.195  13.172  65.255  1.00  0.00    -0.401 OA 
HETATM   25  H   UNL     1     -12.944  13.381  64.709  1.00  0.00     0.000 HD 
ENDBRANCH  19  23
ENDBRANCH  12  15
TORSDOF 2
ENDMDL
MODEL      109
REMARK 921   NORMALIZED FREE ENERGY PREDICTED BY IDOCK:   -4.52 KCAL/MOL
REMARK 922        TOTAL FREE ENERGY PREDICTED BY IDOCK:   -5.38 KCAL/MOL
REMARK 923 INTER-LIGAND FREE ENERGY PREDICTED BY IDOCK:   -5.23 KCAL/MOL
REMARK 924 INTRA-LIGAND FREE ENERGY PREDICTED BY IDOCK:   -0.16 KCAL/MOL
REMARK 927      BINDING AFFINITY PREDICTED BY RF-SCORE:    0.00 PKD
ROOT
HETATM    1  N   UNL     1      -5.738  12.943  67.075  1.00  0.00    -0.431 NA 
HETATM    2  C   UNL     1      -6.575  11.877  67.000  1.00  0.00    -0.128 C  
HETATM    3  H2  UNL     1      -4.730  12.791  67.095  1.00  0.00     0.000 HD 
HETATM    4  H1  UNL     1      -6.104  13.894  67.113  1.00  0.00     0.000 HD 
HETATM    5  N   UNL     1      -6.108  10.665  66.952  1.00  0.00    -0.060 N  
HETATM    6  C   UNL     1      -6.992   9.575  66.899  1.00  0.00    -0.081 C  
HETATM    7  H   UNL     1      -5.101  10.506  66.954  1.00  0.00     0.000 HD 
HETATM    8  C   UNL     1      -8.422   9.922  66.942  1.00  0.00    -0.125 A  
HETATM    9  O   UNL     1      -6.600   8.416  66.816  1.00  0.00    -0.056 OA 
HETATM   10  C   UNL     1      -8.788  11.241  66.985  1.00  0.00    -0.153 A  
HETATM   11  N   UNL     1      -7.895  12.240  66.987  1.00  0.00    -0.145 NA 
HETATM   12  N   UNL     1     -10.147  11.282  67.012  1.00  0.00    -0.201 NA 
HETATM   13  N   UNL     1      -9.545   9.127  66.959  1.00  0.00    -0.160 NA 
HETATM   14  C   UNL     1     -10.562   9.973  66.999  1.00  0.00    -0.212 A  
ENDROOT
BRANCH  12  15
HETATM   15  C   UNL     1     -10.964  12.474  66.947  1.00  0.00    -0.257 C  
HETATM   16  C   UNL     1     -10.558  13.575  67.926  1.00  0.00    -0.255 C  
HETATM   17  C   UNL     1     -11.415  14.743  67.456  1.00  0.00    -0.354 C  
HETATM   18  O   UNL     1     -12.755  14.530  67.915  1.00  0.00    -0.263 OA 
HETATM   19  C   UNL     1     -11.387  14.668  65.910  1.00  0.00    -0.338 C  
HETATM   20  C   UNL     1     -11.035  13.206  65.624  1.00  0.00    -0.295 C  
HETATM   21  H   UNL     1     -13.290  15.258  67.621  1.00  0.00     0.000 HD 
HETATM   22  C   UNL     1     -10.826  12.692  64.401  1.00  0.00    -0.386 C  
BRANCH  19  23
HETATM   23  C   UNL     1     -10.395  15.676  65.319  1.00  0.00    -0.375 C  
HETATM   24  O   UNL     1     -10.855  16.206  64.082  1.00  0.00    -0.952 OA 
HETATM   25  H   UNL     1     -10.239  16.831  63.716  1.00  0.00     0.000 HD 
ENDBRANCH  19  23
ENDBRANCH  12  15
TORSDOF 2
ENDMDL
MODEL      110
REMARK 921   NORMALIZED FREE ENERGY PREDICTED BY IDOCK:   -4.51 KCAL/MOL
REMARK 922        TOTAL FREE ENERGY PREDICTED BY IDOCK:   -5.38 KCAL/MOL
REMARK 923 INTER-LIGAND FREE ENERGY PREDICTED BY IDOCK:   -5.44 KCAL/MOL
REMARK 924 INTRA-LIGAND FREE ENERGY PREDICTED BY IDOCK:    0.06 KCAL/MOL
REMARK 927      BINDING AFFINITY PREDICTED BY RF-SCORE:    0.00 PKD
ROOT
HETATM    1  N   UNL     1     -11.061  12.796  69.106  1.00  0.00    -0.385 NA 
HETATM    2  C   UNL     1     -11.301  12.693  67.774  1.00  0.00    -0.297 C  
HETATM    3  H2  UNL     1     -11.594  13.464  69.663  1.00  0.00     0.000 HD 
HETATM    4  H1  UNL     1     -10.355  12.214  69.557  1.00  0.00     0.000 HD 
HETATM    5  N   UNL     1     -12.201  13.435  67.200  1.00  0.00    -0.312 N  
HETATM    6  C   UNL     1     -12.417  13.330  65.816  1.00  0.00    -0.417 C  
HETATM    7  H   UNL     1     -12.750  14.092  67.753  1.00  0.00     0.000 HD 
HETATM    8  C   UNL     1     -11.540  12.379  65.114  1.00  0.00    -0.362 A  
HETATM    9  O   UNL     1     -13.279  13.981  65.235  1.00  0.00    -0.782 OA 
HETATM   10  C   UNL     1     -10.633  11.649  65.834  1.00  0.00    -0.271 A  
HETATM   11  N   UNL     1     -10.507  11.760  67.163  1.00  0.00    -0.215 NA 
HETATM   12  N   UNL     1      -9.966  10.854  64.956  1.00  0.00    -0.275 NA 
HETATM   13  N   UNL     1     -11.438  12.060  63.778  1.00  0.00    -0.426 NA 
HETATM   14  C   UNL     1     -10.486  11.143  63.717  1.00  0.00    -0.381 A  
ENDROOT
BRANCH  12  15
HETATM   15  C   UNL     1      -8.994   9.837  65.295  1.00  0.00    -0.193 C  
HETATM   16  C   UNL     1      -7.653  10.381  65.788  1.00  0.00    -0.147 C  
HETATM   17  C   UNL     1      -6.966   9.115  66.282  1.00  0.00    -0.086 C  
HETATM   18  O   UNL     1      -6.497   8.385  65.143  1.00  0.00    -0.055 OA 
HETATM   19  C   UNL     1      -8.077   8.301  66.989  1.00  0.00    -0.104 C  
HETATM   20  C   UNL     1      -9.369   8.838  66.368  1.00  0.00    -0.264 C  
HETATM   21  H   UNL     1      -6.068   7.595  65.452  1.00  0.00     0.000 HD 
HETATM   22  C   UNL     1     -10.608   8.471  66.737  1.00  0.00    -0.227 C  
BRANCH  19  23
HETATM   23  C   UNL     1      -8.004   8.459  68.512  1.00  0.00    -0.121 C  
HETATM   24  O   UNL     1      -8.657   9.644  68.950  1.00  0.00    -0.119 OA 
HETATM   25  H   UNL     1      -8.611   9.742  69.895  1.00  0.00     0.000 HD 
ENDBRANCH  19  23
ENDBRANCH  12  15
TORSDOF 2
ENDMDL
MODEL      111
REMARK 921   NORMALIZED FREE ENERGY PREDICTED BY IDOCK:   -4.51 KCAL/MOL
REMARK 922        TOTAL FREE ENERGY PREDICTED BY IDOCK:   -5.37 KCAL/MOL
REMARK 923 INTER-LIGAND FREE ENERGY PREDICTED BY IDOCK:   -6.00 KCAL/MOL
REMARK 924 INTRA-LIGAND FREE ENERGY PREDICTED BY IDOCK:    0.63 KCAL/MOL
REMARK 927      BINDING AFFINITY PREDICTED BY RF-SCORE:    0.00 PKD
ROOT
HETATM    1  N   UNL     1     -12.386  12.953  65.755  1.00  0.00    -0.550 NA 
HETATM    2  C   UNL     1     -11.408  12.061  66.055  1.00  0.00    -0.343 C  
HETATM    3  H2  UNL     1     -12.459  13.319  64.805  1.00  0.00     0.000 HD 
HETATM    4  H1  UNL     1     -13.049  13.261  66.465  1.00  0.00     0.000 HD 
HETATM    5  N   UNL     1     -10.562  11.668  65.149  1.00  0.00    -0.280 N  
HETATM    6  C   UNL     1      -9.543  10.764  65.487  1.00  0.00    -0.222 C  
HETATM    7  H   UNL     1     -10.640  12.016  64.194  1.00  0.00     0.000 HD 
HETATM    8  C   UNL     1      -9.504  10.361  66.902  1.00  0.00    -0.168 A  
HETATM    9  O   UNL     1      -8.745  10.336  64.661  1.00  0.00    -0.170 OA 
HETATM   10  C   UNL     1     -10.457  10.840  67.760  1.00  0.00    -0.208 A  
HETATM   11  N   UNL     1     -11.436  11.666  67.366  1.00  0.00    -0.453 NA 
HETATM   12  N   UNL     1     -10.198  10.314  68.987  1.00  0.00    -0.197 NA 
HETATM   13  N   UNL     1      -8.631   9.545  67.587  1.00  0.00    -0.122 NA 
HETATM   14  C   UNL     1      -9.076   9.537  68.833  1.00  0.00    -0.141 A  
ENDROOT
BRANCH  12  15
HETATM   15  C   UNL     1     -11.020  10.464  70.169  1.00  0.00    -0.300 C  
HETATM   16  C   UNL     1     -12.523  10.367  69.912  1.00  0.00    -0.123 C  
HETATM   17  C   UNL     1     -13.079  10.314  71.329  1.00  0.00    -0.398 C  
HETATM   18  O   UNL     1     -13.039  11.637  71.876  1.00  0.00    -0.478 OA 
HETATM   19  C   UNL     1     -12.100   9.407  72.114  1.00  0.00    -0.293 C  
HETATM   20  C   UNL     1     -10.805   9.484  71.301  1.00  0.00    -0.413 C  
HETATM   21  H   UNL     1     -13.385  11.604  72.760  1.00  0.00     0.000 HD 
HETATM   22  C   UNL     1      -9.689   8.785  71.569  1.00  0.00    -0.361 C  
BRANCH  19  23
HETATM   23  C   UNL     1     -12.657   7.987  72.269  1.00  0.00    -0.232 C  
HETATM   24  O   UNL     1     -14.078   7.971  72.232  1.00  0.00    -0.547 OA 
HETATM   25  H   UNL     1     -14.423   7.090  72.328  1.00  0.00     0.000 HD 
ENDBRANCH  19  23
ENDBRANCH  12  15
TORSDOF 2
ENDMDL
MODEL      112
REMARK 921   NORMALIZED FREE ENERGY PREDICTED BY IDOCK:   -4.50 KCAL/MOL
REMARK 922        TOTAL FREE ENERGY PREDICTED BY IDOCK:   -5.36 KCAL/MOL
REMARK 923 INTER-LIGAND FREE ENERGY PREDICTED BY IDOCK:   -5.84 KCAL/MOL
REMARK 924 INTRA-LIGAND FREE ENERGY PREDICTED BY IDOCK:    0.48 KCAL/MOL
REMARK 927      BINDING AFFINITY PREDICTED BY RF-SCORE:    0.00 PKD
ROOT
HETATM    1  N   UNL     1     -10.278  20.145  65.415  1.00  0.00    -0.353 NA 
HETATM    2  C   UNL     1      -9.401  19.647  66.324  1.00  0.00    -0.383 C  
HETATM    3  H2  UNL     1     -10.169  21.104  65.083  1.00  0.00     0.000 HD 
HETATM    4  H1  UNL     1     -11.044  19.573  65.059  1.00  0.00     0.000 HD 
HETATM    5  N   UNL     1      -8.425  20.377  66.777  1.00  0.00    -0.511 N  
HETATM    6  C   UNL     1      -7.544  19.851  67.736  1.00  0.00    -0.287 C  
HETATM    7  H   UNL     1      -8.300  21.330  66.438  1.00  0.00     0.000 HD 
HETATM    8  C   UNL     1      -7.845  18.480  68.181  1.00  0.00    -0.290 A  
HETATM    9  O   UNL     1      -6.587  20.486  68.166  1.00  0.00    -0.286 OA 
HETATM   10  C   UNL     1      -8.900  17.812  67.621  1.00  0.00    -0.248 A  
HETATM   11  N   UNL     1      -9.679  18.353  66.674  1.00  0.00    -0.321 NA 
HETATM   12  N   UNL     1      -8.952  16.582  68.198  1.00  0.00    -0.202 NA 
HETATM   13  N   UNL     1      -7.238  17.682  69.124  1.00  0.00    -0.204 NA 
HETATM   14  C   UNL     1      -7.924  16.551  69.109  1.00  0.00    -0.182 A  
ENDROOT
BRANCH  12  15
HETATM   15  C   UNL     1      -9.842  15.504  67.827  1.00  0.00    -0.213 C  
HETATM   16  C   UNL     1     -11.001  15.922  66.921  1.00  0.00    -0.172 C  
HETATM   17  C   UNL     1     -11.586  14.574  66.521  1.00  0.00    -0.371 C  
HETATM   18  O   UNL     1     -12.347  14.069  67.625  1.00  0.00    -0.526 OA 
HETATM   19  C   UNL     1     -10.362  13.656  66.282  1.00  0.00    -0.293 C  
HETATM   20  C   UNL     1      -9.247  14.323  67.092  1.00  0.00    -0.230 C  
HETATM   21  H   UNL     1     -12.712  13.228  67.376  1.00  0.00     0.000 HD 
HETATM   22  C   UNL     1      -7.968  13.910  67.121  1.00  0.00    -0.072 C  
BRANCH  19  23
HETATM   23  C   UNL     1     -10.051  13.516  64.788  1.00  0.00    -0.240 C  
HETATM   24  O   UNL     1      -9.713  12.179  64.443  1.00  0.00    -0.456 OA 
HETATM   25  H   UNL     1      -9.520  12.093  63.516  1.00  0.00     0.000 HD 
ENDBRANCH  19  23
ENDBRANCH  12  15
TORSDOF 2
ENDMDL
MODEL      113
REMARK 921   NORMALIZED FREE ENERGY PREDICTED BY IDOCK:   -4.50 KCAL/MOL
REMARK 922        TOTAL FREE ENERGY PREDICTED BY IDOCK:   -5.36 KCAL/MOL
REMARK 923 INTER-LIGAND FREE ENERGY PREDICTED BY IDOCK:   -5.05 KCAL/MOL
REMARK 924 INTRA-LIGAND FREE ENERGY PREDICTED BY IDOCK:   -0.30 KCAL/MOL
REMARK 927      BINDING AFFINITY PREDICTED BY RF-SCORE:    0.00 PKD
ROOT
HETATM    1  N   UNL     1      -6.623  11.424  68.415  1.00  0.00    -0.060 NA 
HETATM    2  C   UNL     1      -7.668  11.723  67.602  1.00  0.00    -0.137 C  
HETATM    3  H2  UNL     1      -6.288  10.462  68.470  1.00  0.00     0.000 HD 
HETATM    4  H1  UNL     1      -6.168  12.148  68.970  1.00  0.00     0.000 HD 
HETATM    5  N   UNL     1      -8.248  10.799  66.894  1.00  0.00    -0.126 N  
HETATM    6  C   UNL     1      -9.343  11.125  66.078  1.00  0.00    -0.206 C  
HETATM    7  H   UNL     1      -7.907   9.839  66.931  1.00  0.00     0.000 HD 
HETATM    8  C   UNL     1      -9.772  12.532  66.134  1.00  0.00    -0.254 A  
HETATM    9  O   UNL     1      -9.900  10.297  65.364  1.00  0.00    -0.255 OA 
HETATM   10  C   UNL     1      -9.073  13.413  66.916  1.00  0.00    -0.231 A  
HETATM   11  N   UNL     1      -8.004  13.049  67.638  1.00  0.00    -0.155 NA 
HETATM   12  N   UNL     1      -9.667  14.629  66.784  1.00  0.00    -0.247 NA 
HETATM   13  N   UNL     1     -10.817  13.184  65.520  1.00  0.00    -0.280 NA 
HETATM   14  C   UNL     1     -10.725  14.439  65.929  1.00  0.00    -0.306 A  
ENDROOT
BRANCH  12  15
HETATM   15  C   UNL     1      -9.191  15.875  67.345  1.00  0.00    -0.201 C  
HETATM   16  C   UNL     1      -8.671  16.877  66.314  1.00  0.00    -0.321 C  
HETATM   17  C   UNL     1      -8.486  18.128  67.162  1.00  0.00    -0.243 C  
HETATM   18  O   UNL     1      -7.290  17.975  67.934  1.00  0.00    -0.215 OA 
HETATM   19  C   UNL     1      -9.708  18.158  68.112  1.00  0.00    -0.331 C  
HETATM   20  C   UNL     1     -10.167  16.698  68.156  1.00  0.00    -0.280 C  
HETATM   21  H   UNL     1      -7.174  18.755  68.463  1.00  0.00     0.000 HD 
HETATM   22  C   UNL     1     -11.257  16.256  68.806  1.00  0.00    -0.343 C  
BRANCH  19  23
HETATM   23  C   UNL     1     -10.779  19.135  67.616  1.00  0.00    -0.417 C  
HETATM   24  O   UNL     1     -10.238  20.103  66.726  1.00  0.00    -0.445 OA 
HETATM   25  H   UNL     1     -10.902  20.708  66.418  1.00  0.00     0.000 HD 
ENDBRANCH  19  23
ENDBRANCH  12  15
TORSDOF 2
ENDMDL
MODEL      114
REMARK 921   NORMALIZED FREE ENERGY PREDICTED BY IDOCK:   -4.48 KCAL/MOL
REMARK 922        TOTAL FREE ENERGY PREDICTED BY IDOCK:   -5.34 KCAL/MOL
REMARK 923 INTER-LIGAND FREE ENERGY PREDICTED BY IDOCK:   -5.26 KCAL/MOL
REMARK 924 INTRA-LIGAND FREE ENERGY PREDICTED BY IDOCK:   -0.08 KCAL/MOL
REMARK 927      BINDING AFFINITY PREDICTED BY RF-SCORE:    0.00 PKD
ROOT
HETATM    1  N   UNL     1     -11.784  15.705  70.186  1.00  0.00    -0.333 NA 
HETATM    2  C   UNL     1     -10.949  16.414  69.384  1.00  0.00    -0.325 C  
HETATM    3  H2  UNL     1     -12.114  16.116  71.058  1.00  0.00     0.000 HD 
HETATM    4  H1  UNL     1     -12.085  14.765  69.927  1.00  0.00     0.000 HD 
HETATM    5  N   UNL     1     -10.566  17.612  69.715  1.00  0.00    -0.110 N  
HETATM    6  C   UNL     1      -9.682  18.319  68.883  1.00  0.00    -0.283 C  
HETATM    7  H   UNL     1     -10.906  18.037  70.577  1.00  0.00     0.000 HD 
HETATM    8  C   UNL     1      -9.227  17.592  67.687  1.00  0.00    -0.243 A  
HETATM    9  O   UNL     1      -9.321  19.464  69.133  1.00  0.00    -0.341 OA 
HETATM   10  C   UNL     1      -9.710  16.334  67.445  1.00  0.00    -0.234 A  
HETATM   11  N   UNL     1     -10.590  15.729  68.255  1.00  0.00    -0.261 NA 
HETATM   12  N   UNL     1      -9.142  15.898  66.290  1.00  0.00    -0.316 NA 
HETATM   13  N   UNL     1      -8.341  17.947  66.696  1.00  0.00    -0.252 NA 
HETATM   14  C   UNL     1      -8.313  16.911  65.873  1.00  0.00     0.022 A  
ENDROOT
BRANCH  12  15
HETATM   15  C   UNL     1      -9.453  14.665  65.600  1.00  0.00    -0.064 C  
HETATM   16  C   UNL     1      -9.552  13.438  66.507  1.00  0.00    -0.277 C  
HETATM   17  C   UNL     1     -10.115  12.391  65.555  1.00  0.00    -0.267 C  
HETATM   18  O   UNL     1      -9.055  11.943  64.703  1.00  0.00    -0.393 OA 
HETATM   19  C   UNL     1     -11.171  13.142  64.707  1.00  0.00    -0.347 C  
HETATM   20  C   UNL     1     -10.742  14.608  64.810  1.00  0.00    -0.399 C  
HETATM   21  H   UNL     1      -9.407  11.290  64.109  1.00  0.00     0.000 HD 
HETATM   22  C   UNL     1     -11.418  15.644  64.285  1.00  0.00    -0.199 C  
BRANCH  19  23
HETATM   23  C   UNL     1     -12.592  12.869  65.213  1.00  0.00    -0.439 C  
HETATM   24  O   UNL     1     -12.776  13.340  66.543  1.00  0.00    -0.202 OA 
HETATM   25  H   UNL     1     -13.657  13.171  66.856  1.00  0.00     0.000 HD 
ENDBRANCH  19  23
ENDBRANCH  12  15
TORSDOF 2
ENDMDL
MODEL      115
REMARK 921   NORMALIZED FREE ENERGY PREDICTED BY IDOCK:   -4.45 KCAL/MOL
REMARK 922        TOTAL FREE ENERGY PREDICTED BY IDOCK:   -5.31 KCAL/MOL
REMARK 923 INTER-LIGAND FREE ENERGY PREDICTED BY IDOCK:   -5.18 KCAL/MOL
REMARK 924 INTRA-LIGAND FREE ENERGY PREDICTED BY IDOCK:   -0.13 KCAL/MOL
REMARK 927      BINDING AFFINITY PREDICTED BY RF-SCORE:    0.00 PKD
ROOT
HETATM    1  N   UNL     1     -11.403  12.600  69.925  1.00  0.00    -0.505 NA 
HETATM    2  C   UNL     1     -11.244  13.246  68.742  1.00  0.00    -0.276 C  
HETATM    3  H2  UNL     1     -12.279  12.116  70.121  1.00  0.00     0.000 HD 
HETATM    4  H1  UNL     1     -10.657  12.592  70.621  1.00  0.00     0.000 HD 
HETATM    5  N   UNL     1     -12.195  13.256  67.856  1.00  0.00    -0.200 N  
HETATM    6  C   UNL     1     -12.020  13.951  66.648  1.00  0.00    -0.442 C  
HETATM    7  H   UNL     1     -13.067  12.759  68.037  1.00  0.00     0.000 HD 
HETATM    8  C   UNL     1     -10.739  14.662  66.512  1.00  0.00    -0.312 A  
HETATM    9  O   UNL     1     -12.872  13.959  65.766  1.00  0.00    -0.501 OA 
HETATM   10  C   UNL     1      -9.813  14.569  67.516  1.00  0.00    -0.222 A  
HETATM   11  N   UNL     1     -10.021  13.850  68.628  1.00  0.00    -0.218 NA 
HETATM   12  N   UNL     1      -8.733  15.304  67.140  1.00  0.00    -0.196 NA 
HETATM   13  N   UNL     1     -10.255  15.469  65.508  1.00  0.00    -0.367 NA 
HETATM   14  C   UNL     1      -9.050  15.837  65.914  1.00  0.00    -0.265 A  
ENDROOT
BRANCH  12  15
HETATM   15  C   UNL     1      -7.475  15.395  67.849  1.00  0.00    -0.140 C  
HETATM   16  C   UNL     1      -7.577  16.012  69.244  1.00  0.00    -0.230 C  
HETATM   17  C   UNL     1      -6.187  15.747  69.805  1.00  0.00    -0.172 C  
HETATM   18  O   UNL     1      -5.279  16.687  69.219  1.00  0.00    -0.126 OA 
HETATM   19  C   UNL     1      -5.823  14.320  69.326  1.00  0.00    -0.088 C  
HETATM   20  C   UNL     1      -6.717  14.110  68.102  1.00  0.00    -0.125 C  
HETATM   21  H   UNL     1      -4.411  16.521  69.569  1.00  0.00     0.000 HD 
HETATM   22  C   UNL     1      -6.798  12.969  67.397  1.00  0.00    -0.126 C  
BRANCH  19  23
HETATM   23  C   UNL     1      -6.035  13.286  70.438  1.00  0.00    -0.124 C  
HETATM   24  O   UNL     1      -6.272  13.906  71.696  1.00  0.00    -0.543 OA 
HETATM   25  H   UNL     1      -6.403  13.265  72.385  1.00  0.00     0.000 HD 
ENDBRANCH  19  23
ENDBRANCH  12  15
TORSDOF 2
ENDMDL
MODEL      116
REMARK 921   NORMALIZED FREE ENERGY PREDICTED BY IDOCK:   -4.44 KCAL/MOL
REMARK 922        TOTAL FREE ENERGY PREDICTED BY IDOCK:   -5.30 KCAL/MOL
REMARK 923 INTER-LIGAND FREE ENERGY PREDICTED BY IDOCK:   -5.33 KCAL/MOL
REMARK 924 INTRA-LIGAND FREE ENERGY PREDICTED BY IDOCK:    0.03 KCAL/MOL
REMARK 927      BINDING AFFINITY PREDICTED BY RF-SCORE:    0.00 PKD
ROOT
HETATM    1  N   UNL     1      -7.458  13.418  66.800  1.00  0.00    -0.144 NA 
HETATM    2  C   UNL     1      -8.443  14.285  67.148  1.00  0.00    -0.200 C  
HETATM    3  H2  UNL     1      -7.701  12.466  66.523  1.00  0.00     0.000 HD 
HETATM    4  H1  UNL     1      -6.480  13.704  66.811  1.00  0.00     0.000 HD 
HETATM    5  N   UNL     1      -9.690  13.919  67.133  1.00  0.00    -0.237 N  
HETATM    6  C   UNL     1     -10.691  14.825  67.521  1.00  0.00    -0.269 C  
HETATM    7  H   UNL     1      -9.941  12.975  66.841  1.00  0.00     0.000 HD 
HETATM    8  C   UNL     1     -10.208  16.144  67.960  1.00  0.00    -0.252 A  
HETATM    9  O   UNL     1     -11.883  14.539  67.488  1.00  0.00    -0.378 OA 
HETATM   10  C   UNL     1      -8.866  16.411  67.923  1.00  0.00    -0.184 A  
HETATM   11  N   UNL     1      -7.962  15.518  67.498  1.00  0.00    -0.153 NA 
HETATM   12  N   UNL     1      -8.695  17.684  68.370  1.00  0.00    -0.279 NA 
HETATM   13  N   UNL     1     -10.887  17.239  68.445  1.00  0.00    -0.325 NA 
HETATM   14  C   UNL     1      -9.951  18.145  68.680  1.00  0.00    -0.395 A  
ENDROOT
BRANCH  12  15
HETATM   15  C   UNL     1      -7.449  18.419  68.392  1.00  0.00    -0.286 C  
HETATM   16  C   UNL     1      -7.599  19.913  68.675  1.00  0.00    -0.251 C  
HETATM   17  C   UNL     1      -6.151  20.340  68.874  1.00  0.00    -0.321 C  
HETATM   18  O   UNL     1      -5.527  20.426  67.588  1.00  0.00    -0.178 OA 
HETATM   19  C   UNL     1      -5.498  19.192  69.683  1.00  0.00    -0.219 C  
HETATM   20  C   UNL     1      -6.398  17.988  69.392  1.00  0.00    -0.243 C  
HETATM   21  H   UNL     1      -4.624  20.692  67.712  1.00  0.00     0.000 HD 
HETATM   22  C   UNL     1      -6.257  16.774  69.949  1.00  0.00    -0.149 C  
BRANCH  19  23
HETATM   23  C   UNL     1      -5.391  19.547  71.170  1.00  0.00    -0.284 C  
HETATM   24  O   UNL     1      -5.938  20.830  71.447  1.00  0.00    -0.584 OA 
HETATM   25  H   UNL     1      -5.871  21.049  72.369  1.00  0.00     0.000 HD 
ENDBRANCH  19  23
ENDBRANCH  12  15
TORSDOF 2
ENDMDL
MODEL      117
REMARK 921   NORMALIZED FREE ENERGY PREDICTED BY IDOCK:   -4.44 KCAL/MOL
REMARK 922        TOTAL FREE ENERGY PREDICTED BY IDOCK:   -5.30 KCAL/MOL
REMARK 923 INTER-LIGAND FREE ENERGY PREDICTED BY IDOCK:   -4.94 KCAL/MOL
REMARK 924 INTRA-LIGAND FREE ENERGY PREDICTED BY IDOCK:   -0.36 KCAL/MOL
REMARK 927      BINDING AFFINITY PREDICTED BY RF-SCORE:    0.00 PKD
ROOT
HETATM    1  N   UNL     1     -11.665  12.964  70.244  1.00  0.00    -0.544 NA 
HETATM    2  C   UNL     1     -11.428  12.224  69.130  1.00  0.00    -0.296 C  
HETATM    3  H2  UNL     1     -11.875  13.958  70.152  1.00  0.00     0.000 HD 
HETATM    4  H1  UNL     1     -11.637  12.538  71.170  1.00  0.00     0.000 HD 
HETATM    5  N   UNL     1     -11.464  12.767  67.949  1.00  0.00    -0.295 N  
HETATM    6  C   UNL     1     -11.191  11.990  66.812  1.00  0.00    -0.322 C  
HETATM    7  H   UNL     1     -11.690  13.756  67.849  1.00  0.00     0.000 HD 
HETATM    8  C   UNL     1     -10.839  10.586  67.080  1.00  0.00    -0.259 A  
HETATM    9  O   UNL     1     -11.249  12.447  65.676  1.00  0.00    -0.298 OA 
HETATM   10  C   UNL     1     -10.843  10.131  68.371  1.00  0.00    -0.242 A  
HETATM   11  N   UNL     1     -11.158  10.912  69.414  1.00  0.00    -0.241 NA 
HETATM   12  N   UNL     1     -10.493   8.817  68.338  1.00  0.00    -0.200 NA 
HETATM   13  N   UNL     1     -10.471   9.568  66.230  1.00  0.00    -0.139 NA 
HETATM   14  C   UNL     1     -10.271   8.521  67.015  1.00  0.00    -0.301 A  
ENDROOT
BRANCH  12  15
HETATM   15  C   UNL     1     -10.478   7.911  69.466  1.00  0.00    -0.226 C  
HETATM   16  C   UNL     1     -11.129   6.554  69.196  1.00  0.00    -0.387 C  
HETATM   17  C   UNL     1     -10.745   5.770  70.444  1.00  0.00    -0.302 C  
HETATM   18  O   UNL     1     -11.584   6.201  71.521  1.00  0.00    -0.295 OA 
HETATM   19  C   UNL     1      -9.281   6.177  70.742  1.00  0.00    -0.163 C  
HETATM   20  C   UNL     1      -9.133   7.532  70.045  1.00  0.00    -0.148 C  
HETATM   21  H   UNL     1     -11.344   5.713  72.300  1.00  0.00     0.000 HD 
HETATM   22  C   UNL     1      -7.991   8.237  69.973  1.00  0.00    -0.104 C  
BRANCH  19  23
HETATM   23  C   UNL     1      -8.293   5.112  70.253  1.00  0.00    -0.097 C  
HETATM   24  O   UNL     1      -8.273   5.026  68.834  1.00  0.00    -0.084 OA 
HETATM   25  H   UNL     1      -7.660   4.365  68.530  1.00  0.00     0.000 HD 
ENDBRANCH  19  23
ENDBRANCH  12  15
TORSDOF 2
ENDMDL
MODEL      118
REMARK 921   NORMALIZED FREE ENERGY PREDICTED BY IDOCK:   -4.42 KCAL/MOL
REMARK 922        TOTAL FREE ENERGY PREDICTED BY IDOCK:   -5.27 KCAL/MOL
REMARK 923 INTER-LIGAND FREE ENERGY PREDICTED BY IDOCK:   -5.20 KCAL/MOL
REMARK 924 INTRA-LIGAND FREE ENERGY PREDICTED BY IDOCK:   -0.07 KCAL/MOL
REMARK 927      BINDING AFFINITY PREDICTED BY RF-SCORE:    0.00 PKD
ROOT
HETATM    1  N   UNL     1     -12.234  12.224  64.192  1.00  0.00    -0.436 NA 
HETATM    2  C   UNL     1     -11.340  13.020  64.832  1.00  0.00    -0.303 C  
HETATM    3  H2  UNL     1     -12.844  12.625  63.478  1.00  0.00     0.000 HD 
HETATM    4  H1  UNL     1     -12.304  11.231  64.414  1.00  0.00     0.000 HD 
HETATM    5  N   UNL     1     -11.251  14.285  64.548  1.00  0.00    -0.547 N  
HETATM    6  C   UNL     1     -10.337  15.096  65.240  1.00  0.00    -0.396 C  
HETATM    7  H   UNL     1     -11.845  14.689  63.824  1.00  0.00     0.000 HD 
HETATM    8  C   UNL     1      -9.561  14.415  66.289  1.00  0.00    -0.298 A  
HETATM    9  O   UNL     1     -10.189  16.286  64.983  1.00  0.00    -0.553 OA 
HETATM   10  C   UNL     1      -9.741  13.072  66.488  1.00  0.00    -0.266 A  
HETATM   11  N   UNL     1     -10.599  12.342  65.762  1.00  0.00    -0.247 NA 
HETATM   12  N   UNL     1      -8.911  12.698  67.497  1.00  0.00    -0.175 NA 
HETATM   13  N   UNL     1      -8.630  14.895  67.181  1.00  0.00    -0.211 NA 
HETATM   14  C   UNL     1      -8.259  13.842  67.890  1.00  0.00    -0.166 A  
ENDROOT
BRANCH  12  15
HETATM   15  C   UNL     1      -8.691  11.346  67.963  1.00  0.00    -0.148 C  
HETATM   16  C   UNL     1      -9.917  10.686  68.593  1.00  0.00    -0.188 C  
HETATM   17  C   UNL     1      -9.451   9.244  68.746  1.00  0.00    -0.150 C  
HETATM   18  O   UNL     1      -8.567   9.174  69.871  1.00  0.00    -0.125 OA 
HETATM   19  C   UNL     1      -8.657   8.936  67.453  1.00  0.00    -0.119 C  
HETATM   20  C   UNL     1      -8.237  10.319  66.949  1.00  0.00    -0.123 C  
HETATM   21  H   UNL     1      -8.276   8.275  69.966  1.00  0.00     0.000 HD 
HETATM   22  C   UNL     1      -7.583  10.550  65.798  1.00  0.00    -0.142 C  
BRANCH  19  23
HETATM   23  C   UNL     1      -9.503   8.138  66.454  1.00  0.00    -0.218 C  
HETATM   24  O   UNL     1     -10.780   7.811  66.988  1.00  0.00    -0.386 OA 
HETATM   25  H   UNL     1     -11.304   7.316  66.368  1.00  0.00     0.000 HD 
ENDBRANCH  19  23
ENDBRANCH  12  15
TORSDOF 2
ENDMDL
MODEL      119
REMARK 921   NORMALIZED FREE ENERGY PREDICTED BY IDOCK:   -4.40 KCAL/MOL
REMARK 922        TOTAL FREE ENERGY PREDICTED BY IDOCK:   -5.25 KCAL/MOL
REMARK 923 INTER-LIGAND FREE ENERGY PREDICTED BY IDOCK:   -5.38 KCAL/MOL
REMARK 924 INTRA-LIGAND FREE ENERGY PREDICTED BY IDOCK:    0.13 KCAL/MOL
REMARK 927      BINDING AFFINITY PREDICTED BY RF-SCORE:    0.00 PKD
ROOT
HETATM    1  N   UNL     1      -9.030   7.182  66.988  1.00  0.00    -0.126 NA 
HETATM    2  C   UNL     1      -9.049   8.090  65.978  1.00  0.00    -0.142 C  
HETATM    3  H2  UNL     1      -8.616   6.263  66.831  1.00  0.00     0.000 HD 
HETATM    4  H1  UNL     1      -9.425   7.407  67.901  1.00  0.00     0.000 HD 
HETATM    5  N   UNL     1      -8.546   7.803  64.814  1.00  0.00    -0.379 N  
HETATM    6  C   UNL     1      -8.597   8.747  63.777  1.00  0.00    -0.042 C  
HETATM    7  H   UNL     1      -8.114   6.893  64.655  1.00  0.00     0.000 HD 
HETATM    8  C   UNL     1      -9.278  10.009  64.109  1.00  0.00    -0.271 A  
HETATM    9  O   UNL     1      -8.104   8.538  62.673  1.00  0.00    -0.158 OA 
HETATM   10  C   UNL     1      -9.761  10.195  65.376  1.00  0.00    -0.291 A  
HETATM   11  N   UNL     1      -9.640   9.271  66.339  1.00  0.00    -0.217 NA 
HETATM   12  N   UNL     1     -10.329  11.429  65.416  1.00  0.00    -0.268 NA 
HETATM   13  N   UNL     1      -9.553  11.118  63.340  1.00  0.00    -0.297 NA 
HETATM   14  C   UNL     1     -10.182  11.951  64.153  1.00  0.00    -0.330 A  
ENDROOT
BRANCH  12  15
HETATM   15  C   UNL     1     -10.865  12.083  66.589  1.00  0.00    -0.272 C  
HETATM   16  C   UNL     1      -9.809  12.590  67.571  1.00  0.00    -0.198 C  
HETATM   17  C   UNL     1     -10.649  13.417  68.535  1.00  0.00    -0.253 C  
HETATM   18  O   UNL     1     -11.343  12.519  69.409  1.00  0.00    -0.334 OA 
HETATM   19  C   UNL     1     -11.676  14.157  67.643  1.00  0.00    -0.421 C  
HETATM   20  C   UNL     1     -11.742  13.298  66.378  1.00  0.00    -0.418 C  
HETATM   21  H   UNL     1     -11.868  13.035  70.010  1.00  0.00     0.000 HD 
HETATM   22  C   UNL     1     -12.458  13.601  65.282  1.00  0.00    -0.517 C  
BRANCH  19  23
HETATM   23  C   UNL     1     -11.255  15.609  67.392  1.00  0.00    -0.219 C  
HETATM   24  O   UNL     1     -10.248  16.031  68.304  1.00  0.00    -0.228 OA 
HETATM   25  H   UNL     1      -9.987  16.931  68.148  1.00  0.00     0.000 HD 
ENDBRANCH  19  23
ENDBRANCH  12  15
TORSDOF 2
ENDMDL
MODEL      120
REMARK 921   NORMALIZED FREE ENERGY PREDICTED BY IDOCK:   -4.39 KCAL/MOL
REMARK 922        TOTAL FREE ENERGY PREDICTED BY IDOCK:   -5.24 KCAL/MOL
REMARK 923 INTER-LIGAND FREE ENERGY PREDICTED BY IDOCK:   -4.94 KCAL/MOL
REMARK 924 INTRA-LIGAND FREE ENERGY PREDICTED BY IDOCK:   -0.30 KCAL/MOL
REMARK 927      BINDING AFFINITY PREDICTED BY RF-SCORE:    0.00 PKD
ROOT
HETATM    1  N   UNL     1     -10.301  11.494  62.760  1.00  0.00    -0.621 NA 
HETATM    2  C   UNL     1      -9.183  10.865  63.204  1.00  0.00    -0.306 C  
HETATM    3  H2  UNL     1     -10.212  12.315  62.162  1.00  0.00     0.000 HD 
HETATM    4  H1  UNL     1     -11.228  11.156  63.017  1.00  0.00     0.000 HD 
HETATM    5  N   UNL     1      -8.001  11.296  62.877  1.00  0.00    -0.337 N  
HETATM    6  C   UNL     1      -6.857  10.645  63.367  1.00  0.00     0.160 C  
HETATM    7  H   UNL     1      -7.904  12.105  62.265  1.00  0.00     0.000 HD 
HETATM    8  C   UNL     1      -7.117   9.513  64.272  1.00  0.00    -0.108 A  
HETATM    9  O   UNL     1      -5.722  10.990  63.057  1.00  0.00    -0.068 OA 
HETATM   10  C   UNL     1      -8.411   9.151  64.535  1.00  0.00    -0.168 A  
HETATM   11  N   UNL     1      -9.463   9.785  63.998  1.00  0.00    -0.173 NA 
HETATM   12  N   UNL     1      -8.370   8.089  65.382  1.00  0.00    -0.150 NA 
HETATM   13  N   UNL     1      -6.256   8.693  64.965  1.00  0.00    -0.060 NA 
HETATM   14  C   UNL     1      -7.038   7.850  65.619  1.00  0.00    -0.056 A  
ENDROOT
BRANCH  12  15
HETATM   15  C   UNL     1      -9.505   7.314  65.834  1.00  0.00     0.190 C  
HETATM   16  C   UNL     1      -9.158   5.910  66.326  1.00  0.00    -0.157 C  
HETATM   17  C   UNL     1     -10.477   5.461  66.942  1.00  0.00    -0.277 C  
HETATM   18  O   UNL     1     -11.369   5.102  65.880  1.00  0.00    -0.782 OA 
HETATM   19  C   UNL     1     -11.028   6.709  67.673  1.00  0.00    -0.392 C  
HETATM   20  C   UNL     1     -10.333   7.877  66.968  1.00  0.00    -0.411 C  
HETATM   21  H   UNL     1     -12.191   4.822  66.264  1.00  0.00     0.000 HD 
HETATM   22  C   UNL     1     -10.452   9.168  67.323  1.00  0.00    -0.335 C  
BRANCH  19  23
HETATM   23  C   UNL     1     -10.759   6.639  69.180  1.00  0.00    -0.264 C  
HETATM   24  O   UNL     1     -11.944   6.848  69.937  1.00  0.00    -0.627 OA 
HETATM   25  H   UNL     1     -11.777   6.804  70.872  1.00  0.00     0.000 HD 
ENDBRANCH  19  23
ENDBRANCH  12  15
TORSDOF 2
ENDMDL
MODEL      121
REMARK 921   NORMALIZED FREE ENERGY PREDICTED BY IDOCK:   -4.37 KCAL/MOL
REMARK 922        TOTAL FREE ENERGY PREDICTED BY IDOCK:   -5.22 KCAL/MOL
REMARK 923 INTER-LIGAND FREE ENERGY PREDICTED BY IDOCK:   -6.08 KCAL/MOL
REMARK 924 INTRA-LIGAND FREE ENERGY PREDICTED BY IDOCK:    0.86 KCAL/MOL
REMARK 927      BINDING AFFINITY PREDICTED BY RF-SCORE:    0.00 PKD
ROOT
HETATM    1  N   UNL     1     -10.014  12.430  64.082  1.00  0.00    -0.553 NA 
HETATM    2  C   UNL     1     -10.395  12.646  65.367  1.00  0.00    -0.291 C  
HETATM    3  H2  UNL     1     -10.325  11.588  63.599  1.00  0.00     0.000 HD 
HETATM    4  H1  UNL     1      -9.419  13.100  63.594  1.00  0.00     0.000 HD 
HETATM    5  N   UNL     1     -11.153  11.792  65.990  1.00  0.00    -0.319 N  
HETATM    6  C   UNL     1     -11.515  12.022  67.326  1.00  0.00    -0.335 C  
HETATM    7  H   UNL     1     -11.483  10.956  65.508  1.00  0.00     0.000 HD 
HETATM    8  C   UNL     1     -10.949  13.238  67.931  1.00  0.00    -0.249 A  
HETATM    9  O   UNL     1     -12.258  11.265  67.944  1.00  0.00    -0.570 OA 
HETATM   10  C   UNL     1     -10.169  14.063  67.167  1.00  0.00    -0.258 A  
HETATM   11  N   UNL     1      -9.895  13.813  65.879  1.00  0.00    -0.287 NA 
HETATM   12  N   UNL     1      -9.785  15.102  67.956  1.00  0.00    -0.208 NA 
HETATM   13  N   UNL     1     -11.048  13.744  69.208  1.00  0.00    -0.238 NA 
HETATM   14  C   UNL     1     -10.341  14.862  69.190  1.00  0.00    -0.245 A  
ENDROOT
BRANCH  12  15
HETATM   15  C   UNL     1      -9.044  16.268  67.528  1.00  0.00    -0.192 C  
HETATM   16  C   UNL     1      -8.853  16.379  66.016  1.00  0.00    -0.296 C  
HETATM   17  C   UNL     1      -8.279  17.782  65.875  1.00  0.00     0.046 C  
HETATM   18  O   UNL     1      -6.900  17.744  66.264  1.00  0.00    -0.218 OA 
HETATM   19  C   UNL     1      -9.071  18.647  66.886  1.00  0.00    -0.295 C  
HETATM   20  C   UNL     1      -9.596  17.627  67.900  1.00  0.00    -0.282 C  
HETATM   21  H   UNL     1      -6.542  18.619  66.176  1.00  0.00     0.000 HD 
HETATM   22  C   UNL     1     -10.410  17.918  68.929  1.00  0.00    -0.272 C  
BRANCH  19  23
HETATM   23  C   UNL     1     -10.169  19.457  66.189  1.00  0.00    -0.484 C  
HETATM   24  O   UNL     1     -10.938  18.650  65.306  1.00  0.00    -0.536 OA 
HETATM   25  H   UNL     1     -11.620  19.153  64.874  1.00  0.00     0.000 HD 
ENDBRANCH  19  23
ENDBRANCH  12  15
TORSDOF 2
ENDMDL
MODEL      122
REMARK 921   NORMALIZED FREE ENERGY PREDICTED BY IDOCK:   -4.37 KCAL/MOL
REMARK 922        TOTAL FREE ENERGY PREDICTED BY IDOCK:   -5.21 KCAL/MOL
REMARK 923 INTER-LIGAND FREE ENERGY PREDICTED BY IDOCK:   -4.92 KCAL/MOL
REMARK 924 INTRA-LIGAND FREE ENERGY PREDICTED BY IDOCK:   -0.29 KCAL/MOL
REMARK 927      BINDING AFFINITY PREDICTED BY RF-SCORE:    0.00 PKD
ROOT
HETATM    1  N   UNL     1      -6.932   6.991  65.927  1.00  0.00    -0.063 NA 
HETATM    2  C   UNL     1      -7.853   7.988  65.939  1.00  0.00    -0.099 C  
HETATM    3  H2  UNL     1      -6.409   6.799  65.072  1.00  0.00     0.000 HD 
HETATM    4  H1  UNL     1      -6.755   6.432  66.761  1.00  0.00     0.000 HD 
HETATM    5  N   UNL     1      -8.077   8.701  64.875  1.00  0.00    -0.138 N  
HETATM    6  C   UNL     1      -9.052   9.712  64.902  1.00  0.00    -0.232 C  
HETATM    7  H   UNL     1      -7.546   8.527  64.023  1.00  0.00     0.000 HD 
HETATM    8  C   UNL     1      -9.783   9.847  66.172  1.00  0.00    -0.236 A  
HETATM    9  O   UNL     1      -9.274  10.435  63.936  1.00  0.00    -0.219 OA 
HETATM   10  C   UNL     1      -9.448   9.039  67.225  1.00  0.00    -0.149 A  
HETATM   11  N   UNL     1      -8.473   8.121  67.152  1.00  0.00    -0.123 NA 
HETATM   12  N   UNL     1     -10.260   9.370  68.264  1.00  0.00    -0.188 NA 
HETATM   13  N   UNL     1     -10.817  10.679  66.536  1.00  0.00    -0.156 NA 
HETATM   14  C   UNL     1     -11.079  10.369  67.796  1.00  0.00    -0.299 A  
ENDROOT
BRANCH  12  15
HETATM   15  C   UNL     1     -10.179   8.845  69.610  1.00  0.00    -0.206 C  
HETATM   16  C   UNL     1     -10.728   9.780  70.688  1.00  0.00    -0.394 C  
HETATM   17  C   UNL     1     -10.731   8.874  71.913  1.00  0.00    -0.356 C  
HETATM   18  O   UNL     1      -9.386   8.761  72.391  1.00  0.00    -0.331 OA 
HETATM   19  C   UNL     1     -11.208   7.495  71.395  1.00  0.00    -0.267 C  
HETATM   20  C   UNL     1     -10.889   7.540  69.899  1.00  0.00    -0.250 C  
HETATM   21  H   UNL     1      -9.387   8.196  73.154  1.00  0.00     0.000 HD 
HETATM   22  C   UNL     1     -11.202   6.575  69.018  1.00  0.00    -0.354 C  
BRANCH  19  23
HETATM   23  C   UNL     1     -12.689   7.261  71.711  1.00  0.00    -0.335 C  
HETATM   24  O   UNL     1     -13.515   8.271  71.145  1.00  0.00    -0.525 OA 
HETATM   25  H   UNL     1     -14.433   8.126  71.341  1.00  0.00     0.000 HD 
ENDBRANCH  19  23
ENDBRANCH  12  15
TORSDOF 2
ENDMDL
MODEL      123
REMARK 921   NORMALIZED FREE ENERGY PREDICTED BY IDOCK:   -4.36 KCAL/MOL
REMARK 922        TOTAL FREE ENERGY PREDICTED BY IDOCK:   -5.21 KCAL/MOL
REMARK 923 INTER-LIGAND FREE ENERGY PREDICTED BY IDOCK:   -4.80 KCAL/MOL
REMARK 924 INTRA-LIGAND FREE ENERGY PREDICTED BY IDOCK:   -0.41 KCAL/MOL
REMARK 927      BINDING AFFINITY PREDICTED BY RF-SCORE:    0.00 PKD
ROOT
HETATM    1  N   UNL     1     -12.402   5.775  72.706  1.00  0.00    -0.488 NA 
HETATM    2  C   UNL     1     -11.133   6.163  72.422  1.00  0.00    -0.275 C  
HETATM    3  H2  UNL     1     -12.569   5.119  73.469  1.00  0.00     0.000 HD 
HETATM    4  H1  UNL     1     -13.192   6.131  72.167  1.00  0.00     0.000 HD 
HETATM    5  N   UNL     1     -10.127   5.709  73.109  1.00  0.00    -0.175 N  
HETATM    6  C   UNL     1      -8.820   6.105  72.782  1.00  0.00    -0.123 C  
HETATM    7  H   UNL     1     -10.288   5.067  73.884  1.00  0.00     0.000 HD 
HETATM    8  C   UNL     1      -8.707   7.003  71.621  1.00  0.00    -0.116 A  
HETATM    9  O   UNL     1      -7.843   5.733  73.423  1.00  0.00    -0.108 OA 
HETATM   10  C   UNL     1      -9.844   7.417  70.983  1.00  0.00    -0.179 A  
HETATM   11  N   UNL     1     -11.070   7.041  71.372  1.00  0.00    -0.240 NA 
HETATM   12  N   UNL     1      -9.463   8.233  69.964  1.00  0.00    -0.166 NA 
HETATM   13  N   UNL     1      -7.603   7.541  70.999  1.00  0.00    -0.083 NA 
HETATM   14  C   UNL     1      -8.090   8.274  70.011  1.00  0.00    -0.116 A  
ENDROOT
BRANCH  12  15
HETATM   15  C   UNL     1     -10.345   8.984  69.098  1.00  0.00    -0.219 C  
HETATM   16  C   UNL     1     -10.003  10.469  68.980  1.00  0.00    -0.223 C  
HETATM   17  C   UNL     1     -10.922  10.912  67.849  1.00  0.00    -0.271 C  
HETATM   18  O   UNL     1     -12.249  11.038  68.373  1.00  0.00    -0.770 OA 
HETATM   19  C   UNL     1     -10.885   9.754  66.822  1.00  0.00    -0.071 C  
HETATM   20  C   UNL     1     -10.452   8.545  67.654  1.00  0.00    -0.308 C  
HETATM   21  H   UNL     1     -12.823  11.313  67.668  1.00  0.00     0.000 HD 
HETATM   22  C   UNL     1     -10.211   7.319  67.159  1.00  0.00    -0.339 C  
BRANCH  19  23
HETATM   23  C   UNL     1      -9.949  10.075  65.652  1.00  0.00    -0.285 C  
HETATM   24  O   UNL     1     -10.211  11.360  65.103  1.00  0.00    -0.250 OA 
HETATM   25  H   UNL     1      -9.630  11.559  64.378  1.00  0.00     0.000 HD 
ENDBRANCH  19  23
ENDBRANCH  12  15
TORSDOF 2
ENDMDL
MODEL      124
REMARK 921   NORMALIZED FREE ENERGY PREDICTED BY IDOCK:   -4.32 KCAL/MOL
REMARK 922        TOTAL FREE ENERGY PREDICTED BY IDOCK:   -5.17 KCAL/MOL
REMARK 923 INTER-LIGAND FREE ENERGY PREDICTED BY IDOCK:   -5.90 KCAL/MOL
REMARK 924 INTRA-LIGAND FREE ENERGY PREDICTED BY IDOCK:    0.73 KCAL/MOL
REMARK 927      BINDING AFFINITY PREDICTED BY RF-SCORE:    0.00 PKD
ROOT
HETATM    1  N   UNL     1     -11.913  14.951  69.584  1.00  0.00    -0.311 NA 
HETATM    2  C   UNL     1     -11.939  14.173  68.472  1.00  0.00    -0.332 C  
HETATM    3  H2  UNL     1     -12.331  15.881  69.557  1.00  0.00     0.000 HD 
HETATM    4  H1  UNL     1     -11.480  14.618  70.446  1.00  0.00     0.000 HD 
HETATM    5  N   UNL     1     -12.490  14.598  67.374  1.00  0.00    -0.437 N  
HETATM    6  C   UNL     1     -12.484  13.786  66.228  1.00  0.00    -0.391 C  
HETATM    7  H   UNL     1     -12.925  15.519  67.345  1.00  0.00     0.000 HD 
HETATM    8  C   UNL     1     -11.794  12.495  66.375  1.00  0.00    -0.381 A  
HETATM    9  O   UNL     1     -13.023  14.127  65.180  1.00  0.00    -0.729 OA 
HETATM   10  C   UNL     1     -11.258  12.158  67.589  1.00  0.00    -0.286 A  
HETATM   11  N   UNL     1     -11.336  12.958  68.662  1.00  0.00    -0.267 NA 
HETATM   12  N   UNL     1     -10.692  10.929  67.455  1.00  0.00    -0.239 NA 
HETATM   13  N   UNL     1     -11.554  11.489  65.467  1.00  0.00    -0.134 NA 
HETATM   14  C   UNL     1     -10.893  10.565  66.145  1.00  0.00     0.043 A  
ENDROOT
BRANCH  12  15
HETATM   15  C   UNL     1     -10.108  10.139  68.517  1.00  0.00    -0.169 C  
HETATM   16  C   UNL     1     -10.790  10.301  69.875  1.00  0.00    -0.355 C  
HETATM   17  C   UNL     1     -10.130   9.196  70.689  1.00  0.00    -0.247 C  
HETATM   18  O   UNL     1      -8.816   9.631  71.055  1.00  0.00    -0.340 OA 
HETATM   19  C   UNL     1     -10.019   7.992  69.722  1.00  0.00    -0.191 C  
HETATM   20  C   UNL     1     -10.068   8.638  68.334  1.00  0.00    -0.217 C  
HETATM   21  H   UNL     1      -8.404   8.942  71.563  1.00  0.00     0.000 HD 
HETATM   22  C   UNL     1     -10.078   7.962  67.173  1.00  0.00    -0.328 C  
BRANCH  19  23
HETATM   23  C   UNL     1     -11.130   6.968  69.973  1.00  0.00    -0.278 C  
HETATM   24  O   UNL     1     -10.672   5.635  69.781  1.00  0.00    -0.310 OA 
HETATM   25  H   UNL     1     -11.362   5.000  69.937  1.00  0.00     0.000 HD 
ENDBRANCH  19  23
ENDBRANCH  12  15
TORSDOF 2
ENDMDL
MODEL      125
REMARK 921   NORMALIZED FREE ENERGY PREDICTED BY IDOCK:   -4.32 KCAL/MOL
REMARK 922        TOTAL FREE ENERGY PREDICTED BY IDOCK:   -5.17 KCAL/MOL
REMARK 923 INTER-LIGAND FREE ENERGY PREDICTED BY IDOCK:   -5.12 KCAL/MOL
REMARK 924 INTRA-LIGAND FREE ENERGY PREDICTED BY IDOCK:   -0.04 KCAL/MOL
REMARK 927      BINDING AFFINITY PREDICTED BY RF-SCORE:    0.00 PKD
ROOT
HETATM    1  N   UNL     1     -10.202  16.298  69.282  1.00  0.00    -0.253 NA 
HETATM    2  C   UNL     1     -10.428  15.835  68.026  1.00  0.00    -0.270 C  
HETATM    3  H2  UNL     1     -10.189  17.304  69.453  1.00  0.00     0.000 HD 
HETATM    4  H1  UNL     1     -10.044  15.654  70.057  1.00  0.00     0.000 HD 
HETATM    5  N   UNL     1     -10.629  16.657  67.039  1.00  0.00    -0.288 N  
HETATM    6  C   UNL     1     -10.837  16.157  65.743  1.00  0.00    -0.201 C  
HETATM    7  H   UNL     1     -10.635  17.662  67.205  1.00  0.00     0.000 HD 
HETATM    8  C   UNL     1     -10.767  14.693  65.615  1.00  0.00    -0.332 A  
HETATM    9  O   UNL     1     -11.067  16.890  64.787  1.00  0.00    -0.764 OA 
HETATM   10  C   UNL     1     -10.557  13.933  66.735  1.00  0.00    -0.277 A  
HETATM   11  N   UNL     1     -10.411  14.468  67.955  1.00  0.00    -0.229 NA 
HETATM   12  N   UNL     1     -10.543  12.631  66.343  1.00  0.00    -0.248 NA 
HETATM   13  N   UNL     1     -10.871  13.875  64.513  1.00  0.00    -0.395 NA 
HETATM   14  C   UNL     1     -10.733  12.646  64.983  1.00  0.00    -0.293 A  
ENDROOT
BRANCH  12  15
HETATM   15  C   UNL     1     -10.461  11.480  67.216  1.00  0.00    -0.212 C  
HETATM   16  C   UNL     1     -10.781  10.148  66.539  1.00  0.00    -0.118 C  
HETATM   17  C   UNL     1     -10.379   9.147  67.614  1.00  0.00    -0.255 C  
HETATM   18  O   UNL     1     -11.400   9.130  68.617  1.00  0.00    -0.389 OA 
HETATM   19  C   UNL     1      -9.073   9.712  68.224  1.00  0.00    -0.123 C  
HETATM   20  C   UNL     1      -9.136  11.206  67.895  1.00  0.00    -0.150 C  
HETATM   21  H   UNL     1     -11.149   8.506  69.288  1.00  0.00     0.000 HD 
HETATM   22  C   UNL     1      -8.166  12.094  68.168  1.00  0.00    -0.164 C  
BRANCH  19  23
HETATM   23  C   UNL     1      -7.838   9.001  67.660  1.00  0.00    -0.101 C  
HETATM   24  O   UNL     1      -6.792   8.921  68.620  1.00  0.00    -0.061 OA 
HETATM   25  H   UNL     1      -6.026   8.479  68.271  1.00  0.00     0.000 HD 
ENDBRANCH  19  23
ENDBRANCH  12  15
TORSDOF 2
ENDMDL
MODEL      126
REMARK 921   NORMALIZED FREE ENERGY PREDICTED BY IDOCK:   -4.31 KCAL/MOL
REMARK 922        TOTAL FREE ENERGY PREDICTED BY IDOCK:   -5.15 KCAL/MOL
REMARK 923 INTER-LIGAND FREE ENERGY PREDICTED BY IDOCK:   -5.08 KCAL/MOL
REMARK 924 INTRA-LIGAND FREE ENERGY PREDICTED BY IDOCK:   -0.07 KCAL/MOL
REMARK 927      BINDING AFFINITY PREDICTED BY RF-SCORE:    0.00 PKD
ROOT
HETATM    1  N   UNL     1     -11.550  11.872  70.156  1.00  0.00    -0.520 NA 
HETATM    2  C   UNL     1     -11.911  10.670  70.674  1.00  0.00    -0.367 C  
HETATM    3  H2  UNL     1     -12.125  12.693  70.342  1.00  0.00     0.000 HD 
HETATM    4  H1  UNL     1     -10.711  11.964  69.584  1.00  0.00     0.000 HD 
HETATM    5  N   UNL     1     -12.980  10.553  71.404  1.00  0.00    -0.414 N  
HETATM    6  C   UNL     1     -13.350   9.296  71.910  1.00  0.00    -0.429 C  
HETATM    7  H   UNL     1     -13.551  11.373  71.609  1.00  0.00     0.000 HD 
HETATM    8  C   UNL     1     -12.475   8.179  71.518  1.00  0.00    -0.307 A  
HETATM    9  O   UNL     1     -14.328   9.141  72.633  1.00  0.00    -0.561 OA 
HETATM   10  C   UNL     1     -11.371   8.433  70.749  1.00  0.00    -0.265 A  
HETATM   11  N   UNL     1     -11.045   9.665  70.335  1.00  0.00    -0.268 NA 
HETATM   12  N   UNL     1     -10.743   7.246  70.539  1.00  0.00    -0.227 NA 
HETATM   13  N   UNL     1     -12.557   6.831  71.782  1.00  0.00    -0.359 NA 
HETATM   14  C   UNL     1     -11.504   6.300  71.182  1.00  0.00    -0.299 A  
ENDROOT
BRANCH  12  15
HETATM   15  C   UNL     1      -9.472   7.060  69.872  1.00  0.00    -0.157 C  
HETATM   16  C   UNL     1      -9.490   7.376  68.376  1.00  0.00    -0.143 C  
HETATM   17  C   UNL     1      -8.008   7.328  68.030  1.00  0.00    -0.119 C  
HETATM   18  O   UNL     1      -7.608   5.954  67.955  1.00  0.00    -0.086 OA 
HETATM   19  C   UNL     1      -7.291   8.004  69.224  1.00  0.00    -0.081 C  
HETATM   20  C   UNL     1      -8.292   7.863  70.374  1.00  0.00    -0.121 C  
HETATM   21  H   UNL     1      -6.684   5.924  67.740  1.00  0.00     0.000 HD 
HETATM   22  C   UNL     1      -8.126   8.378  71.604  1.00  0.00    -0.184 C  
BRANCH  19  23
HETATM   23  C   UNL     1      -6.912   9.453  68.901  1.00  0.00    -0.063 C  
HETATM   24  O   UNL     1      -8.056  10.295  68.835  1.00  0.00    -0.106 OA 
HETATM   25  H   UNL     1      -7.821  11.194  68.635  1.00  0.00     0.000 HD 
ENDBRANCH  19  23
ENDBRANCH  12  15
TORSDOF 2
ENDMDL
MODEL      127
REMARK 921   NORMALIZED FREE ENERGY PREDICTED BY IDOCK:   -4.31 KCAL/MOL
REMARK 922        TOTAL FREE ENERGY PREDICTED BY IDOCK:   -5.15 KCAL/MOL
REMARK 923 INTER-LIGAND FREE ENERGY PREDICTED BY IDOCK:   -5.08 KCAL/MOL
REMARK 924 INTRA-LIGAND FREE ENERGY PREDICTED BY IDOCK:   -0.07 KCAL/MOL
REMARK 927      BINDING AFFINITY PREDICTED BY RF-SCORE:    0.00 PKD
ROOT
HETATM    1  N   UNL     1      -6.364   9.135  70.252  1.00  0.00    -0.043 NA 
HETATM    2  C   UNL     1      -7.606   9.035  70.789  1.00  0.00    -0.120 C  
HETATM    3  H2  UNL     1      -5.560   8.785  70.773  1.00  0.00     0.000 HD 
HETATM    4  H1  UNL     1      -6.223   9.557  69.334  1.00  0.00     0.000 HD 
HETATM    5  N   UNL     1      -7.785   8.497  71.959  1.00  0.00    -0.119 N  
HETATM    6  C   UNL     1      -9.076   8.425  72.507  1.00  0.00    -0.256 C  
HETATM    7  H   UNL     1      -6.989   8.129  72.478  1.00  0.00     0.000 HD 
HETATM    8  C   UNL     1     -10.141   9.024  71.687  1.00  0.00    -0.335 A  
HETATM    9  O   UNL     1      -9.300   7.895  73.590  1.00  0.00    -0.278 OA 
HETATM   10  C   UNL     1      -9.826   9.555  70.465  1.00  0.00    -0.269 A  
HETATM   11  N   UNL     1      -8.578   9.552  69.975  1.00  0.00    -0.197 NA 
HETATM   12  N   UNL     1     -10.978  10.029  69.921  1.00  0.00    -0.273 NA 
HETATM   13  N   UNL     1     -11.488   9.176  71.925  1.00  0.00    -0.371 NA 
HETATM   14  C   UNL     1     -11.961   9.780  70.847  1.00  0.00    -0.328 A  
ENDROOT
BRANCH  12  15
HETATM   15  C   UNL     1     -11.130  10.572  68.588  1.00  0.00    -0.267 C  
HETATM   16  C   UNL     1     -10.351  11.863  68.338  1.00  0.00    -0.216 C  
HETATM   17  C   UNL     1     -10.510  12.037  66.833  1.00  0.00    -0.223 C  
HETATM   18  O   UNL     1     -11.830  12.528  66.575  1.00  0.00    -0.435 OA 
HETATM   19  C   UNL     1     -10.372  10.611  66.245  1.00  0.00    -0.296 C  
HETATM   20  C   UNL     1     -10.721   9.698  67.423  1.00  0.00    -0.308 C  
HETATM   21  H   UNL     1     -11.930  12.636  65.636  1.00  0.00     0.000 HD 
HETATM   22  C   UNL     1     -10.661   8.356  67.398  1.00  0.00    -0.225 C  
BRANCH  19  23
HETATM   23  C   UNL     1      -8.971  10.378  65.668  1.00  0.00    -0.176 C  
HETATM   24  O   UNL     1      -8.819  10.984  64.391  1.00  0.00    -0.342 OA 
HETATM   25  H   UNL     1      -7.950  10.840  64.034  1.00  0.00     0.000 HD 
ENDBRANCH  19  23
ENDBRANCH  12  15
TORSDOF 2
ENDMDL
MODEL      128
REMARK 921   NORMALIZED FREE ENERGY PREDICTED BY IDOCK:   -4.30 KCAL/MOL
REMARK 922        TOTAL FREE ENERGY PREDICTED BY IDOCK:   -5.14 KCAL/MOL
REMARK 923 INTER-LIGAND FREE ENERGY PREDICTED BY IDOCK:   -5.20 KCAL/MOL
REMARK 924 INTRA-LIGAND FREE ENERGY PREDICTED BY IDOCK:    0.07 KCAL/MOL
REMARK 927      BINDING AFFINITY PREDICTED BY RF-SCORE:    0.00 PKD
ROOT
HETATM    1  N   UNL     1     -10.722  11.366  68.398  1.00  0.00    -0.192 NA 
HETATM    2  C   UNL     1     -11.315  10.918  69.533  1.00  0.00    -0.283 C  
HETATM    3  H2  UNL     1     -10.879  12.327  68.093  1.00  0.00     0.000 HD 
HETATM    4  H1  UNL     1     -10.120  10.755  67.845  1.00  0.00     0.000 HD 
HETATM    5  N   UNL     1     -12.082  11.697  70.237  1.00  0.00    -0.358 N  
HETATM    6  C   UNL     1     -12.706  11.205  71.395  1.00  0.00    -0.418 C  
HETATM    7  H   UNL     1     -12.229  12.663  69.949  1.00  0.00     0.000 HD 
HETATM    8  C   UNL     1     -12.452   9.786  71.692  1.00  0.00    -0.410 A  
HETATM    9  O   UNL     1     -13.407  11.911  72.112  1.00  0.00    -0.503 OA 
HETATM   10  C   UNL     1     -11.617   9.072  70.875  1.00  0.00    -0.290 A  
HETATM   11  N   UNL     1     -11.013   9.611  69.807  1.00  0.00    -0.240 NA 
HETATM   12  N   UNL     1     -11.552   7.807  71.371  1.00  0.00    -0.270 NA 
HETATM   13  N   UNL     1     -12.928   8.973  72.695  1.00  0.00    -0.360 NA 
HETATM   14  C   UNL     1     -12.369   7.794  72.475  1.00  0.00    -0.092 A  
ENDROOT
BRANCH  12  15
HETATM   15  C   UNL     1     -10.698   6.745  70.886  1.00  0.00    -0.233 C  
HETATM   16  C   UNL     1     -11.073   6.211  69.504  1.00  0.00    -0.490 C  
HETATM   17  C   UNL     1      -9.884   5.316  69.182  1.00  0.00    -0.187 C  
HETATM   18  O   UNL     1     -10.022   4.101  69.927  1.00  0.00    -0.209 OA 
HETATM   19  C   UNL     1      -8.644   6.091  69.692  1.00  0.00    -0.126 C  
HETATM   20  C   UNL     1      -9.220   7.041  70.745  1.00  0.00    -0.157 C  
HETATM   21  H   UNL     1      -9.280   3.542  69.726  1.00  0.00     0.000 HD 
HETATM   22  C   UNL     1      -8.513   7.971  71.409  1.00  0.00    -0.142 C  
BRANCH  19  23
HETATM   23  C   UNL     1      -7.915   6.798  68.545  1.00  0.00    -0.119 C  
HETATM   24  O   UNL     1      -8.387   8.127  68.360  1.00  0.00    -0.124 OA 
HETATM   25  H   UNL     1      -7.935   8.566  67.649  1.00  0.00     0.000 HD 
ENDBRANCH  19  23
ENDBRANCH  12  15
TORSDOF 2
ENDMDL
MODEL      129
REMARK 921   NORMALIZED FREE ENERGY PREDICTED BY IDOCK:   -4.30 KCAL/MOL
REMARK 922        TOTAL FREE ENERGY PREDICTED BY IDOCK:   -5.14 KCAL/MOL
REMARK 923 INTER-LIGAND FREE ENERGY PREDICTED BY IDOCK:   -5.10 KCAL/MOL
REMARK 924 INTRA-LIGAND FREE ENERGY PREDICTED BY IDOCK:   -0.04 KCAL/MOL
REMARK 927      BINDING AFFINITY PREDICTED BY RF-SCORE:    0.00 PKD
ROOT
HETATM    1  N   UNL     1      -9.318   6.837  65.916  1.00  0.00    -0.389 NA 
HETATM    2  C   UNL     1      -9.750   8.002  66.463  1.00  0.00    -0.227 C  
HETATM    3  H2  UNL     1      -9.003   6.824  64.945  1.00  0.00     0.000 HD 
HETATM    4  H1  UNL     1      -9.305   5.976  66.461  1.00  0.00     0.000 HD 
HETATM    5  N   UNL     1      -9.767   9.100  65.767  1.00  0.00    -0.404 N  
HETATM    6  C   UNL     1     -10.240  10.289  66.345  1.00  0.00    -0.225 C  
HETATM    7  H   UNL     1      -9.437   9.098  64.802  1.00  0.00     0.000 HD 
HETATM    8  C   UNL     1     -10.727  10.165  67.728  1.00  0.00    -0.277 A  
HETATM    9  O   UNL     1     -10.241  11.357  65.742  1.00  0.00    -0.231 OA 
HETATM   10  C   UNL     1     -10.650   8.952  68.358  1.00  0.00    -0.143 A  
HETATM   11  N   UNL     1     -10.143   7.861  67.767  1.00  0.00    -0.180 NA 
HETATM   12  N   UNL     1     -11.154   9.113  69.610  1.00  0.00    -0.150 NA 
HETATM   13  N   UNL     1     -11.294  11.091  68.574  1.00  0.00    -0.263 NA 
HETATM   14  C   UNL     1     -11.538  10.430  69.693  1.00  0.00    -0.239 A  
ENDROOT
BRANCH  12  15
HETATM   15  C   UNL     1     -11.164   8.117  70.659  1.00  0.00    -0.260 C  
HETATM   16  C   UNL     1     -11.567   6.716  70.199  1.00  0.00    -0.446 C  
HETATM   17  C   UNL     1     -11.249   5.880  71.432  1.00  0.00    -0.218 C  
HETATM   18  O   UNL     1     -12.283   6.094  72.399  1.00  0.00    -0.516 OA 
HETATM   19  C   UNL     1      -9.916   6.449  71.974  1.00  0.00    -0.183 C  
HETATM   20  C   UNL     1      -9.871   7.870  71.406  1.00  0.00    -0.203 C  
HETATM   21  H   UNL     1     -12.085   5.573  73.168  1.00  0.00     0.000 HD 
HETATM   22  C   UNL     1      -8.845   8.724  71.555  1.00  0.00    -0.295 C  
BRANCH  19  23
HETATM   23  C   UNL     1      -8.726   5.575  71.564  1.00  0.00    -0.136 C  
HETATM   24  O   UNL     1      -8.655   5.410  70.153  1.00  0.00    -0.115 OA 
HETATM   25  H   UNL     1      -7.917   4.868  69.898  1.00  0.00     0.000 HD 
ENDBRANCH  19  23
ENDBRANCH  12  15
TORSDOF 2
ENDMDL
MODEL      130
REMARK 921   NORMALIZED FREE ENERGY PREDICTED BY IDOCK:   -4.29 KCAL/MOL
REMARK 922        TOTAL FREE ENERGY PREDICTED BY IDOCK:   -5.13 KCAL/MOL
REMARK 923 INTER-LIGAND FREE ENERGY PREDICTED BY IDOCK:   -4.97 KCAL/MOL
REMARK 924 INTRA-LIGAND FREE ENERGY PREDICTED BY IDOCK:   -0.15 KCAL/MOL
REMARK 927      BINDING AFFINITY PREDICTED BY RF-SCORE:    0.00 PKD
ROOT
HETATM    1  N   UNL     1     -10.006   8.715  65.925  1.00  0.00    -0.442 NA 
HETATM    2  C   UNL     1      -9.314   9.571  66.718  1.00  0.00    -0.153 C  
HETATM    3  H2  UNL     1      -9.846   7.711  66.008  1.00  0.00     0.000 HD 
HETATM    4  H1  UNL     1     -10.685   9.062  65.248  1.00  0.00     0.000 HD 
HETATM    5  N   UNL     1      -8.448   9.129  67.581  1.00  0.00    -0.116 N  
HETATM    6  C   UNL     1      -7.724  10.033  68.375  1.00  0.00    -0.084 C  
HETATM    7  H   UNL     1      -8.295   8.126  67.682  1.00  0.00     0.000 HD 
HETATM    8  C   UNL     1      -7.999  11.456  68.116  1.00  0.00    -0.133 A  
HETATM    9  O   UNL     1      -6.924   9.663  69.228  1.00  0.00    -0.052 OA 
HETATM   10  C   UNL     1      -8.941  11.795  67.183  1.00  0.00    -0.177 A  
HETATM   11  N   UNL     1      -9.634  10.882  66.489  1.00  0.00    -0.190 NA 
HETATM   12  N   UNL     1      -9.002  13.153  67.145  1.00  0.00    -0.220 NA 
HETATM   13  N   UNL     1      -7.450  12.596  68.658  1.00  0.00    -0.114 NA 
HETATM   14  C   UNL     1      -8.074  13.596  68.057  1.00  0.00    -0.161 A  
ENDROOT
BRANCH  12  15
HETATM   15  C   UNL     1      -9.942  13.943  66.381  1.00  0.00    -0.297 C  
HETATM   16  C   UNL     1      -9.868  13.729  64.869  1.00  0.00    -0.032 C  
HETATM   17  C   UNL     1     -11.101  14.481  64.387  1.00  0.00    -0.161 C  
HETATM   18  O   UNL     1     -10.813  15.884  64.420  1.00  0.00    -0.843 OA 
HETATM   19  C   UNL     1     -12.203  14.161  65.426  1.00  0.00    -0.441 C  
HETATM   20  C   UNL     1     -11.415  13.762  66.677  1.00  0.00    -0.362 C  
HETATM   21  H   UNL     1     -11.582  16.353  64.119  1.00  0.00     0.000 HD 
HETATM   22  C   UNL     1     -11.964  13.326  67.823  1.00  0.00    -0.356 C  
BRANCH  19  23
HETATM   23  C   UNL     1     -13.155  13.075  64.915  1.00  0.00     0.055 C  
HETATM   24  O   UNL     1     -12.904  12.751  63.554  1.00  0.00    -0.693 OA 
HETATM   25  H   UNL     1     -13.494  12.077  63.237  1.00  0.00     0.000 HD 
ENDBRANCH  19  23
ENDBRANCH  12  15
TORSDOF 2
ENDMDL
MODEL      131
REMARK 921   NORMALIZED FREE ENERGY PREDICTED BY IDOCK:   -4.29 KCAL/MOL
REMARK 922        TOTAL FREE ENERGY PREDICTED BY IDOCK:   -5.13 KCAL/MOL
REMARK 923 INTER-LIGAND FREE ENERGY PREDICTED BY IDOCK:   -5.14 KCAL/MOL
REMARK 924 INTRA-LIGAND FREE ENERGY PREDICTED BY IDOCK:    0.01 KCAL/MOL
REMARK 927      BINDING AFFINITY PREDICTED BY RF-SCORE:    0.00 PKD
ROOT
HETATM    1  N   UNL     1     -12.784  11.956  71.512  1.00  0.00    -0.322 NA 
HETATM    2  C   UNL     1     -12.201  11.609  70.336  1.00  0.00    -0.347 C  
HETATM    3  H2  UNL     1     -13.386  12.779  71.551  1.00  0.00     0.000 HD 
HETATM    4  H1  UNL     1     -12.627  11.406  72.356  1.00  0.00     0.000 HD 
HETATM    5  N   UNL     1     -12.400  12.311  69.260  1.00  0.00    -0.010 N  
HETATM    6  C   UNL     1     -11.768  11.948  68.060  1.00  0.00    -0.312 C  
HETATM    7  H   UNL     1     -13.015  13.123  69.288  1.00  0.00     0.000 HD 
HETATM    8  C   UNL     1     -10.873  10.782  68.148  1.00  0.00    -0.236 A  
HETATM    9  O   UNL     1     -11.953  12.555  67.011  1.00  0.00    -0.498 OA 
HETATM   10  C   UNL     1     -10.753  10.121  69.341  1.00  0.00    -0.238 A  
HETATM   11  N   UNL     1     -11.420  10.489  70.443  1.00  0.00    -0.323 NA 
HETATM   12  N   UNL     1      -9.882   9.095  69.148  1.00  0.00    -0.167 NA 
HETATM   13  N   UNL     1     -10.069  10.187  67.203  1.00  0.00    -0.199 NA 
HETATM   14  C   UNL     1      -9.489   9.178  67.834  1.00  0.00    -0.141 A  
ENDROOT
BRANCH  12  15
HETATM   15  C   UNL     1      -9.547   8.069  70.112  1.00  0.00    -0.175 C  
HETATM   16  C   UNL     1      -9.296   8.588  71.528  1.00  0.00    -0.289 C  
HETATM   17  C   UNL     1      -9.218   7.293  72.325  1.00  0.00    -0.131 C  
HETATM   18  O   UNL     1      -7.939   6.695  72.086  1.00  0.00    -0.097 OA 
HETATM   19  C   UNL     1     -10.325   6.386  71.734  1.00  0.00    -0.231 C  
HETATM   20  C   UNL     1     -10.548   6.957  70.331  1.00  0.00    -0.247 C  
HETATM   21  H   UNL     1      -7.890   5.887  72.583  1.00  0.00     0.000 HD 
HETATM   22  C   UNL     1     -11.484   6.526  69.468  1.00  0.00    -0.384 C  
BRANCH  19  23
HETATM   23  C   UNL     1     -11.579   6.387  72.615  1.00  0.00    -0.158 C  
HETATM   24  O   UNL     1     -11.801   7.658  73.214  1.00  0.00    -0.631 OA 
HETATM   25  H   UNL     1     -12.579   7.658  73.760  1.00  0.00     0.000 HD 
ENDBRANCH  19  23
ENDBRANCH  12  15
TORSDOF 2
ENDMDL
MODEL      132
REMARK 921   NORMALIZED FREE ENERGY PREDICTED BY IDOCK:   -4.27 KCAL/MOL
REMARK 922        TOTAL FREE ENERGY PREDICTED BY IDOCK:   -5.11 KCAL/MOL
REMARK 923 INTER-LIGAND FREE ENERGY PREDICTED BY IDOCK:   -4.97 KCAL/MOL
REMARK 924 INTRA-LIGAND FREE ENERGY PREDICTED BY IDOCK:   -0.13 KCAL/MOL
REMARK 927      BINDING AFFINITY PREDICTED BY RF-SCORE:    0.00 PKD
ROOT
HETATM    1  N   UNL     1     -10.194  12.319  65.171  1.00  0.00    -0.276 NA 
HETATM    2  C   UNL     1      -9.536  12.800  66.257  1.00  0.00    -0.242 C  
HETATM    3  H2  UNL     1     -10.306  11.312  65.056  1.00  0.00     0.000 HD 
HETATM    4  H1  UNL     1     -10.576  12.952  64.468  1.00  0.00     0.000 HD 
HETATM    5  N   UNL     1      -9.048  11.993  67.152  1.00  0.00    -0.180 N  
HETATM    6  C   UNL     1      -8.350  12.510  68.255  1.00  0.00    -0.167 C  
HETATM    7  H   UNL     1      -9.173  10.986  67.053  1.00  0.00     0.000 HD 
HETATM    8  C   UNL     1      -8.199  13.974  68.273  1.00  0.00    -0.153 A  
HETATM    9  O   UNL     1      -7.904  11.793  69.144  1.00  0.00     0.003 OA 
HETATM   10  C   UNL     1      -8.766  14.717  67.273  1.00  0.00    -0.210 A  
HETATM   11  N   UNL     1      -9.462  14.167  66.268  1.00  0.00    -0.271 NA 
HETATM   12  N   UNL     1      -8.485  16.022  67.530  1.00  0.00    -0.160 NA 
HETATM   13  N   UNL     1      -7.546  14.805  69.155  1.00  0.00    -0.148 NA 
HETATM   14  C   UNL     1      -7.737  16.025  68.682  1.00  0.00    -0.176 A  
ENDROOT
BRANCH  12  15
HETATM   15  C   UNL     1      -8.984  17.162  66.792  1.00  0.00    -0.241 C  
HETATM   16  C   UNL     1      -9.956  18.047  67.573  1.00  0.00    -0.330 C  
HETATM   17  C   UNL     1     -10.098  19.248  66.647  1.00  0.00    -0.399 C  
HETATM   18  O   UNL     1     -10.961  18.881  65.565  1.00  0.00    -0.407 OA 
HETATM   19  C   UNL     1      -8.673  19.506  66.099  1.00  0.00    -0.332 C  
HETATM   20  C   UNL     1      -7.971  18.155  66.265  1.00  0.00    -0.271 C  
HETATM   21  H   UNL     1     -11.049  19.630  64.987  1.00  0.00     0.000 HD 
HETATM   22  C   UNL     1      -6.677  17.924  65.988  1.00  0.00    -0.330 C  
BRANCH  19  23
HETATM   23  C   UNL     1      -7.989  20.660  66.840  1.00  0.00    -0.180 C  
HETATM   24  O   UNL     1      -6.816  21.097  66.165  1.00  0.00    -0.503 OA 
HETATM   25  H   UNL     1      -6.392  21.813  66.625  1.00  0.00     0.000 HD 
ENDBRANCH  19  23
ENDBRANCH  12  15
TORSDOF 2
ENDMDL
MODEL      133
REMARK 921   NORMALIZED FREE ENERGY PREDICTED BY IDOCK:   -4.26 KCAL/MOL
REMARK 922        TOTAL FREE ENERGY PREDICTED BY IDOCK:   -5.10 KCAL/MOL
REMARK 923 INTER-LIGAND FREE ENERGY PREDICTED BY IDOCK:   -4.96 KCAL/MOL
REMARK 924 INTRA-LIGAND FREE ENERGY PREDICTED BY IDOCK:   -0.13 KCAL/MOL
REMARK 927      BINDING AFFINITY PREDICTED BY RF-SCORE:    0.00 PKD
ROOT
HETATM    1  N   UNL     1      -9.749   8.384  65.902  1.00  0.00    -0.465 NA 
HETATM    2  C   UNL     1      -9.759   7.171  66.511  1.00  0.00    -0.133 C  
HETATM    3  H2  UNL     1      -9.719   8.436  64.884  1.00  0.00     0.000 HD 
HETATM    4  H1  UNL     1      -9.771   9.244  66.450  1.00  0.00     0.000 HD 
HETATM    5  N   UNL     1      -9.731   6.075  65.813  1.00  0.00    -0.370 N  
HETATM    6  C   UNL     1      -9.717   4.830  66.463  1.00  0.00    -0.193 C  
HETATM    7  H   UNL     1      -9.718   6.119  64.795  1.00  0.00     0.000 HD 
HETATM    8  C   UNL     1      -9.697   4.889  67.934  1.00  0.00    -0.155 A  
HETATM    9  O   UNL     1      -9.727   3.769  65.849  1.00  0.00    -0.181 OA 
HETATM   10  C   UNL     1      -9.737   6.109  68.554  1.00  0.00    -0.127 A  
HETATM   11  N   UNL     1      -9.796   7.264  67.877  1.00  0.00    -0.140 NA 
HETATM   12  N   UNL     1      -9.713   5.882  69.894  1.00  0.00    -0.160 NA 
HETATM   13  N   UNL     1      -9.632   3.890  68.878  1.00  0.00    -0.161 NA 
HETATM   14  C   UNL     1      -9.645   4.518  70.043  1.00  0.00    -0.197 A  
ENDROOT
BRANCH  12  15
HETATM   15  C   UNL     1      -9.853   6.882  70.930  1.00  0.00    -0.185 C  
HETATM   16  C   UNL     1      -8.968   8.115  70.745  1.00  0.00    -0.156 C  
HETATM   17  C   UNL     1      -9.510   9.051  71.817  1.00  0.00    -0.175 C  
HETATM   18  O   UNL     1      -9.010   8.617  73.087  1.00  0.00    -0.310 OA 
HETATM   19  C   UNL     1     -11.046   8.863  71.780  1.00  0.00    -0.433 C  
HETATM   20  C   UNL     1     -11.226   7.480  71.149  1.00  0.00    -0.277 C  
HETATM   21  H   UNL     1      -9.348   9.201  73.755  1.00  0.00     0.000 HD 
HETATM   22  C   UNL     1     -12.410   6.922  70.848  1.00  0.00    -0.365 C  
BRANCH  19  23
HETATM   23  C   UNL     1     -11.731   9.996  71.008  1.00  0.00    -0.392 C  
HETATM   24  O   UNL     1     -12.641  10.717  71.828  1.00  0.00    -0.390 OA 
HETATM   25  H   UNL     1     -13.065  11.420  71.348  1.00  0.00     0.000 HD 
ENDBRANCH  19  23
ENDBRANCH  12  15
TORSDOF 2
ENDMDL
MODEL      134
REMARK 921   NORMALIZED FREE ENERGY PREDICTED BY IDOCK:   -4.23 KCAL/MOL
REMARK 922        TOTAL FREE ENERGY PREDICTED BY IDOCK:   -5.06 KCAL/MOL
REMARK 923 INTER-LIGAND FREE ENERGY PREDICTED BY IDOCK:   -5.01 KCAL/MOL
REMARK 924 INTRA-LIGAND FREE ENERGY PREDICTED BY IDOCK:   -0.05 KCAL/MOL
REMARK 927      BINDING AFFINITY PREDICTED BY RF-SCORE:    0.00 PKD
ROOT
HETATM    1  N   UNL     1     -11.446   6.449  66.755  1.00  0.00    -0.746 NA 
HETATM    2  C   UNL     1     -10.170   6.822  67.031  1.00  0.00    -0.237 C  
HETATM    3  H2  UNL     1     -11.800   5.562  67.112  1.00  0.00     0.000 HD 
HETATM    4  H1  UNL     1     -12.055   7.045  66.194  1.00  0.00     0.000 HD 
HETATM    5  N   UNL     1      -9.394   6.062  67.746  1.00  0.00    -0.107 N  
HETATM    6  C   UNL     1      -8.070   6.455  67.999  1.00  0.00    -0.116 C  
HETATM    7  H   UNL     1      -9.747   5.183  68.122  1.00  0.00     0.000 HD 
HETATM    8  C   UNL     1      -7.659   7.722  67.374  1.00  0.00    -0.105 A  
HETATM    9  O   UNL     1      -7.311   5.791  68.698  1.00  0.00    -0.080 OA 
HETATM   10  C   UNL     1      -8.574   8.436  66.648  1.00  0.00    -0.120 A  
HETATM   11  N   UNL     1      -9.840   8.031  66.479  1.00  0.00    -0.236 NA 
HETATM   12  N   UNL     1      -7.946   9.553  66.192  1.00  0.00    -0.107 NA 
HETATM   13  N   UNL     1      -6.448   8.376  67.366  1.00  0.00    -0.057 NA 
HETATM   14  C   UNL     1      -6.653   9.470  66.650  1.00  0.00    -0.068 A  
ENDROOT
BRANCH  12  15
HETATM   15  C   UNL     1      -8.565  10.646  65.474  1.00  0.00    -0.185 C  
HETATM   16  C   UNL     1      -9.569  10.214  64.405  1.00  0.00    -0.366 C  
HETATM   17  C   UNL     1     -10.205  11.543  64.020  1.00  0.00    -0.345 C  
HETATM   18  O   UNL     1      -9.288  12.253  63.179  1.00  0.00    -0.601 OA 
HETATM   19  C   UNL     1     -10.376  12.311  65.353  1.00  0.00    -0.298 C  
HETATM   20  C   UNL     1      -9.344  11.663  66.279  1.00  0.00    -0.228 C  
HETATM   21  H   UNL     1      -9.685  13.082  62.939  1.00  0.00     0.000 HD 
HETATM   22  C   UNL     1      -9.184  11.963  67.579  1.00  0.00    -0.177 C  
BRANCH  19  23
HETATM   23  C   UNL     1     -11.818  12.224  65.868  1.00  0.00    -0.354 C  
HETATM   24  O   UNL     1     -12.566  13.387  65.536  1.00  0.00    -0.475 OA 
HETATM   25  H   UNL     1     -13.460  13.332  65.855  1.00  0.00     0.000 HD 
ENDBRANCH  19  23
ENDBRANCH  12  15
TORSDOF 2
ENDMDL
MODEL      135
REMARK 921   NORMALIZED FREE ENERGY PREDICTED BY IDOCK:   -4.20 KCAL/MOL
REMARK 922        TOTAL FREE ENERGY PREDICTED BY IDOCK:   -5.03 KCAL/MOL
REMARK 923 INTER-LIGAND FREE ENERGY PREDICTED BY IDOCK:   -5.11 KCAL/MOL
REMARK 924 INTRA-LIGAND FREE ENERGY PREDICTED BY IDOCK:    0.08 KCAL/MOL
REMARK 927      BINDING AFFINITY PREDICTED BY RF-SCORE:    0.00 PKD
ROOT
HETATM    1  N   UNL     1     -10.899   3.347  72.763  1.00  0.00    -0.035 NA 
HETATM    2  C   UNL     1     -10.060   4.413  72.809  1.00  0.00    -0.168 C  
HETATM    3  H2  UNL     1     -10.567   2.432  73.066  1.00  0.00     0.000 HD 
HETATM    4  H1  UNL     1     -11.858   3.450  72.429  1.00  0.00     0.000 HD 
HETATM    5  N   UNL     1      -8.838   4.281  73.235  1.00  0.00    -0.099 N  
HETATM    6  C   UNL     1      -7.979   5.392  73.251  1.00  0.00    -0.111 C  
HETATM    7  H   UNL     1      -8.505   3.373  73.556  1.00  0.00     0.000 HD 
HETATM    8  C   UNL     1      -8.556   6.641  72.729  1.00  0.00    -0.122 A  
HETATM    9  O   UNL     1      -6.831   5.327  73.678  1.00  0.00    -0.076 OA 
HETATM   10  C   UNL     1      -9.861   6.653  72.316  1.00  0.00    -0.152 A  
HETATM   11  N   UNL     1     -10.646   5.569  72.368  1.00  0.00    -0.214 NA 
HETATM   12  N   UNL     1     -10.139   7.914  71.891  1.00  0.00    -0.185 NA 
HETATM   13  N   UNL     1      -8.001   7.888  72.551  1.00  0.00    -0.110 NA 
HETATM   14  C   UNL     1      -8.976   8.628  72.049  1.00  0.00    -0.216 A  
ENDROOT
BRANCH  12  15
HETATM   15  C   UNL     1     -11.434   8.407  71.474  1.00  0.00    -0.278 C  
HETATM   16  C   UNL     1     -12.395   8.714  72.622  1.00  0.00    -0.282 C  
HETATM   17  C   UNL     1     -13.531   9.422  71.897  1.00  0.00    -0.426 C  
HETATM   18  O   UNL     1     -14.315   8.434  71.219  1.00  0.00    -0.604 OA 
HETATM   19  C   UNL     1     -12.840  10.332  70.851  1.00  0.00    -0.463 C  
HETATM   20  C   UNL     1     -11.471   9.677  70.652  1.00  0.00    -0.376 C  
HETATM   21  H   UNL     1     -15.024   8.876  70.766  1.00  0.00     0.000 HD 
HETATM   22  C   UNL     1     -10.489  10.171  69.878  1.00  0.00    -0.322 C  
BRANCH  19  23
HETATM   23  C   UNL     1     -12.772  11.785  71.332  1.00  0.00    -0.308 C  
HETATM   24  O   UNL     1     -13.542  11.987  72.511  1.00  0.00    -0.564 OA 
HETATM   25  H   UNL     1     -13.499  12.888  72.809  1.00  0.00     0.000 HD 
ENDBRANCH  19  23
ENDBRANCH  12  15
TORSDOF 2
ENDMDL
MODEL      136
REMARK 921   NORMALIZED FREE ENERGY PREDICTED BY IDOCK:   -4.19 KCAL/MOL
REMARK 922        TOTAL FREE ENERGY PREDICTED BY IDOCK:   -5.02 KCAL/MOL
REMARK 923 INTER-LIGAND FREE ENERGY PREDICTED BY IDOCK:   -5.22 KCAL/MOL
REMARK 924 INTRA-LIGAND FREE ENERGY PREDICTED BY IDOCK:    0.20 KCAL/MOL
REMARK 927      BINDING AFFINITY PREDICTED BY RF-SCORE:    0.00 PKD
ROOT
HETATM    1  N   UNL     1     -12.723  10.932  71.243  1.00  0.00    -0.412 NA 
HETATM    2  C   UNL     1     -11.866  10.236  70.453  1.00  0.00    -0.309 C  
HETATM    3  H2  UNL     1     -13.089  10.499  72.091  1.00  0.00     0.000 HD 
HETATM    4  H1  UNL     1     -13.005  11.881  71.000  1.00  0.00     0.000 HD 
HETATM    5  N   UNL     1     -11.507   9.026  70.763  1.00  0.00    -0.279 N  
HETATM    6  C   UNL     1     -10.639   8.315  69.918  1.00  0.00    -0.232 C  
HETATM    7  H   UNL     1     -11.855   8.593  71.618  1.00  0.00     0.000 HD 
HETATM    8  C   UNL     1     -10.233   9.023  68.694  1.00  0.00    -0.205 A  
HETATM    9  O   UNL     1     -10.242   7.185  70.186  1.00  0.00    -0.191 OA 
HETATM   10  C   UNL     1     -10.674  10.302  68.484  1.00  0.00    -0.227 A  
HETATM   11  N   UNL     1     -11.466  10.946  69.352  1.00  0.00    -0.275 NA 
HETATM   12  N   UNL     1     -10.155  10.720  67.299  1.00  0.00    -0.190 NA 
HETATM   13  N   UNL     1      -9.447   8.624  67.636  1.00  0.00    -0.139 NA 
HETATM   14  C   UNL     1      -9.419   9.663  66.818  1.00  0.00    -0.161 A  
ENDROOT
BRANCH  12  15
HETATM   15  C   UNL     1     -10.271  12.049  66.739  1.00  0.00    -0.202 C  
HETATM   16  C   UNL     1     -11.704  12.567  66.630  1.00  0.00    -0.453 C  
HETATM   17  C   UNL     1     -11.480  14.026  66.255  1.00  0.00    -0.351 C  
HETATM   18  O   UNL     1     -11.124  14.084  64.869  1.00  0.00    -0.340 OA 
HETATM   19  C   UNL     1     -10.274  14.484  67.112  1.00  0.00    -0.260 C  
HETATM   20  C   UNL     1      -9.556  13.176  67.452  1.00  0.00    -0.219 C  
HETATM   21  H   UNL     1     -10.984  14.994  64.635  1.00  0.00     0.000 HD 
HETATM   22  C   UNL     1      -8.481  13.076  68.253  1.00  0.00    -0.159 C  
BRANCH  19  23
HETATM   23  C   UNL     1     -10.730  15.282  68.338  1.00  0.00    -0.250 C  
HETATM   24  O   UNL     1     -10.613  14.523  69.535  1.00  0.00    -0.365 OA 
HETATM   25  H   UNL     1     -10.896  15.019  70.295  1.00  0.00     0.000 HD 
ENDBRANCH  19  23
ENDBRANCH  12  15
TORSDOF 2
ENDMDL
MODEL      137
REMARK 921   NORMALIZED FREE ENERGY PREDICTED BY IDOCK:   -4.19 KCAL/MOL
REMARK 922        TOTAL FREE ENERGY PREDICTED BY IDOCK:   -5.02 KCAL/MOL
REMARK 923 INTER-LIGAND FREE ENERGY PREDICTED BY IDOCK:   -4.86 KCAL/MOL
REMARK 924 INTRA-LIGAND FREE ENERGY PREDICTED BY IDOCK:   -0.16 KCAL/MOL
REMARK 927      BINDING AFFINITY PREDICTED BY RF-SCORE:    0.00 PKD
ROOT
HETATM    1  N   UNL     1     -12.685  12.757  71.169  1.00  0.00    -0.328 NA 
HETATM    2  C   UNL     1     -12.644  11.402  71.237  1.00  0.00    -0.374 C  
HETATM    3  H2  UNL     1     -13.427  13.263  71.653  1.00  0.00     0.000 HD 
HETATM    4  H1  UNL     1     -11.984  13.275  70.640  1.00  0.00     0.000 HD 
HETATM    5  N   UNL     1     -13.538  10.741  71.911  1.00  0.00    -0.264 N  
HETATM    6  C   UNL     1     -13.492   9.338  71.948  1.00  0.00    -0.430 C  
HETATM    7  H   UNL     1     -14.272  11.241  72.412  1.00  0.00     0.000 HD 
HETATM    8  C   UNL     1     -12.414   8.723  71.157  1.00  0.00    -0.193 A  
HETATM    9  O   UNL     1     -14.290   8.672  72.600  1.00  0.00    -0.533 OA 
HETATM   10  C   UNL     1     -11.528   9.530  70.494  1.00  0.00    -0.276 A  
HETATM   11  N   UNL     1     -11.597  10.868  70.534  1.00  0.00    -0.328 NA 
HETATM   12  N   UNL     1     -10.643   8.719  69.855  1.00  0.00    -0.222 NA 
HETATM   13  N   UNL     1     -12.101   7.403  70.926  1.00  0.00    -0.289 NA 
HETATM   14  C   UNL     1     -11.035   7.434  70.144  1.00  0.00    -0.255 A  
ENDROOT
BRANCH  12  15
HETATM   15  C   UNL     1      -9.470   9.147  69.125  1.00  0.00    -0.156 C  
HETATM   16  C   UNL     1      -8.456   8.037  68.848  1.00  0.00    -0.131 C  
HETATM   17  C   UNL     1      -7.496   8.724  67.886  1.00  0.00    -0.093 C  
HETATM   18  O   UNL     1      -6.653   9.600  68.643  1.00  0.00    -0.051 OA 
HETATM   19  C   UNL     1      -8.396   9.565  66.948  1.00  0.00    -0.116 C  
HETATM   20  C   UNL     1      -9.678   9.765  67.760  1.00  0.00    -0.167 C  
HETATM   21  H   UNL     1      -6.054  10.029  68.044  1.00  0.00     0.000 HD 
HETATM   22  C   UNL     1     -10.783  10.381  67.309  1.00  0.00    -0.331 C  
BRANCH  19  23
HETATM   23  C   UNL     1      -8.611   8.863  65.603  1.00  0.00    -0.166 C  
HETATM   24  O   UNL     1      -8.648   9.789  64.525  1.00  0.00    -0.156 OA 
HETATM   25  H   UNL     1      -8.782   9.353  63.691  1.00  0.00     0.000 HD 
ENDBRANCH  19  23
ENDBRANCH  12  15
TORSDOF 2
ENDMDL
MODEL      138
REMARK 921   NORMALIZED FREE ENERGY PREDICTED BY IDOCK:   -4.18 KCAL/MOL
REMARK 922        TOTAL FREE ENERGY PREDICTED BY IDOCK:   -5.01 KCAL/MOL
REMARK 923 INTER-LIGAND FREE ENERGY PREDICTED BY IDOCK:   -4.69 KCAL/MOL
REMARK 924 INTRA-LIGAND FREE ENERGY PREDICTED BY IDOCK:   -0.31 KCAL/MOL
REMARK 927      BINDING AFFINITY PREDICTED BY RF-SCORE:    0.00 PKD
ROOT
HETATM    1  N   UNL     1     -10.665  10.886  63.203  1.00  0.00    -0.731 NA 
HETATM    2  C   UNL     1      -9.527  10.510  63.840  1.00  0.00    -0.292 C  
HETATM    3  H2  UNL     1     -10.606  11.319  62.281  1.00  0.00     0.000 HD 
HETATM    4  H1  UNL     1     -11.578  10.741  63.634  1.00  0.00     0.000 HD 
HETATM    5  N   UNL     1      -8.363  10.694  63.290  1.00  0.00    -0.300 N  
HETATM    6  C   UNL     1      -7.197  10.321  63.977  1.00  0.00    -0.057 C  
HETATM    7  H   UNL     1      -8.298  11.110  62.361  1.00  0.00     0.000 HD 
HETATM    8  C   UNL     1      -7.410   9.768  65.324  1.00  0.00    -0.120 A  
HETATM    9  O   UNL     1      -6.079  10.440  63.485  1.00  0.00    -0.144 OA 
HETATM   10  C   UNL     1      -8.689   9.616  65.789  1.00  0.00    -0.147 A  
HETATM   11  N   UNL     1      -9.766   9.950  65.066  1.00  0.00    -0.309 NA 
HETATM   12  N   UNL     1      -8.604   9.087  67.039  1.00  0.00    -0.116 NA 
HETATM   13  N   UNL     1      -6.515   9.350  66.282  1.00  0.00    -0.069 NA 
HETATM   14  C   UNL     1      -7.262   8.947  67.297  1.00  0.00    -0.083 A  
ENDROOT
BRANCH  12  15
HETATM   15  C   UNL     1      -9.716   8.658  67.859  1.00  0.00    -0.161 C  
HETATM   16  C   UNL     1      -9.377   7.550  68.857  1.00  0.00    -0.142 C  
HETATM   17  C   UNL     1     -10.639   7.500  69.707  1.00  0.00    -0.241 C  
HETATM   18  O   UNL     1     -11.654   6.816  68.963  1.00  0.00    -0.587 OA 
HETATM   19  C   UNL     1     -11.056   8.978  69.901  1.00  0.00    -0.155 C  
HETATM   20  C   UNL     1     -10.393   9.698  68.724  1.00  0.00    -0.233 C  
HETATM   21  H   UNL     1     -12.442   6.784  69.493  1.00  0.00     0.000 HD 
HETATM   22  C   UNL     1     -10.419  11.027  68.524  1.00  0.00    -0.210 C  
BRANCH  19  23
HETATM   23  C   UNL     1     -10.629   9.504  71.276  1.00  0.00    -0.288 C  
HETATM   24  O   UNL     1      -9.214   9.577  71.396  1.00  0.00    -0.311 OA 
HETATM   25  H   UNL     1      -8.950   9.903  72.248  1.00  0.00     0.000 HD 
ENDBRANCH  19  23
ENDBRANCH  12  15
TORSDOF 2
ENDMDL
MODEL      139
REMARK 921   NORMALIZED FREE ENERGY PREDICTED BY IDOCK:   -4.17 KCAL/MOL
REMARK 922        TOTAL FREE ENERGY PREDICTED BY IDOCK:   -4.99 KCAL/MOL
REMARK 923 INTER-LIGAND FREE ENERGY PREDICTED BY IDOCK:   -4.75 KCAL/MOL
REMARK 924 INTRA-LIGAND FREE ENERGY PREDICTED BY IDOCK:   -0.24 KCAL/MOL
REMARK 927      BINDING AFFINITY PREDICTED BY RF-SCORE:    0.00 PKD
ROOT
HETATM    1  N   UNL     1     -11.326  14.144  64.005  1.00  0.00    -0.577 NA 
HETATM    2  C   UNL     1     -10.450  14.179  65.042  1.00  0.00    -0.425 C  
HETATM    3  H2  UNL     1     -11.465  14.979  63.435  1.00  0.00     0.000 HD 
HETATM    4  H1  UNL     1     -11.846  13.294  63.789  1.00  0.00     0.000 HD 
HETATM    5  N   UNL     1      -9.787  15.263  65.318  1.00  0.00    -0.283 N  
HETATM    6  C   UNL     1      -8.905  15.285  66.410  1.00  0.00    -0.276 C  
HETATM    7  H   UNL     1      -9.907  16.095  64.742  1.00  0.00     0.000 HD 
HETATM    8  C   UNL     1      -8.842  14.040  67.193  1.00  0.00    -0.228 A  
HETATM    9  O   UNL     1      -8.230  16.270  66.688  1.00  0.00    -0.222 OA 
HETATM   10  C   UNL     1      -9.586  12.962  66.795  1.00  0.00    -0.246 A  
HETATM   11  N   UNL     1     -10.377  12.988  65.714  1.00  0.00    -0.282 NA 
HETATM   12  N   UNL     1      -9.342  11.955  67.676  1.00  0.00    -0.178 NA 
HETATM   13  N   UNL     1      -8.139  13.724  68.333  1.00  0.00    -0.146 NA 
HETATM   14  C   UNL     1      -8.459  12.467  68.596  1.00  0.00     0.031 A  
ENDROOT
BRANCH  12  15
HETATM   15  C   UNL     1      -9.832  10.598  67.575  1.00  0.00    -0.168 C  
HETATM   16  C   UNL     1      -8.786   9.579  67.124  1.00  0.00    -0.137 C  
HETATM   17  C   UNL     1      -9.516   8.262  67.350  1.00  0.00    -0.151 C  
HETATM   18  O   UNL     1     -10.461   8.084  66.289  1.00  0.00    -0.385 OA 
HETATM   19  C   UNL     1     -10.276   8.445  68.686  1.00  0.00    -0.220 C  
HETATM   20  C   UNL     1     -10.407   9.964  68.823  1.00  0.00    -0.222 C  
HETATM   21  H   UNL     1     -10.917   7.262  66.430  1.00  0.00     0.000 HD 
HETATM   22  C   UNL     1     -10.939  10.596  69.882  1.00  0.00    -0.337 C  
BRANCH  19  23
HETATM   23  C   UNL     1      -9.534   7.775  69.848  1.00  0.00    -0.160 C  
HETATM   24  O   UNL     1      -8.710   6.706  69.401  1.00  0.00    -0.133 OA 
HETATM   25  H   UNL     1      -8.250   6.291  70.122  1.00  0.00     0.000 HD 
ENDBRANCH  19  23
ENDBRANCH  12  15
TORSDOF 2
ENDMDL
MODEL      140
REMARK 921   NORMALIZED FREE ENERGY PREDICTED BY IDOCK:   -4.16 KCAL/MOL
REMARK 922        TOTAL FREE ENERGY PREDICTED BY IDOCK:   -4.99 KCAL/MOL
REMARK 923 INTER-LIGAND FREE ENERGY PREDICTED BY IDOCK:   -4.58 KCAL/MOL
REMARK 924 INTRA-LIGAND FREE ENERGY PREDICTED BY IDOCK:   -0.41 KCAL/MOL
REMARK 927      BINDING AFFINITY PREDICTED BY RF-SCORE:    0.00 PKD
ROOT
HETATM    1  N   UNL     1      -5.602   5.988  72.519  1.00  0.00    -0.031 NA 
HETATM    2  C   UNL     1      -6.621   5.469  71.787  1.00  0.00    -0.052 C  
HETATM    3  H2  UNL     1      -4.826   5.387  72.799  1.00  0.00     0.000 HD 
HETATM    4  H1  UNL     1      -5.601   6.970  72.792  1.00  0.00     0.000 HD 
HETATM    5  N   UNL     1      -6.622   4.216  71.440  1.00  0.00    -0.028 N  
HETATM    6  C   UNL     1      -7.698   3.694  70.704  1.00  0.00    -0.040 C  
HETATM    7  H   UNL     1      -5.842   3.614  71.701  1.00  0.00     0.000 HD 
HETATM    8  C   UNL     1      -8.784   4.645  70.418  1.00  0.00    -0.089 A  
HETATM    9  O   UNL     1      -7.727   2.529  70.321  1.00  0.00    -0.043 OA 
HETATM   10  C   UNL     1      -8.662   5.944  70.833  1.00  0.00    -0.131 A  
HETATM   11  N   UNL     1      -7.586   6.394  71.493  1.00  0.00    -0.097 NA 
HETATM   12  N   UNL     1      -9.786   6.601  70.441  1.00  0.00    -0.175 NA 
HETATM   13  N   UNL     1      -9.990   4.474  69.778  1.00  0.00    -0.229 NA 
HETATM   14  C   UNL     1     -10.566   5.665  69.807  1.00  0.00    -0.329 A  
ENDROOT
BRANCH  12  15
HETATM   15  C   UNL     1     -10.032   8.021  70.572  1.00  0.00    -0.190 C  
HETATM   16  C   UNL     1     -10.773   8.647  69.391  1.00  0.00    -0.169 C  
HETATM   17  C   UNL     1     -11.089  10.038  69.924  1.00  0.00    -0.288 C  
HETATM   18  O   UNL     1      -9.892  10.823  69.867  1.00  0.00    -0.402 OA 
HETATM   19  C   UNL     1     -11.489   9.824  71.404  1.00  0.00    -0.435 C  
HETATM   20  C   UNL     1     -10.839   8.486  71.764  1.00  0.00    -0.374 C  
HETATM   21  H   UNL     1     -10.088  11.691  70.199  1.00  0.00     0.000 HD 
HETATM   22  C   UNL     1     -10.982   7.856  72.942  1.00  0.00    -0.452 C  
BRANCH  19  23
HETATM   23  C   UNL     1     -13.012   9.845  71.580  1.00  0.00    -0.422 C  
HETATM   24  O   UNL     1     -13.453  11.044  72.205  1.00  0.00    -0.603 OA 
HETATM   25  H   UNL     1     -14.397  11.057  72.314  1.00  0.00     0.000 HD 
ENDBRANCH  19  23
ENDBRANCH  12  15
TORSDOF 2
ENDMDL
MODEL      141
REMARK 921   NORMALIZED FREE ENERGY PREDICTED BY IDOCK:   -4.15 KCAL/MOL
REMARK 922        TOTAL FREE ENERGY PREDICTED BY IDOCK:   -4.98 KCAL/MOL
REMARK 923 INTER-LIGAND FREE ENERGY PREDICTED BY IDOCK:   -4.86 KCAL/MOL
REMARK 924 INTRA-LIGAND FREE ENERGY PREDICTED BY IDOCK:   -0.11 KCAL/MOL
REMARK 927      BINDING AFFINITY PREDICTED BY RF-SCORE:    0.00 PKD
ROOT
HETATM    1  N   UNL     1     -11.906  12.060  67.202  1.00  0.00    -0.604 NA 
HETATM    2  C   UNL     1     -11.118  11.278  66.421  1.00  0.00    -0.193 C  
HETATM    3  H2  UNL     1     -12.379  12.866  66.793  1.00  0.00     0.000 HD 
HETATM    4  H1  UNL     1     -12.030  11.852  68.193  1.00  0.00     0.000 HD 
HETATM    5  N   UNL     1     -10.960  11.542  65.158  1.00  0.00    -0.267 N  
HETATM    6  C   UNL     1     -10.121  10.735  64.373  1.00  0.00    -0.353 C  
HETATM    7  H   UNL     1     -11.443  12.336  64.738  1.00  0.00     0.000 HD 
HETATM    8  C   UNL     1      -9.445   9.643  65.093  1.00  0.00    -0.265 A  
HETATM    9  O   UNL     1      -9.968  10.921  63.170  1.00  0.00    -0.327 OA 
HETATM   10  C   UNL     1      -9.701   9.463  66.426  1.00  0.00    -0.250 A  
HETATM   11  N   UNL     1     -10.550  10.241  67.112  1.00  0.00    -0.261 NA 
HETATM   12  N   UNL     1      -8.963   8.398  66.839  1.00  0.00    -0.140 NA 
HETATM   13  N   UNL     1      -8.534   8.705  64.664  1.00  0.00    -0.161 NA 
HETATM   14  C   UNL     1      -8.266   7.974  65.734  1.00  0.00    -0.132 A  
ENDROOT
BRANCH  12  15
HETATM   15  C   UNL     1      -9.010   7.786  68.148  1.00  0.00    -0.127 C  
HETATM   16  C   UNL     1      -8.959   8.774  69.313  1.00  0.00    -0.144 C  
HETATM   17  C   UNL     1      -9.268   7.873  70.501  1.00  0.00    -0.158 C  
HETATM   18  O   UNL     1      -8.092   7.116  70.809  1.00  0.00    -0.106 OA 
HETATM   19  C   UNL     1     -10.377   6.914  70.003  1.00  0.00    -0.219 C  
HETATM   20  C   UNL     1     -10.215   6.932  68.481  1.00  0.00    -0.187 C  
HETATM   21  H   UNL     1      -8.285   6.554  71.550  1.00  0.00     0.000 HD 
HETATM   22  C   UNL     1     -11.021   6.295  67.616  1.00  0.00    -0.438 C  
BRANCH  19  23
HETATM   23  C   UNL     1     -11.761   7.359  70.488  1.00  0.00    -0.191 C  
HETATM   24  O   UNL     1     -12.241   6.534  71.542  1.00  0.00    -0.340 OA 
HETATM   25  H   UNL     1     -13.099   6.810  71.843  1.00  0.00     0.000 HD 
ENDBRANCH  19  23
ENDBRANCH  12  15
TORSDOF 2
ENDMDL
MODEL      142
REMARK 921   NORMALIZED FREE ENERGY PREDICTED BY IDOCK:   -4.13 KCAL/MOL
REMARK 922        TOTAL FREE ENERGY PREDICTED BY IDOCK:   -4.95 KCAL/MOL
REMARK 923 INTER-LIGAND FREE ENERGY PREDICTED BY IDOCK:   -4.66 KCAL/MOL
REMARK 924 INTRA-LIGAND FREE ENERGY PREDICTED BY IDOCK:   -0.30 KCAL/MOL
REMARK 927      BINDING AFFINITY PREDICTED BY RF-SCORE:    0.00 PKD
ROOT
HETATM    1  N   UNL     1     -12.204  11.061  68.677  1.00  0.00    -0.771 NA 
HETATM    2  C   UNL     1     -11.302  10.099  68.357  1.00  0.00    -0.113 C  
HETATM    3  H2  UNL     1     -12.394  11.813  68.015  1.00  0.00     0.000 HD 
HETATM    4  H1  UNL     1     -12.694  11.041  69.572  1.00  0.00     0.000 HD 
HETATM    5  N   UNL     1     -10.677  10.124  67.217  1.00  0.00    -0.266 N  
HETATM    6  C   UNL     1      -9.730   9.132  66.915  1.00  0.00    -0.194 C  
HETATM    7  H   UNL     1     -10.875  10.863  66.543  1.00  0.00     0.000 HD 
HETATM    8  C   UNL     1      -9.498   8.141  67.978  1.00  0.00    -0.143 A  
HETATM    9  O   UNL     1      -9.142   9.092  65.840  1.00  0.00    -0.182 OA 
HETATM   10  C   UNL     1     -10.226   8.217  69.134  1.00  0.00    -0.218 A  
HETATM   11  N   UNL     1     -11.152   9.163  69.345  1.00  0.00    -0.086 NA 
HETATM   12  N   UNL     1      -9.825   7.193  69.934  1.00  0.00    -0.173 NA 
HETATM   13  N   UNL     1      -8.624   7.079  68.049  1.00  0.00    -0.124 NA 
HETATM   14  C   UNL     1      -8.846   6.531  69.233  1.00  0.00    -0.132 A  
ENDROOT
BRANCH  12  15
HETATM   15  C   UNL     1     -10.408   6.827  71.206  1.00  0.00    -0.204 C  
HETATM   16  C   UNL     1     -10.419   5.325  71.488  1.00  0.00    -0.279 C  
HETATM   17  C   UNL     1     -10.847   5.285  72.949  1.00  0.00    -0.270 C  
HETATM   18  O   UNL     1     -12.258   5.527  73.011  1.00  0.00    -0.531 OA 
HETATM   19  C   UNL     1     -10.098   6.461  73.622  1.00  0.00    -0.256 C  
HETATM   20  C   UNL     1      -9.781   7.402  72.457  1.00  0.00    -0.202 C  
HETATM   21  H   UNL     1     -12.525   5.503  73.922  1.00  0.00     0.000 HD 
HETATM   22  C   UNL     1      -9.064   8.534  72.558  1.00  0.00    -0.284 C  
BRANCH  19  23
HETATM   23  C   UNL     1      -8.861   5.973  74.385  1.00  0.00    -0.127 C  
HETATM   24  O   UNL     1      -8.339   4.773  73.829  1.00  0.00    -0.105 OA 
HETATM   25  H   UNL     1      -7.572   4.471  74.301  1.00  0.00     0.000 HD 
ENDBRANCH  19  23
ENDBRANCH  12  15
TORSDOF 2
ENDMDL
MODEL      143
REMARK 921   NORMALIZED FREE ENERGY PREDICTED BY IDOCK:   -4.12 KCAL/MOL
REMARK 922        TOTAL FREE ENERGY PREDICTED BY IDOCK:   -4.94 KCAL/MOL
REMARK 923 INTER-LIGAND FREE ENERGY PREDICTED BY IDOCK:   -4.80 KCAL/MOL
REMARK 924 INTRA-LIGAND FREE ENERGY PREDICTED BY IDOCK:   -0.14 KCAL/MOL
REMARK 927      BINDING AFFINITY PREDICTED BY RF-SCORE:    0.00 PKD
ROOT
HETATM    1  N   UNL     1      -5.825  16.513  66.738  1.00  0.00    -0.333 NA 
HETATM    2  C   UNL     1      -7.168  16.385  66.892  1.00  0.00    -0.231 C  
HETATM    3  H2  UNL     1      -5.406  17.443  66.730  1.00  0.00     0.000 HD 
HETATM    4  H1  UNL     1      -5.230  15.691  66.629  1.00  0.00     0.000 HD 
HETATM    5  N   UNL     1      -7.925  17.432  67.030  1.00  0.00    -0.205 N  
HETATM    6  C   UNL     1      -9.315  17.279  67.164  1.00  0.00    -0.243 C  
HETATM    7  H   UNL     1      -7.511  18.363  67.042  1.00  0.00     0.000 HD 
HETATM    8  C   UNL     1      -9.804  15.892  67.094  1.00  0.00    -0.231 A  
HETATM    9  O   UNL     1     -10.067  18.232  67.334  1.00  0.00    -0.321 OA 
HETATM   10  C   UNL     1      -8.902  14.872  66.952  1.00  0.00    -0.258 A  
HETATM   11  N   UNL     1      -7.580  15.079  66.876  1.00  0.00    -0.026 NA 
HETATM   12  N   UNL     1      -9.608  13.710  66.921  1.00  0.00    -0.254 NA 
HETATM   13  N   UNL     1     -11.081  15.380  67.136  1.00  0.00    -0.318 NA 
HETATM   14  C   UNL     1     -10.929  14.070  67.031  1.00  0.00    -0.297 A  
ENDROOT
BRANCH  12  15
HETATM   15  C   UNL     1      -9.050  12.375  66.895  1.00  0.00    -0.211 C  
HETATM   16  C   UNL     1      -9.020  11.675  68.254  1.00  0.00    -0.185 C  
HETATM   17  C   UNL     1      -8.628  10.256  67.864  1.00  0.00    -0.118 C  
HETATM   18  O   UNL     1      -7.223  10.239  67.582  1.00  0.00    -0.085 OA 
HETATM   19  C   UNL     1      -9.414   9.961  66.564  1.00  0.00    -0.230 C  
HETATM   20  C   UNL     1      -9.718  11.353  66.002  1.00  0.00    -0.253 C  
HETATM   21  H   UNL     1      -6.979   9.354  67.339  1.00  0.00     0.000 HD 
HETATM   22  C   UNL     1     -10.458  11.593  64.906  1.00  0.00    -0.339 C  
BRANCH  19  23
HETATM   23  C   UNL     1     -10.661   9.115  66.843  1.00  0.00    -0.167 C  
HETATM   24  O   UNL     1     -10.433   7.737  66.575  1.00  0.00    -0.492 OA 
HETATM   25  H   UNL     1     -11.206   7.212  66.749  1.00  0.00     0.000 HD 
ENDBRANCH  19  23
ENDBRANCH  12  15
TORSDOF 2
ENDMDL
MODEL      144
REMARK 921   NORMALIZED FREE ENERGY PREDICTED BY IDOCK:   -4.12 KCAL/MOL
REMARK 922        TOTAL FREE ENERGY PREDICTED BY IDOCK:   -4.94 KCAL/MOL
REMARK 923 INTER-LIGAND FREE ENERGY PREDICTED BY IDOCK:   -4.76 KCAL/MOL
REMARK 924 INTRA-LIGAND FREE ENERGY PREDICTED BY IDOCK:   -0.18 KCAL/MOL
REMARK 927      BINDING AFFINITY PREDICTED BY RF-SCORE:    0.00 PKD
ROOT
HETATM    1  N   UNL     1      -6.812   8.897  72.916  1.00  0.00    -0.326 NA 
HETATM    2  C   UNL     1      -7.843   8.020  72.818  1.00  0.00    -0.132 C  
HETATM    3  H2  UNL     1      -6.060   8.718  73.582  1.00  0.00     0.000 HD 
HETATM    4  H1  UNL     1      -6.778   9.733  72.333  1.00  0.00     0.000 HD 
HETATM    5  N   UNL     1      -7.885   6.955  73.562  1.00  0.00    -0.093 N  
HETATM    6  C   UNL     1      -8.974   6.073  73.462  1.00  0.00    -0.124 C  
HETATM    7  H   UNL     1      -7.129   6.760  74.217  1.00  0.00     0.000 HD 
HETATM    8  C   UNL     1     -10.024   6.476  72.512  1.00  0.00    -0.170 A  
HETATM    9  O   UNL     1      -9.041   5.037  74.114  1.00  0.00    -0.112 OA 
HETATM   10  C   UNL     1      -9.859   7.621  71.779  1.00  0.00    -0.165 A  
HETATM   11  N   UNL     1      -8.773   8.399  71.887  1.00  0.00    -0.177 NA 
HETATM   12  N   UNL     1     -10.956   7.755  70.987  1.00  0.00    -0.240 NA 
HETATM   13  N   UNL     1     -11.231   5.893  72.198  1.00  0.00    -0.279 NA 
HETATM   14  C   UNL     1     -11.764   6.684  71.280  1.00  0.00    -0.334 A  
ENDROOT
BRANCH  12  15
HETATM   15  C   UNL     1     -11.153   8.764  69.969  1.00  0.00    -0.162 C  
HETATM   16  C   UNL     1     -11.062  10.203  70.476  1.00  0.00    -0.400 C  
HETATM   17  C   UNL     1     -11.062  10.993  69.175  1.00  0.00    -0.243 C  
HETATM   18  O   UNL     1     -12.402  11.027  68.670  1.00  0.00    -0.753 OA 
HETATM   19  C   UNL     1     -10.172  10.177  68.206  1.00  0.00    -0.192 C  
HETATM   20  C   UNL     1     -10.209   8.761  68.786  1.00  0.00    -0.224 C  
HETATM   21  H   UNL     1     -12.403  11.520  67.858  1.00  0.00     0.000 HD 
HETATM   22  C   UNL     1      -9.509   7.718  68.310  1.00  0.00    -0.150 C  
BRANCH  19  23
HETATM   23  C   UNL     1      -8.764  10.773  68.103  1.00  0.00    -0.130 C  
HETATM   24  O   UNL     1      -8.689  12.055  68.715  1.00  0.00    -0.350 OA 
HETATM   25  H   UNL     1      -7.815  12.424  68.652  1.00  0.00     0.000 HD 
ENDBRANCH  19  23
ENDBRANCH  12  15
TORSDOF 2
ENDMDL
MODEL      145
REMARK 921   NORMALIZED FREE ENERGY PREDICTED BY IDOCK:   -4.10 KCAL/MOL
REMARK 922        TOTAL FREE ENERGY PREDICTED BY IDOCK:   -4.92 KCAL/MOL
REMARK 923 INTER-LIGAND FREE ENERGY PREDICTED BY IDOCK:   -4.56 KCAL/MOL
REMARK 924 INTRA-LIGAND FREE ENERGY PREDICTED BY IDOCK:   -0.35 KCAL/MOL
REMARK 927      BINDING AFFINITY PREDICTED BY RF-SCORE:    0.00 PKD
ROOT
HETATM    1  N   UNL     1      -6.965   3.288  69.680  1.00  0.00    -0.041 NA 
HETATM    2  C   UNL     1      -7.862   3.732  68.763  1.00  0.00    -0.055 C  
HETATM    3  H2  UNL     1      -6.481   2.403  69.523  1.00  0.00     0.000 HD 
HETATM    4  H1  UNL     1      -6.767   3.827  70.523  1.00  0.00     0.000 HD 
HETATM    5  N   UNL     1      -8.114   3.044  67.689  1.00  0.00    -0.078 N  
HETATM    6  C   UNL     1      -9.064   3.510  66.766  1.00  0.00    -0.164 C  
HETATM    7  H   UNL     1      -7.622   2.168  67.517  1.00  0.00     0.000 HD 
HETATM    8  C   UNL     1      -9.739   4.764  67.136  1.00  0.00    -0.184 A  
HETATM    9  O   UNL     1      -9.309   2.916  65.721  1.00  0.00    -0.139 OA 
HETATM   10  C   UNL     1      -9.379   5.399  68.294  1.00  0.00    -0.114 A  
HETATM   11  N   UNL     1      -8.430   4.928  69.114  1.00  0.00    -0.081 NA 
HETATM   12  N   UNL     1     -10.141   6.521  68.394  1.00  0.00    -0.151 NA 
HETATM   13  N   UNL     1     -10.739   5.472  66.509  1.00  0.00    -0.289 NA 
HETATM   14  C   UNL     1     -10.956   6.520  67.287  1.00  0.00    -0.400 A  
ENDROOT
BRANCH  12  15
HETATM   15  C   UNL     1     -10.018   7.548  69.405  1.00  0.00    -0.178 C  
HETATM   16  C   UNL     1     -10.107   8.978  68.870  1.00  0.00    -0.207 C  
HETATM   17  C   UNL     1     -10.191   9.787  70.157  1.00  0.00    -0.275 C  
HETATM   18  O   UNL     1      -8.881   9.855  70.731  1.00  0.00    -0.345 OA 
HETATM   19  C   UNL     1     -11.117   8.970  71.090  1.00  0.00    -0.371 C  
HETATM   20  C   UNL     1     -11.023   7.546  70.535  1.00  0.00    -0.266 C  
HETATM   21  H   UNL     1      -8.933  10.359  71.534  1.00  0.00     0.000 HD 
HETATM   22  C   UNL     1     -11.729   6.497  70.991  1.00  0.00    -0.402 C  
BRANCH  19  23
HETATM   23  C   UNL     1     -12.539   9.541  71.107  1.00  0.00    -0.301 C  
HETATM   24  O   UNL     1     -12.736  10.496  70.073  1.00  0.00    -0.520 OA 
HETATM   25  H   UNL     1     -13.618  10.850  70.083  1.00  0.00     0.000 HD 
ENDBRANCH  19  23
ENDBRANCH  12  15
TORSDOF 2
ENDMDL
MODEL      146
REMARK 921   NORMALIZED FREE ENERGY PREDICTED BY IDOCK:   -4.10 KCAL/MOL
REMARK 922        TOTAL FREE ENERGY PREDICTED BY IDOCK:   -4.92 KCAL/MOL
REMARK 923 INTER-LIGAND FREE ENERGY PREDICTED BY IDOCK:   -4.58 KCAL/MOL
REMARK 924 INTRA-LIGAND FREE ENERGY PREDICTED BY IDOCK:   -0.34 KCAL/MOL
REMARK 927      BINDING AFFINITY PREDICTED BY RF-SCORE:    0.00 PKD
ROOT
HETATM    1  N   UNL     1     -13.573   9.851  71.599  1.00  0.00    -0.304 NA 
HETATM    2  C   UNL     1     -12.384   9.204  71.703  1.00  0.00    -0.360 C  
HETATM    3  H2  UNL     1     -14.270   9.744  72.337  1.00  0.00     0.000 HD 
HETATM    4  H1  UNL     1     -13.779  10.442  70.794  1.00  0.00     0.000 HD 
HETATM    5  N   UNL     1     -12.122   8.451  72.729  1.00  0.00    -0.499 N  
HETATM    6  C   UNL     1     -10.895   7.772  72.804  1.00  0.00    -0.379 C  
HETATM    7  H   UNL     1     -12.806   8.354  73.479  1.00  0.00     0.000 HD 
HETATM    8  C   UNL     1     -10.003   7.955  71.648  1.00  0.00    -0.181 A  
HETATM    9  O   UNL     1     -10.586   7.080  73.769  1.00  0.00    -0.375 OA 
HETATM   10  C   UNL     1     -10.391   8.782  70.629  1.00  0.00    -0.209 A  
HETATM   11  N   UNL     1     -11.558   9.441  70.636  1.00  0.00    -0.274 NA 
HETATM   12  N   UNL     1      -9.396   8.778  69.703  1.00  0.00    -0.156 NA 
HETATM   13  N   UNL     1      -8.770   7.414  71.363  1.00  0.00    -0.125 NA 
HETATM   14  C   UNL     1      -8.433   7.928  70.191  1.00  0.00    -0.129 A  
ENDROOT
BRANCH  12  15
HETATM   15  C   UNL     1      -9.335   9.600  68.514  1.00  0.00    -0.137 C  
HETATM   16  C   UNL     1      -7.970  10.238  68.255  1.00  0.00    -0.106 C  
HETATM   17  C   UNL     1      -8.155  10.811  66.856  1.00  0.00    -0.132 C  
HETATM   18  O   UNL     1      -8.936  12.007  66.960  1.00  0.00    -0.184 OA 
HETATM   19  C   UNL     1      -8.962   9.739  66.083  1.00  0.00    -0.181 C  
HETATM   20  C   UNL     1      -9.660   8.944  67.190  1.00  0.00    -0.225 C  
HETATM   21  H   UNL     1      -9.052  12.365  66.087  1.00  0.00     0.000 HD 
HETATM   22  C   UNL     1     -10.418   7.854  66.989  1.00  0.00    -0.419 C  
BRANCH  19  23
HETATM   23  C   UNL     1      -8.052   8.894  65.185  1.00  0.00    -0.133 C  
HETATM   24  O   UNL     1      -6.681   9.051  65.528  1.00  0.00    -0.070 OA 
HETATM   25  H   UNL     1      -6.117   8.526  64.971  1.00  0.00     0.000 HD 
ENDBRANCH  19  23
ENDBRANCH  12  15
TORSDOF 2
ENDMDL
MODEL      147
REMARK 921   NORMALIZED FREE ENERGY PREDICTED BY IDOCK:   -4.08 KCAL/MOL
REMARK 922        TOTAL FREE ENERGY PREDICTED BY IDOCK:   -4.90 KCAL/MOL
REMARK 923 INTER-LIGAND FREE ENERGY PREDICTED BY IDOCK:   -4.55 KCAL/MOL
REMARK 924 INTRA-LIGAND FREE ENERGY PREDICTED BY IDOCK:   -0.35 KCAL/MOL
REMARK 927      BINDING AFFINITY PREDICTED BY RF-SCORE:    0.00 PKD
ROOT
HETATM    1  N   UNL     1     -13.855   7.552  71.037  1.00  0.00    -0.633 NA 
HETATM    2  C   UNL     1     -12.567   7.256  71.348  1.00  0.00    -0.388 C  
HETATM    3  H2  UNL     1     -14.553   7.599  71.779  1.00  0.00     0.000 HD 
HETATM    4  H1  UNL     1     -14.133   7.729  70.072  1.00  0.00     0.000 HD 
HETATM    5  N   UNL     1     -12.213   7.030  72.578  1.00  0.00    -0.499 N  
HETATM    6  C   UNL     1     -10.880   6.701  72.874  1.00  0.00    -0.262 C  
HETATM    7  H   UNL     1     -12.902   7.093  73.327  1.00  0.00     0.000 HD 
HETATM    8  C   UNL     1      -9.984   6.602  71.711  1.00  0.00    -0.175 A  
HETATM    9  O   UNL     1     -10.489   6.517  74.022  1.00  0.00    -0.331 OA 
HETATM   10  C   UNL     1     -10.477   6.870  70.463  1.00  0.00    -0.211 A  
HETATM   11  N   UNL     1     -11.751   7.226  70.249  1.00  0.00    -0.183 NA 
HETATM   12  N   UNL     1      -9.453   6.713  69.581  1.00  0.00    -0.143 NA 
HETATM   13  N   UNL     1      -8.654   6.259  71.621  1.00  0.00    -0.133 NA 
HETATM   14  C   UNL     1      -8.366   6.336  70.332  1.00  0.00    -0.126 A  
ENDROOT
BRANCH  12  15
HETATM   15  C   UNL     1      -9.496   7.004  68.165  1.00  0.00    -0.123 C  
HETATM   16  C   UNL     1      -8.448   8.011  67.693  1.00  0.00    -0.131 C  
HETATM   17  C   UNL     1      -8.585   7.917  66.179  1.00  0.00    -0.150 C  
HETATM   18  O   UNL     1      -9.763   8.633  65.788  1.00  0.00    -0.451 OA 
HETATM   19  C   UNL     1      -8.782   6.410  65.884  1.00  0.00    -0.152 C  
HETATM   20  C   UNL     1      -9.313   5.849  67.205  1.00  0.00    -0.118 C  
HETATM   21  H   UNL     1      -9.848   8.573  64.844  1.00  0.00     0.000 HD 
HETATM   22  C   UNL     1      -9.559   4.549  67.443  1.00  0.00    -0.209 C  
BRANCH  19  23
HETATM   23  C   UNL     1      -7.478   5.758  65.408  1.00  0.00    -0.078 C  
HETATM   24  O   UNL     1      -7.406   5.699  63.989  1.00  0.00    -0.052 OA 
HETATM   25  H   UNL     1      -6.598   5.295  63.694  1.00  0.00     0.000 HD 
ENDBRANCH  19  23
ENDBRANCH  12  15
TORSDOF 2
ENDMDL
MODEL      148
REMARK 921   NORMALIZED FREE ENERGY PREDICTED BY IDOCK:   -4.08 KCAL/MOL
REMARK 922        TOTAL FREE ENERGY PREDICTED BY IDOCK:   -4.89 KCAL/MOL
REMARK 923 INTER-LIGAND FREE ENERGY PREDICTED BY IDOCK:   -4.94 KCAL/MOL
REMARK 924 INTRA-LIGAND FREE ENERGY PREDICTED BY IDOCK:    0.05 KCAL/MOL
REMARK 927      BINDING AFFINITY PREDICTED BY RF-SCORE:    0.00 PKD
ROOT
HETATM    1  N   UNL     1     -10.601  18.984  69.062  1.00  0.00    -0.269 NA 
HETATM    2  C   UNL     1      -9.368  18.628  68.621  1.00  0.00    -0.341 C  
HETATM    3  H2  UNL     1     -10.763  19.938  69.385  1.00  0.00     0.000 HD 
HETATM    4  H1  UNL     1     -11.367  18.311  69.076  1.00  0.00     0.000 HD 
HETATM    5  N   UNL     1      -8.392  19.486  68.604  1.00  0.00    -0.352 N  
HETATM    6  C   UNL     1      -7.118  19.090  68.166  1.00  0.00    -0.247 C  
HETATM    7  H   UNL     1      -8.551  20.446  68.908  1.00  0.00     0.000 HD 
HETATM    8  C   UNL     1      -6.995  17.672  67.789  1.00  0.00    -0.181 A  
HETATM    9  O   UNL     1      -6.175  19.871  68.097  1.00  0.00    -0.230 OA 
HETATM   10  C   UNL     1      -8.102  16.868  67.844  1.00  0.00    -0.188 A  
HETATM   11  N   UNL     1      -9.305  17.318  68.227  1.00  0.00    -0.263 NA 
HETATM   12  N   UNL     1      -7.720  15.627  67.444  1.00  0.00    -0.168 NA 
HETATM   13  N   UNL     1      -5.909  16.939  67.370  1.00  0.00    -0.140 NA 
HETATM   14  C   UNL     1      -6.376  15.717  67.171  1.00  0.00     0.038 A  
ENDROOT
BRANCH  12  15
HETATM   15  C   UNL     1      -8.592  14.490  67.242  1.00  0.00    -0.215 C  
HETATM   16  C   UNL     1      -9.225  13.942  68.521  1.00  0.00    -0.154 C  
HETATM   17  C   UNL     1     -10.241  12.953  67.966  1.00  0.00    -0.229 C  
HETATM   18  O   UNL     1      -9.541  11.775  67.550  1.00  0.00    -0.173 OA 
HETATM   19  C   UNL     1     -10.850  13.651  66.725  1.00  0.00    -0.291 C  
HETATM   20  C   UNL     1      -9.783  14.673  66.326  1.00  0.00    -0.329 C  
HETATM   21  H   UNL     1     -10.175  11.158  67.204  1.00  0.00     0.000 HD 
HETATM   22  C   UNL     1      -9.912  15.569  65.333  1.00  0.00    -0.339 C  
BRANCH  19  23
HETATM   23  C   UNL     1     -12.217  14.267  67.044  1.00  0.00    -0.303 C  
HETATM   24  O   UNL     1     -12.475  14.281  68.443  1.00  0.00    -0.564 OA 
HETATM   25  H   UNL     1     -13.322  14.663  68.640  1.00  0.00     0.000 HD 
ENDBRANCH  19  23
ENDBRANCH  12  15
TORSDOF 2
ENDMDL
MODEL      149
REMARK 921   NORMALIZED FREE ENERGY PREDICTED BY IDOCK:   -4.07 KCAL/MOL
REMARK 922        TOTAL FREE ENERGY PREDICTED BY IDOCK:   -4.89 KCAL/MOL
REMARK 923 INTER-LIGAND FREE ENERGY PREDICTED BY IDOCK:   -4.80 KCAL/MOL
REMARK 924 INTRA-LIGAND FREE ENERGY PREDICTED BY IDOCK:   -0.09 KCAL/MOL
REMARK 927      BINDING AFFINITY PREDICTED BY RF-SCORE:    0.00 PKD
ROOT
HETATM    1  N   UNL     1      -8.877   8.978  72.004  1.00  0.00    -0.346 NA 
HETATM    2  C   UNL     1      -9.274   8.095  71.052  1.00  0.00    -0.152 C  
HETATM    3  H2  UNL     1      -8.563   8.633  72.911  1.00  0.00     0.000 HD 
HETATM    4  H1  UNL     1      -8.889   9.982  71.824  1.00  0.00     0.000 HD 
HETATM    5  N   UNL     1      -9.259   6.816  71.282  1.00  0.00    -0.154 N  
HETATM    6  C   UNL     1      -9.697   5.921  70.292  1.00  0.00    -0.169 C  
HETATM    7  H   UNL     1      -8.930   6.463  72.179  1.00  0.00     0.000 HD 
HETATM    8  C   UNL     1     -10.187   6.546  69.052  1.00  0.00    -0.177 A  
HETATM    9  O   UNL     1      -9.667   4.705  70.447  1.00  0.00    -0.184 OA 
HETATM   10  C   UNL     1     -10.145   7.908  68.929  1.00  0.00    -0.197 A  
HETATM   11  N   UNL     1      -9.671   8.708  69.894  1.00  0.00    -0.171 NA 
HETATM   12  N   UNL     1     -10.644   8.219  67.703  1.00  0.00    -0.226 NA 
HETATM   13  N   UNL     1     -10.727   5.992  67.913  1.00  0.00    -0.272 NA 
HETATM   14  C   UNL     1     -10.989   7.021  67.124  1.00  0.00    -0.323 A  
ENDROOT
BRANCH  12  15
HETATM   15  C   UNL     1     -10.683   9.537  67.107  1.00  0.00    -0.182 C  
HETATM   16  C   UNL     1     -11.268  10.623  68.010  1.00  0.00    -0.373 C  
HETATM   17  C   UNL     1     -10.950  11.887  67.222  1.00  0.00    -0.268 C  
HETATM   18  O   UNL     1     -11.880  11.985  66.137  1.00  0.00    -0.546 OA 
HETATM   19  C   UNL     1      -9.526  11.665  66.657  1.00  0.00    -0.213 C  
HETATM   20  C   UNL     1      -9.372  10.142  66.655  1.00  0.00    -0.195 C  
HETATM   21  H   UNL     1     -11.681  12.774  65.645  1.00  0.00     0.000 HD 
HETATM   22  C   UNL     1      -8.251   9.484  66.311  1.00  0.00    -0.115 C  
BRANCH  19  23
HETATM   23  C   UNL     1      -8.472  12.398  67.493  1.00  0.00    -0.175 C  
HETATM   24  O   UNL     1      -8.593  12.095  68.877  1.00  0.00    -0.363 OA 
HETATM   25  H   UNL     1      -7.938  12.550  69.395  1.00  0.00     0.000 HD 
ENDBRANCH  19  23
ENDBRANCH  12  15
TORSDOF 2
ENDMDL
MODEL      150
REMARK 921   NORMALIZED FREE ENERGY PREDICTED BY IDOCK:   -4.04 KCAL/MOL
REMARK 922        TOTAL FREE ENERGY PREDICTED BY IDOCK:   -4.85 KCAL/MOL
REMARK 923 INTER-LIGAND FREE ENERGY PREDICTED BY IDOCK:   -4.66 KCAL/MOL
REMARK 924 INTRA-LIGAND FREE ENERGY PREDICTED BY IDOCK:   -0.18 KCAL/MOL
REMARK 927      BINDING AFFINITY PREDICTED BY RF-SCORE:    0.00 PKD
ROOT
HETATM    1  N   UNL     1     -12.148  11.425  68.471  1.00  0.00    -0.567 NA 
HETATM    2  C   UNL     1     -10.819  11.159  68.534  1.00  0.00    -0.203 C  
HETATM    3  H2  UNL     1     -12.488  12.138  67.825  1.00  0.00     0.000 HD 
HETATM    4  H1  UNL     1     -12.811  10.923  69.061  1.00  0.00     0.000 HD 
HETATM    5  N   UNL     1      -9.974  11.800  67.782  1.00  0.00    -0.186 N  
HETATM    6  C   UNL     1      -8.600  11.526  67.881  1.00  0.00    -0.143 C  
HETATM    7  H   UNL     1     -10.308  12.500  67.122  1.00  0.00     0.000 HD 
HETATM    8  C   UNL     1      -8.230  10.525  68.895  1.00  0.00    -0.141 A  
HETATM    9  O   UNL     1      -7.768  12.076  67.168  1.00  0.00    -0.157 OA 
HETATM   10  C   UNL     1      -9.216   9.913  69.621  1.00  0.00    -0.227 A  
HETATM   11  N   UNL     1     -10.517  10.185  69.448  1.00  0.00    -0.217 NA 
HETATM   12  N   UNL     1      -8.611   9.041  70.471  1.00  0.00    -0.180 NA 
HETATM   13  N   UNL     1      -6.999  10.054  69.294  1.00  0.00    -0.057 NA 
HETATM   14  C   UNL     1      -7.262   9.166  70.238  1.00  0.00    -0.075 A  
ENDROOT
BRANCH  12  15
HETATM   15  C   UNL     1      -9.278   8.102  71.345  1.00  0.00    -0.153 C  
HETATM   16  C   UNL     1     -10.261   8.738  72.327  1.00  0.00    -0.310 C  
HETATM   17  C   UNL     1     -10.956   7.515  72.910  1.00  0.00    -0.383 C  
HETATM   18  O   UNL     1     -10.072   6.904  73.857  1.00  0.00    -0.295 OA 
HETATM   19  C   UNL     1     -11.162   6.557  71.711  1.00  0.00    -0.312 C  
HETATM   20  C   UNL     1     -10.101   7.007  70.703  1.00  0.00    -0.201 C  
HETATM   21  H   UNL     1     -10.505   6.141  74.220  1.00  0.00     0.000 HD 
HETATM   22  C   UNL     1      -9.955   6.502  69.466  1.00  0.00    -0.180 C  
BRANCH  19  23
HETATM   23  C   UNL     1     -12.598   6.626  71.179  1.00  0.00    -0.135 C  
HETATM   24  O   UNL     1     -13.543   6.769  72.232  1.00  0.00    -0.539 OA 
HETATM   25  H   UNL     1     -14.433   6.812  71.902  1.00  0.00     0.000 HD 
ENDBRANCH  19  23
ENDBRANCH  12  15
TORSDOF 2
ENDMDL
MODEL      151
REMARK 921   NORMALIZED FREE ENERGY PREDICTED BY IDOCK:   -4.00 KCAL/MOL
REMARK 922        TOTAL FREE ENERGY PREDICTED BY IDOCK:   -4.81 KCAL/MOL
REMARK 923 INTER-LIGAND FREE ENERGY PREDICTED BY IDOCK:   -4.71 KCAL/MOL
REMARK 924 INTRA-LIGAND FREE ENERGY PREDICTED BY IDOCK:   -0.10 KCAL/MOL
REMARK 927      BINDING AFFINITY PREDICTED BY RF-SCORE:    0.00 PKD
ROOT
HETATM    1  N   UNL     1      -9.198   7.656  66.942  1.00  0.00    -0.138 NA 
HETATM    2  C   UNL     1      -9.071   8.341  65.777  1.00  0.00    -0.114 C  
HETATM    3  H2  UNL     1      -8.851   6.699  67.004  1.00  0.00     0.000 HD 
HETATM    4  H1  UNL     1      -9.636   8.086  67.757  1.00  0.00     0.000 HD 
HETATM    5  N   UNL     1      -8.514   7.793  64.739  1.00  0.00    -0.366 N  
HETATM    6  C   UNL     1      -8.415   8.510  63.536  1.00  0.00    -0.028 C  
HETATM    7  H   UNL     1      -8.149   6.843  64.798  1.00  0.00     0.000 HD 
HETATM    8  C   UNL     1      -9.010   9.856  63.556  1.00  0.00    -0.252 A  
HETATM    9  O   UNL     1      -7.864   8.050  62.541  1.00  0.00    -0.125 OA 
HETATM   10  C   UNL     1      -9.564  10.325  64.717  1.00  0.00    -0.307 A  
HETATM   11  N   UNL     1      -9.587   9.607  65.849  1.00  0.00    -0.236 NA 
HETATM   12  N   UNL     1     -10.030  11.577  64.466  1.00  0.00    -0.252 NA 
HETATM   13  N   UNL     1      -9.139  10.803  62.565  1.00  0.00    -0.292 NA 
HETATM   14  C   UNL     1      -9.753  11.822  63.143  1.00  0.00    -0.293 A  
ENDROOT
BRANCH  12  15
HETATM   15  C   UNL     1     -10.591  12.488  65.440  1.00  0.00    -0.281 C  
HETATM   16  C   UNL     1     -11.895  12.010  66.077  1.00  0.00    -0.223 C  
HETATM   17  C   UNL     1     -12.089  13.028  67.193  1.00  0.00    -0.264 C  
HETATM   18  O   UNL     1     -12.568  14.246  66.610  1.00  0.00    -0.555 OA 
HETATM   19  C   UNL     1     -10.675  13.263  67.777  1.00  0.00    -0.256 C  
HETATM   20  C   UNL     1      -9.740  12.847  66.638  1.00  0.00    -0.254 C  
HETATM   21  H   UNL     1     -12.689  14.882  67.306  1.00  0.00     0.000 HD 
HETATM   22  C   UNL     1      -8.399  12.812  66.720  1.00  0.00     0.010 C  
BRANCH  19  23
HETATM   23  C   UNL     1     -10.467  12.474  69.074  1.00  0.00     0.010 C  
HETATM   24  O   UNL     1     -11.538  12.674  69.989  1.00  0.00    -0.495 OA 
HETATM   25  H   UNL     1     -11.409  12.184  70.793  1.00  0.00     0.000 HD 
ENDBRANCH  19  23
ENDBRANCH  12  15
TORSDOF 2
ENDMDL
MODEL      152
REMARK 921   NORMALIZED FREE ENERGY PREDICTED BY IDOCK:   -4.00 KCAL/MOL
REMARK 922        TOTAL FREE ENERGY PREDICTED BY IDOCK:   -4.80 KCAL/MOL
REMARK 923 INTER-LIGAND FREE ENERGY PREDICTED BY IDOCK:   -4.86 KCAL/MOL
REMARK 924 INTRA-LIGAND FREE ENERGY PREDICTED BY IDOCK:    0.06 KCAL/MOL
REMARK 927      BINDING AFFINITY PREDICTED BY RF-SCORE:    0.00 PKD
ROOT
HETATM    1  N   UNL     1     -12.429   7.092  70.531  1.00  0.00    -0.615 NA 
HETATM    2  C   UNL     1     -11.194   7.640  70.654  1.00  0.00    -0.266 C  
HETATM    3  H2  UNL     1     -12.698   6.317  71.137  1.00  0.00     0.000 HD 
HETATM    4  H1  UNL     1     -13.092   7.444  69.840  1.00  0.00     0.000 HD 
HETATM    5  N   UNL     1     -10.349   7.191  71.534  1.00  0.00    -0.202 N  
HETATM    6  C   UNL     1      -9.068   7.757  71.628  1.00  0.00    -0.133 C  
HETATM    7  H   UNL     1     -10.618   6.428  72.155  1.00  0.00     0.000 HD 
HETATM    8  C   UNL     1      -8.778   8.823  70.656  1.00  0.00    -0.180 A  
HETATM    9  O   UNL     1      -8.250   7.393  72.466  1.00  0.00    -0.101 OA 
HETATM   10  C   UNL     1      -9.757   9.213  69.781  1.00  0.00    -0.181 A  
HETATM   11  N   UNL     1     -10.979   8.665  69.771  1.00  0.00    -0.181 NA 
HETATM   12  N   UNL     1      -9.236  10.204  69.008  1.00  0.00    -0.174 NA 
HETATM   13  N   UNL     1      -7.634   9.553  70.428  1.00  0.00    -0.146 NA 
HETATM   14  C   UNL     1      -7.941  10.372  69.436  1.00  0.00    -0.157 A  
ENDROOT
BRANCH  12  15
HETATM   15  C   UNL     1      -9.956  10.984  68.025  1.00  0.00    -0.173 C  
HETATM   16  C   UNL     1     -10.762  12.146  68.606  1.00  0.00    -0.261 C  
HETATM   17  C   UNL     1     -11.182  12.893  67.347  1.00  0.00    -0.291 C  
HETATM   18  O   UNL     1     -12.256  12.171  66.734  1.00  0.00    -0.553 OA 
HETATM   19  C   UNL     1      -9.943  12.852  66.419  1.00  0.00    -0.267 C  
HETATM   20  C   UNL     1      -9.151  11.645  66.927  1.00  0.00    -0.188 C  
HETATM   21  H   UNL     1     -12.518  12.637  65.948  1.00  0.00     0.000 HD 
HETATM   22  C   UNL     1      -7.949  11.265  66.463  1.00  0.00    -0.145 C  
BRANCH  19  23
HETATM   23  C   UNL     1      -9.166  14.172  66.464  1.00  0.00    -0.224 C  
HETATM   24  O   UNL     1      -9.471  15.000  65.348  1.00  0.00    -0.419 OA 
HETATM   25  H   UNL     1      -8.989  15.819  65.377  1.00  0.00     0.000 HD 
ENDBRANCH  19  23
ENDBRANCH  12  15
TORSDOF 2
ENDMDL
MODEL      153
REMARK 921   NORMALIZED FREE ENERGY PREDICTED BY IDOCK:   -3.99 KCAL/MOL
REMARK 922        TOTAL FREE ENERGY PREDICTED BY IDOCK:   -4.79 KCAL/MOL
REMARK 923 INTER-LIGAND FREE ENERGY PREDICTED BY IDOCK:   -4.48 KCAL/MOL
REMARK 924 INTRA-LIGAND FREE ENERGY PREDICTED BY IDOCK:   -0.31 KCAL/MOL
REMARK 927      BINDING AFFINITY PREDICTED BY RF-SCORE:    0.00 PKD
ROOT
HETATM    1  N   UNL     1      -5.359   8.525  64.477  1.00  0.00    -0.043 NA 
HETATM    2  C   UNL     1      -6.519   8.126  65.058  1.00  0.00    -0.048 C  
HETATM    3  H2  UNL     1      -4.622   7.841  64.303  1.00  0.00     0.000 HD 
HETATM    4  H1  UNL     1      -5.215   9.499  64.211  1.00  0.00     0.000 HD 
HETATM    5  N   UNL     1      -6.702   6.884  65.396  1.00  0.00    -0.050 N  
HETATM    6  C   UNL     1      -7.900   6.497  66.019  1.00  0.00    -0.103 C  
HETATM    7  H   UNL     1      -5.977   6.192  65.210  1.00  0.00     0.000 HD 
HETATM    8  C   UNL     1      -8.857   7.586  66.273  1.00  0.00    -0.160 A  
HETATM    9  O   UNL     1      -8.135   5.332  66.322  1.00  0.00    -0.107 OA 
HETATM   10  C   UNL     1      -8.549   8.855  65.862  1.00  0.00    -0.158 A  
HETATM   11  N   UNL     1      -7.406   9.154  65.229  1.00  0.00    -0.091 NA 
HETATM   12  N   UNL     1      -9.591   9.657  66.210  1.00  0.00    -0.202 NA 
HETATM   13  N   UNL     1     -10.084   7.585  66.896  1.00  0.00    -0.248 NA 
HETATM   14  C   UNL     1     -10.499   8.840  66.840  1.00  0.00    -0.249 A  
ENDROOT
BRANCH  12  15
HETATM   15  C   UNL     1      -9.741  11.055  65.870  1.00  0.00    -0.224 C  
HETATM   16  C   UNL     1     -10.927  11.360  64.954  1.00  0.00    -0.284 C  
HETATM   17  C   UNL     1     -10.960  12.883  64.985  1.00  0.00    -0.297 C  
HETATM   18  O   UNL     1      -9.908  13.372  64.145  1.00  0.00    -0.735 OA 
HETATM   19  C   UNL     1     -10.660  13.264  66.455  1.00  0.00    -0.288 C  
HETATM   20  C   UNL     1      -9.928  12.038  67.005  1.00  0.00    -0.218 C  
HETATM   21  H   UNL     1      -9.928  14.322  64.165  1.00  0.00     0.000 HD 
HETATM   22  C   UNL     1      -9.536  11.886  68.281  1.00  0.00    -0.197 C  
BRANCH  19  23
HETATM   23  C   UNL     1     -11.944  13.617  67.214  1.00  0.00    -0.381 C  
HETATM   24  O   UNL     1     -12.652  14.679  66.587  1.00  0.00    -0.394 OA 
HETATM   25  H   UNL     1     -13.448  14.898  67.058  1.00  0.00     0.000 HD 
ENDBRANCH  19  23
ENDBRANCH  12  15
TORSDOF 2
ENDMDL
MODEL      154
REMARK 921   NORMALIZED FREE ENERGY PREDICTED BY IDOCK:   -3.97 KCAL/MOL
REMARK 922        TOTAL FREE ENERGY PREDICTED BY IDOCK:   -4.77 KCAL/MOL
REMARK 923 INTER-LIGAND FREE ENERGY PREDICTED BY IDOCK:   -4.66 KCAL/MOL
REMARK 924 INTRA-LIGAND FREE ENERGY PREDICTED BY IDOCK:   -0.11 KCAL/MOL
REMARK 927      BINDING AFFINITY PREDICTED BY RF-SCORE:    0.00 PKD
ROOT
HETATM    1  N   UNL     1      -9.484   9.028  66.033  1.00  0.00    -0.240 NA 
HETATM    2  C   UNL     1      -9.582   7.745  66.464  1.00  0.00    -0.201 C  
HETATM    3  H2  UNL     1      -9.266   9.216  65.055  1.00  0.00     0.000 HD 
HETATM    4  H1  UNL     1      -9.626   9.808  66.675  1.00  0.00     0.000 HD 
HETATM    5  N   UNL     1      -9.401   6.751  65.645  1.00  0.00    -0.366 N  
HETATM    6  C   UNL     1      -9.482   5.431  66.116  1.00  0.00    -0.157 C  
HETATM    7  H   UNL     1      -9.199   6.931  64.662  1.00  0.00     0.000 HD 
HETATM    8  C   UNL     1      -9.739   5.293  67.559  1.00  0.00    -0.146 A  
HETATM    9  O   UNL     1      -9.356   4.461  65.377  1.00  0.00    -0.145 OA 
HETATM   10  C   UNL     1      -9.919   6.420  68.316  1.00  0.00    -0.140 A  
HETATM   11  N   UNL     1      -9.875   7.655  67.798  1.00  0.00    -0.151 NA 
HETATM   12  N   UNL     1     -10.142   6.016  69.595  1.00  0.00    -0.177 NA 
HETATM   13  N   UNL     1      -9.830   4.177  68.359  1.00  0.00    -0.071 NA 
HETATM   14  C   UNL     1     -10.074   4.643  69.573  1.00  0.00    -0.142 A  
ENDROOT
BRANCH  12  15
HETATM   15  C   UNL     1     -10.494   6.869  70.709  1.00  0.00    -0.216 C  
HETATM   16  C   UNL     1     -11.035   6.126  71.931  1.00  0.00    -0.311 C  
HETATM   17  C   UNL     1     -11.073   7.232  72.977  1.00  0.00    -0.317 C  
HETATM   18  O   UNL     1     -12.209   8.063  72.710  1.00  0.00    -0.601 OA 
HETATM   19  C   UNL     1      -9.777   8.048  72.750  1.00  0.00    -0.348 C  
HETATM   20  C   UNL     1      -9.405   7.740  71.297  1.00  0.00    -0.171 C  
HETATM   21  H   UNL     1     -12.232   8.754  73.362  1.00  0.00     0.000 HD 
HETATM   22  C   UNL     1      -8.295   8.177  70.680  1.00  0.00    -0.123 C  
BRANCH  19  23
HETATM   23  C   UNL     1      -8.694   7.671  73.766  1.00  0.00    -0.239 C  
HETATM   24  O   UNL     1      -8.277   8.793  74.533  1.00  0.00    -0.401 OA 
HETATM   25  H   UNL     1      -7.605   8.558  75.163  1.00  0.00     0.000 HD 
ENDBRANCH  19  23
ENDBRANCH  12  15
TORSDOF 2
ENDMDL
MODEL      155
REMARK 921   NORMALIZED FREE ENERGY PREDICTED BY IDOCK:   -3.93 KCAL/MOL
REMARK 922        TOTAL FREE ENERGY PREDICTED BY IDOCK:   -4.73 KCAL/MOL
REMARK 923 INTER-LIGAND FREE ENERGY PREDICTED BY IDOCK:   -4.58 KCAL/MOL
REMARK 924 INTRA-LIGAND FREE ENERGY PREDICTED BY IDOCK:   -0.15 KCAL/MOL
REMARK 927      BINDING AFFINITY PREDICTED BY RF-SCORE:    0.00 PKD
ROOT
HETATM    1  N   UNL     1      -9.099   3.950  68.248  1.00  0.00    -0.126 NA 
HETATM    2  C   UNL     1      -9.160   5.252  67.869  1.00  0.00    -0.110 C  
HETATM    3  H2  UNL     1      -8.643   3.270  67.639  1.00  0.00     0.000 HD 
HETATM    4  H1  UNL     1      -9.503   3.642  69.132  1.00  0.00     0.000 HD 
HETATM    5  N   UNL     1      -8.645   5.643  66.741  1.00  0.00    -0.111 N  
HETATM    6  C   UNL     1      -8.741   6.990  66.357  1.00  0.00    -0.142 C  
HETATM    7  H   UNL     1      -8.173   4.973  66.136  1.00  0.00     0.000 HD 
HETATM    8  C   UNL     1      -9.479   7.859  67.289  1.00  0.00    -0.149 A  
HETATM    9  O   UNL     1      -8.240   7.415  65.322  1.00  0.00    -0.130 OA 
HETATM   10  C   UNL     1      -9.969   7.327  68.452  1.00  0.00    -0.161 A  
HETATM   11  N   UNL     1      -9.804   6.040  68.785  1.00  0.00    -0.134 NA 
HETATM   12  N   UNL     1     -10.593   8.331  69.124  1.00  0.00    -0.202 NA 
HETATM   13  N   UNL     1      -9.805   9.194  67.215  1.00  0.00    -0.176 NA 
HETATM   14  C   UNL     1     -10.472   9.446  68.330  1.00  0.00    -0.218 A  
ENDROOT
BRANCH  12  15
HETATM   15  C   UNL     1     -11.158   8.244  70.453  1.00  0.00    -0.235 C  
HETATM   16  C   UNL     1     -12.074   7.041  70.675  1.00  0.00    -0.332 C  
HETATM   17  C   UNL     1     -12.298   7.093  72.180  1.00  0.00    -0.191 C  
HETATM   18  O   UNL     1     -13.240   8.135  72.459  1.00  0.00    -0.551 OA 
HETATM   19  C   UNL     1     -10.922   7.475  72.781  1.00  0.00    -0.410 C  
HETATM   20  C   UNL     1     -10.198   8.160  71.620  1.00  0.00    -0.266 C  
HETATM   21  H   UNL     1     -13.380   8.168  73.398  1.00  0.00     0.000 HD 
HETATM   22  C   UNL     1      -8.928   8.596  71.658  1.00  0.00    -0.305 C  
BRANCH  19  23
HETATM   23  C   UNL     1     -10.193   6.245  73.333  1.00  0.00    -0.222 C  
HETATM   24  O   UNL     1     -10.976   5.558  74.301  1.00  0.00    -0.409 OA 
HETATM   25  H   UNL     1     -10.523   4.795  74.643  1.00  0.00     0.000 HD 
ENDBRANCH  19  23
ENDBRANCH  12  15
TORSDOF 2
ENDMDL
MODEL      156
REMARK 921   NORMALIZED FREE ENERGY PREDICTED BY IDOCK:   -3.93 KCAL/MOL
REMARK 922        TOTAL FREE ENERGY PREDICTED BY IDOCK:   -4.72 KCAL/MOL
REMARK 923 INTER-LIGAND FREE ENERGY PREDICTED BY IDOCK:   -4.57 KCAL/MOL
REMARK 924 INTRA-LIGAND FREE ENERGY PREDICTED BY IDOCK:   -0.16 KCAL/MOL
REMARK 927      BINDING AFFINITY PREDICTED BY RF-SCORE:    0.00 PKD
ROOT
HETATM    1  N   UNL     1     -11.115   8.065  69.265  1.00  0.00    -0.435 NA 
HETATM    2  C   UNL     1      -9.939   8.270  68.620  1.00  0.00    -0.190 C  
HETATM    3  H2  UNL     1     -11.214   7.264  69.889  1.00  0.00     0.000 HD 
HETATM    4  H1  UNL     1     -11.902   8.701  69.135  1.00  0.00     0.000 HD 
HETATM    5  N   UNL     1      -8.937   7.459  68.787  1.00  0.00    -0.130 N  
HETATM    6  C   UNL     1      -7.737   7.675  68.090  1.00  0.00    -0.119 C  
HETATM    7  H   UNL     1      -9.022   6.666  69.422  1.00  0.00     0.000 HD 
HETATM    8  C   UNL     1      -7.742   8.825  67.172  1.00  0.00    -0.096 A  
HETATM    9  O   UNL     1      -6.752   6.960  68.242  1.00  0.00    -0.062 OA 
HETATM   10  C   UNL     1      -8.860   9.611  67.090  1.00  0.00    -0.132 A  
HETATM   11  N   UNL     1      -9.962   9.379  67.817  1.00  0.00    -0.174 NA 
HETATM   12  N   UNL     1      -8.600  10.592  66.186  1.00  0.00    -0.154 NA 
HETATM   13  N   UNL     1      -6.778   9.298  66.310  1.00  0.00    -0.073 NA 
HETATM   14  C   UNL     1      -7.323  10.358  65.735  1.00  0.00    -0.147 A  
ENDROOT
BRANCH  12  15
HETATM   15  C   UNL     1      -9.462  11.710  65.871  1.00  0.00    -0.228 C  
HETATM   16  C   UNL     1     -10.891  11.321  65.492  1.00  0.00    -0.244 C  
HETATM   17  C   UNL     1     -11.586  12.676  65.463  1.00  0.00    -0.370 C  
HETATM   18  O   UNL     1     -11.217  13.344  64.252  1.00  0.00    -0.373 OA 
HETATM   19  C   UNL     1     -11.009  13.452  66.672  1.00  0.00    -0.297 C  
HETATM   20  C   UNL     1      -9.669  12.761  66.939  1.00  0.00    -0.234 C  
HETATM   21  H   UNL     1     -11.650  14.189  64.234  1.00  0.00     0.000 HD 
HETATM   22  C   UNL     1      -8.844  13.055  67.958  1.00  0.00    -0.191 C  
BRANCH  19  23
HETATM   23  C   UNL     1     -11.972  13.429  67.864  1.00  0.00    -0.323 C  
HETATM   24  O   UNL     1     -12.367  14.740  68.248  1.00  0.00    -0.594 OA 
HETATM   25  H   UNL     1     -12.964  14.724  68.987  1.00  0.00     0.000 HD 
ENDBRANCH  19  23
ENDBRANCH  12  15
TORSDOF 2
ENDMDL
MODEL      157
REMARK 921   NORMALIZED FREE ENERGY PREDICTED BY IDOCK:   -3.92 KCAL/MOL
REMARK 922        TOTAL FREE ENERGY PREDICTED BY IDOCK:   -4.72 KCAL/MOL
REMARK 923 INTER-LIGAND FREE ENERGY PREDICTED BY IDOCK:   -4.95 KCAL/MOL
REMARK 924 INTRA-LIGAND FREE ENERGY PREDICTED BY IDOCK:    0.24 KCAL/MOL
REMARK 927      BINDING AFFINITY PREDICTED BY RF-SCORE:    0.00 PKD
ROOT
HETATM    1  N   UNL     1      -9.308  13.687  67.792  1.00  0.00    -0.209 NA 
HETATM    2  C   UNL     1      -9.827  14.620  66.955  1.00  0.00    -0.244 C  
HETATM    3  H2  UNL     1      -9.639  12.723  67.739  1.00  0.00     0.000 HD 
HETATM    4  H1  UNL     1      -8.592  13.936  68.474  1.00  0.00     0.000 HD 
HETATM    5  N   UNL     1     -10.740  14.303  66.086  1.00  0.00    -0.290 N  
HETATM    6  C   UNL     1     -11.282  15.289  65.246  1.00  0.00    -0.336 C  
HETATM    7  H   UNL     1     -11.063  13.338  66.015  1.00  0.00     0.000 HD 
HETATM    8  C   UNL     1     -10.770  16.651  65.465  1.00  0.00    -0.223 A  
HETATM    9  O   UNL     1     -12.118  15.032  64.386  1.00  0.00    -0.467 OA 
HETATM   10  C   UNL     1      -9.800  16.857  66.409  1.00  0.00    -0.305 A  
HETATM   11  N   UNL     1      -9.289  15.864  67.150  1.00  0.00    -0.209 NA 
HETATM   12  N   UNL     1      -9.506  18.184  66.404  1.00  0.00    -0.380 NA 
HETATM   13  N   UNL     1     -11.102  17.848  64.872  1.00  0.00    -0.560 NA 
HETATM   14  C   UNL     1     -10.327  18.747  65.456  1.00  0.00     0.167 A  
ENDROOT
BRANCH  12  15
HETATM   15  C   UNL     1      -8.457  18.828  67.165  1.00  0.00    -0.272 C  
HETATM   16  C   UNL     1      -8.763  18.989  68.654  1.00  0.00    -0.387 C  
HETATM   17  C   UNL     1      -7.418  19.451  69.200  1.00  0.00    -0.307 C  
HETATM   18  O   UNL     1      -7.248  20.833  68.865  1.00  0.00     0.232 OA 
HETATM   19  C   UNL     1      -6.363  18.608  68.443  1.00  0.00    -0.221 C  
HETATM   20  C   UNL     1      -7.091  18.177  67.168  1.00  0.00    -0.212 C  
HETATM   21  H   UNL     1      -6.409  21.121  69.205  1.00  0.00     0.000 HD 
HETATM   22  C   UNL     1      -6.582  17.357  66.233  1.00  0.00    -0.279 C  
BRANCH  19  23
HETATM   23  C   UNL     1      -5.861  17.440  69.300  1.00  0.00    -0.210 C  
HETATM   24  O   UNL     1      -5.172  17.895  70.458  1.00  0.00    -0.242 OA 
HETATM   25  H   UNL     1      -4.861  17.171  70.989  1.00  0.00     0.000 HD 
ENDBRANCH  19  23
ENDBRANCH  12  15
TORSDOF 2
ENDMDL
MODEL      158
REMARK 921   NORMALIZED FREE ENERGY PREDICTED BY IDOCK:   -3.91 KCAL/MOL
REMARK 922        TOTAL FREE ENERGY PREDICTED BY IDOCK:   -4.71 KCAL/MOL
REMARK 923 INTER-LIGAND FREE ENERGY PREDICTED BY IDOCK:   -4.57 KCAL/MOL
REMARK 924 INTRA-LIGAND FREE ENERGY PREDICTED BY IDOCK:   -0.14 KCAL/MOL
REMARK 927      BINDING AFFINITY PREDICTED BY RF-SCORE:    0.00 PKD
ROOT
HETATM    1  N   UNL     1      -5.579  17.471  69.501  1.00  0.00    -0.199 NA 
HETATM    2  C   UNL     1      -6.655  17.503  68.675  1.00  0.00    -0.206 C  
HETATM    3  H2  UNL     1      -4.702  17.899  69.202  1.00  0.00     0.000 HD 
HETATM    4  H1  UNL     1      -5.635  17.025  70.417  1.00  0.00     0.000 HD 
HETATM    5  N   UNL     1      -6.584  18.071  67.508  1.00  0.00    -0.178 N  
HETATM    6  C   UNL     1      -7.702  18.071  66.659  1.00  0.00    -0.238 C  
HETATM    7  H   UNL     1      -5.716  18.516  67.210  1.00  0.00     0.000 HD 
HETATM    8  C   UNL     1      -8.885  17.365  67.178  1.00  0.00    -0.232 A  
HETATM    9  O   UNL     1      -7.695  18.625  65.565  1.00  0.00    -0.457 OA 
HETATM   10  C   UNL     1      -8.838  16.812  68.429  1.00  0.00    -0.237 A  
HETATM   11  N   UNL     1      -7.753  16.885  69.213  1.00  0.00    -0.139 NA 
HETATM   12  N   UNL     1     -10.047  16.235  68.662  1.00  0.00    -0.224 NA 
HETATM   13  N   UNL     1     -10.116  17.126  66.611  1.00  0.00    -0.295 NA 
HETATM   14  C   UNL     1     -10.789  16.448  67.526  1.00  0.00    -0.249 A  
ENDROOT
BRANCH  12  15
HETATM   15  C   UNL     1     -10.477  15.631  69.904  1.00  0.00    -0.320 C  
HETATM   16  C   UNL     1     -11.268  16.563  70.822  1.00  0.00    -0.063 C  
HETATM   17  C   UNL     1     -11.772  15.598  71.887  1.00  0.00    -0.459 C  
HETATM   18  O   UNL     1     -10.686  15.297  72.770  1.00  0.00     0.436 OA 
HETATM   19  C   UNL     1     -12.174  14.318  71.115  1.00  0.00    -0.431 C  
HETATM   20  C   UNL     1     -11.364  14.407  69.819  1.00  0.00    -0.285 C  
HETATM   21  H   UNL     1     -11.001  14.695  73.434  1.00  0.00     0.000 HD 
HETATM   22  C   UNL     1     -11.450  13.537  68.799  1.00  0.00    -0.349 C  
BRANCH  19  23
HETATM   23  C   UNL     1     -13.690  14.247  70.899  1.00  0.00     0.029 C  
HETATM   24  O   UNL     1     -14.404  14.809  71.993  1.00  0.00    -0.477 OA 
HETATM   25  H   UNL     1     -15.344  14.765  71.859  1.00  0.00     0.000 HD 
ENDBRANCH  19  23
ENDBRANCH  12  15
TORSDOF 2
ENDMDL
MODEL      159
REMARK 921   NORMALIZED FREE ENERGY PREDICTED BY IDOCK:   -3.91 KCAL/MOL
REMARK 922        TOTAL FREE ENERGY PREDICTED BY IDOCK:   -4.71 KCAL/MOL
REMARK 923 INTER-LIGAND FREE ENERGY PREDICTED BY IDOCK:   -4.68 KCAL/MOL
REMARK 924 INTRA-LIGAND FREE ENERGY PREDICTED BY IDOCK:   -0.02 KCAL/MOL
REMARK 927      BINDING AFFINITY PREDICTED BY RF-SCORE:    0.00 PKD
ROOT
HETATM    1  N   UNL     1     -14.185   8.475  72.585  1.00  0.00    -0.807 NA 
HETATM    2  C   UNL     1     -12.994   8.802  72.023  1.00  0.00    -0.390 C  
HETATM    3  H2  UNL     1     -15.020   9.008  72.341  1.00  0.00     0.000 HD 
HETATM    4  H1  UNL     1     -14.257   7.704  73.249  1.00  0.00     0.000 HD 
HETATM    5  N   UNL     1     -12.903   9.785  71.177  1.00  0.00    -0.403 N  
HETATM    6  C   UNL     1     -11.656  10.122  70.626  1.00  0.00    -0.343 C  
HETATM    7  H   UNL     1     -13.736  10.311  70.915  1.00  0.00     0.000 HD 
HETATM    8  C   UNL     1     -10.519   9.321  71.107  1.00  0.00    -0.331 A  
HETATM    9  O   UNL     1     -11.525  11.016  69.796  1.00  0.00    -0.259 OA 
HETATM   10  C   UNL     1     -10.745   8.305  71.996  1.00  0.00    -0.297 A  
HETATM   11  N   UNL     1     -11.969   8.002  72.452  1.00  0.00    -0.356 NA 
HETATM   12  N   UNL     1      -9.544   7.730  72.268  1.00  0.00    -0.163 NA 
HETATM   13  N   UNL     1      -9.173   9.402  70.827  1.00  0.00    -0.243 NA 
HETATM   14  C   UNL     1      -8.617   8.434  71.538  1.00  0.00    -0.167 A  
ENDROOT
BRANCH  12  15
HETATM   15  C   UNL     1      -9.328   6.547  73.073  1.00  0.00    -0.135 C  
HETATM   16  C   UNL     1      -9.210   5.250  72.273  1.00  0.00    -0.153 C  
HETATM   17  C   UNL     1      -8.754   4.265  73.341  1.00  0.00    -0.092 C  
HETATM   18  O   UNL     1      -9.887   3.919  74.146  1.00  0.00    -0.105 OA 
HETATM   19  C   UNL     1      -7.734   5.048  74.204  1.00  0.00    -0.094 C  
HETATM   20  C   UNL     1      -8.100   6.514  73.957  1.00  0.00    -0.120 C  
HETATM   21  H   UNL     1      -9.603   3.306  74.813  1.00  0.00     0.000 HD 
HETATM   22  C   UNL     1      -7.426   7.567  74.448  1.00  0.00    -0.159 C  
BRANCH  19  23
HETATM   23  C   UNL     1      -6.292   4.693  73.826  1.00  0.00    -0.051 C  
HETATM   24  O   UNL     1      -6.207   4.172  72.505  1.00  0.00    -0.015 OA 
HETATM   25  H   UNL     1      -5.312   3.952  72.271  1.00  0.00     0.000 HD 
ENDBRANCH  19  23
ENDBRANCH  12  15
TORSDOF 2
ENDMDL
MODEL      160
REMARK 921   NORMALIZED FREE ENERGY PREDICTED BY IDOCK:   -3.91 KCAL/MOL
REMARK 922        TOTAL FREE ENERGY PREDICTED BY IDOCK:   -4.70 KCAL/MOL
REMARK 923 INTER-LIGAND FREE ENERGY PREDICTED BY IDOCK:   -4.59 KCAL/MOL
REMARK 924 INTRA-LIGAND FREE ENERGY PREDICTED BY IDOCK:   -0.11 KCAL/MOL
REMARK 927      BINDING AFFINITY PREDICTED BY RF-SCORE:    0.00 PKD
ROOT
HETATM    1  N   UNL     1     -11.039   5.619  67.117  1.00  0.00    -0.370 NA 
HETATM    2  C   UNL     1     -10.915   6.323  68.271  1.00  0.00    -0.321 C  
HETATM    3  H2  UNL     1     -11.514   4.716  67.126  1.00  0.00     0.000 HD 
HETATM    4  H1  UNL     1     -10.663   5.980  66.240  1.00  0.00     0.000 HD 
HETATM    5  N   UNL     1     -11.394   5.861  69.388  1.00  0.00    -0.237 N  
HETATM    6  C   UNL     1     -11.233   6.594  70.575  1.00  0.00    -0.334 C  
HETATM    7  H   UNL     1     -11.886   4.969  69.402  1.00  0.00     0.000 HD 
HETATM    8  C   UNL     1     -10.474   7.848  70.442  1.00  0.00    -0.218 A  
HETATM    9  O   UNL     1     -11.699   6.219  71.645  1.00  0.00    -0.305 OA 
HETATM   10  C   UNL     1     -10.026   8.230  69.206  1.00  0.00    -0.192 A  
HETATM   11  N   UNL     1     -10.251   7.508  68.099  1.00  0.00    -0.183 NA 
HETATM   12  N   UNL     1      -9.369   9.410  69.361  1.00  0.00    -0.161 NA 
HETATM   13  N   UNL     1     -10.088   8.776  71.382  1.00  0.00    -0.255 NA 
HETATM   14  C   UNL     1      -9.429   9.700  70.702  1.00  0.00    -0.124 A  
ENDROOT
BRANCH  12  15
HETATM   15  C   UNL     1      -8.829  10.231  68.298  1.00  0.00    -0.126 C  
HETATM   16  C   UNL     1      -7.685   9.585  67.518  1.00  0.00    -0.095 C  
HETATM   17  C   UNL     1      -7.512  10.556  66.357  1.00  0.00    -0.133 C  
HETATM   18  O   UNL     1      -6.818  11.713  66.839  1.00  0.00    -0.142 OA 
HETATM   19  C   UNL     1      -8.950  10.957  65.947  1.00  0.00    -0.206 C  
HETATM   20  C   UNL     1      -9.776  10.676  67.205  1.00  0.00    -0.195 C  
HETATM   21  H   UNL     1      -6.711  12.319  66.115  1.00  0.00     0.000 HD 
HETATM   22  C   UNL     1     -11.111  10.807  67.292  1.00  0.00    -0.339 C  
BRANCH  19  23
HETATM   23  C   UNL     1      -9.415  10.182  64.710  1.00  0.00    -0.295 C  
HETATM   24  O   UNL     1      -9.577   8.796  64.986  1.00  0.00    -0.362 OA 
HETATM   25  H   UNL     1      -9.866   8.316  64.218  1.00  0.00     0.000 HD 
ENDBRANCH  19  23
ENDBRANCH  12  15
TORSDOF 2
ENDMDL
MODEL      161
REMARK 921   NORMALIZED FREE ENERGY PREDICTED BY IDOCK:   -3.86 KCAL/MOL
REMARK 922        TOTAL FREE ENERGY PREDICTED BY IDOCK:   -4.65 KCAL/MOL
REMARK 923 INTER-LIGAND FREE ENERGY PREDICTED BY IDOCK:   -5.07 KCAL/MOL
REMARK 924 INTRA-LIGAND FREE ENERGY PREDICTED BY IDOCK:    0.42 KCAL/MOL
REMARK 927      BINDING AFFINITY PREDICTED BY RF-SCORE:    0.00 PKD
ROOT
HETATM    1  N   UNL     1      -8.946   6.345  67.718  1.00  0.00    -0.115 NA 
HETATM    2  C   UNL     1      -8.643   6.992  66.564  1.00  0.00    -0.129 C  
HETATM    3  H2  UNL     1      -8.481   5.465  67.940  1.00  0.00     0.000 HD 
HETATM    4  H1  UNL     1      -9.634   6.728  68.367  1.00  0.00     0.000 HD 
HETATM    5  N   UNL     1      -7.767   6.504  65.737  1.00  0.00    -0.088 N  
HETATM    6  C   UNL     1      -7.485   7.176  64.537  1.00  0.00    -0.099 C  
HETATM    7  H   UNL     1      -7.284   5.634  65.960  1.00  0.00     0.000 HD 
HETATM    8  C   UNL     1      -8.269   8.399  64.303  1.00  0.00    -0.127 A  
HETATM    9  O   UNL     1      -6.641   6.775  63.743  1.00  0.00    -0.040 OA 
HETATM   10  C   UNL     1      -9.160   8.815  65.256  1.00  0.00    -0.096 A  
HETATM   11  N   UNL     1      -9.351   8.153  66.406  1.00  0.00    -0.200 NA 
HETATM   12  N   UNL     1      -9.738   9.957  64.799  1.00  0.00    -0.292 NA 
HETATM   13  N   UNL     1      -8.294   9.267  63.235  1.00  0.00    -0.181 NA 
HETATM   14  C   UNL     1      -9.183  10.190  63.563  1.00  0.00    -0.286 A  
ENDROOT
BRANCH  12  15
HETATM   15  C   UNL     1     -10.658  10.799  65.532  1.00  0.00    -0.135 C  
HETATM   16  C   UNL     1     -10.017  11.608  66.659  1.00  0.00    -0.230 C  
HETATM   17  C   UNL     1     -11.151  12.542  67.058  1.00  0.00    -0.281 C  
HETATM   18  O   UNL     1     -12.094  11.797  67.837  1.00  0.00    -0.592 OA 
HETATM   19  C   UNL     1     -11.813  12.967  65.724  1.00  0.00    -0.469 C  
HETATM   20  C   UNL     1     -11.422  11.848  64.754  1.00  0.00    -0.323 C  
HETATM   21  H   UNL     1     -12.802  12.380  68.085  1.00  0.00     0.000 HD 
HETATM   22  C   UNL     1     -11.715  11.832  63.443  1.00  0.00    -0.423 C  
BRANCH  19  23
HETATM   23  C   UNL     1     -11.349  14.361  65.288  1.00  0.00    -0.346 C  
HETATM   24  O   UNL     1     -10.273  14.293  64.361  1.00  0.00    -0.618 OA 
HETATM   25  H   UNL     1      -9.986  15.158  64.091  1.00  0.00     0.000 HD 
ENDBRANCH  19  23
ENDBRANCH  12  15
TORSDOF 2
ENDMDL
MODEL      162
REMARK 921   NORMALIZED FREE ENERGY PREDICTED BY IDOCK:   -3.85 KCAL/MOL
REMARK 922        TOTAL FREE ENERGY PREDICTED BY IDOCK:   -4.64 KCAL/MOL
REMARK 923 INTER-LIGAND FREE ENERGY PREDICTED BY IDOCK:   -4.31 KCAL/MOL
REMARK 924 INTRA-LIGAND FREE ENERGY PREDICTED BY IDOCK:   -0.33 KCAL/MOL
REMARK 927      BINDING AFFINITY PREDICTED BY RF-SCORE:    0.00 PKD
ROOT
HETATM    1  N   UNL     1     -10.867   1.741  72.840  1.00  0.00    -0.155 NA 
HETATM    2  C   UNL     1      -9.883   2.675  72.809  1.00  0.00    -0.128 C  
HETATM    3  H2  UNL     1     -10.637   0.774  73.071  1.00  0.00     0.000 HD 
HETATM    4  H1  UNL     1     -11.834   1.993  72.635  1.00  0.00     0.000 HD 
HETATM    5  N   UNL     1      -8.650   2.353  73.070  1.00  0.00    -0.069 N  
HETATM    6  C   UNL     1      -7.643   3.330  73.009  1.00  0.00    -0.059 C  
HETATM    7  H   UNL     1      -8.416   1.393  73.319  1.00  0.00     0.000 HD 
HETATM    8  C   UNL     1      -8.092   4.671  72.601  1.00  0.00    -0.100 A  
HETATM    9  O   UNL     1      -6.473   3.084  73.283  1.00  0.00    -0.019 OA 
HETATM   10  C   UNL     1      -9.422   4.886  72.359  1.00  0.00    -0.140 A  
HETATM   11  N   UNL     1     -10.345   3.921  72.480  1.00  0.00    -0.162 NA 
HETATM   12  N   UNL     1      -9.564   6.192  72.010  1.00  0.00    -0.153 NA 
HETATM   13  N   UNL     1      -7.388   5.835  72.390  1.00  0.00    -0.093 NA 
HETATM   14  C   UNL     1      -8.299   6.727  72.038  1.00  0.00    -0.111 A  
ENDROOT
BRANCH  12  15
HETATM   15  C   UNL     1     -10.815   6.881  71.777  1.00  0.00    -0.225 C  
HETATM   16  C   UNL     1     -11.096   8.029  72.746  1.00  0.00    -0.448 C  
HETATM   17  C   UNL     1     -12.313   8.684  72.107  1.00  0.00    -0.386 C  
HETATM   18  O   UNL     1     -13.461   7.876  72.393  1.00  0.00    -0.515 OA 
HETATM   19  C   UNL     1     -12.035   8.658  70.585  1.00  0.00    -0.056 C  
HETATM   20  C   UNL     1     -11.021   7.522  70.422  1.00  0.00    -0.264 C  
HETATM   21  H   UNL     1     -14.220   8.285  71.994  1.00  0.00     0.000 HD 
HETATM   22  C   UNL     1     -10.430   7.181  69.265  1.00  0.00    -0.220 C  
BRANCH  19  23
HETATM   23  C   UNL     1     -11.535  10.017  70.083  1.00  0.00    -0.277 C  
HETATM   24  O   UNL     1     -12.266  10.461  68.947  1.00  0.00    -0.729 OA 
HETATM   25  H   UNL     1     -11.956  11.304  68.637  1.00  0.00     0.000 HD 
ENDBRANCH  19  23
ENDBRANCH  12  15
TORSDOF 2
ENDMDL
MODEL      163
REMARK 921   NORMALIZED FREE ENERGY PREDICTED BY IDOCK:   -3.82 KCAL/MOL
REMARK 922        TOTAL FREE ENERGY PREDICTED BY IDOCK:   -4.61 KCAL/MOL
REMARK 923 INTER-LIGAND FREE ENERGY PREDICTED BY IDOCK:   -4.49 KCAL/MOL
REMARK 924 INTRA-LIGAND FREE ENERGY PREDICTED BY IDOCK:   -0.12 KCAL/MOL
REMARK 927      BINDING AFFINITY PREDICTED BY RF-SCORE:    0.00 PKD
ROOT
HETATM    1  N   UNL     1     -11.892  14.694  67.636  1.00  0.00    -0.472 NA 
HETATM    2  C   UNL     1     -11.869  13.695  68.555  1.00  0.00    -0.371 C  
HETATM    3  H2  UNL     1     -12.469  15.518  67.803  1.00  0.00     0.000 HD 
HETATM    4  H1  UNL     1     -11.340  14.630  66.781  1.00  0.00     0.000 HD 
HETATM    5  N   UNL     1     -12.573  13.776  69.645  1.00  0.00    -0.275 N  
HETATM    6  C   UNL     1     -12.554  12.721  70.572  1.00  0.00    -0.114 C  
HETATM    7  H   UNL     1     -13.138  14.605  69.827  1.00  0.00     0.000 HD 
HETATM    8  C   UNL     1     -11.734  11.560  70.186  1.00  0.00    -0.309 A  
HETATM    9  O   UNL     1     -13.171  12.766  71.631  1.00  0.00    -0.397 OA 
HETATM   10  C   UNL     1     -11.032  11.599  69.012  1.00  0.00    -0.233 A  
HETATM   11  N   UNL     1     -11.054  12.657  68.189  1.00  0.00    -0.234 NA 
HETATM   12  N   UNL     1     -10.364  10.420  68.901  1.00  0.00    -0.196 NA 
HETATM   13  N   UNL     1     -11.526  10.353  70.812  1.00  0.00    -0.343 NA 
HETATM   14  C   UNL     1     -10.699   9.693  70.017  1.00  0.00    -0.259 A  
ENDROOT
BRANCH  12  15
HETATM   15  C   UNL     1      -9.410  10.075  67.870  1.00  0.00    -0.140 C  
HETATM   16  C   UNL     1      -7.952  10.076  68.329  1.00  0.00    -0.097 C  
HETATM   17  C   UNL     1      -7.247   9.454  67.131  1.00  0.00    -0.087 C  
HETATM   18  O   UNL     1      -7.150  10.445  66.102  1.00  0.00    -0.116 OA 
HETATM   19  C   UNL     1      -8.184   8.316  66.657  1.00  0.00    -0.106 C  
HETATM   20  C   UNL     1      -9.555   8.724  67.203  1.00  0.00    -0.228 C  
HETATM   21  H   UNL     1      -6.711  10.057  65.355  1.00  0.00     0.000 HD 
HETATM   22  C   UNL     1     -10.673   7.987  67.099  1.00  0.00    -0.285 C  
BRANCH  19  23
HETATM   23  C   UNL     1      -7.697   6.949  67.150  1.00  0.00    -0.108 C  
HETATM   24  O   UNL     1      -8.095   6.700  68.492  1.00  0.00    -0.116 OA 
HETATM   25  H   UNL     1      -7.793   5.852  68.797  1.00  0.00     0.000 HD 
ENDBRANCH  19  23
ENDBRANCH  12  15
TORSDOF 2
ENDMDL
MODEL      164
REMARK 921   NORMALIZED FREE ENERGY PREDICTED BY IDOCK:   -3.82 KCAL/MOL
REMARK 922        TOTAL FREE ENERGY PREDICTED BY IDOCK:   -4.61 KCAL/MOL
REMARK 923 INTER-LIGAND FREE ENERGY PREDICTED BY IDOCK:   -4.31 KCAL/MOL
REMARK 924 INTRA-LIGAND FREE ENERGY PREDICTED BY IDOCK:   -0.30 KCAL/MOL
REMARK 927      BINDING AFFINITY PREDICTED BY RF-SCORE:    0.00 PKD
ROOT
HETATM    1  N   UNL     1      -8.939  10.827  69.082  1.00  0.00    -0.328 NA 
HETATM    2  C   UNL     1      -9.889  10.279  69.882  1.00  0.00    -0.105 C  
HETATM    3  H2  UNL     1      -9.067  11.774  68.725  1.00  0.00     0.000 HD 
HETATM    4  H1  UNL     1      -8.100  10.305  68.832  1.00  0.00     0.000 HD 
HETATM    5  N   UNL     1     -10.959  10.945  70.199  1.00  0.00    -0.468 N  
HETATM    6  C   UNL     1     -11.940  10.350  71.008  1.00  0.00    -0.382 C  
HETATM    7  H   UNL     1     -11.085  11.898  69.861  1.00  0.00     0.000 HD 
HETATM    8  C   UNL     1     -11.669   8.958  71.405  1.00  0.00    -0.315 A  
HETATM    9  O   UNL     1     -12.949  10.950  71.366  1.00  0.00    -0.394 OA 
HETATM   10  C   UNL     1     -10.499   8.367  71.011  1.00  0.00    -0.206 A  
HETATM   11  N   UNL     1      -9.578   9.005  70.276  1.00  0.00    -0.185 NA 
HETATM   12  N   UNL     1     -10.498   7.102  71.509  1.00  0.00    -0.204 NA 
HETATM   13  N   UNL     1     -12.417   8.065  72.138  1.00  0.00    -0.310 NA 
HETATM   14  C   UNL     1     -11.687   6.963  72.183  1.00  0.00    -0.288 A  
ENDROOT
BRANCH  12  15
HETATM   15  C   UNL     1      -9.405   6.157  71.432  1.00  0.00    -0.152 C  
HETATM   16  C   UNL     1      -9.448   5.051  72.486  1.00  0.00    -0.164 C  
HETATM   17  C   UNL     1      -8.349   4.115  72.000  1.00  0.00    -0.104 C  
HETATM   18  O   UNL     1      -7.083   4.691  72.344  1.00  0.00    -0.068 OA 
HETATM   19  C   UNL     1      -8.495   4.085  70.459  1.00  0.00    -0.097 C  
HETATM   20  C   UNL     1      -9.231   5.389  70.140  1.00  0.00    -0.177 C  
HETATM   21  H   UNL     1      -6.398   4.108  72.041  1.00  0.00     0.000 HD 
HETATM   22  C   UNL     1      -9.645   5.756  68.916  1.00  0.00    -0.163 C  
BRANCH  19  23
HETATM   23  C   UNL     1      -9.227   2.823  69.991  1.00  0.00    -0.135 C  
HETATM   24  O   UNL     1      -8.555   2.195  68.907  1.00  0.00    -0.060 OA 
HETATM   25  H   UNL     1      -9.009   1.412  68.617  1.00  0.00     0.000 HD 
ENDBRANCH  19  23
ENDBRANCH  12  15
TORSDOF 2
ENDMDL
MODEL      165
REMARK 921   NORMALIZED FREE ENERGY PREDICTED BY IDOCK:   -3.77 KCAL/MOL
REMARK 922        TOTAL FREE ENERGY PREDICTED BY IDOCK:   -4.55 KCAL/MOL
REMARK 923 INTER-LIGAND FREE ENERGY PREDICTED BY IDOCK:   -4.20 KCAL/MOL
REMARK 924 INTRA-LIGAND FREE ENERGY PREDICTED BY IDOCK:   -0.35 KCAL/MOL
REMARK 927      BINDING AFFINITY PREDICTED BY RF-SCORE:    0.00 PKD
ROOT
HETATM    1  N   UNL     1      -5.721   8.839  71.280  1.00  0.00    -0.038 NA 
HETATM    2  C   UNL     1      -7.075   8.876  71.357  1.00  0.00    -0.082 C  
HETATM    3  H2  UNL     1      -5.178   8.543  72.091  1.00  0.00     0.000 HD 
HETATM    4  H1  UNL     1      -5.238   9.103  70.421  1.00  0.00     0.000 HD 
HETATM    5  N   UNL     1      -7.690   8.539  72.451  1.00  0.00    -0.088 N  
HETATM    6  C   UNL     1      -9.091   8.608  72.518  1.00  0.00    -0.117 C  
HETATM    7  H   UNL     1      -7.156   8.225  73.261  1.00  0.00     0.000 HD 
HETATM    8  C   UNL     1      -9.754   9.111  71.304  1.00  0.00    -0.281 A  
HETATM    9  O   UNL     1      -9.719   8.266  73.515  1.00  0.00    -0.117 OA 
HETATM   10  C   UNL     1      -8.994   9.428  70.210  1.00  0.00    -0.240 A  
HETATM   11  N   UNL     1      -7.661   9.296  70.192  1.00  0.00    -0.094 NA 
HETATM   12  N   UNL     1      -9.843   9.856  69.238  1.00  0.00    -0.195 NA 
HETATM   13  N   UNL     1     -11.082   9.354  71.033  1.00  0.00    -0.313 NA 
HETATM   14  C   UNL     1     -11.102   9.798  69.787  1.00  0.00    -0.237 A  
ENDROOT
BRANCH  12  15
HETATM   15  C   UNL     1      -9.482  10.186  67.877  1.00  0.00    -0.141 C  
HETATM   16  C   UNL     1     -10.381   9.556  66.812  1.00  0.00    -0.298 C  
HETATM   17  C   UNL     1      -9.915  10.268  65.549  1.00  0.00    -0.296 C  
HETATM   18  O   UNL     1      -8.666   9.694  65.145  1.00  0.00    -0.145 OA 
HETATM   19  C   UNL     1      -9.687  11.739  65.975  1.00  0.00    -0.254 C  
HETATM   20  C   UNL     1      -9.471  11.649  67.488  1.00  0.00    -0.173 C  
HETATM   21  H   UNL     1      -8.375  10.139  64.357  1.00  0.00     0.000 HD 
HETATM   22  C   UNL     1      -9.309  12.703  68.305  1.00  0.00    -0.195 C  
BRANCH  19  23
HETATM   23  C   UNL     1     -10.865  12.629  65.565  1.00  0.00    -0.279 C  
HETATM   24  O   UNL     1     -12.078  12.215  66.181  1.00  0.00    -0.621 OA 
HETATM   25  H   UNL     1     -12.808  12.768  65.927  1.00  0.00     0.000 HD 
ENDBRANCH  19  23
ENDBRANCH  12  15
TORSDOF 2
ENDMDL
MODEL      166
REMARK 921   NORMALIZED FREE ENERGY PREDICTED BY IDOCK:   -3.77 KCAL/MOL
REMARK 922        TOTAL FREE ENERGY PREDICTED BY IDOCK:   -4.54 KCAL/MOL
REMARK 923 INTER-LIGAND FREE ENERGY PREDICTED BY IDOCK:   -4.25 KCAL/MOL
REMARK 924 INTRA-LIGAND FREE ENERGY PREDICTED BY IDOCK:   -0.30 KCAL/MOL
REMARK 927      BINDING AFFINITY PREDICTED BY RF-SCORE:    0.00 PKD
ROOT
HETATM    1  N   UNL     1     -10.472   5.960  66.091  1.00  0.00    -0.461 NA 
HETATM    2  C   UNL     1      -9.403   6.759  66.337  1.00  0.00    -0.136 C  
HETATM    3  H2  UNL     1     -10.333   4.956  65.973  1.00  0.00     0.000 HD 
HETATM    4  H1  UNL     1     -11.412   6.350  66.022  1.00  0.00     0.000 HD 
HETATM    5  N   UNL     1      -8.205   6.262  66.425  1.00  0.00    -0.111 N  
HETATM    6  C   UNL     1      -7.109   7.109  66.656  1.00  0.00    -0.078 C  
HETATM    7  H   UNL     1      -8.061   5.257  66.327  1.00  0.00     0.000 HD 
HETATM    8  C   UNL     1      -7.431   8.543  66.742  1.00  0.00    -0.083 A  
HETATM    9  O   UNL     1      -5.966   6.684  66.784  1.00  0.00    -0.020 OA 
HETATM   10  C   UNL     1      -8.737   8.942  66.640  1.00  0.00    -0.127 A  
HETATM   11  N   UNL     1      -9.746   8.078  66.466  1.00  0.00    -0.233 NA 
HETATM   12  N   UNL     1      -8.756  10.297  66.758  1.00  0.00    -0.126 NA 
HETATM   13  N   UNL     1      -6.621   9.643  66.908  1.00  0.00    -0.067 NA 
HETATM   14  C   UNL     1      -7.445  10.678  66.914  1.00  0.00    -0.115 A  
ENDROOT
BRANCH  12  15
HETATM   15  C   UNL     1      -9.937  11.130  66.821  1.00  0.00    -0.208 C  
HETATM   16  C   UNL     1      -9.830  12.308  67.789  1.00  0.00    -0.201 C  
HETATM   17  C   UNL     1     -11.085  13.103  67.452  1.00  0.00    -0.275 C  
HETATM   18  O   UNL     1     -12.209  12.440  68.043  1.00  0.00    -0.356 OA 
HETATM   19  C   UNL     1     -11.204  13.035  65.910  1.00  0.00    -0.315 C  
HETATM   20  C   UNL     1     -10.403  11.785  65.539  1.00  0.00    -0.304 C  
HETATM   21  H   UNL     1     -12.991  12.935  67.832  1.00  0.00     0.000 HD 
HETATM   22  C   UNL     1     -10.165  11.370  64.283  1.00  0.00    -0.367 C  
BRANCH  19  23
HETATM   23  C   UNL     1     -10.694  14.322  65.253  1.00  0.00    -0.366 C  
HETATM   24  O   UNL     1      -9.641  14.915  66.003  1.00  0.00    -0.296 OA 
HETATM   25  H   UNL     1      -9.324  15.713  65.595  1.00  0.00     0.000 HD 
ENDBRANCH  19  23
ENDBRANCH  12  15
TORSDOF 2
ENDMDL
MODEL      167
REMARK 921   NORMALIZED FREE ENERGY PREDICTED BY IDOCK:   -3.74 KCAL/MOL
REMARK 922        TOTAL FREE ENERGY PREDICTED BY IDOCK:   -4.51 KCAL/MOL
REMARK 923 INTER-LIGAND FREE ENERGY PREDICTED BY IDOCK:   -4.20 KCAL/MOL
REMARK 924 INTRA-LIGAND FREE ENERGY PREDICTED BY IDOCK:   -0.31 KCAL/MOL
REMARK 927      BINDING AFFINITY PREDICTED BY RF-SCORE:    0.00 PKD
ROOT
HETATM    1  N   UNL     1      -6.679   7.814  72.039  1.00  0.00    -0.055 NA 
HETATM    2  C   UNL     1      -7.987   7.592  71.753  1.00  0.00    -0.090 C  
HETATM    3  H2  UNL     1      -6.429   8.351  72.869  1.00  0.00     0.000 HD 
HETATM    4  H1  UNL     1      -5.942   7.452  71.433  1.00  0.00     0.000 HD 
HETATM    5  N   UNL     1      -8.925   8.054  72.525  1.00  0.00    -0.173 N  
HETATM    6  C   UNL     1     -10.273   7.833  72.198  1.00  0.00    -0.213 C  
HETATM    7  H   UNL     1      -8.683   8.575  73.367  1.00  0.00     0.000 HD 
HETATM    8  C   UNL     1     -10.504   7.102  70.942  1.00  0.00    -0.210 A  
HETATM    9  O   UNL     1     -11.193   8.216  72.913  1.00  0.00    -0.381 OA 
HETATM   10  C   UNL     1      -9.429   6.660  70.219  1.00  0.00    -0.162 A  
HETATM   11  N   UNL     1      -8.162   6.863  70.608  1.00  0.00    -0.118 NA 
HETATM   12  N   UNL     1      -9.915   6.020  69.122  1.00  0.00    -0.153 NA 
HETATM   13  N   UNL     1     -11.670   6.758  70.297  1.00  0.00    -0.362 NA 
HETATM   14  C   UNL     1     -11.283   6.110  69.211  1.00  0.00    -0.367 A  
ENDROOT
BRANCH  12  15
HETATM   15  C   UNL     1      -9.134   5.300  68.140  1.00  0.00    -0.110 C  
HETATM   16  C   UNL     1      -9.542   3.839  67.954  1.00  0.00    -0.187 C  
HETATM   17  C   UNL     1      -8.733   3.442  66.726  1.00  0.00    -0.123 C  
HETATM   18  O   UNL     1      -7.374   3.236  67.132  1.00  0.00    -0.058 OA 
HETATM   19  C   UNL     1      -8.803   4.668  65.782  1.00  0.00    -0.127 C  
HETATM   20  C   UNL     1      -9.122   5.832  66.724  1.00  0.00    -0.126 C  
HETATM   21  H   UNL     1      -6.869   2.989  66.366  1.00  0.00     0.000 HD 
HETATM   22  C   UNL     1      -9.352   7.096  66.330  1.00  0.00    -0.190 C  
BRANCH  19  23
HETATM   23  C   UNL     1      -9.841   4.460  64.673  1.00  0.00    -0.085 C  
HETATM   24  O   UNL     1     -11.164   4.406  65.193  1.00  0.00    -0.909 OA 
HETATM   25  H   UNL     1     -11.807   4.278  64.505  1.00  0.00     0.000 HD 
ENDBRANCH  19  23
ENDBRANCH  12  15
TORSDOF 2
ENDMDL
MODEL      168
REMARK 921   NORMALIZED FREE ENERGY PREDICTED BY IDOCK:   -3.72 KCAL/MOL
REMARK 922        TOTAL FREE ENERGY PREDICTED BY IDOCK:   -4.50 KCAL/MOL
REMARK 923 INTER-LIGAND FREE ENERGY PREDICTED BY IDOCK:   -4.48 KCAL/MOL
REMARK 924 INTRA-LIGAND FREE ENERGY PREDICTED BY IDOCK:   -0.02 KCAL/MOL
REMARK 927      BINDING AFFINITY PREDICTED BY RF-SCORE:    0.00 PKD
ROOT
HETATM    1  N   UNL     1      -9.834  11.605  68.506  1.00  0.00    -0.208 NA 
HETATM    2  C   UNL     1     -10.534  11.083  69.545  1.00  0.00    -0.092 C  
HETATM    3  H2  UNL     1     -10.132  12.488  68.091  1.00  0.00     0.000 HD 
HETATM    4  H1  UNL     1      -9.014  11.126  68.134  1.00  0.00     0.000 HD 
HETATM    5  N   UNL     1     -11.580  11.693  70.018  1.00  0.00    -0.454 N  
HETATM    6  C   UNL     1     -12.304  11.124  71.078  1.00  0.00    -0.382 C  
HETATM    7  H   UNL     1     -11.873  12.585  69.621  1.00  0.00     0.000 HD 
HETATM    8  C   UNL     1     -11.812   9.817  71.545  1.00  0.00    -0.399 A  
HETATM    9  O   UNL     1     -13.274  11.679  71.583  1.00  0.00    -0.409 OA 
HETATM   10  C   UNL     1     -10.693   9.280  70.968  1.00  0.00    -0.316 A  
HETATM   11  N   UNL     1     -10.016   9.896  69.989  1.00  0.00    -0.255 NA 
HETATM   12  N   UNL     1     -10.455   8.089  71.580  1.00  0.00    -0.211 NA 
HETATM   13  N   UNL     1     -12.293   8.962  72.510  1.00  0.00    -0.313 NA 
HETATM   14  C   UNL     1     -11.457   7.937  72.508  1.00  0.00    -0.398 A  
ENDROOT
BRANCH  12  15
HETATM   15  C   UNL     1      -9.308   7.234  71.363  1.00  0.00    -0.149 C  
HETATM   16  C   UNL     1      -8.075   7.606  72.186  1.00  0.00    -0.122 C  
HETATM   17  C   UNL     1      -7.160   6.416  71.932  1.00  0.00    -0.081 C  
HETATM   18  O   UNL     1      -6.595   6.556  70.623  1.00  0.00    -0.049 OA 
HETATM   19  C   UNL     1      -8.088   5.178  71.958  1.00  0.00    -0.113 C  
HETATM   20  C   UNL     1      -9.471   5.756  71.646  1.00  0.00    -0.172 C  
HETATM   21  H   UNL     1      -6.024   5.813  70.464  1.00  0.00     0.000 HD 
HETATM   22  C   UNL     1     -10.614   5.050  71.638  1.00  0.00    -0.187 C  
BRANCH  19  23
HETATM   23  C   UNL     1      -8.007   4.446  73.303  1.00  0.00    -0.095 C  
HETATM   24  O   UNL     1      -6.883   4.869  74.065  1.00  0.00    -0.071 OA 
HETATM   25  H   UNL     1      -6.833   4.415  74.899  1.00  0.00     0.000 HD 
ENDBRANCH  19  23
ENDBRANCH  12  15
TORSDOF 2
ENDMDL
MODEL      169
REMARK 921   NORMALIZED FREE ENERGY PREDICTED BY IDOCK:   -3.72 KCAL/MOL
REMARK 922        TOTAL FREE ENERGY PREDICTED BY IDOCK:   -4.49 KCAL/MOL
REMARK 923 INTER-LIGAND FREE ENERGY PREDICTED BY IDOCK:   -5.36 KCAL/MOL
REMARK 924 INTRA-LIGAND FREE ENERGY PREDICTED BY IDOCK:    0.87 KCAL/MOL
REMARK 927      BINDING AFFINITY PREDICTED BY RF-SCORE:    0.00 PKD
ROOT
HETATM    1  N   UNL     1     -11.690  15.925  63.744  1.00  0.00    -1.124 NA 
HETATM    2  C   UNL     1     -11.369  15.065  64.744  1.00  0.00    -0.406 C  
HETATM    3  H2  UNL     1     -12.547  15.779  63.210  1.00  0.00     0.000 HD 
HETATM    4  H1  UNL     1     -11.086  16.716  63.520  1.00  0.00     0.000 HD 
HETATM    5  N   UNL     1     -12.139  14.057  65.029  1.00  0.00    -0.394 N  
HETATM    6  C   UNL     1     -11.776  13.165  66.051  1.00  0.00    -0.379 C  
HETATM    7  H   UNL     1     -13.006  13.915  64.511  1.00  0.00     0.000 HD 
HETATM    8  C   UNL     1     -10.487  13.447  66.702  1.00  0.00    -0.280 A  
HETATM    9  O   UNL     1     -12.486  12.222  66.381  1.00  0.00    -0.377 OA 
HETATM   10  C   UNL     1      -9.769  14.547  66.316  1.00  0.00    -0.309 A  
HETATM   11  N   UNL     1     -10.192  15.389  65.363  1.00  0.00    -0.370 NA 
HETATM   12  N   UNL     1      -8.638  14.576  67.070  1.00  0.00    -0.225 NA 
HETATM   13  N   UNL     1      -9.805  12.770  67.688  1.00  0.00    -0.209 NA 
HETATM   14  C   UNL     1      -8.702  13.473  67.886  1.00  0.00    -0.183 A  
ENDROOT
BRANCH  12  15
HETATM   15  C   UNL     1      -7.645  15.629  67.075  1.00  0.00    -0.210 C  
HETATM   16  C   UNL     1      -8.161  16.990  66.609  1.00  0.00    -0.295 C  
HETATM   17  C   UNL     1      -6.991  17.902  66.955  1.00  0.00    -0.181 C  
HETATM   18  O   UNL     1      -5.968  17.712  65.970  1.00  0.00    -0.200 OA 
HETATM   19  C   UNL     1      -6.479  17.401  68.327  1.00  0.00    -0.172 C  
HETATM   20  C   UNL     1      -6.971  15.953  68.390  1.00  0.00    -0.116 C  
HETATM   21  H   UNL     1      -5.238  18.281  66.186  1.00  0.00     0.000 HD 
HETATM   22  C   UNL     1      -6.822  15.137  69.448  1.00  0.00    -0.170 C  
BRANCH  19  23
HETATM   23  C   UNL     1      -6.990  18.284  69.471  1.00  0.00     0.017 C  
HETATM   24  O   UNL     1      -6.188  18.150  70.638  1.00  0.00     0.222 OA 
HETATM   25  H   UNL     1      -6.505  18.698  71.347  1.00  0.00     0.000 HD 
ENDBRANCH  19  23
ENDBRANCH  12  15
TORSDOF 2
ENDMDL
MODEL      170
REMARK 921   NORMALIZED FREE ENERGY PREDICTED BY IDOCK:   -3.71 KCAL/MOL
REMARK 922        TOTAL FREE ENERGY PREDICTED BY IDOCK:   -4.49 KCAL/MOL
REMARK 923 INTER-LIGAND FREE ENERGY PREDICTED BY IDOCK:   -4.43 KCAL/MOL
REMARK 924 INTRA-LIGAND FREE ENERGY PREDICTED BY IDOCK:   -0.06 KCAL/MOL
REMARK 927      BINDING AFFINITY PREDICTED BY RF-SCORE:    0.00 PKD
ROOT
HETATM    1  N   UNL     1      -7.707   9.540  64.178  1.00  0.00    -0.118 NA 
HETATM    2  C   UNL     1      -8.686  10.327  64.693  1.00  0.00    -0.190 C  
HETATM    3  H2  UNL     1      -7.343   9.736  63.245  1.00  0.00     0.000 HD 
HETATM    4  H1  UNL     1      -7.332   8.756  64.711  1.00  0.00     0.000 HD 
HETATM    5  N   UNL     1      -9.165  11.327  64.013  1.00  0.00    -0.389 N  
HETATM    6  C   UNL     1     -10.194  12.113  64.555  1.00  0.00    -0.293 C  
HETATM    7  H   UNL     1      -8.793  11.539  63.088  1.00  0.00     0.000 HD 
HETATM    8  C   UNL     1     -10.678  11.690  65.879  1.00  0.00    -0.278 A  
HETATM    9  O   UNL     1     -10.652  13.088  63.969  1.00  0.00    -0.412 OA 
HETATM   10  C   UNL     1     -10.086  10.622  66.497  1.00  0.00    -0.223 A  
HETATM   11  N   UNL     1      -9.073   9.938  65.947  1.00  0.00    -0.154 NA 
HETATM   12  N   UNL     1     -10.710  10.450  67.692  1.00  0.00    -0.264 NA 
HETATM   13  N   UNL     1     -11.688  12.185  66.673  1.00  0.00    -0.562 NA 
HETATM   14  C   UNL     1     -11.680  11.421  67.753  1.00  0.00    -0.203 A  
ENDROOT
BRANCH  12  15
HETATM   15  C   UNL     1     -10.333   9.505  68.722  1.00  0.00    -0.208 C  
HETATM   16  C   UNL     1     -10.353   8.043  68.279  1.00  0.00    -0.240 C  
HETATM   17  C   UNL     1      -9.693   7.349  69.463  1.00  0.00    -0.159 C  
HETATM   18  O   UNL     1     -10.651   7.265  70.525  1.00  0.00    -0.215 OA 
HETATM   19  C   UNL     1      -8.538   8.287  69.889  1.00  0.00    -0.125 C  
HETATM   20  C   UNL     1      -8.961   9.653  69.342  1.00  0.00    -0.186 C  
HETATM   21  H   UNL     1     -10.239   6.832  71.264  1.00  0.00     0.000 HD 
HETATM   22  C   UNL     1      -8.218  10.770  69.410  1.00  0.00    -0.035 C  
BRANCH  19  23
HETATM   23  C   UNL     1      -7.189   7.792  69.357  1.00  0.00    -0.080 C  
HETATM   24  O   UNL     1      -7.352   6.873  68.283  1.00  0.00    -0.091 OA 
HETATM   25  H   UNL     1      -6.515   6.566  67.953  1.00  0.00     0.000 HD 
ENDBRANCH  19  23
ENDBRANCH  12  15
TORSDOF 2
ENDMDL
MODEL      171
REMARK 921   NORMALIZED FREE ENERGY PREDICTED BY IDOCK:   -3.68 KCAL/MOL
REMARK 922        TOTAL FREE ENERGY PREDICTED BY IDOCK:   -4.45 KCAL/MOL
REMARK 923 INTER-LIGAND FREE ENERGY PREDICTED BY IDOCK:   -4.02 KCAL/MOL
REMARK 924 INTRA-LIGAND FREE ENERGY PREDICTED BY IDOCK:   -0.43 KCAL/MOL
REMARK 927      BINDING AFFINITY PREDICTED BY RF-SCORE:    0.00 PKD
ROOT
HETATM    1  N   UNL     1      -8.405   3.898  69.250  1.00  0.00    -0.060 NA 
HETATM    2  C   UNL     1      -9.212   4.831  69.817  1.00  0.00    -0.121 C  
HETATM    3  H2  UNL     1      -8.308   2.983  69.690  1.00  0.00     0.000 HD 
HETATM    4  H1  UNL     1      -7.896   4.100  68.390  1.00  0.00     0.000 HD 
HETATM    5  N   UNL     1      -9.861   4.574  70.914  1.00  0.00    -0.192 N  
HETATM    6  C   UNL     1     -10.670   5.561  71.498  1.00  0.00    -0.222 C  
HETATM    7  H   UNL     1      -9.782   3.655  71.349  1.00  0.00     0.000 HD 
HETATM    8  C   UNL     1     -10.677   6.859  70.804  1.00  0.00    -0.233 A  
HETATM    9  O   UNL     1     -11.331   5.354  72.510  1.00  0.00    -0.264 OA 
HETATM   10  C   UNL     1      -9.955   7.004  69.650  1.00  0.00    -0.173 A  
HETATM   11  N   UNL     1      -9.236   6.007  69.116  1.00  0.00    -0.126 NA 
HETATM   12  N   UNL     1     -10.136   8.280  69.217  1.00  0.00    -0.194 NA 
HETATM   13  N   UNL     1     -11.303   8.046  71.112  1.00  0.00    -0.261 NA 
HETATM   14  C   UNL     1     -10.960   8.877  70.141  1.00  0.00    -0.227 A  
ENDROOT
BRANCH  12  15
HETATM   15  C   UNL     1      -9.647   8.836  67.974  1.00  0.00    -0.142 C  
HETATM   16  C   UNL     1     -10.612   9.804  67.290  1.00  0.00    -0.320 C  
HETATM   17  C   UNL     1      -9.740  10.384  66.184  1.00  0.00    -0.209 C  
HETATM   18  O   UNL     1      -9.634   9.411  65.138  1.00  0.00    -0.416 OA 
HETATM   19  C   UNL     1      -8.350  10.591  66.832  1.00  0.00    -0.126 C  
HETATM   20  C   UNL     1      -8.353   9.619  68.015  1.00  0.00    -0.117 C  
HETATM   21  H   UNL     1      -9.090   9.773  64.449  1.00  0.00     0.000 HD 
HETATM   22  C   UNL     1      -7.366   9.507  68.920  1.00  0.00    -0.073 C  
BRANCH  19  23
HETATM   23  C   UNL     1      -8.130  12.055  67.228  1.00  0.00    -0.174 C  
HETATM   24  O   UNL     1      -6.866  12.536  66.787  1.00  0.00    -0.372 OA 
HETATM   25  H   UNL     1      -6.730  13.444  67.033  1.00  0.00     0.000 HD 
ENDBRANCH  19  23
ENDBRANCH  12  15
TORSDOF 2
ENDMDL
MODEL      172
REMARK 921   NORMALIZED FREE ENERGY PREDICTED BY IDOCK:   -3.68 KCAL/MOL
REMARK 922        TOTAL FREE ENERGY PREDICTED BY IDOCK:   -4.45 KCAL/MOL
REMARK 923 INTER-LIGAND FREE ENERGY PREDICTED BY IDOCK:   -4.29 KCAL/MOL
REMARK 924 INTRA-LIGAND FREE ENERGY PREDICTED BY IDOCK:   -0.15 KCAL/MOL
REMARK 927      BINDING AFFINITY PREDICTED BY RF-SCORE:    0.00 PKD
ROOT
HETATM    1  N   UNL     1      -6.036   6.482  70.261  1.00  0.00    -0.022 NA 
HETATM    2  C   UNL     1      -6.685   6.939  69.160  1.00  0.00    -0.053 C  
HETATM    3  H2  UNL     1      -5.038   6.278  70.208  1.00  0.00     0.000 HD 
HETATM    4  H1  UNL     1      -6.532   6.340  71.140  1.00  0.00     0.000 HD 
HETATM    5  N   UNL     1      -6.052   7.120  68.039  1.00  0.00    -0.033 N  
HETATM    6  C   UNL     1      -6.748   7.570  66.906  1.00  0.00    -0.066 C  
HETATM    7  H   UNL     1      -5.051   6.934  67.983  1.00  0.00     0.000 HD 
HETATM    8  C   UNL     1      -8.195   7.766  67.093  1.00  0.00    -0.118 A  
HETATM    9  O   UNL     1      -6.189   7.790  65.837  1.00  0.00    -0.041 OA 
HETATM   10  C   UNL     1      -8.744   7.548  68.328  1.00  0.00    -0.123 A  
HETATM   11  N   UNL     1      -8.017   7.163  69.386  1.00  0.00    -0.123 NA 
HETATM   12  N   UNL     1     -10.076   7.804  68.229  1.00  0.00    -0.186 NA 
HETATM   13  N   UNL     1      -9.179   8.143  66.208  1.00  0.00    -0.187 NA 
HETATM   14  C   UNL     1     -10.294   8.158  66.920  1.00  0.00    -0.331 A  
ENDROOT
BRANCH  12  15
HETATM   15  C   UNL     1     -11.026   7.810  69.320  1.00  0.00     0.007 C  
HETATM   16  C   UNL     1     -11.187   6.464  70.027  1.00  0.00    -0.475 C  
HETATM   17  C   UNL     1     -12.031   6.846  71.236  1.00  0.00    -0.356 C  
HETATM   18  O   UNL     1     -13.384   7.024  70.802  1.00  0.00    -0.501 OA 
HETATM   19  C   UNL     1     -11.464   8.206  71.712  1.00  0.00    -0.337 C  
HETATM   20  C   UNL     1     -10.774   8.766  70.466  1.00  0.00    -0.259 C  
HETATM   21  H   UNL     1     -13.910   7.263  71.555  1.00  0.00     0.000 HD 
HETATM   22  C   UNL     1     -10.070   9.910  70.427  1.00  0.00    -0.258 C  
BRANCH  19  23
HETATM   23  C   UNL     1     -10.532   8.033  72.916  1.00  0.00    -0.332 C  
HETATM   24  O   UNL     1     -10.849   6.866  73.665  1.00  0.00    -0.502 OA 
HETATM   25  H   UNL     1     -10.271   6.759  74.411  1.00  0.00     0.000 HD 
ENDBRANCH  19  23
ENDBRANCH  12  15
TORSDOF 2
ENDMDL
MODEL      173
REMARK 921   NORMALIZED FREE ENERGY PREDICTED BY IDOCK:   -3.67 KCAL/MOL
REMARK 922        TOTAL FREE ENERGY PREDICTED BY IDOCK:   -4.43 KCAL/MOL
REMARK 923 INTER-LIGAND FREE ENERGY PREDICTED BY IDOCK:   -4.78 KCAL/MOL
REMARK 924 INTRA-LIGAND FREE ENERGY PREDICTED BY IDOCK:    0.35 KCAL/MOL
REMARK 927      BINDING AFFINITY PREDICTED BY RF-SCORE:    0.00 PKD
ROOT
HETATM    1  N   UNL     1      -9.626  10.072  63.020  1.00  0.00    -0.516 NA 
HETATM    2  C   UNL     1      -8.549   9.900  63.828  1.00  0.00    -0.199 C  
HETATM    3  H2  UNL     1      -9.561  10.704  62.222  1.00  0.00     0.000 HD 
HETATM    4  H1  UNL     1     -10.500   9.577  63.200  1.00  0.00     0.000 HD 
HETATM    5  N   UNL     1      -7.436  10.531  63.598  1.00  0.00    -0.345 N  
HETATM    6  C   UNL     1      -6.341  10.357  64.460  1.00  0.00    -0.053 C  
HETATM    7  H   UNL     1      -7.358  11.150  62.792  1.00  0.00     0.000 HD 
HETATM    8  C   UNL     1      -6.582   9.471  65.611  1.00  0.00    -0.072 A  
HETATM    9  O   UNL     1      -5.260  10.901  64.265  1.00  0.00    -0.154 OA 
HETATM   10  C   UNL     1      -7.799   8.858  65.739  1.00  0.00    -0.099 A  
HETATM   11  N   UNL     1      -8.792   9.027  64.855  1.00  0.00    -0.179 NA 
HETATM   12  N   UNL     1      -7.753   8.101  66.868  1.00  0.00    -0.095 NA 
HETATM   13  N   UNL     1      -5.770   9.117  66.665  1.00  0.00    -0.049 NA 
HETATM   14  C   UNL     1      -6.501   8.295  67.399  1.00  0.00    -0.058 A  
ENDROOT
BRANCH  12  15
HETATM   15  C   UNL     1      -8.783   7.195  67.328  1.00  0.00    -0.120 C  
HETATM   16  C   UNL     1     -10.163   7.441  66.718  1.00  0.00    -0.313 C  
HETATM   17  C   UNL     1     -10.936   6.218  67.193  1.00  0.00    -0.370 C  
HETATM   18  O   UNL     1     -11.274   6.407  68.572  1.00  0.00    -0.481 OA 
HETATM   19  C   UNL     1      -9.942   5.037  67.067  1.00  0.00    -0.231 C  
HETATM   20  C   UNL     1      -8.570   5.715  67.099  1.00  0.00    -0.109 C  
HETATM   21  H   UNL     1     -11.756   5.644  68.868  1.00  0.00     0.000 HD 
HETATM   22  C   UNL     1      -7.397   5.079  66.941  1.00  0.00    -0.086 C  
BRANCH  19  23
HETATM   23  C   UNL     1     -10.205   4.218  65.798  1.00  0.00    -0.186 C  
HETATM   24  O   UNL     1     -11.493   4.484  65.257  1.00  0.00    -1.068 OA 
HETATM   25  H   UNL     1     -11.655   3.976  64.470  1.00  0.00     0.000 HD 
ENDBRANCH  19  23
ENDBRANCH  12  15
TORSDOF 2
ENDMDL
MODEL      174
REMARK 921   NORMALIZED FREE ENERGY PREDICTED BY IDOCK:   -3.60 KCAL/MOL
REMARK 922        TOTAL FREE ENERGY PREDICTED BY IDOCK:   -4.36 KCAL/MOL
REMARK 923 INTER-LIGAND FREE ENERGY PREDICTED BY IDOCK:   -3.99 KCAL/MOL
REMARK 924 INTRA-LIGAND FREE ENERGY PREDICTED BY IDOCK:   -0.37 KCAL/MOL
REMARK 927      BINDING AFFINITY PREDICTED BY RF-SCORE:    0.00 PKD
ROOT
HETATM    1  N   UNL     1      -8.201   6.248  68.365  1.00  0.00    -0.115 NA 
HETATM    2  C   UNL     1      -8.302   6.933  67.197  1.00  0.00    -0.121 C  
HETATM    3  H2  UNL     1      -8.005   5.247  68.346  1.00  0.00     0.000 HD 
HETATM    4  H1  UNL     1      -8.318   6.721  69.261  1.00  0.00     0.000 HD 
HETATM    5  N   UNL     1      -8.152   6.331  66.055  1.00  0.00    -0.114 N  
HETATM    6  C   UNL     1      -8.284   7.053  64.859  1.00  0.00    -0.074 C  
HETATM    7  H   UNL     1      -7.939   5.334  66.029  1.00  0.00     0.000 HD 
HETATM    8  C   UNL     1      -8.632   8.475  65.018  1.00  0.00    -0.135 A  
HETATM    9  O   UNL     1      -8.116   6.538  63.759  1.00  0.00    -0.100 OA 
HETATM   10  C   UNL     1      -8.755   8.995  66.278  1.00  0.00    -0.135 A  
HETATM   11  N   UNL     1      -8.571   8.263  67.385  1.00  0.00    -0.124 NA 
HETATM   12  N   UNL     1      -9.070  10.311  66.143  1.00  0.00    -0.152 NA 
HETATM   13  N   UNL     1      -8.884   9.454  64.084  1.00  0.00    -0.208 NA 
HETATM   14  C   UNL     1      -9.142  10.543  64.791  1.00  0.00    -0.211 A  
ENDROOT
BRANCH  12  15
HETATM   15  C   UNL     1      -9.185  11.274  67.217  1.00  0.00    -0.166 C  
HETATM   16  C   UNL     1      -8.851  12.711  66.817  1.00  0.00    -0.168 C  
HETATM   17  C   UNL     1      -9.291  13.489  68.050  1.00  0.00    -0.213 C  
HETATM   18  O   UNL     1      -8.301  13.313  69.069  1.00  0.00    -0.342 OA 
HETATM   19  C   UNL     1     -10.612  12.818  68.500  1.00  0.00    -0.270 C  
HETATM   20  C   UNL     1     -10.531  11.415  67.894  1.00  0.00    -0.212 C  
HETATM   21  H   UNL     1      -8.575  13.798  69.838  1.00  0.00     0.000 HD 
HETATM   22  C   UNL     1     -11.504  10.491  67.962  1.00  0.00    -0.230 C  
BRANCH  19  23
HETATM   23  C   UNL     1     -11.833  13.625  68.045  1.00  0.00    -0.362 C  
HETATM   24  O   UNL     1     -12.456  14.297  69.132  1.00  0.00    -0.539 OA 
HETATM   25  H   UNL     1     -13.212  14.798  68.849  1.00  0.00     0.000 HD 
ENDBRANCH  19  23
ENDBRANCH  12  15
TORSDOF 2
ENDMDL
MODEL      175
REMARK 921   NORMALIZED FREE ENERGY PREDICTED BY IDOCK:   -3.58 KCAL/MOL
REMARK 922        TOTAL FREE ENERGY PREDICTED BY IDOCK:   -4.34 KCAL/MOL
REMARK 923 INTER-LIGAND FREE ENERGY PREDICTED BY IDOCK:   -4.19 KCAL/MOL
REMARK 924 INTRA-LIGAND FREE ENERGY PREDICTED BY IDOCK:   -0.15 KCAL/MOL
REMARK 927      BINDING AFFINITY PREDICTED BY RF-SCORE:    0.00 PKD
ROOT
HETATM    1  N   UNL     1      -6.079   9.189  72.066  1.00  0.00    -0.204 NA 
HETATM    2  C   UNL     1      -6.529   9.966  71.048  1.00  0.00     0.026 C  
HETATM    3  H2  UNL     1      -5.236   9.461  72.572  1.00  0.00     0.000 HD 
HETATM    4  H1  UNL     1      -6.572   8.337  72.331  1.00  0.00     0.000 HD 
HETATM    5  N   UNL     1      -5.900  11.052  70.710  1.00  0.00    -0.107 N  
HETATM    6  C   UNL     1      -6.368  11.829  69.638  1.00  0.00    -0.129 C  
HETATM    7  H   UNL     1      -5.067  11.340  71.223  1.00  0.00     0.000 HD 
HETATM    8  C   UNL     1      -7.554  11.297  68.948  1.00  0.00    -0.126 A  
HETATM    9  O   UNL     1      -5.831  12.880  69.305  1.00  0.00    -0.076 OA 
HETATM   10  C   UNL     1      -8.132  10.143  69.405  1.00  0.00    -0.160 A  
HETATM   11  N   UNL     1      -7.664   9.470  70.465  1.00  0.00    -0.167 NA 
HETATM   12  N   UNL     1      -9.198   9.880  68.603  1.00  0.00    -0.135 NA 
HETATM   13  N   UNL     1      -8.243  11.757  67.848  1.00  0.00    -0.139 NA 
HETATM   14  C   UNL     1      -9.223  10.886  67.668  1.00  0.00    -0.152 A  
ENDROOT
BRANCH  12  15
HETATM   15  C   UNL     1     -10.163   8.818  68.790  1.00  0.00    -0.206 C  
HETATM   16  C   UNL     1      -9.555   7.418  68.879  1.00  0.00    -0.148 C  
HETATM   17  C   UNL     1     -10.754   6.584  69.310  1.00  0.00    -0.280 C  
HETATM   18  O   UNL     1     -11.594   6.382  68.168  1.00  0.00    -0.557 OA 
HETATM   19  C   UNL     1     -11.503   7.457  70.347  1.00  0.00    -0.250 C  
HETATM   20  C   UNL     1     -11.049   8.881  70.015  1.00  0.00    -0.180 C  
HETATM   21  H   UNL     1     -12.342   5.862  68.437  1.00  0.00     0.000 HD 
HETATM   22  C   UNL     1     -11.390   9.977  70.714  1.00  0.00    -0.439 C  
BRANCH  19  23
HETATM   23  C   UNL     1     -11.186   7.018  71.781  1.00  0.00    -0.246 C  
HETATM   24  O   UNL     1     -12.256   6.279  72.354  1.00  0.00    -0.516 OA 
HETATM   25  H   UNL     1     -12.059   6.007  73.243  1.00  0.00     0.000 HD 
ENDBRANCH  19  23
ENDBRANCH  12  15
TORSDOF 2
ENDMDL
MODEL      176
REMARK 921   NORMALIZED FREE ENERGY PREDICTED BY IDOCK:   -3.58 KCAL/MOL
REMARK 922        TOTAL FREE ENERGY PREDICTED BY IDOCK:   -4.34 KCAL/MOL
REMARK 923 INTER-LIGAND FREE ENERGY PREDICTED BY IDOCK:   -4.32 KCAL/MOL
REMARK 924 INTRA-LIGAND FREE ENERGY PREDICTED BY IDOCK:   -0.02 KCAL/MOL
REMARK 927      BINDING AFFINITY PREDICTED BY RF-SCORE:    0.00 PKD
ROOT
HETATM    1  N   UNL     1      -9.503   7.662  69.844  1.00  0.00    -0.161 NA 
HETATM    2  C   UNL     1     -10.365   8.649  70.199  1.00  0.00    -0.207 C  
HETATM    3  H2  UNL     1      -9.546   6.761  70.320  1.00  0.00     0.000 HD 
HETATM    4  H1  UNL     1      -8.813   7.810  69.108  1.00  0.00     0.000 HD 
HETATM    5  N   UNL     1     -11.245   8.459  71.138  1.00  0.00    -0.255 N  
HETATM    6  C   UNL     1     -12.111   9.501  71.506  1.00  0.00    -0.389 C  
HETATM    7  H   UNL     1     -11.305   7.555  71.605  1.00  0.00     0.000 HD 
HETATM    8  C   UNL     1     -11.907  10.771  70.792  1.00  0.00    -0.339 A  
HETATM    9  O   UNL     1     -12.981   9.360  72.359  1.00  0.00    -0.395 OA 
HETATM   10  C   UNL     1     -10.949  10.843  69.816  1.00  0.00    -0.226 A  
HETATM   11  N   UNL     1     -10.183   9.797  69.476  1.00  0.00    -0.206 NA 
HETATM   12  N   UNL     1     -10.972  12.108  69.319  1.00  0.00    -0.162 NA 
HETATM   13  N   UNL     1     -12.526  11.994  70.925  1.00  0.00    -0.347 NA 
HETATM   14  C   UNL     1     -11.944  12.772  70.028  1.00  0.00    -0.301 A  
ENDROOT
BRANCH  12  15
HETATM   15  C   UNL     1     -10.204  12.595  68.194  1.00  0.00    -0.240 C  
HETATM   16  C   UNL     1      -8.698  12.679  68.444  1.00  0.00    -0.118 C  
HETATM   17  C   UNL     1      -8.166  12.974  67.048  1.00  0.00    -0.062 C  
HETATM   18  O   UNL     1      -8.413  14.354  66.755  1.00  0.00    -0.380 OA 
HETATM   19  C   UNL     1      -9.012  12.091  66.098  1.00  0.00    -0.079 C  
HETATM   20  C   UNL     1     -10.290  11.821  66.897  1.00  0.00    -0.247 C  
HETATM   21  H   UNL     1      -8.082  14.538  65.884  1.00  0.00     0.000 HD 
HETATM   22  C   UNL     1     -11.293  11.025  66.492  1.00  0.00     0.047 C  
BRANCH  19  23
HETATM   23  C   UNL     1      -8.253  10.825  65.687  1.00  0.00    -0.127 C  
HETATM   24  O   UNL     1      -8.394   9.790  66.652  1.00  0.00    -0.122 OA 
HETATM   25  H   UNL     1      -7.923   9.005  66.397  1.00  0.00     0.000 HD 
ENDBRANCH  19  23
ENDBRANCH  12  15
TORSDOF 2
ENDMDL
MODEL      177
REMARK 921   NORMALIZED FREE ENERGY PREDICTED BY IDOCK:   -3.57 KCAL/MOL
REMARK 922        TOTAL FREE ENERGY PREDICTED BY IDOCK:   -4.32 KCAL/MOL
REMARK 923 INTER-LIGAND FREE ENERGY PREDICTED BY IDOCK:   -4.24 KCAL/MOL
REMARK 924 INTRA-LIGAND FREE ENERGY PREDICTED BY IDOCK:   -0.08 KCAL/MOL
REMARK 927      BINDING AFFINITY PREDICTED BY RF-SCORE:    0.00 PKD
ROOT
HETATM    1  N   UNL     1     -10.253   4.013  71.927  1.00  0.00    -0.137 NA 
HETATM    2  C   UNL     1      -9.342   4.877  71.412  1.00  0.00    -0.150 C  
HETATM    3  H2  UNL     1      -9.943   3.109  72.285  1.00  0.00     0.000 HD 
HETATM    4  H1  UNL     1     -11.244   4.255  71.961  1.00  0.00     0.000 HD 
HETATM    5  N   UNL     1      -8.080   4.568  71.368  1.00  0.00    -0.093 N  
HETATM    6  C   UNL     1      -7.158   5.467  70.809  1.00  0.00    -0.064 C  
HETATM    7  H   UNL     1      -7.761   3.674  71.740  1.00  0.00     0.000 HD 
HETATM    8  C   UNL     1      -7.737   6.707  70.269  1.00  0.00    -0.098 A  
HETATM    9  O   UNL     1      -5.954   5.237  70.778  1.00  0.00    -0.019 OA 
HETATM   10  C   UNL     1      -9.085   6.920  70.381  1.00  0.00    -0.156 A  
HETATM   11  N   UNL     1      -9.909   6.042  70.969  1.00  0.00    -0.180 NA 
HETATM   12  N   UNL     1      -9.353   8.127  69.815  1.00  0.00    -0.159 NA 
HETATM   13  N   UNL     1      -7.153   7.770  69.617  1.00  0.00    -0.061 NA 
HETATM   14  C   UNL     1      -8.147   8.603  69.360  1.00  0.00    -0.111 A  
ENDROOT
BRANCH  12  15
HETATM   15  C   UNL     1     -10.633   8.801  69.811  1.00  0.00    -0.224 C  
HETATM   16  C   UNL     1     -10.820   9.813  70.940  1.00  0.00    -0.399 C  
HETATM   17  C   UNL     1     -12.113  10.505  70.529  1.00  0.00    -0.345 C  
HETATM   18  O   UNL     1     -13.207   9.633  70.837  1.00  0.00    -0.552 OA 
HETATM   19  C   UNL     1     -12.010  10.672  68.993  1.00  0.00    -0.186 C  
HETATM   20  C   UNL     1     -11.004   9.596  68.578  1.00  0.00    -0.153 C  
HETATM   21  H   UNL     1     -14.013  10.065  70.580  1.00  0.00     0.000 HD 
HETATM   22  C   UNL     1     -10.544   9.417  67.328  1.00  0.00    -0.314 C  
BRANCH  19  23
HETATM   23  C   UNL     1     -11.593  12.097  68.612  1.00  0.00    -0.321 C  
HETATM   24  O   UNL     1     -12.062  12.455  67.318  1.00  0.00    -0.516 OA 
HETATM   25  H   UNL     1     -11.804  13.339  67.082  1.00  0.00     0.000 HD 
ENDBRANCH  19  23
ENDBRANCH  12  15
TORSDOF 2
ENDMDL
MODEL      178
REMARK 921   NORMALIZED FREE ENERGY PREDICTED BY IDOCK:   -3.49 KCAL/MOL
REMARK 922        TOTAL FREE ENERGY PREDICTED BY IDOCK:   -4.23 KCAL/MOL
REMARK 923 INTER-LIGAND FREE ENERGY PREDICTED BY IDOCK:   -3.96 KCAL/MOL
REMARK 924 INTRA-LIGAND FREE ENERGY PREDICTED BY IDOCK:   -0.27 KCAL/MOL
REMARK 927      BINDING AFFINITY PREDICTED BY RF-SCORE:    0.00 PKD
ROOT
HETATM    1  N   UNL     1      -6.171   6.141  64.799  1.00  0.00    -0.029 NA 
HETATM    2  C   UNL     1      -7.340   6.273  65.475  1.00  0.00    -0.080 C  
HETATM    3  H2  UNL     1      -5.687   5.243  64.801  1.00  0.00     0.000 HD 
HETATM    4  H1  UNL     1      -5.769   6.928  64.289  1.00  0.00     0.000 HD 
HETATM    5  N   UNL     1      -7.852   5.270  66.125  1.00  0.00    -0.102 N  
HETATM    6  C   UNL     1      -9.050   5.434  66.838  1.00  0.00    -0.114 C  
HETATM    7  H   UNL     1      -7.383   4.364  66.117  1.00  0.00     0.000 HD 
HETATM    8  C   UNL     1      -9.616   6.793  66.811  1.00  0.00    -0.166 A  
HETATM    9  O   UNL     1      -9.591   4.510  67.435  1.00  0.00    -0.154 OA 
HETATM   10  C   UNL     1      -8.985   7.765  66.082  1.00  0.00    -0.163 A  
HETATM   11  N   UNL     1      -7.866   7.534  65.383  1.00  0.00    -0.109 NA 
HETATM   12  N   UNL     1      -9.709   8.908  66.221  1.00  0.00    -0.261 NA 
HETATM   13  N   UNL     1     -10.729   7.321  67.425  1.00  0.00    -0.289 NA 
HETATM   14  C   UNL     1     -10.757   8.590  67.050  1.00  0.00    -0.120 A  
ENDROOT
BRANCH  12  15
HETATM   15  C   UNL     1      -9.469  10.157  65.532  1.00  0.00    -0.230 C  
HETATM   16  C   UNL     1     -10.520  10.512  64.479  1.00  0.00    -0.151 C  
HETATM   17  C   UNL     1     -10.136  11.943  64.126  1.00  0.00    -0.310 C  
HETATM   18  O   UNL     1      -8.985  11.902  63.276  1.00  0.00    -0.571 OA 
HETATM   19  C   UNL     1      -9.753  12.603  65.473  1.00  0.00    -0.110 C  
HETATM   20  C   UNL     1      -9.387  11.416  66.367  1.00  0.00    -0.219 C  
HETATM   21  H   UNL     1      -8.745  12.795  63.056  1.00  0.00     0.000 HD 
HETATM   22  C   UNL     1      -9.060  11.506  67.667  1.00  0.00    -0.168 C  
BRANCH  19  23
HETATM   23  C   UNL     1     -10.897  13.466  66.018  1.00  0.00    -0.274 C  
HETATM   24  O   UNL     1     -11.374  14.385  65.044  1.00  0.00    -0.339 OA 
HETATM   25  H   UNL     1     -12.084  14.919  65.382  1.00  0.00     0.000 HD 
ENDBRANCH  19  23
ENDBRANCH  12  15
TORSDOF 2
ENDMDL
MODEL      179
REMARK 921   NORMALIZED FREE ENERGY PREDICTED BY IDOCK:   -3.44 KCAL/MOL
REMARK 922        TOTAL FREE ENERGY PREDICTED BY IDOCK:   -4.18 KCAL/MOL
REMARK 923 INTER-LIGAND FREE ENERGY PREDICTED BY IDOCK:   -4.02 KCAL/MOL
REMARK 924 INTRA-LIGAND FREE ENERGY PREDICTED BY IDOCK:   -0.16 KCAL/MOL
REMARK 927      BINDING AFFINITY PREDICTED BY RF-SCORE:    0.00 PKD
ROOT
HETATM    1  N   UNL     1     -12.446   8.294  72.857  1.00  0.00    -0.650 NA 
HETATM    2  C   UNL     1     -11.888   9.078  71.900  1.00  0.00    -0.376 C  
HETATM    3  H2  UNL     1     -13.324   8.578  73.292  1.00  0.00     0.000 HD 
HETATM    4  H1  UNL     1     -11.999   7.424  73.147  1.00  0.00     0.000 HD 
HETATM    5  N   UNL     1     -12.458  10.187  71.531  1.00  0.00    -0.399 N  
HETATM    6  C   UNL     1     -11.852  10.996  70.556  1.00  0.00    -0.367 C  
HETATM    7  H   UNL     1     -13.345  10.468  71.948  1.00  0.00     0.000 HD 
HETATM    8  C   UNL     1     -10.556  10.510  70.054  1.00  0.00    -0.169 A  
HETATM    9  O   UNL     1     -12.368  12.031  70.148  1.00  0.00    -0.240 OA 
HETATM   10  C   UNL     1     -10.063   9.321  70.517  1.00  0.00    -0.255 A  
HETATM   11  N   UNL     1     -10.713   8.569  71.416  1.00  0.00    -0.234 NA 
HETATM   12  N   UNL     1      -8.873   9.107  69.895  1.00  0.00    -0.155 NA 
HETATM   13  N   UNL     1      -9.674  11.059  69.151  1.00  0.00    -0.134 NA 
HETATM   14  C   UNL     1      -8.676  10.193  69.077  1.00  0.00    -0.161 A  
ENDROOT
BRANCH  12  15
HETATM   15  C   UNL     1      -8.058   7.916  70.001  1.00  0.00    -0.117 C  
HETATM   16  C   UNL     1      -7.625   7.569  71.426  1.00  0.00    -0.081 C  
HETATM   17  C   UNL     1      -7.019   6.185  71.239  1.00  0.00    -0.072 C  
HETATM   18  O   UNL     1      -5.722   6.338  70.651  1.00  0.00    -0.018 OA 
HETATM   19  C   UNL     1      -7.954   5.466  70.235  1.00  0.00    -0.092 C  
HETATM   20  C   UNL     1      -8.647   6.615  69.500  1.00  0.00    -0.132 C  
HETATM   21  H   UNL     1      -5.344   5.474  70.534  1.00  0.00     0.000 HD 
HETATM   22  C   UNL     1      -9.613   6.464  68.578  1.00  0.00    -0.122 C  
BRANCH  19  23
HETATM   23  C   UNL     1      -8.916   4.512  70.952  1.00  0.00    -0.119 C  
HETATM   24  O   UNL     1      -9.198   3.360  70.167  1.00  0.00    -0.122 OA 
HETATM   25  H   UNL     1      -9.794   2.769  70.612  1.00  0.00     0.000 HD 
ENDBRANCH  19  23
ENDBRANCH  12  15
TORSDOF 2
ENDMDL
MODEL      180
REMARK 921   NORMALIZED FREE ENERGY PREDICTED BY IDOCK:   -3.44 KCAL/MOL
REMARK 922        TOTAL FREE ENERGY PREDICTED BY IDOCK:   -4.18 KCAL/MOL
REMARK 923 INTER-LIGAND FREE ENERGY PREDICTED BY IDOCK:   -4.16 KCAL/MOL
REMARK 924 INTRA-LIGAND FREE ENERGY PREDICTED BY IDOCK:   -0.02 KCAL/MOL
REMARK 927      BINDING AFFINITY PREDICTED BY RF-SCORE:    0.00 PKD
ROOT
HETATM    1  N   UNL     1      -9.767   9.640  65.145  1.00  0.00    -0.422 NA 
HETATM    2  C   UNL     1      -8.749  10.005  65.965  1.00  0.00    -0.138 C  
HETATM    3  H2  UNL     1      -9.692   9.811  64.143  1.00  0.00     0.000 HD 
HETATM    4  H1  UNL     1     -10.607   9.198  65.519  1.00  0.00     0.000 HD 
HETATM    5  N   UNL     1      -7.679  10.569  65.489  1.00  0.00    -0.210 N  
HETATM    6  C   UNL     1      -6.648  10.961  66.358  1.00  0.00    -0.134 C  
HETATM    7  H   UNL     1      -7.589  10.727  64.486  1.00  0.00     0.000 HD 
HETATM    8  C   UNL     1      -6.904  10.720  67.787  1.00  0.00    -0.073 A  
HETATM    9  O   UNL     1      -5.604  11.463  65.954  1.00  0.00    -0.213 OA 
HETATM   10  C   UNL     1      -8.070  10.109  68.163  1.00  0.00    -0.105 A  
HETATM   11  N   UNL     1      -8.998   9.716  67.280  1.00  0.00    -0.134 NA 
HETATM   12  N   UNL     1      -8.052  10.003  69.518  1.00  0.00    -0.146 NA 
HETATM   13  N   UNL     1      -6.153  11.015  68.903  1.00  0.00    -0.040 NA 
HETATM   14  C   UNL     1      -6.869  10.571  69.924  1.00  0.00    -0.149 A  
ENDROOT
BRANCH  12  15
HETATM   15  C   UNL     1      -9.034   9.321  70.333  1.00  0.00    -0.239 C  
HETATM   16  C   UNL     1     -10.481   9.523  69.883  1.00  0.00    -0.269 C  
HETATM   17  C   UNL     1     -11.222   8.517  70.753  1.00  0.00    -0.257 C  
HETATM   18  O   UNL     1     -11.330   9.059  72.074  1.00  0.00    -0.364 OA 
HETATM   19  C   UNL     1     -10.312   7.264  70.787  1.00  0.00    -0.212 C  
HETATM   20  C   UNL     1      -8.924   7.817  70.453  1.00  0.00    -0.147 C  
HETATM   21  H   UNL     1     -11.791   8.431  72.618  1.00  0.00     0.000 HD 
HETATM   22  C   UNL     1      -7.819   7.069  70.295  1.00  0.00    -0.105 C  
BRANCH  19  23
HETATM   23  C   UNL     1     -10.806   6.188  69.815  1.00  0.00    -0.353 C  
HETATM   24  O   UNL     1     -11.961   6.612  69.101  1.00  0.00    -0.450 OA 
HETATM   25  H   UNL     1     -12.267   5.944  68.498  1.00  0.00     0.000 HD 
ENDBRANCH  19  23
ENDBRANCH  12  15
TORSDOF 2
ENDMDL
MODEL      181
REMARK 921   NORMALIZED FREE ENERGY PREDICTED BY IDOCK:   -3.43 KCAL/MOL
REMARK 922        TOTAL FREE ENERGY PREDICTED BY IDOCK:   -4.17 KCAL/MOL
REMARK 923 INTER-LIGAND FREE ENERGY PREDICTED BY IDOCK:   -4.07 KCAL/MOL
REMARK 924 INTRA-LIGAND FREE ENERGY PREDICTED BY IDOCK:   -0.10 KCAL/MOL
REMARK 927      BINDING AFFINITY PREDICTED BY RF-SCORE:    0.00 PKD
ROOT
HETATM    1  N   UNL     1      -6.943   7.368  71.803  1.00  0.00    -0.061 NA 
HETATM    2  C   UNL     1      -8.212   7.847  71.795  1.00  0.00    -0.117 C  
HETATM    3  H2  UNL     1      -6.651   6.728  72.543  1.00  0.00     0.000 HD 
HETATM    4  H1  UNL     1      -6.276   7.639  71.081  1.00  0.00     0.000 HD 
HETATM    5  N   UNL     1      -9.062   7.502  72.717  1.00  0.00    -0.141 N  
HETATM    6  C   UNL     1     -10.363   8.029  72.704  1.00  0.00    -0.329 C  
HETATM    7  H   UNL     1      -8.783   6.849  73.449  1.00  0.00     0.000 HD 
HETATM    8  C   UNL     1     -10.641   8.990  71.625  1.00  0.00    -0.364 A  
HETATM    9  O   UNL     1     -11.211   7.705  73.529  1.00  0.00    -0.283 OA 
HETATM   10  C   UNL     1      -9.662   9.267  70.708  1.00  0.00    -0.282 A  
HETATM   11  N   UNL     1      -8.451   8.695  70.747  1.00  0.00    -0.142 NA 
HETATM   12  N   UNL     1     -10.175  10.169  69.829  1.00  0.00    -0.246 NA 
HETATM   13  N   UNL     1     -11.768   9.727  71.338  1.00  0.00    -0.390 NA 
HETATM   14  C   UNL     1     -11.456  10.422  70.256  1.00  0.00    -0.325 A  
ENDROOT
BRANCH  12  15
HETATM   15  C   UNL     1      -9.525  10.656  68.632  1.00  0.00    -0.176 C  
HETATM   16  C   UNL     1      -8.148  11.277  68.866  1.00  0.00    -0.090 C  
HETATM   17  C   UNL     1      -7.641  11.456  67.441  1.00  0.00    -0.124 C  
HETATM   18  O   UNL     1      -8.296  12.595  66.871  1.00  0.00    -0.306 OA 
HETATM   19  C   UNL     1      -8.089  10.179  66.688  1.00  0.00    -0.120 C  
HETATM   20  C   UNL     1      -9.266   9.663  67.520  1.00  0.00    -0.149 C  
HETATM   21  H   UNL     1      -7.980  12.707  65.983  1.00  0.00     0.000 HD 
HETATM   22  C   UNL     1      -9.930   8.520  67.283  1.00  0.00    -0.289 C  
BRANCH  19  23
HETATM   23  C   UNL     1      -6.936   9.179  66.549  1.00  0.00    -0.080 C  
HETATM   24  O   UNL     1      -6.284   8.950  67.792  1.00  0.00    -0.054 OA 
HETATM   25  H   UNL     1      -5.570   8.329  67.705  1.00  0.00     0.000 HD 
ENDBRANCH  19  23
ENDBRANCH  12  15
TORSDOF 2
ENDMDL
MODEL      182
REMARK 921   NORMALIZED FREE ENERGY PREDICTED BY IDOCK:   -3.42 KCAL/MOL
REMARK 922        TOTAL FREE ENERGY PREDICTED BY IDOCK:   -4.16 KCAL/MOL
REMARK 923 INTER-LIGAND FREE ENERGY PREDICTED BY IDOCK:   -3.99 KCAL/MOL
REMARK 924 INTRA-LIGAND FREE ENERGY PREDICTED BY IDOCK:   -0.16 KCAL/MOL
REMARK 927      BINDING AFFINITY PREDICTED BY RF-SCORE:    0.00 PKD
ROOT
HETATM    1  N   UNL     1      -6.122   5.446  70.313  1.00  0.00    -0.021 NA 
HETATM    2  C   UNL     1      -6.831   5.303  69.165  1.00  0.00    -0.054 C  
HETATM    3  H2  UNL     1      -5.164   5.100  70.360  1.00  0.00     0.000 HD 
HETATM    4  H1  UNL     1      -6.536   5.895  71.131  1.00  0.00     0.000 HD 
HETATM    5  N   UNL     1      -6.304   4.731  68.123  1.00  0.00    -0.035 N  
HETATM    6  C   UNL     1      -7.063   4.572  66.952  1.00  0.00    -0.068 C  
HETATM    7  H   UNL     1      -5.341   4.399  68.156  1.00  0.00     0.000 HD 
HETATM    8  C   UNL     1      -8.451   5.053  67.033  1.00  0.00    -0.106 A  
HETATM    9  O   UNL     1      -6.599   4.072  65.933  1.00  0.00    -0.042 OA 
HETATM   10  C   UNL     1      -8.887   5.646  68.187  1.00  0.00    -0.108 A  
HETATM   11  N   UNL     1      -8.099   5.811  69.258  1.00  0.00    -0.100 NA 
HETATM   12  N   UNL     1     -10.186   5.999  67.994  1.00  0.00    -0.163 NA 
HETATM   13  N   UNL     1      -9.476   5.015  66.114  1.00  0.00    -0.151 NA 
HETATM   14  C   UNL     1     -10.501   5.591  66.721  1.00  0.00    -0.296 A  
ENDROOT
BRANCH  12  15
HETATM   15  C   UNL     1     -11.009   6.754  68.914  1.00  0.00    -0.218 C  
HETATM   16  C   UNL     1     -11.183   6.106  70.288  1.00  0.00    -0.439 C  
HETATM   17  C   UNL     1     -11.862   7.219  71.074  1.00  0.00    -0.318 C  
HETATM   18  O   UNL     1     -13.239   7.269  70.684  1.00  0.00    -0.578 OA 
HETATM   19  C   UNL     1     -11.156   8.522  70.624  1.00  0.00    -0.280 C  
HETATM   20  C   UNL     1     -10.570   8.161  69.256  1.00  0.00    -0.191 C  
HETATM   21  H   UNL     1     -13.663   7.963  71.174  1.00  0.00     0.000 HD 
HETATM   22  C   UNL     1      -9.799   8.973  68.514  1.00  0.00    -0.184 C  
BRANCH  19  23
HETATM   23  C   UNL     1     -10.113   8.976  71.650  1.00  0.00    -0.335 C  
HETATM   24  O   UNL     1     -10.167   8.195  72.837  1.00  0.00    -0.307 OA 
HETATM   25  H   UNL     1      -9.519   8.476  73.473  1.00  0.00     0.000 HD 
ENDBRANCH  19  23
ENDBRANCH  12  15
TORSDOF 2
ENDMDL
MODEL      183
REMARK 921   NORMALIZED FREE ENERGY PREDICTED BY IDOCK:   -3.40 KCAL/MOL
REMARK 922        TOTAL FREE ENERGY PREDICTED BY IDOCK:   -4.13 KCAL/MOL
REMARK 923 INTER-LIGAND FREE ENERGY PREDICTED BY IDOCK:   -4.85 KCAL/MOL
REMARK 924 INTRA-LIGAND FREE ENERGY PREDICTED BY IDOCK:    0.71 KCAL/MOL
REMARK 927      BINDING AFFINITY PREDICTED BY RF-SCORE:    0.00 PKD
ROOT
HETATM    1  N   UNL     1     -14.349   7.169  71.850  1.00  0.00    -0.601 NA 
HETATM    2  C   UNL     1     -13.172   7.834  71.737  1.00  0.00    -0.318 C  
HETATM    3  H2  UNL     1     -15.223   7.651  71.638  1.00  0.00     0.000 HD 
HETATM    4  H1  UNL     1     -14.373   6.193  72.145  1.00  0.00     0.000 HD 
HETATM    5  N   UNL     1     -13.143   9.079  71.362  1.00  0.00    -0.438 N  
HETATM    6  C   UNL     1     -11.916   9.756  71.275  1.00  0.00    -0.386 C  
HETATM    7  H   UNL     1     -14.010   9.562  71.131  1.00  0.00     0.000 HD 
HETATM    8  C   UNL     1     -10.735   8.971  71.670  1.00  0.00    -0.371 A  
HETATM    9  O   UNL     1     -11.833  10.918  70.890  1.00  0.00    -0.323 OA 
HETATM   10  C   UNL     1     -10.896   7.663  72.041  1.00  0.00    -0.238 A  
HETATM   11  N   UNL     1     -12.091   7.057  72.060  1.00  0.00    -0.305 NA 
HETATM   12  N   UNL     1      -9.664   7.175  72.347  1.00  0.00    -0.149 NA 
HETATM   13  N   UNL     1      -9.406   9.317  71.755  1.00  0.00    -0.254 NA 
HETATM   14  C   UNL     1      -8.791   8.219  72.162  1.00  0.00    -0.201 A  
ENDROOT
BRANCH  12  15
HETATM   15  C   UNL     1      -9.350   5.803  72.680  1.00  0.00    -0.140 C  
HETATM   16  C   UNL     1     -10.567   4.885  72.800  1.00  0.00    -0.273 C  
HETATM   17  C   UNL     1      -9.914   3.513  72.906  1.00  0.00    -0.148 C  
HETATM   18  O   UNL     1      -9.400   3.362  74.234  1.00  0.00    -0.091 OA 
HETATM   19  C   UNL     1      -8.735   3.548  71.902  1.00  0.00    -0.123 C  
HETATM   20  C   UNL     1      -8.442   5.041  71.739  1.00  0.00    -0.124 C  
HETATM   21  H   UNL     1      -8.992   2.507  74.300  1.00  0.00     0.000 HD 
HETATM   22  C   UNL     1      -7.534   5.557  70.894  1.00  0.00    -0.089 C  
BRANCH  19  23
HETATM   23  C   UNL     1      -9.094   2.835  70.593  1.00  0.00    -0.121 C  
HETATM   24  O   UNL     1      -9.911   3.647  69.759  1.00  0.00    -0.151 OA 
HETATM   25  H   UNL     1     -10.133   3.205  68.947  1.00  0.00     0.000 HD 
ENDBRANCH  19  23
ENDBRANCH  12  15
TORSDOF 2
ENDMDL
MODEL      184
REMARK 921   NORMALIZED FREE ENERGY PREDICTED BY IDOCK:   -3.39 KCAL/MOL
REMARK 922        TOTAL FREE ENERGY PREDICTED BY IDOCK:   -4.12 KCAL/MOL
REMARK 923 INTER-LIGAND FREE ENERGY PREDICTED BY IDOCK:   -4.32 KCAL/MOL
REMARK 924 INTRA-LIGAND FREE ENERGY PREDICTED BY IDOCK:    0.20 KCAL/MOL
REMARK 927      BINDING AFFINITY PREDICTED BY RF-SCORE:    0.00 PKD
ROOT
HETATM    1  N   UNL     1     -10.496   5.184  65.943  1.00  0.00    -0.470 NA 
HETATM    2  C   UNL     1     -10.385   6.376  66.582  1.00  0.00    -0.155 C  
HETATM    3  H2  UNL     1     -10.383   5.143  64.930  1.00  0.00     0.000 HD 
HETATM    4  H1  UNL     1     -10.692   4.328  66.462  1.00  0.00     0.000 HD 
HETATM    5  N   UNL     1     -10.137   7.467  65.920  1.00  0.00    -0.015 N  
HETATM    6  C   UNL     1     -10.050   8.693  66.598  1.00  0.00    -0.294 C  
HETATM    7  H   UNL     1     -10.005   7.431  64.910  1.00  0.00     0.000 HD 
HETATM    8  C   UNL     1     -10.297   8.629  68.047  1.00  0.00    -0.223 A  
HETATM    9  O   UNL     1      -9.781   9.743  66.023  1.00  0.00    -0.215 OA 
HETATM   10  C   UNL     1     -10.542   7.416  68.631  1.00  0.00    -0.154 A  
HETATM   11  N   UNL     1     -10.566   6.270  67.935  1.00  0.00    -0.230 NA 
HETATM   12  N   UNL     1     -10.727   7.635  69.960  1.00  0.00    -0.239 NA 
HETATM   13  N   UNL     1     -10.342   9.621  69.002  1.00  0.00    -0.197 NA 
HETATM   14  C   UNL     1     -10.601   8.992  70.137  1.00  0.00    -0.224 A  
ENDROOT
BRANCH  12  15
HETATM   15  C   UNL     1     -10.902   6.620  70.975  1.00  0.00    -0.245 C  
HETATM   16  C   UNL     1      -9.624   5.868  71.346  1.00  0.00    -0.189 C  
HETATM   17  C   UNL     1     -10.072   5.076  72.567  1.00  0.00    -0.183 C  
HETATM   18  O   UNL     1     -10.854   3.963  72.119  1.00  0.00     0.111 OA 
HETATM   19  C   UNL     1     -10.975   6.045  73.369  1.00  0.00    -0.202 C  
HETATM   20  C   UNL     1     -11.441   7.057  72.320  1.00  0.00    -0.308 C  
HETATM   21  H   UNL     1     -11.133   3.469  72.880  1.00  0.00     0.000 HD 
HETATM   22  C   UNL     1     -12.194   8.139  72.579  1.00  0.00    -0.335 C  
BRANCH  19  23
HETATM   23  C   UNL     1     -10.218   6.670  74.546  1.00  0.00    -0.169 C  
HETATM   24  O   UNL     1      -9.232   7.594  74.107  1.00  0.00    -0.385 OA 
HETATM   25  H   UNL     1      -8.763   7.982  74.837  1.00  0.00     0.000 HD 
ENDBRANCH  19  23
ENDBRANCH  12  15
TORSDOF 2
ENDMDL
MODEL      185
REMARK 921   NORMALIZED FREE ENERGY PREDICTED BY IDOCK:   -3.38 KCAL/MOL
REMARK 922        TOTAL FREE ENERGY PREDICTED BY IDOCK:   -4.12 KCAL/MOL
REMARK 923 INTER-LIGAND FREE ENERGY PREDICTED BY IDOCK:   -4.01 KCAL/MOL
REMARK 924 INTRA-LIGAND FREE ENERGY PREDICTED BY IDOCK:   -0.10 KCAL/MOL
REMARK 927      BINDING AFFINITY PREDICTED BY RF-SCORE:    0.00 PKD
ROOT
HETATM    1  N   UNL     1     -11.283   4.811  65.623  1.00  0.00    -0.927 NA 
HETATM    2  C   UNL     1     -10.062   4.901  66.210  1.00  0.00    -0.257 C  
HETATM    3  H2  UNL     1     -11.718   3.896  65.504  1.00  0.00     0.000 HD 
HETATM    4  H1  UNL     1     -11.771   5.647  65.300  1.00  0.00     0.000 HD 
HETATM    5  N   UNL     1      -9.440   3.836  66.621  1.00  0.00    -0.207 N  
HETATM    6  C   UNL     1      -8.168   3.949  67.203  1.00  0.00    -0.099 C  
HETATM    7  H   UNL     1      -9.877   2.920  66.522  1.00  0.00     0.000 HD 
HETATM    8  C   UNL     1      -7.621   5.315  67.259  1.00  0.00    -0.092 A  
HETATM    9  O   UNL     1      -7.557   2.979  67.640  1.00  0.00    -0.060 OA 
HETATM   10  C   UNL     1      -8.379   6.358  66.798  1.00  0.00    -0.111 A  
HETATM   11  N   UNL     1      -9.609   6.191  66.295  1.00  0.00    -0.127 NA 
HETATM   12  N   UNL     1      -7.651   7.493  66.969  1.00  0.00    -0.101 NA 
HETATM   13  N   UNL     1      -6.407   5.786  67.708  1.00  0.00    -0.040 NA 
HETATM   14  C   UNL     1      -6.457   7.094  67.521  1.00  0.00    -0.054 A  
ENDROOT
BRANCH  12  15
HETATM   15  C   UNL     1      -8.108   8.843  66.723  1.00  0.00    -0.111 C  
HETATM   16  C   UNL     1      -8.886   9.021  65.419  1.00  0.00    -0.237 C  
HETATM   17  C   UNL     1      -9.423  10.438  65.567  1.00  0.00    -0.215 C  
HETATM   18  O   UNL     1      -8.354  11.354  65.306  1.00  0.00    -0.374 OA 
HETATM   19  C   UNL     1      -9.847  10.557  67.051  1.00  0.00    -0.223 C  
HETATM   20  C   UNL     1      -9.022   9.474  67.751  1.00  0.00    -0.126 C  
HETATM   21  H   UNL     1      -8.689  12.238  65.398  1.00  0.00     0.000 HD 
HETATM   22  C   UNL     1      -9.118   9.158  69.053  1.00  0.00    -0.143 C  
BRANCH  19  23
HETATM   23  C   UNL     1     -11.362  10.391  67.216  1.00  0.00     0.105 C  
HETATM   24  O   UNL     1     -11.920  11.421  68.022  1.00  0.00    -0.613 OA 
HETATM   25  H   UNL     1     -12.859  11.318  68.124  1.00  0.00     0.000 HD 
ENDBRANCH  19  23
ENDBRANCH  12  15
TORSDOF 2
ENDMDL
MODEL      186
REMARK 921   NORMALIZED FREE ENERGY PREDICTED BY IDOCK:   -3.36 KCAL/MOL
REMARK 922        TOTAL FREE ENERGY PREDICTED BY IDOCK:   -4.09 KCAL/MOL
REMARK 923 INTER-LIGAND FREE ENERGY PREDICTED BY IDOCK:   -3.82 KCAL/MOL
REMARK 924 INTRA-LIGAND FREE ENERGY PREDICTED BY IDOCK:   -0.27 KCAL/MOL
REMARK 927      BINDING AFFINITY PREDICTED BY RF-SCORE:    0.00 PKD
ROOT
HETATM    1  N   UNL     1      -6.047   8.865  64.139  1.00  0.00    -0.071 NA 
HETATM    2  C   UNL     1      -7.074   8.177  64.700  1.00  0.00    -0.080 C  
HETATM    3  H2  UNL     1      -5.387   8.378  63.532  1.00  0.00     0.000 HD 
HETATM    4  H1  UNL     1      -5.925   9.862  64.317  1.00  0.00     0.000 HD 
HETATM    5  N   UNL     1      -7.228   6.907  64.473  1.00  0.00    -0.068 N  
HETATM    6  C   UNL     1      -8.283   6.209  65.082  1.00  0.00    -0.141 C  
HETATM    7  H   UNL     1      -6.583   6.417  63.853  1.00  0.00     0.000 HD 
HETATM    8  C   UNL     1      -9.126   7.008  65.986  1.00  0.00    -0.069 A  
HETATM    9  O   UNL     1      -8.492   5.019  64.870  1.00  0.00    -0.135 OA 
HETATM   10  C   UNL     1      -8.866   8.344  66.136  1.00  0.00    -0.165 A  
HETATM   11  N   UNL     1      -7.869   8.964  65.490  1.00  0.00    -0.097 NA 
HETATM   12  N   UNL     1      -9.783   8.839  67.009  1.00  0.00    -0.180 NA 
HETATM   13  N   UNL     1     -10.197   6.653  66.774  1.00  0.00    -0.205 NA 
HETATM   14  C   UNL     1     -10.568   7.772  67.374  1.00  0.00    -0.275 A  
ENDROOT
BRANCH  12  15
HETATM   15  C   UNL     1      -9.950  10.230  67.372  1.00  0.00    -0.189 C  
HETATM   16  C   UNL     1     -11.260  10.856  66.894  1.00  0.00    -0.162 C  
HETATM   17  C   UNL     1     -11.248  12.195  67.620  1.00  0.00    -0.286 C  
HETATM   18  O   UNL     1     -10.334  13.065  66.943  1.00  0.00    -0.242 OA 
HETATM   19  C   UNL     1     -10.703  11.883  69.035  1.00  0.00    -0.197 C  
HETATM   20  C   UNL     1      -9.923  10.580  68.844  1.00  0.00    -0.213 C  
HETATM   21  H   UNL     1     -10.326  13.900  67.396  1.00  0.00     0.000 HD 
HETATM   22  C   UNL     1      -9.333   9.886  69.832  1.00  0.00    -0.250 C  
BRANCH  19  23
HETATM   23  C   UNL     1     -11.837  11.787  70.062  1.00  0.00    -0.342 C  
HETATM   24  O   UNL     1     -12.149  13.056  70.623  1.00  0.00    -0.453 OA 
HETATM   25  H   UNL     1     -12.852  12.996  71.260  1.00  0.00     0.000 HD 
ENDBRANCH  19  23
ENDBRANCH  12  15
TORSDOF 2
ENDMDL
MODEL      187
REMARK 921   NORMALIZED FREE ENERGY PREDICTED BY IDOCK:   -3.35 KCAL/MOL
REMARK 922        TOTAL FREE ENERGY PREDICTED BY IDOCK:   -4.08 KCAL/MOL
REMARK 923 INTER-LIGAND FREE ENERGY PREDICTED BY IDOCK:   -4.34 KCAL/MOL
REMARK 924 INTRA-LIGAND FREE ENERGY PREDICTED BY IDOCK:    0.26 KCAL/MOL
REMARK 927      BINDING AFFINITY PREDICTED BY RF-SCORE:    0.00 PKD
ROOT
HETATM    1  N   UNL     1     -10.847  11.194  64.311  1.00  0.00    -0.344 NA 
HETATM    2  C   UNL     1     -10.209  11.247  65.508  1.00  0.00    -0.260 C  
HETATM    3  H2  UNL     1     -10.832  12.008  63.697  1.00  0.00     0.000 HD 
HETATM    4  H1  UNL     1     -11.342  10.351  64.019  1.00  0.00     0.000 HD 
HETATM    5  N   UNL     1      -9.579  12.321  65.881  1.00  0.00    -0.326 N  
HETATM    6  C   UNL     1      -8.947  12.363  67.134  1.00  0.00    -0.195 C  
HETATM    7  H   UNL     1      -9.545  13.132  65.265  1.00  0.00     0.000 HD 
HETATM    8  C   UNL     1      -9.096  11.150  67.954  1.00  0.00    -0.150 A  
HETATM    9  O   UNL     1      -8.309  13.339  67.515  1.00  0.00    -0.163 OA 
HETATM   10  C   UNL     1      -9.779  10.079  67.445  1.00  0.00    -0.161 A  
HETATM   11  N   UNL     1     -10.323  10.083  66.221  1.00  0.00    -0.200 NA 
HETATM   12  N   UNL     1      -9.764   9.102  68.392  1.00  0.00    -0.149 NA 
HETATM   13  N   UNL     1      -8.661  10.861  69.228  1.00  0.00    -0.050 NA 
HETATM   14  C   UNL     1      -9.076   9.626  69.460  1.00  0.00    -0.199 A  
ENDROOT
BRANCH  12  15
HETATM   15  C   UNL     1     -10.271   7.757  68.236  1.00  0.00    -0.201 C  
HETATM   16  C   UNL     1      -9.319   6.800  67.518  1.00  0.00    -0.129 C  
HETATM   17  C   UNL     1     -10.010   5.458  67.727  1.00  0.00    -0.161 C  
HETATM   18  O   UNL     1     -11.118   5.378  66.823  1.00  0.00    -0.454 OA 
HETATM   19  C   UNL     1     -10.538   5.498  69.182  1.00  0.00    -0.300 C  
HETATM   20  C   UNL     1     -10.636   6.994  69.491  1.00  0.00    -0.253 C  
HETATM   21  H   UNL     1     -11.549   4.541  66.954  1.00  0.00     0.000 HD 
HETATM   22  C   UNL     1     -10.983   7.511  70.681  1.00  0.00    -0.263 C  
BRANCH  19  23
HETATM   23  C   UNL     1      -9.619   4.723  70.132  1.00  0.00    -0.195 C  
HETATM   24  O   UNL     1     -10.184   4.606  71.432  1.00  0.00    -0.192 OA 
HETATM   25  H   UNL     1      -9.613   4.125  72.021  1.00  0.00     0.000 HD 
ENDBRANCH  19  23
ENDBRANCH  12  15
TORSDOF 2
ENDMDL
MODEL      188
REMARK 921   NORMALIZED FREE ENERGY PREDICTED BY IDOCK:   -3.34 KCAL/MOL
REMARK 922        TOTAL FREE ENERGY PREDICTED BY IDOCK:   -4.07 KCAL/MOL
REMARK 923 INTER-LIGAND FREE ENERGY PREDICTED BY IDOCK:   -4.04 KCAL/MOL
REMARK 924 INTRA-LIGAND FREE ENERGY PREDICTED BY IDOCK:   -0.02 KCAL/MOL
REMARK 927      BINDING AFFINITY PREDICTED BY RF-SCORE:    0.00 PKD
ROOT
HETATM    1  N   UNL     1      -6.036  11.274  70.025  1.00  0.00    -0.128 NA 
HETATM    2  C   UNL     1      -6.462   9.985  70.056  1.00  0.00    -0.092 C  
HETATM    3  H2  UNL     1      -5.046  11.480  70.159  1.00  0.00     0.000 HD 
HETATM    4  H1  UNL     1      -6.693  12.038  69.870  1.00  0.00     0.000 HD 
HETATM    5  N   UNL     1      -5.624   9.011  70.254  1.00  0.00    -0.030 N  
HETATM    6  C   UNL     1      -6.089   7.687  70.307  1.00  0.00    -0.030 C  
HETATM    7  H   UNL     1      -4.631   9.208  70.371  1.00  0.00     0.000 HD 
HETATM    8  C   UNL     1      -7.545   7.526  70.166  1.00  0.00    -0.088 A  
HETATM    9  O   UNL     1      -5.334   6.732  70.454  1.00  0.00    -0.018 OA 
HETATM   10  C   UNL     1      -8.322   8.633  69.954  1.00  0.00    -0.123 A  
HETATM   11  N   UNL     1      -7.813   9.869  69.867  1.00  0.00    -0.160 NA 
HETATM   12  N   UNL     1      -9.610   8.209  69.854  1.00  0.00    -0.174 NA 
HETATM   13  N   UNL     1      -8.340   6.403  70.216  1.00  0.00    -0.125 NA 
HETATM   14  C   UNL     1      -9.572   6.846  70.025  1.00  0.00    -0.157 A  
ENDROOT
BRANCH  12  15
HETATM   15  C   UNL     1     -10.754   9.030  69.519  1.00  0.00    -0.206 C  
HETATM   16  C   UNL     1     -11.105  10.085  70.567  1.00  0.00    -0.400 C  
HETATM   17  C   UNL     1     -12.152  10.915  69.835  1.00  0.00    -0.354 C  
HETATM   18  O   UNL     1     -13.386  10.187  69.840  1.00  0.00    -0.409 OA 
HETATM   19  C   UNL     1     -11.632  11.030  68.381  1.00  0.00    -0.372 C  
HETATM   20  C   UNL     1     -10.690   9.832  68.238  1.00  0.00    -0.277 C  
HETATM   21  H   UNL     1     -14.038  10.705  69.383  1.00  0.00     0.000 HD 
HETATM   22  C   UNL     1      -9.945   9.568  67.151  1.00  0.00    -0.261 C  
BRANCH  19  23
HETATM   23  C   UNL     1     -10.961  12.386  68.133  1.00  0.00    -0.228 C  
HETATM   24  O   UNL     1      -9.835  12.579  68.980  1.00  0.00    -0.412 OA 
HETATM   25  H   UNL     1      -9.419  13.419  68.826  1.00  0.00     0.000 HD 
ENDBRANCH  19  23
ENDBRANCH  12  15
TORSDOF 2
ENDMDL
MODEL      189
REMARK 921   NORMALIZED FREE ENERGY PREDICTED BY IDOCK:   -3.33 KCAL/MOL
REMARK 922        TOTAL FREE ENERGY PREDICTED BY IDOCK:   -4.06 KCAL/MOL
REMARK 923 INTER-LIGAND FREE ENERGY PREDICTED BY IDOCK:   -3.95 KCAL/MOL
REMARK 924 INTRA-LIGAND FREE ENERGY PREDICTED BY IDOCK:   -0.11 KCAL/MOL
REMARK 927      BINDING AFFINITY PREDICTED BY RF-SCORE:    0.00 PKD
ROOT
HETATM    1  N   UNL     1     -10.315  13.686  64.754  1.00  0.00    -0.512 NA 
HETATM    2  C   UNL     1      -9.598  13.618  65.904  1.00  0.00    -0.118 C  
HETATM    3  H2  UNL     1     -10.806  12.858  64.417  1.00  0.00     0.000 HD 
HETATM    4  H1  UNL     1     -10.371  14.555  64.223  1.00  0.00     0.000 HD 
HETATM    5  N   UNL     1      -9.527  12.511  66.582  1.00  0.00    -0.237 N  
HETATM    6  C   UNL     1      -8.760  12.455  67.756  1.00  0.00    -0.176 C  
HETATM    7  H   UNL     1     -10.029  11.684  66.261  1.00  0.00     0.000 HD 
HETATM    8  C   UNL     1      -8.048  13.697  68.101  1.00  0.00    -0.156 A  
HETATM    9  O   UNL     1      -8.692  11.446  68.449  1.00  0.00    -0.147 OA 
HETATM   10  C   UNL     1      -8.209  14.802  67.309  1.00  0.00    -0.213 A  
HETATM   11  N   UNL     1      -8.995  14.806  66.223  1.00  0.00    -0.195 NA 
HETATM   12  N   UNL     1      -7.458  15.799  67.848  1.00  0.00    -0.126 NA 
HETATM   13  N   UNL     1      -7.183  13.987  69.132  1.00  0.00    -0.093 NA 
HETATM   14  C   UNL     1      -6.848  15.254  68.952  1.00  0.00    -0.122 A  
ENDROOT
BRANCH  12  15
HETATM   15  C   UNL     1      -7.418  17.173  67.399  1.00  0.00    -0.160 C  
HETATM   16  C   UNL     1      -7.196  17.343  65.896  1.00  0.00    -0.147 C  
HETATM   17  C   UNL     1      -7.446  18.834  65.711  1.00  0.00    -0.112 C  
HETATM   18  O   UNL     1      -6.295  19.545  66.180  1.00  0.00    -0.178 OA 
HETATM   19  C   UNL     1      -8.654  19.158  66.623  1.00  0.00    -0.329 C  
HETATM   20  C   UNL     1      -8.636  18.033  67.661  1.00  0.00    -0.247 C  
HETATM   21  H   UNL     1      -6.451  20.475  66.065  1.00  0.00     0.000 HD 
HETATM   22  C   UNL     1      -9.558  17.861  68.623  1.00  0.00    -0.331 C  
BRANCH  19  23
HETATM   23  C   UNL     1      -9.956  19.244  65.819  1.00  0.00    -0.066 C  
HETATM   24  O   UNL     1     -10.932  20.039  66.480  1.00  0.00    -0.284 OA 
HETATM   25  H   UNL     1     -11.739  20.093  65.981  1.00  0.00     0.000 HD 
ENDBRANCH  19  23
ENDBRANCH  12  15
TORSDOF 2
ENDMDL
MODEL      190
REMARK 921   NORMALIZED FREE ENERGY PREDICTED BY IDOCK:   -3.32 KCAL/MOL
REMARK 922        TOTAL FREE ENERGY PREDICTED BY IDOCK:   -4.05 KCAL/MOL
REMARK 923 INTER-LIGAND FREE ENERGY PREDICTED BY IDOCK:   -3.66 KCAL/MOL
REMARK 924 INTRA-LIGAND FREE ENERGY PREDICTED BY IDOCK:   -0.39 KCAL/MOL
REMARK 927      BINDING AFFINITY PREDICTED BY RF-SCORE:    0.00 PKD
ROOT
HETATM    1  N   UNL     1     -11.380   4.548  65.271  1.00  0.00    -1.078 NA 
HETATM    2  C   UNL     1     -10.252   4.600  66.024  1.00  0.00    -0.277 C  
HETATM    3  H2  UNL     1     -11.914   3.680  65.224  1.00  0.00     0.000 HD 
HETATM    4  H1  UNL     1     -11.701   5.365  64.752  1.00  0.00     0.000 HD 
HETATM    5  N   UNL     1      -9.843   3.558  66.686  1.00  0.00    -0.400 N  
HETATM    6  C   UNL     1      -8.660   3.626  67.439  1.00  0.00    -0.104 C  
HETATM    7  H   UNL     1     -10.382   2.693  66.658  1.00  0.00     0.000 HD 
HETATM    8  C   UNL     1      -7.947   4.912  67.374  1.00  0.00    -0.095 A  
HETATM    9  O   UNL     1      -8.254   2.683  68.109  1.00  0.00    -0.060 OA 
HETATM   10  C   UNL     1      -8.485   5.939  66.646  1.00  0.00    -0.111 A  
HETATM   11  N   UNL     1      -9.645   5.826  65.984  1.00  0.00    -0.102 NA 
HETATM   12  N   UNL     1      -7.640   6.998  66.756  1.00  0.00    -0.088 NA 
HETATM   13  N   UNL     1      -6.755   5.314  67.933  1.00  0.00    -0.053 NA 
HETATM   14  C   UNL     1      -6.600   6.569  67.545  1.00  0.00    -0.061 A  
ENDROOT
BRANCH  12  15
HETATM   15  C   UNL     1      -7.872   8.330  66.239  1.00  0.00    -0.098 C  
HETATM   16  C   UNL     1      -7.188   9.445  67.030  1.00  0.00    -0.087 C  
HETATM   17  C   UNL     1      -7.408  10.649  66.124  1.00  0.00    -0.138 C  
HETATM   18  O   UNL     1      -8.765  11.081  66.273  1.00  0.00    -0.165 OA 
HETATM   19  C   UNL     1      -7.195  10.118  64.686  1.00  0.00    -0.124 C  
HETATM   20  C   UNL     1      -7.445   8.613  64.815  1.00  0.00    -0.097 C  
HETATM   21  H   UNL     1      -8.903  11.832  65.708  1.00  0.00     0.000 HD 
HETATM   22  C   UNL     1      -7.297   7.723  63.820  1.00  0.00    -0.096 C  
BRANCH  19  23
HETATM   23  C   UNL     1      -5.802  10.476  64.158  1.00  0.00    -0.070 C  
HETATM   24  O   UNL     1      -5.869  11.141  62.902  1.00  0.00    -0.355 OA 
HETATM   25  H   UNL     1      -5.005  11.364  62.576  1.00  0.00     0.000 HD 
ENDBRANCH  19  23
ENDBRANCH  12  15
TORSDOF 2
ENDMDL
MODEL      191
REMARK 921   NORMALIZED FREE ENERGY PREDICTED BY IDOCK:   -3.31 KCAL/MOL
REMARK 922        TOTAL FREE ENERGY PREDICTED BY IDOCK:   -4.03 KCAL/MOL
REMARK 923 INTER-LIGAND FREE ENERGY PREDICTED BY IDOCK:   -3.61 KCAL/MOL
REMARK 924 INTRA-LIGAND FREE ENERGY PREDICTED BY IDOCK:   -0.42 KCAL/MOL
REMARK 927      BINDING AFFINITY PREDICTED BY RF-SCORE:    0.00 PKD
ROOT
HETATM    1  N   UNL     1      -9.674   9.972  63.813  1.00  0.00    -0.473 NA 
HETATM    2  C   UNL     1      -8.675   9.905  64.729  1.00  0.00    -0.189 C  
HETATM    3  H2  UNL     1      -9.602  10.630  63.036  1.00  0.00     0.000 HD 
HETATM    4  H1  UNL     1     -10.497   9.374  63.891  1.00  0.00     0.000 HD 
HETATM    5  N   UNL     1      -7.627  10.668  64.630  1.00  0.00    -0.353 N  
HETATM    6  C   UNL     1      -6.617  10.601  65.602  1.00  0.00    -0.079 C  
HETATM    7  H   UNL     1      -7.540  11.315  63.847  1.00  0.00     0.000 HD 
HETATM    8  C   UNL     1      -6.869   9.661  66.706  1.00  0.00    -0.084 A  
HETATM    9  O   UNL     1      -5.593  11.272  65.533  1.00  0.00    -0.171 OA 
HETATM   10  C   UNL     1      -8.010   8.906  66.694  1.00  0.00    -0.103 A  
HETATM   11  N   UNL     1      -8.918   8.982  65.711  1.00  0.00    -0.184 NA 
HETATM   12  N   UNL     1      -7.994   8.129  67.809  1.00  0.00    -0.124 NA 
HETATM   13  N   UNL     1      -6.136   9.375  67.836  1.00  0.00    -0.052 NA 
HETATM   14  C   UNL     1      -6.836   8.453  68.475  1.00  0.00    -0.064 A  
ENDROOT
BRANCH  12  15
HETATM   15  C   UNL     1      -8.951   7.096  68.143  1.00  0.00    -0.128 C  
HETATM   16  C   UNL     1      -8.352   5.885  68.859  1.00  0.00    -0.102 C  
HETATM   17  C   UNL     1      -9.602   5.123  69.280  1.00  0.00    -0.160 C  
HETATM   18  O   UNL     1     -10.129   4.454  68.128  1.00  0.00    -0.051 OA 
HETATM   19  C   UNL     1     -10.603   6.211  69.742  1.00  0.00    -0.343 C  
HETATM   20  C   UNL     1     -10.113   7.477  69.034  1.00  0.00    -0.192 C  
HETATM   21  H   UNL     1     -10.909   3.979  68.391  1.00  0.00     0.000 HD 
HETATM   22  C   UNL     1     -10.640   8.701  69.200  1.00  0.00    -0.193 C  
BRANCH  19  23
HETATM   23  C   UNL     1     -10.640   6.324  71.270  1.00  0.00    -0.236 C  
HETATM   24  O   UNL     1     -11.972   6.390  71.761  1.00  0.00    -0.328 OA 
HETATM   25  H   UNL     1     -11.995   6.460  72.708  1.00  0.00     0.000 HD 
ENDBRANCH  19  23
ENDBRANCH  12  15
TORSDOF 2
ENDMDL
MODEL      192
REMARK 921   NORMALIZED FREE ENERGY PREDICTED BY IDOCK:   -3.30 KCAL/MOL
REMARK 922        TOTAL FREE ENERGY PREDICTED BY IDOCK:   -4.03 KCAL/MOL
REMARK 923 INTER-LIGAND FREE ENERGY PREDICTED BY IDOCK:   -4.16 KCAL/MOL
REMARK 924 INTRA-LIGAND FREE ENERGY PREDICTED BY IDOCK:    0.13 KCAL/MOL
REMARK 927      BINDING AFFINITY PREDICTED BY RF-SCORE:    0.00 PKD
ROOT
HETATM    1  N   UNL     1      -8.559   8.294  64.418  1.00  0.00    -0.394 NA 
HETATM    2  C   UNL     1      -9.155   7.966  65.593  1.00  0.00     0.037 C  
HETATM    3  H2  UNL     1      -8.421   7.577  63.707  1.00  0.00     0.000 HD 
HETATM    4  H1  UNL     1      -8.248   9.249  64.238  1.00  0.00     0.000 HD 
HETATM    5  N   UNL     1      -9.552   6.749  65.822  1.00  0.00    -0.327 N  
HETATM    6  C   UNL     1     -10.144   6.426  67.054  1.00  0.00    -0.174 C  
HETATM    7  H   UNL     1      -9.433   6.031  65.109  1.00  0.00     0.000 HD 
HETATM    8  C   UNL     1     -10.228   7.532  68.021  1.00  0.00    -0.195 A  
HETATM    9  O   UNL     1     -10.567   5.302  67.303  1.00  0.00    -0.209 OA 
HETATM   10  C   UNL     1      -9.781   8.774  67.657  1.00  0.00    -0.169 A  
HETATM   11  N   UNL     1      -9.266   9.031  66.446  1.00  0.00    -0.174 NA 
HETATM   12  N   UNL     1      -9.977   9.601  68.717  1.00  0.00    -0.167 NA 
HETATM   13  N   UNL     1     -10.693   7.568  69.316  1.00  0.00    -0.210 NA 
HETATM   14  C   UNL     1     -10.530   8.822  69.704  1.00  0.00    -0.220 A  
ENDROOT
BRANCH  12  15
HETATM   15  C   UNL     1      -9.752  11.030  68.736  1.00  0.00    -0.191 C  
HETATM   16  C   UNL     1      -8.585  11.500  67.866  1.00  0.00    -0.143 C  
HETATM   17  C   UNL     1      -8.760  13.012  67.901  1.00  0.00    -0.189 C  
HETATM   18  O   UNL     1      -8.290  13.490  69.167  1.00  0.00    -0.328 OA 
HETATM   19  C   UNL     1     -10.287  13.246  67.801  1.00  0.00    -0.233 C  
HETATM   20  C   UNL     1     -10.888  11.926  68.291  1.00  0.00    -0.261 C  
HETATM   21  H   UNL     1      -8.399  14.433  69.188  1.00  0.00     0.000 HD 
HETATM   22  C   UNL     1     -12.200  11.640  68.307  1.00  0.00     0.168 C  
BRANCH  19  23
HETATM   23  C   UNL     1     -10.702  13.629  66.376  1.00  0.00    -0.281 C  
HETATM   24  O   UNL     1      -9.621  13.503  65.460  1.00  0.00    -0.499 OA 
HETATM   25  H   UNL     1      -9.879  13.741  64.577  1.00  0.00     0.000 HD 
ENDBRANCH  19  23
ENDBRANCH  12  15
TORSDOF 2
ENDMDL
MODEL      193
REMARK 921   NORMALIZED FREE ENERGY PREDICTED BY IDOCK:   -3.29 KCAL/MOL
REMARK 922        TOTAL FREE ENERGY PREDICTED BY IDOCK:   -4.02 KCAL/MOL
REMARK 923 INTER-LIGAND FREE ENERGY PREDICTED BY IDOCK:   -3.92 KCAL/MOL
REMARK 924 INTRA-LIGAND FREE ENERGY PREDICTED BY IDOCK:   -0.09 KCAL/MOL
REMARK 927      BINDING AFFINITY PREDICTED BY RF-SCORE:    0.00 PKD
ROOT
HETATM    1  N   UNL     1      -8.460   6.311  64.267  1.00  0.00    -0.344 NA 
HETATM    2  C   UNL     1      -8.760   5.303  65.126  1.00  0.00    -0.146 C  
HETATM    3  H2  UNL     1      -8.203   6.092  63.305  1.00  0.00     0.000 HD 
HETATM    4  H1  UNL     1      -8.489   7.283  64.572  1.00  0.00     0.000 HD 
HETATM    5  N   UNL     1      -8.722   4.063  64.737  1.00  0.00    -0.115 N  
HETATM    6  C   UNL     1      -9.012   3.034  65.647  1.00  0.00    -0.146 C  
HETATM    7  H   UNL     1      -8.483   3.838  63.772  1.00  0.00     0.000 HD 
HETATM    8  C   UNL     1      -9.305   3.474  67.021  1.00  0.00    -0.194 A  
HETATM    9  O   UNL     1      -9.026   1.852  65.320  1.00  0.00    -0.121 OA 
HETATM   10  C   UNL     1      -9.321   4.813  67.305  1.00  0.00    -0.136 A  
HETATM   11  N   UNL     1      -9.081   5.752  66.379  1.00  0.00    -0.142 NA 
HETATM   12  N   UNL     1      -9.620   4.943  68.624  1.00  0.00    -0.144 NA 
HETATM   13  N   UNL     1      -9.578   2.754  68.162  1.00  0.00    -0.150 NA 
HETATM   14  C   UNL     1      -9.763   3.664  69.105  1.00  0.00     0.004 A  
ENDROOT
BRANCH  12  15
HETATM   15  C   UNL     1      -9.851   6.187  69.327  1.00  0.00    -0.149 C  
HETATM   16  C   UNL     1     -11.311   6.637  69.355  1.00  0.00    -0.331 C  
HETATM   17  C   UNL     1     -11.261   7.796  70.341  1.00  0.00    -0.237 C  
HETATM   18  O   UNL     1     -10.699   8.931  69.673  1.00  0.00    -0.233 OA 
HETATM   19  C   UNL     1     -10.297   7.333  71.461  1.00  0.00    -0.217 C  
HETATM   20  C   UNL     1      -9.446   6.256  70.783  1.00  0.00    -0.185 C  
HETATM   21  H   UNL     1     -10.667   9.654  70.288  1.00  0.00     0.000 HD 
HETATM   22  C   UNL     1      -8.514   5.513  71.402  1.00  0.00    -0.127 C  
BRANCH  19  23
HETATM   23  C   UNL     1     -11.066   6.840  72.692  1.00  0.00    -0.265 C  
HETATM   24  O   UNL     1     -12.267   7.574  72.892  1.00  0.00    -0.542 OA 
HETATM   25  H   UNL     1     -12.743   7.267  73.656  1.00  0.00     0.000 HD 
ENDBRANCH  19  23
ENDBRANCH  12  15
TORSDOF 2
ENDMDL
MODEL      194
REMARK 921   NORMALIZED FREE ENERGY PREDICTED BY IDOCK:   -3.28 KCAL/MOL
REMARK 922        TOTAL FREE ENERGY PREDICTED BY IDOCK:   -4.00 KCAL/MOL
REMARK 923 INTER-LIGAND FREE ENERGY PREDICTED BY IDOCK:   -4.15 KCAL/MOL
REMARK 924 INTRA-LIGAND FREE ENERGY PREDICTED BY IDOCK:    0.15 KCAL/MOL
REMARK 927      BINDING AFFINITY PREDICTED BY RF-SCORE:    0.00 PKD
ROOT
HETATM    1  N   UNL     1      -5.158  16.680  66.415  1.00  0.00    -0.297 NA 
HETATM    2  C   UNL     1      -6.270  16.710  67.194  1.00  0.00    -0.177 C  
HETATM    3  H2  UNL     1      -4.610  17.531  66.289  1.00  0.00     0.000 HD 
HETATM    4  H1  UNL     1      -4.865  15.819  65.954  1.00  0.00     0.000 HD 
HETATM    5  N   UNL     1      -6.644  17.807  67.782  1.00  0.00    -0.184 N  
HETATM    6  C   UNL     1      -7.810  17.822  68.563  1.00  0.00    -0.290 C  
HETATM    7  H   UNL     1      -6.090  18.657  67.675  1.00  0.00     0.000 HD 
HETATM    8  C   UNL     1      -8.549  16.549  68.613  1.00  0.00    -0.243 A  
HETATM    9  O   UNL     1      -8.183  18.822  69.167  1.00  0.00    -0.170 OA 
HETATM   10  C   UNL     1      -8.047  15.459  67.956  1.00  0.00    -0.140 A  
HETATM   11  N   UNL     1      -6.900  15.496  67.262  1.00  0.00    -0.231 NA 
HETATM   12  N   UNL     1      -8.907  14.428  68.166  1.00  0.00    -0.173 NA 
HETATM   13  N   UNL     1      -9.734  16.216  69.228  1.00  0.00    -0.246 NA 
HETATM   14  C   UNL     1      -9.921  14.938  68.942  1.00  0.00    -0.233 A  
ENDROOT
BRANCH  12  15
HETATM   15  C   UNL     1      -8.713  13.056  67.749  1.00  0.00    -0.188 C  
HETATM   16  C   UNL     1      -7.795  12.241  68.659  1.00  0.00    -0.063 C  
HETATM   17  C   UNL     1      -7.986  10.832  68.113  1.00  0.00    -0.114 C  
HETATM   18  O   UNL     1      -7.240  10.717  66.896  1.00  0.00    -0.099 OA 
HETATM   19  C   UNL     1      -9.498  10.722  67.798  1.00  0.00    -0.165 C  
HETATM   20  C   UNL     1      -9.939  12.178  67.629  1.00  0.00    -0.199 C  
HETATM   21  H   UNL     1      -7.360   9.838  66.555  1.00  0.00     0.000 HD 
HETATM   22  C   UNL     1     -11.205  12.577  67.418  1.00  0.00    -0.344 C  
BRANCH  19  23
HETATM   23  C   UNL     1     -10.246   9.967  68.903  1.00  0.00    -0.193 C  
HETATM   24  O   UNL     1      -9.962  10.500  70.190  1.00  0.00    -0.402 OA 
HETATM   25  H   UNL     1     -10.427  10.032  70.875  1.00  0.00     0.000 HD 
ENDBRANCH  19  23
ENDBRANCH  12  15
TORSDOF 2
ENDMDL
MODEL      195
REMARK 921   NORMALIZED FREE ENERGY PREDICTED BY IDOCK:   -3.26 KCAL/MOL
REMARK 922        TOTAL FREE ENERGY PREDICTED BY IDOCK:   -3.98 KCAL/MOL
REMARK 923 INTER-LIGAND FREE ENERGY PREDICTED BY IDOCK:   -3.65 KCAL/MOL
REMARK 924 INTRA-LIGAND FREE ENERGY PREDICTED BY IDOCK:   -0.33 KCAL/MOL
REMARK 927      BINDING AFFINITY PREDICTED BY RF-SCORE:    0.00 PKD
ROOT
HETATM    1  N   UNL     1     -10.796   4.515  66.255  1.00  0.00    -0.412 NA 
HETATM    2  C   UNL     1     -10.509   5.625  66.982  1.00  0.00    -0.281 C  
HETATM    3  H2  UNL     1     -11.245   4.612  65.344  1.00  0.00     0.000 HD 
HETATM    4  H1  UNL     1     -10.568   3.585  66.607  1.00  0.00     0.000 HD 
HETATM    5  N   UNL     1     -10.800   6.809  66.533  1.00  0.00    -0.488 N  
HETATM    6  C   UNL     1     -10.517   7.943  67.311  1.00  0.00    -0.320 C  
HETATM    7  H   UNL     1     -11.233   6.915  65.616  1.00  0.00     0.000 HD 
HETATM    8  C   UNL     1      -9.928   7.667  68.632  1.00  0.00    -0.174 A  
HETATM    9  O   UNL     1     -10.738   9.083  66.916  1.00  0.00    -0.215 OA 
HETATM   10  C   UNL     1      -9.661   6.373  68.988  1.00  0.00    -0.134 A  
HETATM   11  N   UNL     1      -9.912   5.334  68.179  1.00  0.00    -0.154 NA 
HETATM   12  N   UNL     1      -9.123   6.399  70.236  1.00  0.00    -0.154 NA 
HETATM   13  N   UNL     1      -9.574   8.513  69.659  1.00  0.00    -0.169 NA 
HETATM   14  C   UNL     1      -9.094   7.722  70.604  1.00  0.00    -0.153 A  
ENDROOT
BRANCH  12  15
HETATM   15  C   UNL     1      -8.589   5.264  70.957  1.00  0.00    -0.123 C  
HETATM   16  C   UNL     1      -7.186   5.478  71.526  1.00  0.00    -0.081 C  
HETATM   17  C   UNL     1      -7.015   4.247  72.406  1.00  0.00    -0.056 C  
HETATM   18  O   UNL     1      -6.736   3.125  71.561  1.00  0.00    -0.025 OA 
HETATM   19  C   UNL     1      -8.390   4.044  73.088  1.00  0.00    -0.089 C  
HETATM   20  C   UNL     1      -9.367   4.764  72.155  1.00  0.00    -0.171 C  
HETATM   21  H   UNL     1      -6.630   2.357  72.110  1.00  0.00     0.000 HD 
HETATM   22  C   UNL     1     -10.682   4.915  72.388  1.00  0.00    -0.240 C  
BRANCH  19  23
HETATM   23  C   UNL     1      -8.387   4.581  74.524  1.00  0.00    -0.097 C  
HETATM   24  O   UNL     1      -8.369   6.003  74.554  1.00  0.00    -0.114 OA 
HETATM   25  H   UNL     1      -8.368   6.335  75.444  1.00  0.00     0.000 HD 
ENDBRANCH  19  23
ENDBRANCH  12  15
TORSDOF 2
ENDMDL
MODEL      196
REMARK 921   NORMALIZED FREE ENERGY PREDICTED BY IDOCK:   -3.26 KCAL/MOL
REMARK 922        TOTAL FREE ENERGY PREDICTED BY IDOCK:   -3.98 KCAL/MOL
REMARK 923 INTER-LIGAND FREE ENERGY PREDICTED BY IDOCK:   -3.84 KCAL/MOL
REMARK 924 INTRA-LIGAND FREE ENERGY PREDICTED BY IDOCK:   -0.14 KCAL/MOL
REMARK 927      BINDING AFFINITY PREDICTED BY RF-SCORE:    0.00 PKD
ROOT
HETATM    1  N   UNL     1      -7.786   8.116  69.210  1.00  0.00    -0.102 NA 
HETATM    2  C   UNL     1      -9.032   8.400  69.668  1.00  0.00    -0.145 C  
HETATM    3  H2  UNL     1      -7.327   8.762  68.567  1.00  0.00     0.000 HD 
HETATM    4  H1  UNL     1      -7.303   7.266  69.500  1.00  0.00     0.000 HD 
HETATM    5  N   UNL     1      -9.647   9.484  69.297  1.00  0.00    -0.168 N  
HETATM    6  C   UNL     1     -10.945   9.747  69.763  1.00  0.00    -0.256 C  
HETATM    7  H   UNL     1      -9.187  10.142  68.669  1.00  0.00     0.000 HD 
HETATM    8  C   UNL     1     -11.524   8.709  70.632  1.00  0.00    -0.228 A  
HETATM    9  O   UNL     1     -11.552  10.772  69.472  1.00  0.00    -0.256 OA 
HETATM   10  C   UNL     1     -10.770   7.612  70.956  1.00  0.00    -0.228 A  
HETATM   11  N   UNL     1      -9.516   7.440  70.515  1.00  0.00    -0.162 NA 
HETATM   12  N   UNL     1     -11.529   6.824  71.762  1.00  0.00    -0.267 NA 
HETATM   13  N   UNL     1     -12.765   8.609  71.219  1.00  0.00    -0.264 NA 
HETATM   14  C   UNL     1     -12.736   7.469  71.890  1.00  0.00    -0.289 A  
ENDROOT
BRANCH  12  15
HETATM   15  C   UNL     1     -11.092   5.618  72.432  1.00  0.00    -0.271 C  
HETATM   16  C   UNL     1     -10.284   4.664  71.553  1.00  0.00    -0.224 C  
HETATM   17  C   UNL     1      -9.777   3.653  72.574  1.00  0.00    -0.146 C  
HETATM   18  O   UNL     1     -10.857   2.774  72.910  1.00  0.00    -0.132 OA 
HETATM   19  C   UNL     1      -9.395   4.492  73.818  1.00  0.00    -0.120 C  
HETATM   20  C   UNL     1     -10.218   5.773  73.657  1.00  0.00    -0.232 C  
HETATM   21  H   UNL     1     -10.542   2.144  73.547  1.00  0.00     0.000 HD 
HETATM   22  C   UNL     1     -10.150   6.836  74.476  1.00  0.00    -0.192 C  
BRANCH  19  23
HETATM   23  C   UNL     1      -7.883   4.726  73.891  1.00  0.00    -0.101 C  
HETATM   24  O   UNL     1      -7.161   3.744  73.159  1.00  0.00    -0.055 OA 
HETATM   25  H   UNL     1      -6.223   3.890  73.204  1.00  0.00     0.000 HD 
ENDBRANCH  19  23
ENDBRANCH  12  15
TORSDOF 2
ENDMDL
MODEL      197
REMARK 921   NORMALIZED FREE ENERGY PREDICTED BY IDOCK:   -3.25 KCAL/MOL
REMARK 922        TOTAL FREE ENERGY PREDICTED BY IDOCK:   -3.97 KCAL/MOL
REMARK 923 INTER-LIGAND FREE ENERGY PREDICTED BY IDOCK:   -3.87 KCAL/MOL
REMARK 924 INTRA-LIGAND FREE ENERGY PREDICTED BY IDOCK:   -0.10 KCAL/MOL
REMARK 927      BINDING AFFINITY PREDICTED BY RF-SCORE:    0.00 PKD
ROOT
HETATM    1  N   UNL     1      -5.443   8.138  70.281  1.00  0.00    -0.023 NA 
HETATM    2  C   UNL     1      -6.558   8.055  71.050  1.00  0.00    -0.038 C  
HETATM    3  H2  UNL     1      -4.582   8.514  70.680  1.00  0.00     0.000 HD 
HETATM    4  H1  UNL     1      -5.453   7.829  69.309  1.00  0.00     0.000 HD 
HETATM    5  N   UNL     1      -6.543   8.449  72.289  1.00  0.00    -0.080 N  
HETATM    6  C   UNL     1      -7.714   8.378  73.061  1.00  0.00    -0.069 C  
HETATM    7  H   UNL     1      -5.683   8.809  72.700  1.00  0.00     0.000 HD 
HETATM    8  C   UNL     1      -8.904   7.879  72.352  1.00  0.00    -0.154 A  
HETATM    9  O   UNL     1      -7.742   8.702  74.243  1.00  0.00    -0.390 OA 
HETATM   10  C   UNL     1      -8.789   7.487  71.046  1.00  0.00    -0.146 A  
HETATM   11  N   UNL     1      -7.630   7.536  70.375  1.00  0.00    -0.088 NA 
HETATM   12  N   UNL     1     -10.017   7.069  70.639  1.00  0.00    -0.187 NA 
HETATM   13  N   UNL     1     -10.207   7.724  72.770  1.00  0.00    -0.271 NA 
HETATM   14  C   UNL     1     -10.848   7.236  71.720  1.00  0.00    -0.224 A  
ENDROOT
BRANCH  12  15
HETATM   15  C   UNL     1     -10.332   6.465  69.362  1.00  0.00    -0.209 C  
HETATM   16  C   UNL     1      -9.726   7.182  68.156  1.00  0.00    -0.147 C  
HETATM   17  C   UNL     1     -10.019   6.199  67.030  1.00  0.00    -0.162 C  
HETATM   18  O   UNL     1     -11.403   6.319  66.679  1.00  0.00    -0.741 OA 
HETATM   19  C   UNL     1      -9.766   4.799  67.639  1.00  0.00    -0.202 C  
HETATM   20  C   UNL     1      -9.918   5.026  69.145  1.00  0.00    -0.267 C  
HETATM   21  H   UNL     1     -11.586   5.706  65.977  1.00  0.00     0.000 HD 
HETATM   22  C   UNL     1      -9.708   4.092  70.087  1.00  0.00    -0.265 C  
BRANCH  19  23
HETATM   23  C   UNL     1      -8.396   4.249  67.226  1.00  0.00    -0.100 C  
HETATM   24  O   UNL     1      -8.445   3.617  65.953  1.00  0.00    -0.107 OA 
HETATM   25  H   UNL     1      -7.595   3.276  65.697  1.00  0.00     0.000 HD 
ENDBRANCH  19  23
ENDBRANCH  12  15
TORSDOF 2
ENDMDL
MODEL      198
REMARK 921   NORMALIZED FREE ENERGY PREDICTED BY IDOCK:   -3.25 KCAL/MOL
REMARK 922        TOTAL FREE ENERGY PREDICTED BY IDOCK:   -3.96 KCAL/MOL
REMARK 923 INTER-LIGAND FREE ENERGY PREDICTED BY IDOCK:   -4.48 KCAL/MOL
REMARK 924 INTRA-LIGAND FREE ENERGY PREDICTED BY IDOCK:    0.51 KCAL/MOL
REMARK 927      BINDING AFFINITY PREDICTED BY RF-SCORE:    0.00 PKD
ROOT
HETATM    1  N   UNL     1      -8.283   8.725  64.705  1.00  0.00    -0.158 NA 
HETATM    2  C   UNL     1      -8.802   7.725  65.462  1.00  0.00    -0.010 C  
HETATM    3  H2  UNL     1      -7.872   8.508  63.797  1.00  0.00     0.000 HD 
HETATM    4  H1  UNL     1      -8.300   9.691  65.031  1.00  0.00     0.000 HD 
HETATM    5  N   UNL     1      -8.780   6.494  65.046  1.00  0.00    -0.358 N  
HETATM    6  C   UNL     1      -9.299   5.471  65.856  1.00  0.00    -0.125 C  
HETATM    7  H   UNL     1      -8.386   6.271  64.132  1.00  0.00     0.000 HD 
HETATM    8  C   UNL     1      -9.805   5.904  67.168  1.00  0.00    -0.143 A  
HETATM    9  O   UNL     1      -9.335   4.300  65.492  1.00  0.00    -0.141 OA 
HETATM   10  C   UNL     1      -9.779   7.235  67.488  1.00  0.00    -0.145 A  
HETATM   11  N   UNL     1      -9.312   8.172  66.651  1.00  0.00    -0.183 NA 
HETATM   12  N   UNL     1     -10.302   7.361  68.737  1.00  0.00    -0.196 NA 
HETATM   13  N   UNL     1     -10.328   5.185  68.219  1.00  0.00    -0.114 NA 
HETATM   14  C   UNL     1     -10.617   6.087  69.142  1.00  0.00    -0.295 A  
ENDROOT
BRANCH  12  15
HETATM   15  C   UNL     1     -10.570   8.604  69.427  1.00  0.00    -0.199 C  
HETATM   16  C   UNL     1     -11.403   9.606  68.628  1.00  0.00     0.099 C  
HETATM   17  C   UNL     1     -11.713  10.663  69.679  1.00  0.00    -0.296 C  
HETATM   18  O   UNL     1     -10.540  11.463  69.871  1.00  0.00    -0.415 OA 
HETATM   19  C   UNL     1     -12.008   9.870  70.976  1.00  0.00    -0.456 C  
HETATM   20  C   UNL     1     -11.305   8.530  70.748  1.00  0.00    -0.296 C  
HETATM   21  H   UNL     1     -10.733  12.122  70.527  1.00  0.00     0.000 HD 
HETATM   22  C   UNL     1     -11.355   7.484  71.590  1.00  0.00    -0.283 C  
BRANCH  19  23
HETATM   23  C   UNL     1     -13.515   9.750  71.227  1.00  0.00    -0.290 C  
HETATM   24  O   UNL     1     -13.906  10.422  72.417  1.00  0.00    -0.472 OA 
HETATM   25  H   UNL     1     -14.841  10.348  72.573  1.00  0.00     0.000 HD 
ENDBRANCH  19  23
ENDBRANCH  12  15
TORSDOF 2
ENDMDL
MODEL      199
REMARK 921   NORMALIZED FREE ENERGY PREDICTED BY IDOCK:   -3.25 KCAL/MOL
REMARK 922        TOTAL FREE ENERGY PREDICTED BY IDOCK:   -3.96 KCAL/MOL
REMARK 923 INTER-LIGAND FREE ENERGY PREDICTED BY IDOCK:   -3.97 KCAL/MOL
REMARK 924 INTRA-LIGAND FREE ENERGY PREDICTED BY IDOCK:    0.01 KCAL/MOL
REMARK 927      BINDING AFFINITY PREDICTED BY RF-SCORE:    0.00 PKD
ROOT
HETATM    1  N   UNL     1     -12.282  10.776  68.425  1.00  0.00    -0.809 NA 
HETATM    2  C   UNL     1     -11.026  11.064  67.998  1.00  0.00    -0.258 C  
HETATM    3  H2  UNL     1     -12.970  11.525  68.507  1.00  0.00     0.000 HD 
HETATM    4  H1  UNL     1     -12.547   9.821  68.664  1.00  0.00     0.000 HD 
HETATM    5  N   UNL     1     -10.689  12.282  67.694  1.00  0.00    -0.215 N  
HETATM    6  C   UNL     1      -9.377  12.563  67.278  1.00  0.00    -0.190 C  
HETATM    7  H   UNL     1     -11.376  13.033  67.757  1.00  0.00     0.000 HD 
HETATM    8  C   UNL     1      -8.463  11.410  67.262  1.00  0.00    -0.148 A  
HETATM    9  O   UNL     1      -9.021  13.688  66.944  1.00  0.00    -0.237 OA 
HETATM   10  C   UNL     1      -8.942  10.172  67.599  1.00  0.00    -0.131 A  
HETATM   11  N   UNL     1     -10.219   9.960  67.944  1.00  0.00    -0.181 NA 
HETATM   12  N   UNL     1      -7.906   9.297  67.498  1.00  0.00    -0.096 NA 
HETATM   13  N   UNL     1      -7.122  11.323  66.964  1.00  0.00    -0.121 NA 
HETATM   14  C   UNL     1      -6.819  10.044  67.113  1.00  0.00    -0.082 A  
ENDROOT
BRANCH  12  15
HETATM   15  C   UNL     1      -7.986   7.861  67.654  1.00  0.00    -0.124 C  
HETATM   16  C   UNL     1      -8.829   7.398  68.843  1.00  0.00    -0.131 C  
HETATM   17  C   UNL     1      -8.920   5.898  68.596  1.00  0.00    -0.116 C  
HETATM   18  O   UNL     1      -7.673   5.304  68.973  1.00  0.00    -0.079 OA 
HETATM   19  C   UNL     1      -9.115   5.751  67.067  1.00  0.00    -0.114 C  
HETATM   20  C   UNL     1      -8.556   7.060  66.503  1.00  0.00    -0.130 C  
HETATM   21  H   UNL     1      -7.729   4.369  68.818  1.00  0.00     0.000 HD 
HETATM   22  C   UNL     1      -8.584   7.412  65.207  1.00  0.00    -0.014 C  
BRANCH  19  23
HETATM   23  C   UNL     1     -10.585   5.497  66.712  1.00  0.00    -0.291 C  
HETATM   24  O   UNL     1     -11.466   6.125  67.635  1.00  0.00    -0.506 OA 
HETATM   25  H   UNL     1     -12.377   5.967  67.415  1.00  0.00     0.000 HD 
ENDBRANCH  19  23
ENDBRANCH  12  15
TORSDOF 2
ENDMDL
MODEL      200
REMARK 921   NORMALIZED FREE ENERGY PREDICTED BY IDOCK:   -3.22 KCAL/MOL
REMARK 922        TOTAL FREE ENERGY PREDICTED BY IDOCK:   -3.93 KCAL/MOL
REMARK 923 INTER-LIGAND FREE ENERGY PREDICTED BY IDOCK:   -3.53 KCAL/MOL
REMARK 924 INTRA-LIGAND FREE ENERGY PREDICTED BY IDOCK:   -0.40 KCAL/MOL
REMARK 927      BINDING AFFINITY PREDICTED BY RF-SCORE:    0.00 PKD
ROOT
HETATM    1  N   UNL     1      -9.519   7.614  74.099  1.00  0.00    -0.395 NA 
HETATM    2  C   UNL     1      -9.697   6.820  73.013  1.00  0.00    -0.162 C  
HETATM    3  H2  UNL     1      -9.684   7.236  75.032  1.00  0.00     0.000 HD 
HETATM    4  H1  UNL     1      -9.223   8.584  73.995  1.00  0.00     0.000 HD 
HETATM    5  N   UNL     1     -10.075   5.583  73.146  1.00  0.00    -0.174 N  
HETATM    6  C   UNL     1     -10.277   4.785  72.009  1.00  0.00    -0.195 C  
HETATM    7  H   UNL     1     -10.225   5.193  74.076  1.00  0.00     0.000 HD 
HETATM    8  C   UNL     1     -10.069   5.465  70.720  1.00  0.00    -0.220 A  
HETATM    9  O   UNL     1     -10.598   3.604  72.084  1.00  0.00    -0.020 OA 
HETATM   10  C   UNL     1      -9.663   6.772  70.711  1.00  0.00    -0.179 A  
HETATM   11  N   UNL     1      -9.442   7.469  71.835  1.00  0.00    -0.143 NA 
HETATM   12  N   UNL     1      -9.543   7.150  69.411  1.00  0.00    -0.153 NA 
HETATM   13  N   UNL     1     -10.222   5.018  69.427  1.00  0.00    -0.224 NA 
HETATM   14  C   UNL     1      -9.897   6.051  68.666  1.00  0.00    -0.138 A  
ENDROOT
BRANCH  12  15
HETATM   15  C   UNL     1      -9.030   8.416  68.935  1.00  0.00    -0.146 C  
HETATM   16  C   UNL     1      -8.394   8.362  67.546  1.00  0.00    -0.129 C  
HETATM   17  C   UNL     1      -8.188   9.839  67.239  1.00  0.00    -0.117 C  
HETATM   18  O   UNL     1      -7.050  10.297  67.979  1.00  0.00    -0.081 OA 
HETATM   19  C   UNL     1      -9.460  10.544  67.770  1.00  0.00    -0.162 C  
HETATM   20  C   UNL     1     -10.004   9.568  68.817  1.00  0.00    -0.185 C  
HETATM   21  H   UNL     1      -6.922  11.219  67.788  1.00  0.00     0.000 HD 
HETATM   22  C   UNL     1     -11.154   9.731  69.493  1.00  0.00    -0.226 C  
BRANCH  19  23
HETATM   23  C   UNL     1     -10.443  10.853  66.635  1.00  0.00    -0.254 C  
HETATM   24  O   UNL     1      -9.804  10.832  65.365  1.00  0.00    -0.228 OA 
HETATM   25  H   UNL     1     -10.414  11.024  64.662  1.00  0.00     0.000 HD 
ENDBRANCH  19  23
ENDBRANCH  12  15
TORSDOF 2
ENDMDL
MODEL      201
REMARK 921   NORMALIZED FREE ENERGY PREDICTED BY IDOCK:   -3.18 KCAL/MOL
REMARK 922        TOTAL FREE ENERGY PREDICTED BY IDOCK:   -3.89 KCAL/MOL
REMARK 923 INTER-LIGAND FREE ENERGY PREDICTED BY IDOCK:   -3.75 KCAL/MOL
REMARK 924 INTRA-LIGAND FREE ENERGY PREDICTED BY IDOCK:   -0.14 KCAL/MOL
REMARK 927      BINDING AFFINITY PREDICTED BY RF-SCORE:    0.00 PKD
ROOT
HETATM    1  N   UNL     1      -5.561  15.935  69.638  1.00  0.00    -0.120 NA 
HETATM    2  C   UNL     1      -6.095  14.746  69.260  1.00  0.00    -0.106 C  
HETATM    3  H2  UNL     1      -4.554  16.011  69.784  1.00  0.00     0.000 HD 
HETATM    4  H1  UNL     1      -6.153  16.753  69.779  1.00  0.00     0.000 HD 
HETATM    5  N   UNL     1      -5.340  13.703  69.080  1.00  0.00    -0.073 N  
HETATM    6  C   UNL     1      -5.915  12.476  68.713  1.00  0.00    -0.066 C  
HETATM    7  H   UNL     1      -4.331  13.776  69.207  1.00  0.00     0.000 HD 
HETATM    8  C   UNL     1      -7.383  12.479  68.597  1.00  0.00    -0.099 A  
HETATM    9  O   UNL     1      -5.242  11.474  68.496  1.00  0.00    -0.043 OA 
HETATM   10  C   UNL     1      -8.067  13.647  68.805  1.00  0.00     0.001 A  
HETATM   11  N   UNL     1      -7.455  14.800  69.109  1.00  0.00    -0.145 NA 
HETATM   12  N   UNL     1      -9.388  13.377  68.633  1.00  0.00    -0.078 NA 
HETATM   13  N   UNL     1      -8.269  11.466  68.310  1.00  0.00    -0.142 NA 
HETATM   14  C   UNL     1      -9.463  12.037  68.338  1.00  0.00    -0.181 A  
ENDROOT
BRANCH  12  15
HETATM   15  C   UNL     1     -10.464  14.345  68.647  1.00  0.00    -0.247 C  
HETATM   16  C   UNL     1     -10.507  15.227  69.894  1.00  0.00    -0.277 C  
HETATM   17  C   UNL     1     -11.552  16.264  69.506  1.00  0.00    -0.169 C  
HETATM   18  O   UNL     1     -12.847  15.663  69.624  1.00  0.00    -0.559 OA 
HETATM   19  C   UNL     1     -11.271  16.585  68.018  1.00  0.00    -0.202 C  
HETATM   20  C   UNL     1     -10.518  15.350  67.517  1.00  0.00    -0.275 C  
HETATM   21  H   UNL     1     -13.499  16.309  69.382  1.00  0.00     0.000 HD 
HETATM   22  C   UNL     1     -10.000  15.215  66.285  1.00  0.00    -0.307 C  
BRANCH  19  23
HETATM   23  C   UNL     1     -10.492  17.896  67.866  1.00  0.00    -0.396 C  
HETATM   24  O   UNL     1      -9.154  17.771  68.331  1.00  0.00    -0.266 OA 
HETATM   25  H   UNL     1      -8.671  18.584  68.236  1.00  0.00     0.000 HD 
ENDBRANCH  19  23
ENDBRANCH  12  15
TORSDOF 2
ENDMDL
MODEL      202
REMARK 921   NORMALIZED FREE ENERGY PREDICTED BY IDOCK:   -3.18 KCAL/MOL
REMARK 922        TOTAL FREE ENERGY PREDICTED BY IDOCK:   -3.89 KCAL/MOL
REMARK 923 INTER-LIGAND FREE ENERGY PREDICTED BY IDOCK:   -3.79 KCAL/MOL
REMARK 924 INTRA-LIGAND FREE ENERGY PREDICTED BY IDOCK:   -0.09 KCAL/MOL
REMARK 927      BINDING AFFINITY PREDICTED BY RF-SCORE:    0.00 PKD
ROOT
HETATM    1  N   UNL     1     -12.351   6.802  70.905  1.00  0.00    -0.429 NA 
HETATM    2  C   UNL     1     -10.996   6.819  70.834  1.00  0.00    -0.260 C  
HETATM    3  H2  UNL     1     -12.809   6.289  71.658  1.00  0.00     0.000 HD 
HETATM    4  H1  UNL     1     -12.918   7.296  70.215  1.00  0.00     0.000 HD 
HETATM    5  N   UNL     1     -10.274   6.190  71.713  1.00  0.00    -0.198 N  
HETATM    6  C   UNL     1      -8.874   6.199  71.607  1.00  0.00    -0.138 C  
HETATM    7  H   UNL     1     -10.725   5.689  72.478  1.00  0.00     0.000 HD 
HETATM    8  C   UNL     1      -8.337   6.919  70.441  1.00  0.00    -0.130 A  
HETATM    9  O   UNL     1      -8.150   5.652  72.431  1.00  0.00    -0.106 OA 
HETATM   10  C   UNL     1      -9.203   7.550  69.588  1.00  0.00    -0.146 A  
HETATM   11  N   UNL     1     -10.531   7.543  69.769  1.00  0.00    -0.225 NA 
HETATM   12  N   UNL     1      -8.456   8.135  68.613  1.00  0.00    -0.126 NA 
HETATM   13  N   UNL     1      -7.044   7.090  70.000  1.00  0.00    -0.069 NA 
HETATM   14  C   UNL     1      -7.150   7.824  68.904  1.00  0.00    -0.075 A  
ENDROOT
BRANCH  12  15
HETATM   15  C   UNL     1      -8.951   9.000  67.565  1.00  0.00    -0.122 C  
HETATM   16  C   UNL     1     -10.215   8.495  66.870  1.00  0.00    -0.375 C  
HETATM   17  C   UNL     1     -10.610   9.699  66.026  1.00  0.00     0.179 C  
HETATM   18  O   UNL     1      -9.744   9.752  64.886  1.00  0.00    -0.364 OA 
HETATM   19  C   UNL     1     -10.343  10.930  66.927  1.00  0.00    -0.285 C  
HETATM   20  C   UNL     1      -9.315  10.420  67.940  1.00  0.00    -0.147 C  
HETATM   21  H   UNL     1      -9.989  10.503  64.359  1.00  0.00     0.000 HD 
HETATM   22  C   UNL     1      -8.841  11.132  68.976  1.00  0.00    -0.025 C  
BRANCH  19  23
HETATM   23  C   UNL     1     -11.638  11.451  67.560  1.00  0.00    -0.219 C  
HETATM   24  O   UNL     1     -12.192  12.529  66.816  1.00  0.00    -0.532 OA 
HETATM   25  H   UNL     1     -12.995  12.851  67.208  1.00  0.00     0.000 HD 
ENDBRANCH  19  23
ENDBRANCH  12  15
TORSDOF 2
ENDMDL
MODEL      203
REMARK 921   NORMALIZED FREE ENERGY PREDICTED BY IDOCK:   -3.17 KCAL/MOL
REMARK 922        TOTAL FREE ENERGY PREDICTED BY IDOCK:   -3.88 KCAL/MOL
REMARK 923 INTER-LIGAND FREE ENERGY PREDICTED BY IDOCK:   -3.82 KCAL/MOL
REMARK 924 INTRA-LIGAND FREE ENERGY PREDICTED BY IDOCK:   -0.06 KCAL/MOL
REMARK 927      BINDING AFFINITY PREDICTED BY RF-SCORE:    0.00 PKD
ROOT
HETATM    1  N   UNL     1      -6.496   7.144  63.809  1.00  0.00    -0.044 NA 
HETATM    2  C   UNL     1      -7.365   8.182  63.909  1.00  0.00    -0.101 C  
HETATM    3  H2  UNL     1      -5.840   7.111  63.029  1.00  0.00     0.000 HD 
HETATM    4  H1  UNL     1      -6.491   6.397  64.503  1.00  0.00     0.000 HD 
HETATM    5  N   UNL     1      -7.372   9.134  63.024  1.00  0.00    -0.098 N  
HETATM    6  C   UNL     1      -8.296  10.186  63.133  1.00  0.00    -0.171 C  
HETATM    7  H   UNL     1      -6.707   9.116  62.251  1.00  0.00     0.000 HD 
HETATM    8  C   UNL     1      -9.231  10.086  64.264  1.00  0.00    -0.269 A  
HETATM    9  O   UNL     1      -8.317  11.125  62.344  1.00  0.00    -0.245 OA 
HETATM   10  C   UNL     1      -9.118   9.035  65.134  1.00  0.00    -0.143 A  
HETATM   11  N   UNL     1      -8.183   8.084  65.003  1.00  0.00    -0.148 NA 
HETATM   12  N   UNL     1     -10.086   9.184  66.077  1.00  0.00    -0.237 NA 
HETATM   13  N   UNL     1     -10.280  10.892  64.645  1.00  0.00    -0.325 NA 
HETATM   14  C   UNL     1     -10.771  10.326  65.735  1.00  0.00     0.114 A  
ENDROOT
BRANCH  12  15
HETATM   15  C   UNL     1     -10.263   8.363  67.255  1.00  0.00    -0.279 C  
HETATM   16  C   UNL     1     -10.674   6.919  66.964  1.00  0.00    -0.432 C  
HETATM   17  C   UNL     1     -10.539   6.274  68.337  1.00  0.00    -0.260 C  
HETATM   18  O   UNL     1     -11.667   6.664  69.129  1.00  0.00    -0.629 OA 
HETATM   19  C   UNL     1      -9.252   6.884  68.946  1.00  0.00    -0.132 C  
HETATM   20  C   UNL     1      -9.077   8.198  68.181  1.00  0.00    -0.134 C  
HETATM   21  H   UNL     1     -11.582   6.262  69.986  1.00  0.00     0.000 HD 
HETATM   22  C   UNL     1      -8.038   9.037  68.324  1.00  0.00    -0.109 C  
BRANCH  19  23
HETATM   23  C   UNL     1      -8.064   5.924  68.818  1.00  0.00    -0.103 C  
HETATM   24  O   UNL     1      -8.440   4.581  69.091  1.00  0.00    -0.078 OA 
HETATM   25  H   UNL     1      -7.703   3.986  69.011  1.00  0.00     0.000 HD 
ENDBRANCH  19  23
ENDBRANCH  12  15
TORSDOF 2
ENDMDL
MODEL      204
REMARK 921   NORMALIZED FREE ENERGY PREDICTED BY IDOCK:   -3.15 KCAL/MOL
REMARK 922        TOTAL FREE ENERGY PREDICTED BY IDOCK:   -3.86 KCAL/MOL
REMARK 923 INTER-LIGAND FREE ENERGY PREDICTED BY IDOCK:   -3.67 KCAL/MOL
REMARK 924 INTRA-LIGAND FREE ENERGY PREDICTED BY IDOCK:   -0.19 KCAL/MOL
REMARK 927      BINDING AFFINITY PREDICTED BY RF-SCORE:    0.00 PKD
ROOT
HETATM    1  N   UNL     1      -7.154   5.414  72.566  1.00  0.00    -0.085 NA 
HETATM    2  C   UNL     1      -7.838   5.186  71.416  1.00  0.00    -0.107 C  
HETATM    3  H2  UNL     1      -6.829   4.624  73.123  1.00  0.00     0.000 HD 
HETATM    4  H1  UNL     1      -6.961   6.365  72.880  1.00  0.00     0.000 HD 
HETATM    5  N   UNL     1      -8.083   3.974  71.015  1.00  0.00    -0.063 N  
HETATM    6  C   UNL     1      -8.814   3.761  69.835  1.00  0.00    -0.088 C  
HETATM    7  H   UNL     1      -7.746   3.179  71.557  1.00  0.00     0.000 HD 
HETATM    8  C   UNL     1      -9.283   4.980  69.157  1.00  0.00    -0.110 A  
HETATM    9  O   UNL     1      -9.039   2.638  69.397  1.00  0.00    -0.099 OA 
HETATM   10  C   UNL     1      -8.951   6.203  69.676  1.00  0.00    -0.134 A  
HETATM   11  N   UNL     1      -8.210   6.342  70.783  1.00  0.00    -0.123 NA 
HETATM   12  N   UNL     1      -9.498   7.147  68.865  1.00  0.00    -0.143 NA 
HETATM   13  N   UNL     1     -10.052   5.148  68.027  1.00  0.00    -0.148 NA 
HETATM   14  C   UNL     1     -10.161   6.458  67.879  1.00  0.00    -0.168 A  
ENDROOT
BRANCH  12  15
HETATM   15  C   UNL     1      -9.306   8.577  68.973  1.00  0.00    -0.146 C  
HETATM   16  C   UNL     1      -9.555   9.350  67.678  1.00  0.00    -0.163 C  
HETATM   17  C   UNL     1      -9.518  10.793  68.163  1.00  0.00    -0.158 C  
HETATM   18  O   UNL     1      -8.150  11.161  68.374  1.00  0.00    -0.125 OA 
HETATM   19  C   UNL     1     -10.259  10.781  69.523  1.00  0.00    -0.146 C  
HETATM   20  C   UNL     1     -10.150   9.325  69.982  1.00  0.00    -0.240 C  
HETATM   21  H   UNL     1      -8.126  12.061  68.677  1.00  0.00     0.000 HD 
HETATM   22  C   UNL     1     -10.722   8.825  71.090  1.00  0.00    -0.316 C  
BRANCH  19  23
HETATM   23  C   UNL     1     -11.699  11.285  69.379  1.00  0.00    -0.339 C  
HETATM   24  O   UNL     1     -12.240  10.975  68.101  1.00  0.00    -0.765 OA 
HETATM   25  H   UNL     1     -13.134  11.287  68.013  1.00  0.00     0.000 HD 
ENDBRANCH  19  23
ENDBRANCH  12  15
TORSDOF 2
ENDMDL
MODEL      205
REMARK 921   NORMALIZED FREE ENERGY PREDICTED BY IDOCK:   -3.12 KCAL/MOL
REMARK 922        TOTAL FREE ENERGY PREDICTED BY IDOCK:   -3.82 KCAL/MOL
REMARK 923 INTER-LIGAND FREE ENERGY PREDICTED BY IDOCK:   -3.40 KCAL/MOL
REMARK 924 INTRA-LIGAND FREE ENERGY PREDICTED BY IDOCK:   -0.42 KCAL/MOL
REMARK 927      BINDING AFFINITY PREDICTED BY RF-SCORE:    0.00 PKD
ROOT
HETATM    1  N   UNL     1      -8.077   3.384  66.028  1.00  0.00    -0.092 NA 
HETATM    2  C   UNL     1      -8.126   4.733  65.888  1.00  0.00    -0.107 C  
HETATM    3  H2  UNL     1      -7.894   2.800  65.212  1.00  0.00     0.000 HD 
HETATM    4  H1  UNL     1      -8.220   2.947  66.939  1.00  0.00     0.000 HD 
HETATM    5  N   UNL     1      -7.943   5.290  64.728  1.00  0.00    -0.101 N  
HETATM    6  C   UNL     1      -8.023   6.686  64.600  1.00  0.00    -0.113 C  
HETATM    7  H   UNL     1      -7.743   4.713  63.911  1.00  0.00     0.000 HD 
HETATM    8  C   UNL     1      -8.356   7.412  65.836  1.00  0.00    -0.140 A  
HETATM    9  O   UNL     1      -7.822   7.260  63.535  1.00  0.00    -0.122 OA 
HETATM   10  C   UNL     1      -8.518   6.711  67.001  1.00  0.00    -0.113 A  
HETATM   11  N   UNL     1      -8.384   5.379  67.068  1.00  0.00    -0.108 NA 
HETATM   12  N   UNL     1      -8.811   7.610  67.977  1.00  0.00    -0.128 NA 
HETATM   13  N   UNL     1      -8.562   8.753  66.070  1.00  0.00    -0.139 NA 
HETATM   14  C   UNL     1      -8.831   8.838  67.362  1.00  0.00    -0.133 A  
ENDROOT
BRANCH  12  15
HETATM   15  C   UNL     1      -8.951   7.320  69.388  1.00  0.00    -0.139 C  
HETATM   16  C   UNL     1      -8.451   8.428  70.315  1.00  0.00    -0.126 C  
HETATM   17  C   UNL     1      -8.948   7.947  71.672  1.00  0.00    -0.138 C  
HETATM   18  O   UNL     1      -8.089   6.891  72.116  1.00  0.00    -0.098 OA 
HETATM   19  C   UNL     1     -10.363   7.378  71.406  1.00  0.00    -0.208 C  
HETATM   20  C   UNL     1     -10.343   7.042  69.913  1.00  0.00    -0.225 C  
HETATM   21  H   UNL     1      -8.398   6.590  72.962  1.00  0.00     0.000 HD 
HETATM   22  C   UNL     1     -11.397   6.586  69.215  1.00  0.00    -0.359 C  
BRANCH  19  23
HETATM   23  C   UNL     1     -11.452   8.378  71.807  1.00  0.00    -0.301 C  
HETATM   24  O   UNL     1     -12.598   7.724  72.339  1.00  0.00    -0.508 OA 
HETATM   25  H   UNL     1     -13.273   8.345  72.587  1.00  0.00     0.000 HD 
ENDBRANCH  19  23
ENDBRANCH  12  15
TORSDOF 2
ENDMDL
MODEL      206
REMARK 921   NORMALIZED FREE ENERGY PREDICTED BY IDOCK:   -3.11 KCAL/MOL
REMARK 922        TOTAL FREE ENERGY PREDICTED BY IDOCK:   -3.81 KCAL/MOL
REMARK 923 INTER-LIGAND FREE ENERGY PREDICTED BY IDOCK:   -3.67 KCAL/MOL
REMARK 924 INTRA-LIGAND FREE ENERGY PREDICTED BY IDOCK:   -0.15 KCAL/MOL
REMARK 927      BINDING AFFINITY PREDICTED BY RF-SCORE:    0.00 PKD
ROOT
HETATM    1  N   UNL     1     -11.258   8.676  69.930  1.00  0.00    -0.440 NA 
HETATM    2  C   UNL     1      -9.906   8.720  69.816  1.00  0.00    -0.186 C  
HETATM    3  H2  UNL     1     -11.745   9.417  70.434  1.00  0.00     0.000 HD 
HETATM    4  H1  UNL     1     -11.793   7.912  69.518  1.00  0.00     0.000 HD 
HETATM    5  N   UNL     1      -9.224   9.695  70.342  1.00  0.00    -0.313 N  
HETATM    6  C   UNL     1      -7.824   9.708  70.234  1.00  0.00    -0.178 C  
HETATM    7  H   UNL     1      -9.706  10.448  70.832  1.00  0.00     0.000 HD 
HETATM    8  C   UNL     1      -7.236   8.551  69.540  1.00  0.00    -0.060 A  
HETATM    9  O   UNL     1      -7.141  10.623  70.680  1.00  0.00    -0.172 OA 
HETATM   10  C   UNL     1      -8.063   7.591  69.023  1.00  0.00    -0.127 A  
HETATM   11  N   UNL     1      -9.398   7.657  69.118  1.00  0.00    -0.148 NA 
HETATM   12  N   UNL     1      -7.274   6.650  68.438  1.00  0.00    -0.083 NA 
HETATM   13  N   UNL     1      -5.924   8.213  69.298  1.00  0.00    -0.037 NA 
HETATM   14  C   UNL     1      -5.981   7.070  68.635  1.00  0.00    -0.022 A  
ENDROOT
BRANCH  12  15
HETATM   15  C   UNL     1      -7.732   5.513  67.670  1.00  0.00    -0.093 C  
HETATM   16  C   UNL     1      -8.688   4.585  68.419  1.00  0.00    -0.114 C  
HETATM   17  C   UNL     1      -9.166   3.663  67.304  1.00  0.00    -0.189 C  
HETATM   18  O   UNL     1      -8.125   2.720  67.026  1.00  0.00    -0.074 OA 
HETATM   19  C   UNL     1      -9.364   4.584  66.075  1.00  0.00    -0.157 C  
HETATM   20  C   UNL     1      -8.470   5.789  66.378  1.00  0.00    -0.122 C  
HETATM   21  H   UNL     1      -8.422   2.145  66.330  1.00  0.00     0.000 HD 
HETATM   22  C   UNL     1      -8.381   6.890  65.612  1.00  0.00    -0.147 C  
BRANCH  19  23
HETATM   23  C   UNL     1     -10.841   4.937  65.874  1.00  0.00    -0.082 C  
HETATM   24  O   UNL     1     -11.420   4.197  64.807  1.00  0.00    -0.923 OA 
HETATM   25  H   UNL     1     -12.336   4.416  64.683  1.00  0.00     0.000 HD 
ENDBRANCH  19  23
ENDBRANCH  12  15
TORSDOF 2
ENDMDL
MODEL      207
REMARK 921   NORMALIZED FREE ENERGY PREDICTED BY IDOCK:   -3.11 KCAL/MOL
REMARK 922        TOTAL FREE ENERGY PREDICTED BY IDOCK:   -3.81 KCAL/MOL
REMARK 923 INTER-LIGAND FREE ENERGY PREDICTED BY IDOCK:   -3.61 KCAL/MOL
REMARK 924 INTRA-LIGAND FREE ENERGY PREDICTED BY IDOCK:   -0.20 KCAL/MOL
REMARK 927      BINDING AFFINITY PREDICTED BY RF-SCORE:    0.00 PKD
ROOT
HETATM    1  N   UNL     1     -12.145  10.281  70.296  1.00  0.00    -0.397 NA 
HETATM    2  C   UNL     1     -11.479  11.263  69.637  1.00  0.00    -0.309 C  
HETATM    3  H2  UNL     1     -12.873  10.529  70.966  1.00  0.00     0.000 HD 
HETATM    4  H1  UNL     1     -11.926   9.299  70.130  1.00  0.00     0.000 HD 
HETATM    5  N   UNL     1     -11.758  12.515  69.848  1.00  0.00    -0.477 N  
HETATM    6  C   UNL     1     -11.040  13.517  69.174  1.00  0.00    -0.225 C  
HETATM    7  H   UNL     1     -12.496  12.770  70.504  1.00  0.00     0.000 HD 
HETATM    8  C   UNL     1      -9.972  13.034  68.284  1.00  0.00    -0.235 A  
HETATM    9  O   UNL     1     -11.290  14.709  69.312  1.00  0.00    -0.257 OA 
HETATM   10  C   UNL     1      -9.781  11.686  68.140  1.00  0.00    -0.189 A  
HETATM   11  N   UNL     1     -10.531  10.776  68.777  1.00  0.00    -0.187 NA 
HETATM   12  N   UNL     1      -8.751  11.514  67.269  1.00  0.00    -0.147 NA 
HETATM   13  N   UNL     1      -9.054  13.717  67.519  1.00  0.00    -0.199 NA 
HETATM   14  C   UNL     1      -8.338  12.778  66.923  1.00  0.00    -0.058 A  
ENDROOT
BRANCH  12  15
HETATM   15  C   UNL     1      -8.283  10.251  66.742  1.00  0.00    -0.124 C  
HETATM   16  C   UNL     1      -7.921   9.215  67.805  1.00  0.00    -0.101 C  
HETATM   17  C   UNL     1      -7.713   7.963  66.963  1.00  0.00    -0.100 C  
HETATM   18  O   UNL     1      -6.438   8.062  66.318  1.00  0.00    -0.046 OA 
HETATM   19  C   UNL     1      -8.832   8.005  65.893  1.00  0.00    -0.189 C  
HETATM   20  C   UNL     1      -9.211   9.486  65.824  1.00  0.00    -0.267 C  
HETATM   21  H   UNL     1      -6.309   7.282  65.793  1.00  0.00     0.000 HD 
HETATM   22  C   UNL     1     -10.205   9.989  65.073  1.00  0.00    -0.096 C  
BRANCH  19  23
HETATM   23  C   UNL     1      -9.996   7.079  66.265  1.00  0.00     0.103 C  
HETATM   24  O   UNL     1      -9.606   6.099  67.218  1.00  0.00    -0.112 OA 
HETATM   25  H   UNL     1     -10.328   5.525  67.449  1.00  0.00     0.000 HD 
ENDBRANCH  19  23
ENDBRANCH  12  15
TORSDOF 2
ENDMDL
MODEL      208
REMARK 921   NORMALIZED FREE ENERGY PREDICTED BY IDOCK:   -3.10 KCAL/MOL
REMARK 922        TOTAL FREE ENERGY PREDICTED BY IDOCK:   -3.80 KCAL/MOL
REMARK 923 INTER-LIGAND FREE ENERGY PREDICTED BY IDOCK:   -3.81 KCAL/MOL
REMARK 924 INTRA-LIGAND FREE ENERGY PREDICTED BY IDOCK:    0.00 KCAL/MOL
REMARK 927      BINDING AFFINITY PREDICTED BY RF-SCORE:    0.00 PKD
ROOT
HETATM    1  N   UNL     1      -9.648  10.675  65.205  1.00  0.00    -0.229 NA 
HETATM    2  C   UNL     1      -8.916  10.769  66.344  1.00  0.00    -0.166 C  
HETATM    3  H2  UNL     1      -9.612  11.430  64.520  1.00  0.00     0.000 HD 
HETATM    4  H1  UNL     1     -10.234   9.860  65.025  1.00  0.00     0.000 HD 
HETATM    5  N   UNL     1      -8.170  11.808  66.573  1.00  0.00    -0.335 N  
HETATM    6  C   UNL     1      -7.439  11.897  67.769  1.00  0.00    -0.121 C  
HETATM    7  H   UNL     1      -8.115  12.559  65.885  1.00  0.00     0.000 HD 
HETATM    8  C   UNL     1      -7.626  10.775  68.703  1.00  0.00    -0.106 A  
HETATM    9  O   UNL     1      -6.693  12.839  68.014  1.00  0.00    -0.076 OA 
HETATM   10  C   UNL     1      -8.436   9.732  68.343  1.00  0.00    -0.114 A  
HETATM   11  N   UNL     1      -9.072   9.684  67.164  1.00  0.00    -0.134 NA 
HETATM   12  N   UNL     1      -8.429   8.841  69.369  1.00  0.00    -0.123 NA 
HETATM   13  N   UNL     1      -7.118  10.554  69.964  1.00  0.00    -0.155 NA 
HETATM   14  C   UNL     1      -7.617   9.387  70.334  1.00  0.00    -0.145 A  
ENDROOT
BRANCH  12  15
HETATM   15  C   UNL     1      -9.059   7.539  69.371  1.00  0.00    -0.142 C  
HETATM   16  C   UNL     1     -10.587   7.574  69.366  1.00  0.00    -0.225 C  
HETATM   17  C   UNL     1     -10.933   6.111  69.125  1.00  0.00    -0.381 C  
HETATM   18  O   UNL     1     -10.738   5.395  70.350  1.00  0.00    -0.274 OA 
HETATM   19  C   UNL     1      -9.904   5.620  68.078  1.00  0.00    -0.162 C  
HETATM   20  C   UNL     1      -8.738   6.601  68.228  1.00  0.00    -0.118 C  
HETATM   21  H   UNL     1     -10.953   4.483  70.200  1.00  0.00     0.000 HD 
HETATM   22  C   UNL     1      -7.637   6.608  67.459  1.00  0.00    -0.105 C  
BRANCH  19  23
HETATM   23  C   UNL     1     -10.511   5.583  66.671  1.00  0.00    -0.294 C  
HETATM   24  O   UNL     1     -10.302   4.326  66.039  1.00  0.00    -0.402 OA 
HETATM   25  H   UNL     1     -10.679   4.304  65.167  1.00  0.00     0.000 HD 
ENDBRANCH  19  23
ENDBRANCH  12  15
TORSDOF 2
ENDMDL
MODEL      209
REMARK 921   NORMALIZED FREE ENERGY PREDICTED BY IDOCK:   -3.10 KCAL/MOL
REMARK 922        TOTAL FREE ENERGY PREDICTED BY IDOCK:   -3.80 KCAL/MOL
REMARK 923 INTER-LIGAND FREE ENERGY PREDICTED BY IDOCK:   -3.62 KCAL/MOL
REMARK 924 INTRA-LIGAND FREE ENERGY PREDICTED BY IDOCK:   -0.17 KCAL/MOL
REMARK 927      BINDING AFFINITY PREDICTED BY RF-SCORE:    0.00 PKD
ROOT
HETATM    1  N   UNL     1      -7.525   6.551  67.495  1.00  0.00    -0.094 NA 
HETATM    2  C   UNL     1      -8.400   6.804  68.502  1.00  0.00    -0.120 C  
HETATM    3  H2  UNL     1      -7.239   5.590  67.307  1.00  0.00     0.000 HD 
HETATM    4  H1  UNL     1      -7.150   7.309  66.925  1.00  0.00     0.000 HD 
HETATM    5  N   UNL     1      -8.878   5.837  69.228  1.00  0.00    -0.116 N  
HETATM    6  C   UNL     1      -9.762   6.123  70.281  1.00  0.00    -0.164 C  
HETATM    7  H   UNL     1      -8.610   4.873  69.035  1.00  0.00     0.000 HD 
HETATM    8  C   UNL     1     -10.046   7.552  70.492  1.00  0.00    -0.188 A  
HETATM    9  O   UNL     1     -10.268   5.244  70.970  1.00  0.00    -0.208 OA 
HETATM   10  C   UNL     1      -9.486   8.476  69.653  1.00  0.00    -0.165 A  
HETATM   11  N   UNL     1      -8.683   8.137  68.634  1.00  0.00    -0.134 NA 
HETATM   12  N   UNL     1      -9.910   9.702  70.060  1.00  0.00    -0.232 NA 
HETATM   13  N   UNL     1     -10.812   8.191  71.441  1.00  0.00    -0.229 NA 
HETATM   14  C   UNL     1     -10.710   9.478  71.154  1.00  0.00    -0.338 A  
ENDROOT
BRANCH  12  15
HETATM   15  C   UNL     1      -9.652  10.959  69.391  1.00  0.00     0.036 C  
HETATM   16  C   UNL     1      -8.170  11.285  69.203  1.00  0.00     0.045 C  
HETATM   17  C   UNL     1      -8.232  12.497  68.283  1.00  0.00    -0.168 C  
HETATM   18  O   UNL     1      -8.605  13.636  69.066  1.00  0.00    -0.357 OA 
HETATM   19  C   UNL     1      -9.361  12.180  67.271  1.00  0.00    -0.183 C  
HETATM   20  C   UNL     1     -10.219  11.143  68.000  1.00  0.00    -0.201 C  
HETATM   21  H   UNL     1      -8.644  14.392  68.492  1.00  0.00     0.000 HD 
HETATM   22  C   UNL     1     -11.282  10.516  67.468  1.00  0.00    -0.299 C  
BRANCH  19  23
HETATM   23  C   UNL     1      -8.792  11.692  65.934  1.00  0.00    -0.057 C  
HETATM   24  O   UNL     1      -9.514  12.223  64.830  1.00  0.00    -0.453 OA 
HETATM   25  H   UNL     1      -9.161  11.920  64.001  1.00  0.00     0.000 HD 
ENDBRANCH  19  23
ENDBRANCH  12  15
TORSDOF 2
ENDMDL
MODEL      210
REMARK 921   NORMALIZED FREE ENERGY PREDICTED BY IDOCK:   -3.08 KCAL/MOL
REMARK 922        TOTAL FREE ENERGY PREDICTED BY IDOCK:   -3.78 KCAL/MOL
REMARK 923 INTER-LIGAND FREE ENERGY PREDICTED BY IDOCK:   -3.79 KCAL/MOL
REMARK 924 INTRA-LIGAND FREE ENERGY PREDICTED BY IDOCK:    0.00 KCAL/MOL
REMARK 927      BINDING AFFINITY PREDICTED BY RF-SCORE:    0.00 PKD
ROOT
HETATM    1  N   UNL     1     -10.514  19.148  69.283  1.00  0.00    -0.359 NA 
HETATM    2  C   UNL     1      -9.376  18.859  68.602  1.00  0.00    -0.369 C  
HETATM    3  H2  UNL     1     -10.703  20.111  69.562  1.00  0.00     0.000 HD 
HETATM    4  H1  UNL     1     -11.183  18.415  69.520  1.00  0.00     0.000 HD 
HETATM    5  N   UNL     1      -8.524  19.793  68.300  1.00  0.00    -0.304 N  
HETATM    6  C   UNL     1      -7.342  19.469  67.616  1.00  0.00    -0.242 C  
HETATM    7  H   UNL     1      -8.715  20.760  68.560  1.00  0.00     0.000 HD 
HETATM    8  C   UNL     1      -7.155  18.038  67.328  1.00  0.00    -0.189 A  
HETATM    9  O   UNL     1      -6.526  20.319  67.276  1.00  0.00    -0.196 OA 
HETATM   10  C   UNL     1      -8.131  17.149  67.691  1.00  0.00    -0.179 A  
HETATM   11  N   UNL     1      -9.262  17.527  68.303  1.00  0.00    -0.269 NA 
HETATM   12  N   UNL     1      -7.715  15.913  67.309  1.00  0.00    -0.171 NA 
HETATM   13  N   UNL     1      -6.114  17.364  66.729  1.00  0.00    -0.170 NA 
HETATM   14  C   UNL     1      -6.481  16.093  66.732  1.00  0.00     0.179 A  
ENDROOT
BRANCH  12  15
HETATM   15  C   UNL     1      -8.485  14.691  67.395  1.00  0.00    -0.204 C  
HETATM   16  C   UNL     1      -9.385  14.422  66.190  1.00  0.00    -0.221 C  
HETATM   17  C   UNL     1      -9.852  12.998  66.460  1.00  0.00    -0.263 C  
HETATM   18  O   UNL     1     -10.860  13.040  67.476  1.00  0.00    -0.240 OA 
HETATM   19  C   UNL     1      -8.605  12.261  67.008  1.00  0.00    -0.191 C  
HETATM   20  C   UNL     1      -7.725  13.391  67.547  1.00  0.00    -0.182 C  
HETATM   21  H   UNL     1     -11.151  12.152  67.645  1.00  0.00     0.000 HD 
HETATM   22  C   UNL     1      -6.492  13.228  68.056  1.00  0.00    -0.131 C  
BRANCH  19  23
HETATM   23  C   UNL     1      -7.935  11.412  65.922  1.00  0.00     0.171 C  
HETATM   24  O   UNL     1      -8.598  11.538  64.671  1.00  0.00    -0.256 OA 
HETATM   25  H   UNL     1      -8.182  11.011  63.998  1.00  0.00     0.000 HD 
ENDBRANCH  19  23
ENDBRANCH  12  15
TORSDOF 2
ENDMDL
MODEL      211
REMARK 921   NORMALIZED FREE ENERGY PREDICTED BY IDOCK:   -3.07 KCAL/MOL
REMARK 922        TOTAL FREE ENERGY PREDICTED BY IDOCK:   -3.77 KCAL/MOL
REMARK 923 INTER-LIGAND FREE ENERGY PREDICTED BY IDOCK:   -3.36 KCAL/MOL
REMARK 924 INTRA-LIGAND FREE ENERGY PREDICTED BY IDOCK:   -0.40 KCAL/MOL
REMARK 927      BINDING AFFINITY PREDICTED BY RF-SCORE:    0.00 PKD
ROOT
HETATM    1  N   UNL     1     -10.574   3.341  73.236  1.00  0.00    -0.170 NA 
HETATM    2  C   UNL     1      -9.769   4.408  73.000  1.00  0.00    -0.135 C  
HETATM    3  H2  UNL     1     -10.609   2.935  74.171  1.00  0.00     0.000 HD 
HETATM    4  H1  UNL     1     -11.143   2.941  72.491  1.00  0.00     0.000 HD 
HETATM    5  N   UNL     1      -9.042   4.919  73.950  1.00  0.00    -0.113 N  
HETATM    6  C   UNL     1      -8.198   6.007  73.679  1.00  0.00    -0.112 C  
HETATM    7  H   UNL     1      -9.086   4.529  74.891  1.00  0.00     0.000 HD 
HETATM    8  C   UNL     1      -8.187   6.461  72.279  1.00  0.00    -0.107 A  
HETATM    9  O   UNL     1      -7.522   6.546  74.549  1.00  0.00    -0.099 OA 
HETATM   10  C   UNL     1      -9.005   5.844  71.370  1.00  0.00    -0.140 A  
HETATM   11  N   UNL     1      -9.825   4.837  71.701  1.00  0.00    -0.176 NA 
HETATM   12  N   UNL     1      -8.806   6.452  70.170  1.00  0.00    -0.149 NA 
HETATM   13  N   UNL     1      -7.459   7.447  71.653  1.00  0.00    -0.082 NA 
HETATM   14  C   UNL     1      -7.854   7.417  70.391  1.00  0.00    -0.098 A  
ENDROOT
BRANCH  12  15
HETATM   15  C   UNL     1      -9.545   6.195  68.953  1.00  0.00    -0.129 C  
HETATM   16  C   UNL     1      -9.848   7.441  68.121  1.00  0.00    -0.174 C  
HETATM   17  C   UNL     1     -10.391   6.832  66.835  1.00  0.00    -0.254 C  
HETATM   18  O   UNL     1     -11.735   6.401  67.074  1.00  0.00    -0.588 OA 
HETATM   19  C   UNL     1      -9.498   5.596  66.564  1.00  0.00    -0.165 C  
HETATM   20  C   UNL     1      -8.926   5.254  67.942  1.00  0.00    -0.112 C  
HETATM   21  H   UNL     1     -12.074   6.021  66.272  1.00  0.00     0.000 HD 
HETATM   22  C   UNL     1      -8.028   4.284  68.180  1.00  0.00    -0.078 C  
BRANCH  19  23
HETATM   23  C   UNL     1      -8.434   5.897  65.503  1.00  0.00    -0.154 C  
HETATM   24  O   UNL     1      -8.801   5.385  64.228  1.00  0.00    -0.326 OA 
HETATM   25  H   UNL     1      -8.141   5.572  63.570  1.00  0.00     0.000 HD 
ENDBRANCH  19  23
ENDBRANCH  12  15
TORSDOF 2
ENDMDL
MODEL      212
REMARK 921   NORMALIZED FREE ENERGY PREDICTED BY IDOCK:   -3.07 KCAL/MOL
REMARK 922        TOTAL FREE ENERGY PREDICTED BY IDOCK:   -3.76 KCAL/MOL
REMARK 923 INTER-LIGAND FREE ENERGY PREDICTED BY IDOCK:   -3.40 KCAL/MOL
REMARK 924 INTRA-LIGAND FREE ENERGY PREDICTED BY IDOCK:   -0.36 KCAL/MOL
REMARK 927      BINDING AFFINITY PREDICTED BY RF-SCORE:    0.00 PKD
ROOT
HETATM    1  N   UNL     1      -6.986   8.523  64.236  1.00  0.00    -0.080 NA 
HETATM    2  C   UNL     1      -7.775   7.555  64.767  1.00  0.00    -0.117 C  
HETATM    3  H2  UNL     1      -6.632   8.419  63.285  1.00  0.00     0.000 HD 
HETATM    4  H1  UNL     1      -6.743   9.354  64.775  1.00  0.00     0.000 HD 
HETATM    5  N   UNL     1      -8.084   6.496  64.079  1.00  0.00    -0.262 N  
HETATM    6  C   UNL     1      -8.881   5.494  64.656  1.00  0.00     0.056 C  
HETATM    7  H   UNL     1      -7.749   6.393  63.122  1.00  0.00     0.000 HD 
HETATM    8  C   UNL     1      -9.275   5.731  66.054  1.00  0.00    -0.141 A  
HETATM    9  O   UNL     1      -9.231   4.495  64.036  1.00  0.00    -0.152 OA 
HETATM   10  C   UNL     1      -8.890   6.892  66.669  1.00  0.00    -0.135 A  
HETATM   11  N   UNL     1      -8.167   7.834  66.048  1.00  0.00    -0.116 NA 
HETATM   12  N   UNL     1      -9.384   6.862  67.935  1.00  0.00    -0.120 NA 
HETATM   13  N   UNL     1      -9.997   4.957  66.934  1.00  0.00    -0.198 NA 
HETATM   14  C   UNL     1     -10.045   5.663  68.052  1.00  0.00    -0.171 A  
ENDROOT
BRANCH  12  15
HETATM   15  C   UNL     1      -9.313   7.935  68.903  1.00  0.00    -0.150 C  
HETATM   16  C   UNL     1     -10.671   8.423  69.407  1.00  0.00    -0.162 C  
HETATM   17  C   UNL     1     -10.266   9.343  70.552  1.00  0.00    -0.271 C  
HETATM   18  O   UNL     1      -9.789  10.572  69.993  1.00  0.00    -0.413 OA 
HETATM   19  C   UNL     1      -9.097   8.616  71.260  1.00  0.00    -0.272 C  
HETATM   20  C   UNL     1      -8.549   7.677  70.183  1.00  0.00    -0.140 C  
HETATM   21  H   UNL     1      -9.536  11.146  70.706  1.00  0.00     0.000 HD 
HETATM   22  C   UNL     1      -7.563   6.784  70.373  1.00  0.00    -0.095 C  
BRANCH  19  23
HETATM   23  C   UNL     1      -9.571   7.901  72.530  1.00  0.00    -0.216 C  
HETATM   24  O   UNL     1      -8.784   8.256  73.660  1.00  0.00    -0.248 OA 
HETATM   25  H   UNL     1      -9.078   7.813  74.448  1.00  0.00     0.000 HD 
ENDBRANCH  19  23
ENDBRANCH  12  15
TORSDOF 2
ENDMDL
MODEL      213
REMARK 921   NORMALIZED FREE ENERGY PREDICTED BY IDOCK:   -3.03 KCAL/MOL
REMARK 922        TOTAL FREE ENERGY PREDICTED BY IDOCK:   -3.72 KCAL/MOL
REMARK 923 INTER-LIGAND FREE ENERGY PREDICTED BY IDOCK:   -4.69 KCAL/MOL
REMARK 924 INTRA-LIGAND FREE ENERGY PREDICTED BY IDOCK:    0.97 KCAL/MOL
REMARK 927      BINDING AFFINITY PREDICTED BY RF-SCORE:    0.00 PKD
ROOT
HETATM    1  N   UNL     1      -8.772   7.170  66.229  1.00  0.00    -0.141 NA 
HETATM    2  C   UNL     1      -9.161   8.426  65.891  1.00  0.00    -0.155 C  
HETATM    3  H2  UNL     1      -8.341   6.570  65.525  1.00  0.00     0.000 HD 
HETATM    4  H1  UNL     1      -8.906   6.818  67.177  1.00  0.00     0.000 HD 
HETATM    5  N   UNL     1      -8.991   8.874  64.682  1.00  0.00    -0.423 N  
HETATM    6  C   UNL     1      -9.422  10.167  64.348  1.00  0.00    -0.308 C  
HETATM    7  H   UNL     1      -8.544   8.287  63.979  1.00  0.00     0.000 HD 
HETATM    8  C   UNL     1     -10.088  10.908  65.431  1.00  0.00    -0.277 A  
HETATM    9  O   UNL     1      -9.251  10.648  63.233  1.00  0.00    -0.220 OA 
HETATM   10  C   UNL     1     -10.200  10.328  66.666  1.00  0.00    -0.233 A  
HETATM   11  N   UNL     1      -9.726   9.105  66.937  1.00  0.00    -0.178 NA 
HETATM   12  N   UNL     1     -10.840  11.216  67.473  1.00  0.00    -0.236 NA 
HETATM   13  N   UNL     1     -10.670  12.156  65.450  1.00  0.00    -0.274 NA 
HETATM   14  C   UNL     1     -11.110  12.310  66.688  1.00  0.00    -0.297 A  
ENDROOT
BRANCH  12  15
HETATM   15  C   UNL     1     -11.072  11.063  68.893  1.00  0.00    -0.239 C  
HETATM   16  C   UNL     1     -12.378  10.353  69.249  1.00  0.00     0.217 C  
HETATM   17  C   UNL     1     -12.215  10.133  70.747  1.00  0.00    -0.338 C  
HETATM   18  O   UNL     1     -12.458  11.377  71.413  1.00  0.00    -0.335 OA 
HETATM   19  C   UNL     1     -10.731   9.733  70.938  1.00  0.00    -0.375 C  
HETATM   20  C   UNL     1     -10.041  10.299  69.695  1.00  0.00    -0.257 C  
HETATM   21  H   UNL     1     -12.356  11.241  72.348  1.00  0.00     0.000 HD 
HETATM   22  C   UNL     1      -8.743  10.126  69.392  1.00  0.00    -0.186 C  
BRANCH  19  23
HETATM   23  C   UNL     1     -10.577   8.217  71.102  1.00  0.00    -0.204 C  
HETATM   24  O   UNL     1     -10.601   7.547  69.848  1.00  0.00    -0.228 OA 
HETATM   25  H   UNL     1     -10.506   6.607  69.950  1.00  0.00     0.000 HD 
ENDBRANCH  19  23
ENDBRANCH  12  15
TORSDOF 2
ENDMDL
MODEL      214
REMARK 921   NORMALIZED FREE ENERGY PREDICTED BY IDOCK:   -2.96 KCAL/MOL
REMARK 922        TOTAL FREE ENERGY PREDICTED BY IDOCK:   -3.64 KCAL/MOL
REMARK 923 INTER-LIGAND FREE ENERGY PREDICTED BY IDOCK:   -3.31 KCAL/MOL
REMARK 924 INTRA-LIGAND FREE ENERGY PREDICTED BY IDOCK:   -0.33 KCAL/MOL
REMARK 927      BINDING AFFINITY PREDICTED BY RF-SCORE:    0.00 PKD
ROOT
HETATM    1  N   UNL     1     -12.893  10.606  69.526  1.00  0.00    -0.560 NA 
HETATM    2  C   UNL     1     -11.569  10.626  69.226  1.00  0.00    -0.275 C  
HETATM    3  H2  UNL     1     -13.470  11.418  69.308  1.00  0.00     0.000 HD 
HETATM    4  H1  UNL     1     -13.318   9.789  69.965  1.00  0.00     0.000 HD 
HETATM    5  N   UNL     1     -11.028  11.667  68.667  1.00  0.00    -0.205 N  
HETATM    6  C   UNL     1      -9.652  11.676  68.388  1.00  0.00    -0.195 C  
HETATM    7  H   UNL     1     -11.602  12.475  68.430  1.00  0.00     0.000 HD 
HETATM    8  C   UNL     1      -8.917  10.472  68.808  1.00  0.00    -0.166 A  
HETATM    9  O   UNL     1      -9.102  12.619  67.827  1.00  0.00    -0.176 OA 
HETATM   10  C   UNL     1      -9.604   9.437  69.383  1.00  0.00    -0.173 A  
HETATM   11  N   UNL     1     -10.929   9.469  69.581  1.00  0.00    -0.232 NA 
HETATM   12  N   UNL     1      -8.701   8.461  69.666  1.00  0.00    -0.132 NA 
HETATM   13  N   UNL     1      -7.578  10.161  68.741  1.00  0.00    -0.085 NA 
HETATM   14  C   UNL     1      -7.481   8.948  69.262  1.00  0.00    -0.075 A  
ENDROOT
BRANCH  12  15
HETATM   15  C   UNL     1      -9.004   7.142  70.178  1.00  0.00    -0.145 C  
HETATM   16  C   UNL     1      -8.445   5.992  69.341  1.00  0.00    -0.115 C  
HETATM   17  C   UNL     1      -8.708   4.793  70.241  1.00  0.00    -0.093 C  
HETATM   18  O   UNL     1     -10.100   4.464  70.156  1.00  0.00    -0.217 OA 
HETATM   19  C   UNL     1      -8.386   5.285  71.674  1.00  0.00    -0.118 C  
HETATM   20  C   UNL     1      -8.530   6.805  71.575  1.00  0.00    -0.119 C  
HETATM   21  H   UNL     1     -10.264   3.717  70.718  1.00  0.00     0.000 HD 
HETATM   22  C   UNL     1      -8.268   7.667  72.572  1.00  0.00    -0.148 C  
BRANCH  19  23
HETATM   23  C   UNL     1      -6.999   4.817  72.127  1.00  0.00    -0.061 C  
HETATM   24  O   UNL     1      -5.964   5.403  71.347  1.00  0.00    -0.023 OA 
HETATM   25  H   UNL     1      -5.104   5.113  71.629  1.00  0.00     0.000 HD 
ENDBRANCH  19  23
ENDBRANCH  12  15
TORSDOF 2
ENDMDL
MODEL      215
REMARK 921   NORMALIZED FREE ENERGY PREDICTED BY IDOCK:   -2.96 KCAL/MOL
REMARK 922        TOTAL FREE ENERGY PREDICTED BY IDOCK:   -3.64 KCAL/MOL
REMARK 923 INTER-LIGAND FREE ENERGY PREDICTED BY IDOCK:   -3.54 KCAL/MOL
REMARK 924 INTRA-LIGAND FREE ENERGY PREDICTED BY IDOCK:   -0.10 KCAL/MOL
REMARK 927      BINDING AFFINITY PREDICTED BY RF-SCORE:    0.00 PKD
ROOT
HETATM    1  N   UNL     1     -11.430  10.714  67.897  1.00  0.00    -0.601 NA 
HETATM    2  C   UNL     1     -10.362  10.102  68.471  1.00  0.00    -0.180 C  
HETATM    3  H2  UNL     1     -12.167  11.099  68.489  1.00  0.00     0.000 HD 
HETATM    4  H1  UNL     1     -11.506  10.793  66.883  1.00  0.00     0.000 HD 
HETATM    5  N   UNL     1     -10.267  10.001  69.763  1.00  0.00    -0.238 N  
HETATM    6  C   UNL     1      -9.166   9.343  70.335  1.00  0.00    -0.257 C  
HETATM    7  H   UNL     1     -10.990  10.400  70.361  1.00  0.00     0.000 HD 
HETATM    8  C   UNL     1      -8.206   8.774  69.375  1.00  0.00    -0.108 A  
HETATM    9  O   UNL     1      -9.012   9.254  71.548  1.00  0.00    -0.316 OA 
HETATM   10  C   UNL     1      -8.415   8.954  68.034  1.00  0.00    -0.126 A  
HETATM   11  N   UNL     1      -9.463   9.634  67.550  1.00  0.00    -0.133 NA 
HETATM   12  N   UNL     1      -7.392   8.343  67.380  1.00  0.00    -0.088 NA 
HETATM   13  N   UNL     1      -7.061   8.035  69.571  1.00  0.00    -0.057 NA 
HETATM   14  C   UNL     1      -6.596   7.794  68.356  1.00  0.00    -0.054 A  
ENDROOT
BRANCH  12  15
HETATM   15  C   UNL     1      -7.151   8.378  65.954  1.00  0.00    -0.072 C  
HETATM   16  C   UNL     1      -8.238   7.713  65.110  1.00  0.00    -0.130 C  
HETATM   17  C   UNL     1      -7.833   8.123  63.700  1.00  0.00    -0.151 C  
HETATM   18  O   UNL     1      -6.723   7.311  63.299  1.00  0.00    -0.051 OA 
HETATM   19  C   UNL     1      -7.371   9.595  63.823  1.00  0.00    -0.123 C  
HETATM   20  C   UNL     1      -6.997   9.735  65.301  1.00  0.00    -0.111 C  
HETATM   21  H   UNL     1      -6.470   7.567  62.419  1.00  0.00     0.000 HD 
HETATM   22  C   UNL     1      -6.608  10.878  65.890  1.00  0.00    -0.048 C  
BRANCH  19  23
HETATM   23  C   UNL     1      -8.465  10.565  63.362  1.00  0.00    -0.148 C  
HETATM   24  O   UNL     1      -7.938  11.606  62.549  1.00  0.00    -0.546 OA 
HETATM   25  H   UNL     1      -8.616  12.206  62.263  1.00  0.00     0.000 HD 
ENDBRANCH  19  23
ENDBRANCH  12  15
TORSDOF 2
ENDMDL
MODEL      216
REMARK 921   NORMALIZED FREE ENERGY PREDICTED BY IDOCK:   -2.94 KCAL/MOL
REMARK 922        TOTAL FREE ENERGY PREDICTED BY IDOCK:   -3.62 KCAL/MOL
REMARK 923 INTER-LIGAND FREE ENERGY PREDICTED BY IDOCK:   -3.27 KCAL/MOL
REMARK 924 INTRA-LIGAND FREE ENERGY PREDICTED BY IDOCK:   -0.35 KCAL/MOL
REMARK 927      BINDING AFFINITY PREDICTED BY RF-SCORE:    0.00 PKD
ROOT
HETATM    1  N   UNL     1     -11.793  10.493  67.975  1.00  0.00    -0.740 NA 
HETATM    2  C   UNL     1     -11.048   9.728  68.813  1.00  0.00    -0.095 C  
HETATM    3  H2  UNL     1     -12.567  11.042  68.350  1.00  0.00     0.000 HD 
HETATM    4  H1  UNL     1     -11.589  10.527  66.977  1.00  0.00     0.000 HD 
HETATM    5  N   UNL     1     -11.308   9.685  70.086  1.00  0.00    -0.307 N  
HETATM    6  C   UNL     1     -10.541   8.867  70.931  1.00  0.00    -0.233 C  
HETATM    7  H   UNL     1     -12.069  10.244  70.470  1.00  0.00     0.000 HD 
HETATM    8  C   UNL     1      -9.496   8.076  70.261  1.00  0.00    -0.167 A  
HETATM    9  O   UNL     1     -10.724   8.821  72.143  1.00  0.00    -0.339 OA 
HETATM   10  C   UNL     1      -9.315   8.215  68.911  1.00  0.00    -0.147 A  
HETATM   11  N   UNL     1     -10.052   9.049  68.164  1.00  0.00    -0.183 NA 
HETATM   12  N   UNL     1      -8.298   7.387  68.552  1.00  0.00    -0.125 NA 
HETATM   13  N   UNL     1      -8.606   7.149  70.755  1.00  0.00    -0.144 NA 
HETATM   14  C   UNL     1      -7.902   6.757  69.707  1.00  0.00    -0.115 A  
ENDROOT
BRANCH  12  15
HETATM   15  C   UNL     1      -7.697   7.296  67.239  1.00  0.00    -0.109 C  
HETATM   16  C   UNL     1      -6.196   7.006  67.249  1.00  0.00    -0.041 C  
HETATM   17  C   UNL     1      -5.922   6.731  65.776  1.00  0.00    -0.034 C  
HETATM   18  O   UNL     1      -5.895   7.984  65.082  1.00  0.00    -0.043 OA 
HETATM   19  C   UNL     1      -7.135   5.903  65.287  1.00  0.00    -0.065 C  
HETATM   20  C   UNL     1      -8.238   6.249  66.290  1.00  0.00    -0.117 C  
HETATM   21  H   UNL     1      -5.725   7.813  64.164  1.00  0.00     0.000 HD 
HETATM   22  C   UNL     1      -9.463   5.698  66.304  1.00  0.00    -0.171 C  
BRANCH  19  23
HETATM   23  C   UNL     1      -6.800   4.408  65.218  1.00  0.00    -0.057 C  
HETATM   24  O   UNL     1      -6.656   3.841  66.514  1.00  0.00    -0.040 OA 
HETATM   25  H   UNL     1      -6.449   2.914  66.471  1.00  0.00     0.000 HD 
ENDBRANCH  19  23
ENDBRANCH  12  15
TORSDOF 2
ENDMDL
MODEL      217
REMARK 921   NORMALIZED FREE ENERGY PREDICTED BY IDOCK:   -2.92 KCAL/MOL
REMARK 922        TOTAL FREE ENERGY PREDICTED BY IDOCK:   -3.60 KCAL/MOL
REMARK 923 INTER-LIGAND FREE ENERGY PREDICTED BY IDOCK:   -3.19 KCAL/MOL
REMARK 924 INTRA-LIGAND FREE ENERGY PREDICTED BY IDOCK:   -0.41 KCAL/MOL
REMARK 927      BINDING AFFINITY PREDICTED BY RF-SCORE:    0.00 PKD
ROOT
HETATM    1  N   UNL     1      -5.595   3.506  66.770  1.00  0.00    -0.021 NA 
HETATM    2  C   UNL     1      -6.716   3.512  67.535  1.00  0.00    -0.042 C  
HETATM    3  H2  UNL     1      -5.007   2.672  66.746  1.00  0.00     0.000 HD 
HETATM    4  H1  UNL     1      -5.333   4.323  66.219  1.00  0.00     0.000 HD 
HETATM    5  N   UNL     1      -7.050   2.470  68.237  1.00  0.00    -0.047 N  
HETATM    6  C   UNL     1      -8.201   2.507  69.041  1.00  0.00    -0.051 C  
HETATM    7  H   UNL     1      -6.477   1.628  68.204  1.00  0.00     0.000 HD 
HETATM    8  C   UNL     1      -8.928   3.786  69.041  1.00  0.00    -0.122 A  
HETATM    9  O   UNL     1      -8.578   1.538  69.692  1.00  0.00    -0.045 OA 
HETATM   10  C   UNL     1      -8.478   4.810  68.251  1.00  0.00    -0.098 A  
HETATM   11  N   UNL     1      -7.396   4.699  67.468  1.00  0.00    -0.073 NA 
HETATM   12  N   UNL     1      -9.322   5.861  68.431  1.00  0.00    -0.119 NA 
HETATM   13  N   UNL     1     -10.046   4.192  69.734  1.00  0.00    -0.018 NA 
HETATM   14  C   UNL     1     -10.257   5.439  69.346  1.00  0.00    -0.264 A  
ENDROOT
BRANCH  12  15
HETATM   15  C   UNL     1      -9.290   7.114  67.708  1.00  0.00    -0.127 C  
HETATM   16  C   UNL     1     -10.612   7.495  67.042  1.00  0.00    -0.409 C  
HETATM   17  C   UNL     1     -10.334   8.924  66.594  1.00  0.00    -0.223 C  
HETATM   18  O   UNL     1      -9.510   8.875  65.424  1.00  0.00    -0.430 OA 
HETATM   19  C   UNL     1      -9.535   9.564  67.756  1.00  0.00    -0.151 C  
HETATM   20  C   UNL     1      -8.927   8.362  68.483  1.00  0.00    -0.136 C  
HETATM   21  H   UNL     1      -9.336   9.766  65.144  1.00  0.00     0.000 HD 
HETATM   22  C   UNL     1      -8.206   8.434  69.614  1.00  0.00    -0.117 C  
BRANCH  19  23
HETATM   23  C   UNL     1     -10.434  10.438  68.637  1.00  0.00    -0.196 C  
HETATM   24  O   UNL     1     -11.539  10.959  67.910  1.00  0.00    -0.497 OA 
HETATM   25  H   UNL     1     -12.097  11.500  68.458  1.00  0.00     0.000 HD 
ENDBRANCH  19  23
ENDBRANCH  12  15
TORSDOF 2
ENDMDL
MODEL      218
REMARK 921   NORMALIZED FREE ENERGY PREDICTED BY IDOCK:   -2.90 KCAL/MOL
REMARK 922        TOTAL FREE ENERGY PREDICTED BY IDOCK:   -3.58 KCAL/MOL
REMARK 923 INTER-LIGAND FREE ENERGY PREDICTED BY IDOCK:   -3.44 KCAL/MOL
REMARK 924 INTRA-LIGAND FREE ENERGY PREDICTED BY IDOCK:   -0.13 KCAL/MOL
REMARK 927      BINDING AFFINITY PREDICTED BY RF-SCORE:    0.00 PKD
ROOT
HETATM    1  N   UNL     1      -7.721   8.939  72.579  1.00  0.00    -0.349 NA 
HETATM    2  C   UNL     1      -8.691   8.115  72.107  1.00  0.00    -0.175 C  
HETATM    3  H2  UNL     1      -7.475   8.912  73.568  1.00  0.00     0.000 HD 
HETATM    4  H1  UNL     1      -7.235   9.584  71.957  1.00  0.00     0.000 HD 
HETATM    5  N   UNL     1      -9.311   7.292  72.901  1.00  0.00    -0.146 N  
HETATM    6  C   UNL     1     -10.328   6.466  72.398  1.00  0.00    -0.190 C  
HETATM    7  H   UNL     1      -9.058   7.248  73.888  1.00  0.00     0.000 HD 
HETATM    8  C   UNL     1     -10.634   6.644  70.969  1.00  0.00    -0.226 A  
HETATM    9  O   UNL     1     -10.916   5.648  73.098  1.00  0.00    -0.259 OA 
HETATM   10  C   UNL     1      -9.903   7.540  70.236  1.00  0.00    -0.183 A  
HETATM   11  N   UNL     1      -8.911   8.269  70.765  1.00  0.00    -0.142 NA 
HETATM   12  N   UNL     1     -10.380   7.505  68.963  1.00  0.00    -0.209 NA 
HETATM   13  N   UNL     1     -11.583   6.053  70.167  1.00  0.00    -0.198 NA 
HETATM   14  C   UNL     1     -11.404   6.589  68.971  1.00  0.00    -0.220 A  
ENDROOT
BRANCH  12  15
HETATM   15  C   UNL     1      -9.827   8.210  67.827  1.00  0.00    -0.166 C  
HETATM   16  C   UNL     1      -9.783   9.730  67.984  1.00  0.00    -0.165 C  
HETATM   17  C   UNL     1      -8.952  10.144  66.777  1.00  0.00    -0.132 C  
HETATM   18  O   UNL     1      -9.784  10.072  65.613  1.00  0.00    -0.230 OA 
HETATM   19  C   UNL     1      -7.833   9.079  66.671  1.00  0.00    -0.100 C  
HETATM   20  C   UNL     1      -8.412   7.871  67.411  1.00  0.00    -0.122 C  
HETATM   21  H   UNL     1      -9.266  10.330  64.860  1.00  0.00     0.000 HD 
HETATM   22  C   UNL     1      -7.752   6.723  67.641  1.00  0.00    -0.111 C  
BRANCH  19  23
HETATM   23  C   UNL     1      -6.514   9.596  67.257  1.00  0.00    -0.069 C  
HETATM   24  O   UNL     1      -5.652  10.104  66.246  1.00  0.00    -0.050 OA 
HETATM   25  H   UNL     1      -4.834  10.425  66.609  1.00  0.00     0.000 HD 
ENDBRANCH  19  23
ENDBRANCH  12  15
TORSDOF 2
ENDMDL
MODEL      219
REMARK 921   NORMALIZED FREE ENERGY PREDICTED BY IDOCK:   -2.89 KCAL/MOL
REMARK 922        TOTAL FREE ENERGY PREDICTED BY IDOCK:   -3.56 KCAL/MOL
REMARK 923 INTER-LIGAND FREE ENERGY PREDICTED BY IDOCK:   -3.39 KCAL/MOL
REMARK 924 INTRA-LIGAND FREE ENERGY PREDICTED BY IDOCK:   -0.17 KCAL/MOL
REMARK 927      BINDING AFFINITY PREDICTED BY RF-SCORE:    0.00 PKD
ROOT
HETATM    1  N   UNL     1     -10.796   4.515  66.255  1.00  0.00    -0.412 NA 
HETATM    2  C   UNL     1     -10.509   5.625  66.982  1.00  0.00    -0.281 C  
HETATM    3  H2  UNL     1     -11.245   4.612  65.344  1.00  0.00     0.000 HD 
HETATM    4  H1  UNL     1     -10.568   3.585  66.607  1.00  0.00     0.000 HD 
HETATM    5  N   UNL     1     -10.800   6.809  66.533  1.00  0.00    -0.488 N  
HETATM    6  C   UNL     1     -10.517   7.943  67.311  1.00  0.00    -0.320 C  
HETATM    7  H   UNL     1     -11.233   6.915  65.616  1.00  0.00     0.000 HD 
HETATM    8  C   UNL     1      -9.928   7.667  68.632  1.00  0.00    -0.174 A  
HETATM    9  O   UNL     1     -10.738   9.083  66.916  1.00  0.00    -0.215 OA 
HETATM   10  C   UNL     1      -9.661   6.373  68.988  1.00  0.00    -0.134 A  
HETATM   11  N   UNL     1      -9.912   5.334  68.179  1.00  0.00    -0.154 NA 
HETATM   12  N   UNL     1      -9.123   6.399  70.236  1.00  0.00    -0.154 NA 
HETATM   13  N   UNL     1      -9.574   8.513  69.659  1.00  0.00    -0.169 NA 
HETATM   14  C   UNL     1      -9.094   7.722  70.604  1.00  0.00    -0.153 A  
ENDROOT
BRANCH  12  15
HETATM   15  C   UNL     1      -8.589   5.264  70.957  1.00  0.00    -0.123 C  
HETATM   16  C   UNL     1      -9.595   4.140  71.205  1.00  0.00    -0.242 C  
HETATM   17  C   UNL     1      -8.698   3.032  71.741  1.00  0.00    -0.074 C  
HETATM   18  O   UNL     1      -8.374   3.335  73.103  1.00  0.00    -0.076 OA 
HETATM   19  C   UNL     1      -7.412   3.102  70.882  1.00  0.00    -0.037 C  
HETATM   20  C   UNL     1      -7.410   4.536  70.349  1.00  0.00    -0.049 C  
HETATM   21  H   UNL     1      -7.814   2.644  73.437  1.00  0.00     0.000 HD 
HETATM   22  C   UNL     1      -6.508   5.033  69.485  1.00  0.00    -0.038 C  
BRANCH  19  23
HETATM   23  C   UNL     1      -7.411   2.028  69.788  1.00  0.00    -0.043 C  
HETATM   24  O   UNL     1      -8.344   2.327  68.757  1.00  0.00    -0.055 OA 
HETATM   25  H   UNL     1      -8.343   1.662  68.078  1.00  0.00     0.000 HD 
ENDBRANCH  19  23
ENDBRANCH  12  15
TORSDOF 2
ENDMDL
MODEL      220
REMARK 921   NORMALIZED FREE ENERGY PREDICTED BY IDOCK:   -2.88 KCAL/MOL
REMARK 922        TOTAL FREE ENERGY PREDICTED BY IDOCK:   -3.55 KCAL/MOL
REMARK 923 INTER-LIGAND FREE ENERGY PREDICTED BY IDOCK:   -3.51 KCAL/MOL
REMARK 924 INTRA-LIGAND FREE ENERGY PREDICTED BY IDOCK:   -0.05 KCAL/MOL
REMARK 927      BINDING AFFINITY PREDICTED BY RF-SCORE:    0.00 PKD
ROOT
HETATM    1  N   UNL     1      -6.512   5.207  66.366  1.00  0.00    -0.043 NA 
HETATM    2  C   UNL     1      -7.248   6.316  66.099  1.00  0.00    -0.075 C  
HETATM    3  H2  UNL     1      -5.792   4.910  65.707  1.00  0.00     0.000 HD 
HETATM    4  H1  UNL     1      -6.668   4.668  67.218  1.00  0.00     0.000 HD 
HETATM    5  N   UNL     1      -7.049   7.003  65.014  1.00  0.00    -0.061 N  
HETATM    6  C   UNL     1      -7.838   8.132  64.744  1.00  0.00    -0.137 C  
HETATM    7  H   UNL     1      -6.319   6.722  64.359  1.00  0.00     0.000 HD 
HETATM    8  C   UNL     1      -8.884   8.420  65.739  1.00  0.00    -0.165 A  
HETATM    9  O   UNL     1      -7.664   8.834  63.753  1.00  0.00    -0.119 OA 
HETATM   10  C   UNL     1      -8.990   7.623  66.847  1.00  0.00    -0.138 A  
HETATM   11  N   UNL     1      -8.174   6.584  67.071  1.00  0.00    -0.112 NA 
HETATM   12  N   UNL     1     -10.018   8.105  67.595  1.00  0.00    -0.172 NA 
HETATM   13  N   UNL     1      -9.855   9.396  65.774  1.00  0.00    -0.306 NA 
HETATM   14  C   UNL     1     -10.516   9.180  66.900  1.00  0.00    -0.217 A  
ENDROOT
BRANCH  12  15
HETATM   15  C   UNL     1     -10.411   7.636  68.906  1.00  0.00    -0.212 C  
HETATM   16  C   UNL     1     -10.793   6.157  68.962  1.00  0.00    -0.416 C  
HETATM   17  C   UNL     1     -10.909   5.921  70.462  1.00  0.00    -0.296 C  
HETATM   18  O   UNL     1     -12.149   6.481  70.910  1.00  0.00    -0.355 OA 
HETATM   19  C   UNL     1      -9.735   6.713  71.088  1.00  0.00    -0.184 C  
HETATM   20  C   UNL     1      -9.406   7.769  70.029  1.00  0.00    -0.157 C  
HETATM   21  H   UNL     1     -12.221   6.334  71.846  1.00  0.00     0.000 HD 
HETATM   22  C   UNL     1      -8.390   8.645  70.109  1.00  0.00    -0.126 C  
BRANCH  19  23
HETATM   23  C   UNL     1      -8.561   5.791  71.436  1.00  0.00    -0.129 C  
HETATM   24  O   UNL     1      -8.496   4.669  70.565  1.00  0.00    -0.087 OA 
HETATM   25  H   UNL     1      -7.767   4.098  70.781  1.00  0.00     0.000 HD 
ENDBRANCH  19  23
ENDBRANCH  12  15
TORSDOF 2
ENDMDL
MODEL      221
REMARK 921   NORMALIZED FREE ENERGY PREDICTED BY IDOCK:   -2.88 KCAL/MOL
REMARK 922        TOTAL FREE ENERGY PREDICTED BY IDOCK:   -3.55 KCAL/MOL
REMARK 923 INTER-LIGAND FREE ENERGY PREDICTED BY IDOCK:   -3.41 KCAL/MOL
REMARK 924 INTRA-LIGAND FREE ENERGY PREDICTED BY IDOCK:   -0.14 KCAL/MOL
REMARK 927      BINDING AFFINITY PREDICTED BY RF-SCORE:    0.00 PKD
ROOT
HETATM    1  N   UNL     1      -8.707   6.832  64.756  1.00  0.00    -0.336 NA 
HETATM    2  C   UNL     1      -8.786   6.021  65.841  1.00  0.00    -0.154 C  
HETATM    3  H2  UNL     1      -8.817   6.436  63.822  1.00  0.00     0.000 HD 
HETATM    4  H1  UNL     1      -8.540   7.833  64.861  1.00  0.00     0.000 HD 
HETATM    5  N   UNL     1      -8.999   4.746  65.706  1.00  0.00    -0.133 N  
HETATM    6  C   UNL     1      -9.052   3.920  66.841  1.00  0.00    -0.151 C  
HETATM    7  H   UNL     1      -9.127   4.345  64.777  1.00  0.00     0.000 HD 
HETATM    8  C   UNL     1      -8.814   4.600  68.125  1.00  0.00    -0.106 A  
HETATM    9  O   UNL     1      -9.287   2.719  66.768  1.00  0.00    -0.137 OA 
HETATM   10  C   UNL     1      -8.608   5.954  68.136  1.00  0.00    -0.113 A  
HETATM   11  N   UNL     1      -8.615   6.696  67.020  1.00  0.00    -0.113 NA 
HETATM   12  N   UNL     1      -8.423   6.324  69.431  1.00  0.00    -0.124 NA 
HETATM   13  N   UNL     1      -8.744   4.109  69.409  1.00  0.00    -0.080 NA 
HETATM   14  C   UNL     1      -8.509   5.167  70.168  1.00  0.00    -0.100 A  
ENDROOT
BRANCH  12  15
HETATM   15  C   UNL     1      -8.283   7.679  69.918  1.00  0.00    -0.130 C  
HETATM   16  C   UNL     1      -7.229   8.510  69.186  1.00  0.00    -0.068 C  
HETATM   17  C   UNL     1      -7.490   9.903  69.742  1.00  0.00    -0.140 C  
HETATM   18  O   UNL     1      -6.938   9.971  71.062  1.00  0.00    -0.339 OA 
HETATM   19  C   UNL     1      -9.031  10.024  69.825  1.00  0.00    -0.209 C  
HETATM   20  C   UNL     1      -9.505   8.569  69.877  1.00  0.00    -0.163 C  
HETATM   21  H   UNL     1      -7.101  10.840  71.409  1.00  0.00     0.000 HD 
HETATM   22  C   UNL     1     -10.792   8.181  69.880  1.00  0.00    -0.215 C  
BRANCH  19  23
HETATM   23  C   UNL     1      -9.595  10.822  68.645  1.00  0.00    -0.187 C  
HETATM   24  O   UNL     1      -9.872  12.170  69.005  1.00  0.00    -0.415 OA 
HETATM   25  H   UNL     1     -10.221  12.665  68.272  1.00  0.00     0.000 HD 
ENDBRANCH  19  23
ENDBRANCH  12  15
TORSDOF 2
ENDMDL
MODEL      222
REMARK 921   NORMALIZED FREE ENERGY PREDICTED BY IDOCK:   -2.86 KCAL/MOL
REMARK 922        TOTAL FREE ENERGY PREDICTED BY IDOCK:   -3.53 KCAL/MOL
REMARK 923 INTER-LIGAND FREE ENERGY PREDICTED BY IDOCK:   -3.86 KCAL/MOL
REMARK 924 INTRA-LIGAND FREE ENERGY PREDICTED BY IDOCK:    0.33 KCAL/MOL
REMARK 927      BINDING AFFINITY PREDICTED BY RF-SCORE:    0.00 PKD
ROOT
HETATM    1  N   UNL     1     -13.850   7.510  71.889  1.00  0.00    -0.520 NA 
HETATM    2  C   UNL     1     -12.577   7.486  71.418  1.00  0.00    -0.351 C  
HETATM    3  H2  UNL     1     -14.497   8.223  71.554  1.00  0.00     0.000 HD 
HETATM    4  H1  UNL     1     -14.167   6.824  72.574  1.00  0.00     0.000 HD 
HETATM    5  N   UNL     1     -12.173   8.361  70.544  1.00  0.00    -0.468 N  
HETATM    6  C   UNL     1     -10.845   8.334  70.088  1.00  0.00    -0.237 C  
HETATM    7  H   UNL     1     -12.820   9.065  70.192  1.00  0.00     0.000 HD 
HETATM    8  C   UNL     1      -9.993   7.299  70.696  1.00  0.00    -0.186 A  
HETATM    9  O   UNL     1     -10.428   9.113  69.238  1.00  0.00    -0.214 OA 
HETATM   10  C   UNL     1     -10.539   6.430  71.601  1.00  0.00    -0.222 A  
HETATM   11  N   UNL     1     -11.829   6.478  71.963  1.00  0.00    -0.322 NA 
HETATM   12  N   UNL     1      -9.551   5.585  71.997  1.00  0.00    -0.150 NA 
HETATM   13  N   UNL     1      -8.656   7.016  70.528  1.00  0.00    -0.140 NA 
HETATM   14  C   UNL     1      -8.423   5.983  71.321  1.00  0.00    -0.128 A  
ENDROOT
BRANCH  12  15
HETATM   15  C   UNL     1      -9.708   4.436  72.863  1.00  0.00    -0.138 C  
HETATM   16  C   UNL     1     -10.019   3.130  72.133  1.00  0.00    -0.232 C  
HETATM   17  C   UNL     1      -9.882   2.107  73.252  1.00  0.00    -0.094 C  
HETATM   18  O   UNL     1     -11.054   2.179  74.073  1.00  0.00    -0.166 OA 
HETATM   19  C   UNL     1      -8.654   2.568  74.074  1.00  0.00    -0.071 C  
HETATM   20  C   UNL     1      -8.541   4.060  73.749  1.00  0.00    -0.091 C  
HETATM   21  H   UNL     1     -10.969   1.541  74.771  1.00  0.00     0.000 HD 
HETATM   22  C   UNL     1      -7.560   4.868  74.186  1.00  0.00    -0.093 C  
BRANCH  19  23
HETATM   23  C   UNL     1      -7.405   1.755  73.717  1.00  0.00    -0.028 C  
HETATM   24  O   UNL     1      -6.245   2.256  74.371  1.00  0.00    -0.010 OA 
HETATM   25  H   UNL     1      -5.471   1.751  74.149  1.00  0.00     0.000 HD 
ENDBRANCH  19  23
ENDBRANCH  12  15
TORSDOF 2
ENDMDL
MODEL      223
REMARK 921   NORMALIZED FREE ENERGY PREDICTED BY IDOCK:   -2.86 KCAL/MOL
REMARK 922        TOTAL FREE ENERGY PREDICTED BY IDOCK:   -3.53 KCAL/MOL
REMARK 923 INTER-LIGAND FREE ENERGY PREDICTED BY IDOCK:   -3.35 KCAL/MOL
REMARK 924 INTRA-LIGAND FREE ENERGY PREDICTED BY IDOCK:   -0.18 KCAL/MOL
REMARK 927      BINDING AFFINITY PREDICTED BY RF-SCORE:    0.00 PKD
ROOT
HETATM    1  N   UNL     1     -11.353   9.431  68.436  1.00  0.00    -0.385 NA 
HETATM    2  C   UNL     1     -10.286   8.744  67.955  1.00  0.00    -0.219 C  
HETATM    3  H2  UNL     1     -11.896  10.022  67.806  1.00  0.00     0.000 HD 
HETATM    4  H1  UNL     1     -11.618   9.365  69.418  1.00  0.00     0.000 HD 
HETATM    5  N   UNL     1      -9.948   8.829  66.702  1.00  0.00    -0.263 N  
HETATM    6  C   UNL     1      -8.826   8.129  66.230  1.00  0.00    -0.164 C  
HETATM    7  H   UNL     1     -10.497   9.403  66.063  1.00  0.00     0.000 HD 
HETATM    8  C   UNL     1      -8.088   7.364  67.249  1.00  0.00    -0.112 A  
HETATM    9  O   UNL     1      -8.489   8.148  65.051  1.00  0.00    -0.157 OA 
HETATM   10  C   UNL     1      -8.550   7.348  68.537  1.00  0.00    -0.128 A  
HETATM   11  N   UNL     1      -9.656   8.001  68.917  1.00  0.00    -0.151 NA 
HETATM   12  N   UNL     1      -7.699   6.574  69.262  1.00  0.00    -0.100 NA 
HETATM   13  N   UNL     1      -6.936   6.615  67.159  1.00  0.00    -0.069 NA 
HETATM   14  C   UNL     1      -6.731   6.155  68.382  1.00  0.00    -0.064 A  
ENDROOT
BRANCH  12  15
HETATM   15  C   UNL     1      -7.866   6.190  70.647  1.00  0.00    -0.106 C  
HETATM   16  C   UNL     1      -8.054   7.362  71.611  1.00  0.00    -0.099 C  
HETATM   17  C   UNL     1      -8.440   6.647  72.899  1.00  0.00    -0.118 C  
HETATM   18  O   UNL     1      -7.254   6.084  73.473  1.00  0.00    -0.084 OA 
HETATM   19  C   UNL     1      -9.387   5.504  72.459  1.00  0.00    -0.153 C  
HETATM   20  C   UNL     1      -9.027   5.281  70.988  1.00  0.00    -0.159 C  
HETATM   21  H   UNL     1      -7.495   5.637  74.276  1.00  0.00     0.000 HD 
HETATM   22  C   UNL     1      -9.655   4.424  70.166  1.00  0.00    -0.263 C  
BRANCH  19  23
HETATM   23  C   UNL     1     -10.856   5.874  72.693  1.00  0.00    -0.251 C  
HETATM   24  O   UNL     1     -11.620   4.753  73.119  1.00  0.00    -0.305 OA 
HETATM   25  H   UNL     1     -12.531   4.983  73.265  1.00  0.00     0.000 HD 
ENDBRANCH  19  23
ENDBRANCH  12  15
TORSDOF 2
ENDMDL
MODEL      224
REMARK 921   NORMALIZED FREE ENERGY PREDICTED BY IDOCK:   -2.79 KCAL/MOL
REMARK 922        TOTAL FREE ENERGY PREDICTED BY IDOCK:   -3.45 KCAL/MOL
REMARK 923 INTER-LIGAND FREE ENERGY PREDICTED BY IDOCK:   -3.24 KCAL/MOL
REMARK 924 INTRA-LIGAND FREE ENERGY PREDICTED BY IDOCK:   -0.21 KCAL/MOL
REMARK 927      BINDING AFFINITY PREDICTED BY RF-SCORE:    0.00 PKD
ROOT
HETATM    1  N   UNL     1      -6.555   4.625  67.091  1.00  0.00    -0.049 NA 
HETATM    2  C   UNL     1      -7.640   5.109  67.749  1.00  0.00    -0.087 C  
HETATM    3  H2  UNL     1      -6.244   3.670  67.267  1.00  0.00     0.000 HD 
HETATM    4  H1  UNL     1      -6.047   5.205  66.424  1.00  0.00     0.000 HD 
HETATM    5  N   UNL     1      -8.287   4.369  68.600  1.00  0.00    -0.084 N  
HETATM    6  C   UNL     1      -9.392   4.896  69.288  1.00  0.00    -0.128 C  
HETATM    7  H   UNL     1      -7.993   3.407  68.767  1.00  0.00     0.000 HD 
HETATM    8  C   UNL     1      -9.700   6.306  68.996  1.00  0.00    -0.130 A  
HETATM    9  O   UNL     1     -10.057   4.227  70.072  1.00  0.00    -0.196 OA 
HETATM   10  C   UNL     1      -8.946   6.977  68.072  1.00  0.00    -0.126 A  
HETATM   11  N   UNL     1      -7.930   6.404  67.413  1.00  0.00    -0.114 NA 
HETATM   12  N   UNL     1      -9.439   8.242  67.990  1.00  0.00    -0.139 NA 
HETATM   13  N   UNL     1     -10.660   7.147  69.511  1.00  0.00    -0.229 NA 
HETATM   14  C   UNL     1     -10.478   8.299  68.887  1.00  0.00    -0.191 A  
ENDROOT
BRANCH  12  15
HETATM   15  C   UNL     1      -9.015   9.262  67.056  1.00  0.00    -0.126 C  
HETATM   16  C   UNL     1      -9.964   9.477  65.877  1.00  0.00    -0.342 C  
HETATM   17  C   UNL     1      -9.390  10.735  65.240  1.00  0.00    -0.210 C  
HETATM   18  O   UNL     1      -8.216  10.371  64.506  1.00  0.00    -0.165 OA 
HETATM   19  C   UNL     1      -8.990  11.644  66.427  1.00  0.00    -0.198 C  
HETATM   20  C   UNL     1      -8.815  10.663  67.590  1.00  0.00    -0.131 C  
HETATM   21  H   UNL     1      -7.857  11.155  64.108  1.00  0.00     0.000 HD 
HETATM   22  C   UNL     1      -8.538  11.017  68.856  1.00  0.00    -0.122 C  
BRANCH  19  23
HETATM   23  C   UNL     1     -10.040  12.731  66.679  1.00  0.00    -0.243 C  
HETATM   24  O   UNL     1      -9.440  13.987  66.966  1.00  0.00    -0.231 OA 
HETATM   25  H   UNL     1     -10.092  14.661  67.122  1.00  0.00     0.000 HD 
ENDBRANCH  19  23
ENDBRANCH  12  15
TORSDOF 2
ENDMDL
MODEL      225
REMARK 921   NORMALIZED FREE ENERGY PREDICTED BY IDOCK:   -2.78 KCAL/MOL
REMARK 922        TOTAL FREE ENERGY PREDICTED BY IDOCK:   -3.45 KCAL/MOL
REMARK 923 INTER-LIGAND FREE ENERGY PREDICTED BY IDOCK:   -3.16 KCAL/MOL
REMARK 924 INTRA-LIGAND FREE ENERGY PREDICTED BY IDOCK:   -0.29 KCAL/MOL
REMARK 927      BINDING AFFINITY PREDICTED BY RF-SCORE:    0.00 PKD
ROOT
HETATM    1  N   UNL     1      -6.254   9.169  65.566  1.00  0.00    -0.062 NA 
HETATM    2  C   UNL     1      -7.471   8.843  66.072  1.00  0.00    -0.090 C  
HETATM    3  H2  UNL     1      -5.959  10.146  65.556  1.00  0.00     0.000 HD 
HETATM    4  H1  UNL     1      -5.632   8.452  65.195  1.00  0.00     0.000 HD 
HETATM    5  N   UNL     1      -8.264   9.758  66.544  1.00  0.00    -0.119 N  
HETATM    6  C   UNL     1      -9.528   9.401  67.040  1.00  0.00    -0.155 C  
HETATM    7  H   UNL     1      -7.969  10.734  66.554  1.00  0.00     0.000 HD 
HETATM    8  C   UNL     1      -9.863   7.971  66.940  1.00  0.00    -0.248 A  
HETATM    9  O   UNL     1     -10.297  10.222  67.530  1.00  0.00    -0.200 OA 
HETATM   10  C   UNL     1      -8.936   7.103  66.428  1.00  0.00    -0.155 A  
HETATM   11  N   UNL     1      -7.725   7.499  66.012  1.00  0.00    -0.091 NA 
HETATM   12  N   UNL     1      -9.489   5.861  66.453  1.00  0.00    -0.156 NA 
HETATM   13  N   UNL     1     -11.008   7.285  67.274  1.00  0.00    -0.271 NA 
HETATM   14  C   UNL     1     -10.752   6.023  66.971  1.00  0.00    -0.337 A  
ENDROOT
BRANCH  12  15
HETATM   15  C   UNL     1      -8.822   4.624  66.109  1.00  0.00    -0.118 C  
HETATM   16  C   UNL     1      -9.348   3.394  66.848  1.00  0.00    -0.201 C  
HETATM   17  C   UNL     1      -8.643   2.263  66.112  1.00  0.00    -0.112 C  
HETATM   18  O   UNL     1      -7.283   2.216  66.558  1.00  0.00    -0.054 OA 
HETATM   19  C   UNL     1      -8.677   2.669  64.618  1.00  0.00    -0.106 C  
HETATM   20  C   UNL     1      -8.853   4.189  64.661  1.00  0.00    -0.136 C  
HETATM   21  H   UNL     1      -6.842   1.511  66.099  1.00  0.00     0.000 HD 
HETATM   22  C   UNL     1      -9.011   4.973  63.581  1.00  0.00     0.037 C  
BRANCH  19  23
HETATM   23  C   UNL     1      -9.789   1.932  63.864  1.00  0.00    -0.129 C  
HETATM   24  O   UNL     1     -11.064   2.512  64.107  1.00  0.00    -0.453 OA 
HETATM   25  H   UNL     1     -11.754   2.056  63.639  1.00  0.00     0.000 HD 
ENDBRANCH  19  23
ENDBRANCH  12  15
TORSDOF 2
ENDMDL
MODEL      226
REMARK 921   NORMALIZED FREE ENERGY PREDICTED BY IDOCK:   -2.77 KCAL/MOL
REMARK 922        TOTAL FREE ENERGY PREDICTED BY IDOCK:   -3.44 KCAL/MOL
REMARK 923 INTER-LIGAND FREE ENERGY PREDICTED BY IDOCK:   -3.41 KCAL/MOL
REMARK 924 INTRA-LIGAND FREE ENERGY PREDICTED BY IDOCK:   -0.03 KCAL/MOL
REMARK 927      BINDING AFFINITY PREDICTED BY RF-SCORE:    0.00 PKD
ROOT
HETATM    1  N   UNL     1      -9.041  11.986  64.473  1.00  0.00    -0.158 NA 
HETATM    2  C   UNL     1      -9.847  11.832  65.554  1.00  0.00    -0.234 C  
HETATM    3  H2  UNL     1      -9.218  12.747  63.817  1.00  0.00     0.000 HD 
HETATM    4  H1  UNL     1      -8.260  11.351  64.307  1.00  0.00     0.000 HD 
HETATM    5  N   UNL     1     -10.842  12.642  65.765  1.00  0.00    -0.269 N  
HETATM    6  C   UNL     1     -11.678  12.450  66.877  1.00  0.00    -0.362 C  
HETATM    7  H   UNL     1     -11.014  13.415  65.124  1.00  0.00     0.000 HD 
HETATM    8  C   UNL     1     -11.357  11.280  67.710  1.00  0.00    -0.285 A  
HETATM    9  O   UNL     1     -12.606  13.208  67.138  1.00  0.00    -0.125 OA 
HETATM   10  C   UNL     1     -10.276  10.505  67.387  1.00  0.00    -0.211 A  
HETATM   11  N   UNL     1      -9.486  10.767  66.336  1.00  0.00    -0.168 NA 
HETATM   12  N   UNL     1     -10.202   9.509  68.309  1.00  0.00    -0.185 NA 
HETATM   13  N   UNL     1     -11.979  10.767  68.826  1.00  0.00    -0.429 NA 
HETATM   14  C   UNL     1     -11.262   9.707  69.161  1.00  0.00    -0.019 A  
ENDROOT
BRANCH  12  15
HETATM   15  C   UNL     1      -9.147   8.525  68.417  1.00  0.00    -0.139 C  
HETATM   16  C   UNL     1      -9.169   7.713  69.712  1.00  0.00    -0.147 C  
HETATM   17  C   UNL     1      -8.130   6.638  69.423  1.00  0.00    -0.119 C  
HETATM   18  O   UNL     1      -6.829   7.222  69.557  1.00  0.00    -0.047 OA 
HETATM   19  C   UNL     1      -8.361   6.238  67.945  1.00  0.00    -0.118 C  
HETATM   20  C   UNL     1      -9.071   7.456  67.348  1.00  0.00    -0.129 C  
HETATM   21  H   UNL     1      -6.181   6.551  69.376  1.00  0.00     0.000 HD 
HETATM   22  C   UNL     1      -9.539   7.532  66.091  1.00  0.00    -0.056 C  
BRANCH  19  23
HETATM   23  C   UNL     1      -9.160   4.935  67.836  1.00  0.00    -0.113 C  
HETATM   24  O   UNL     1      -8.933   4.083  68.952  1.00  0.00    -0.098 OA 
HETATM   25  H   UNL     1      -9.429   3.275  68.885  1.00  0.00     0.000 HD 
ENDBRANCH  19  23
ENDBRANCH  12  15
TORSDOF 2
ENDMDL
MODEL      227
REMARK 921   NORMALIZED FREE ENERGY PREDICTED BY IDOCK:   -2.77 KCAL/MOL
REMARK 922        TOTAL FREE ENERGY PREDICTED BY IDOCK:   -3.43 KCAL/MOL
REMARK 923 INTER-LIGAND FREE ENERGY PREDICTED BY IDOCK:   -6.77 KCAL/MOL
REMARK 924 INTRA-LIGAND FREE ENERGY PREDICTED BY IDOCK:    3.33 KCAL/MOL
REMARK 927      BINDING AFFINITY PREDICTED BY RF-SCORE:    0.00 PKD
ROOT
HETATM    1  N   UNL     1      -9.706  10.919  62.334  1.00  0.00    -0.581 NA 
HETATM    2  C   UNL     1     -10.373  11.574  63.318  1.00  0.00    -0.384 C  
HETATM    3  H2  UNL     1      -9.781  11.247  61.371  1.00  0.00     0.000 HD 
HETATM    4  H1  UNL     1      -9.131  10.103  62.545  1.00  0.00     0.000 HD 
HETATM    5  N   UNL     1     -11.105  12.614  63.050  1.00  0.00    -0.605 N  
HETATM    6  C   UNL     1     -11.806  13.262  64.079  1.00  0.00    -0.455 C  
HETATM    7  H   UNL     1     -11.171  12.958  62.092  1.00  0.00     0.000 HD 
HETATM    8  C   UNL     1     -11.669  12.654  65.413  1.00  0.00    -0.387 A  
HETATM    9  O   UNL     1     -12.480  14.268  63.882  1.00  0.00    -0.773 OA 
HETATM   10  C   UNL     1     -10.859  11.561  65.569  1.00  0.00    -0.254 A  
HETATM   11  N   UNL     1     -10.178  11.014  64.553  1.00  0.00    -0.319 NA 
HETATM   12  N   UNL     1     -10.906  11.208  66.881  1.00  0.00    -0.275 NA 
HETATM   13  N   UNL     1     -12.240  12.985  66.620  1.00  0.00    -0.407 NA 
HETATM   14  C   UNL     1     -11.762  12.100  67.480  1.00  0.00    -0.315 A  
ENDROOT
BRANCH  12  15
HETATM   15  C   UNL     1     -10.114  10.175  67.514  1.00  0.00    -0.201 C  
HETATM   16  C   UNL     1     -10.903   9.254  68.445  1.00  0.00    -0.125 C  
HETATM   17  C   UNL     1      -9.881   8.166  68.745  1.00  0.00    -0.176 C  
HETATM   18  O   UNL     1      -8.942   8.681  69.697  1.00  0.00    -0.141 OA 
HETATM   19  C   UNL     1      -9.157   7.908  67.401  1.00  0.00    -0.146 C  
HETATM   20  C   UNL     1      -9.382   9.203  66.615  1.00  0.00    -0.228 C  
HETATM   21  H   UNL     1      -8.304   8.003  69.884  1.00  0.00     0.000 HD 
HETATM   22  C   UNL     1      -8.990   9.408  65.347  1.00  0.00    -0.251 C  
BRANCH  19  23
HETATM   23  C   UNL     1      -9.697   6.654  66.706  1.00  0.00    -0.169 C  
HETATM   24  O   UNL     1     -11.118   6.653  66.652  1.00  0.00    -0.574 OA 
HETATM   25  H   UNL     1     -11.453   5.875  66.220  1.00  0.00     0.000 HD 
ENDBRANCH  19  23
ENDBRANCH  12  15
TORSDOF 2
ENDMDL
MODEL      228
REMARK 921   NORMALIZED FREE ENERGY PREDICTED BY IDOCK:   -2.76 KCAL/MOL
REMARK 922        TOTAL FREE ENERGY PREDICTED BY IDOCK:   -3.42 KCAL/MOL
REMARK 923 INTER-LIGAND FREE ENERGY PREDICTED BY IDOCK:   -3.33 KCAL/MOL
REMARK 924 INTRA-LIGAND FREE ENERGY PREDICTED BY IDOCK:   -0.09 KCAL/MOL
REMARK 927      BINDING AFFINITY PREDICTED BY RF-SCORE:    0.00 PKD
ROOT
HETATM    1  N   UNL     1      -5.214   7.226  72.182  1.00  0.00    -0.036 NA 
HETATM    2  C   UNL     1      -5.926   8.035  71.356  1.00  0.00    -0.035 C  
HETATM    3  H2  UNL     1      -4.196   7.285  72.190  1.00  0.00     0.000 HD 
HETATM    4  H1  UNL     1      -5.684   6.559  72.794  1.00  0.00     0.000 HD 
HETATM    5  N   UNL     1      -5.327   8.884  70.576  1.00  0.00    -0.024 N  
HETATM    6  C   UNL     1      -6.081   9.694  69.712  1.00  0.00    -0.044 C  
HETATM    7  H   UNL     1      -4.310   8.962  70.591  1.00  0.00     0.000 HD 
HETATM    8  C   UNL     1      -7.535   9.468  69.747  1.00  0.00    -0.098 A  
HETATM    9  O   UNL     1      -5.564  10.536  68.984  1.00  0.00    -0.041 OA 
HETATM   10  C   UNL     1      -8.047   8.547  70.620  1.00  0.00    -0.117 A  
HETATM   11  N   UNL     1      -7.277   7.835  71.455  1.00  0.00    -0.062 NA 
HETATM   12  N   UNL     1      -9.396   8.539  70.455  1.00  0.00    -0.160 NA 
HETATM   13  N   UNL     1      -8.556  10.033  69.017  1.00  0.00    -0.142 NA 
HETATM   14  C   UNL     1      -9.658   9.456  69.466  1.00  0.00    -0.180 A  
ENDROOT
BRANCH  12  15
HETATM   15  C   UNL     1     -10.348   7.796  71.252  1.00  0.00    -0.198 C  
HETATM   16  C   UNL     1     -11.075   8.627  72.309  1.00  0.00    -0.395 C  
HETATM   17  C   UNL     1     -12.144   7.654  72.789  1.00  0.00     0.001 C  
HETATM   18  O   UNL     1     -11.524   6.697  73.656  1.00  0.00    -0.223 OA 
HETATM   19  C   UNL     1     -12.643   6.938  71.510  1.00  0.00    -0.412 C  
HETATM   20  C   UNL     1     -11.482   7.104  70.527  1.00  0.00    -0.334 C  
HETATM   21  H   UNL     1     -12.191   6.090  73.955  1.00  0.00     0.000 HD 
HETATM   22  C   UNL     1     -11.498   6.699  69.245  1.00  0.00    -0.253 C  
BRANCH  19  23
HETATM   23  C   UNL     1     -13.968   7.531  71.018  1.00  0.00    -0.003 C  
HETATM   24  O   UNL     1     -13.887   8.942  70.862  1.00  0.00    -0.571 OA 
HETATM   25  H   UNL     1     -14.709   9.310  70.556  1.00  0.00     0.000 HD 
ENDBRANCH  19  23
ENDBRANCH  12  15
TORSDOF 2
ENDMDL
MODEL      229
REMARK 921   NORMALIZED FREE ENERGY PREDICTED BY IDOCK:   -2.75 KCAL/MOL
REMARK 922        TOTAL FREE ENERGY PREDICTED BY IDOCK:   -3.41 KCAL/MOL
REMARK 923 INTER-LIGAND FREE ENERGY PREDICTED BY IDOCK:   -3.95 KCAL/MOL
REMARK 924 INTRA-LIGAND FREE ENERGY PREDICTED BY IDOCK:    0.54 KCAL/MOL
REMARK 927      BINDING AFFINITY PREDICTED BY RF-SCORE:    0.00 PKD
ROOT
HETATM    1  N   UNL     1      -9.645   7.186  74.329  1.00  0.00    -0.417 NA 
HETATM    2  C   UNL     1      -9.672   6.333  73.273  1.00  0.00    -0.162 C  
HETATM    3  H2  UNL     1      -9.454   6.823  75.263  1.00  0.00     0.000 HD 
HETATM    4  H1  UNL     1      -9.813   8.183  74.201  1.00  0.00     0.000 HD 
HETATM    5  N   UNL     1      -9.458   5.061  73.437  1.00  0.00    -0.136 N  
HETATM    6  C   UNL     1      -9.515   4.193  72.335  1.00  0.00    -0.129 C  
HETATM    7  H   UNL     1      -9.249   4.695  74.365  1.00  0.00     0.000 HD 
HETATM    8  C   UNL     1      -9.862   4.827  71.053  1.00  0.00    -0.197 A  
HETATM    9  O   UNL     1      -9.284   2.993  72.433  1.00  0.00    -0.092 OA 
HETATM   10  C   UNL     1     -10.058   6.181  71.008  1.00  0.00    -0.188 A  
HETATM   11  N   UNL     1      -9.944   6.965  72.089  1.00  0.00    -0.163 NA 
HETATM   12  N   UNL     1     -10.357   6.505  69.722  1.00  0.00    -0.186 NA 
HETATM   13  N   UNL     1     -10.053   4.289  69.800  1.00  0.00    -0.088 NA 
HETATM   14  C   UNL     1     -10.347   5.320  69.025  1.00  0.00    -0.176 A  
ENDROOT
BRANCH  12  15
HETATM   15  C   UNL     1     -10.530   7.842  69.197  1.00  0.00    -0.211 C  
HETATM   16  C   UNL     1     -10.572   8.939  70.261  1.00  0.00    -0.246 C  
HETATM   17  C   UNL     1     -10.512  10.200  69.410  1.00  0.00    -0.233 C  
HETATM   18  O   UNL     1     -11.804  10.413  68.829  1.00  0.00    -0.590 OA 
HETATM   19  C   UNL     1      -9.493   9.883  68.288  1.00  0.00    -0.147 C  
HETATM   20  C   UNL     1      -9.491   8.354  68.224  1.00  0.00    -0.147 C  
HETATM   21  H   UNL     1     -11.766  11.200  68.298  1.00  0.00     0.000 HD 
HETATM   22  C   UNL     1      -8.689   7.620  67.433  1.00  0.00    -0.124 C  
BRANCH  19  23
HETATM   23  C   UNL     1      -8.121  10.498  68.587  1.00  0.00    -0.127 C  
HETATM   24  O   UNL     1      -8.178  11.404  69.681  1.00  0.00    -0.187 OA 
HETATM   25  H   UNL     1      -7.327  11.785  69.867  1.00  0.00     0.000 HD 
ENDBRANCH  19  23
ENDBRANCH  12  15
TORSDOF 2
ENDMDL
MODEL      230
REMARK 921   NORMALIZED FREE ENERGY PREDICTED BY IDOCK:   -2.72 KCAL/MOL
REMARK 922        TOTAL FREE ENERGY PREDICTED BY IDOCK:   -3.37 KCAL/MOL
REMARK 923 INTER-LIGAND FREE ENERGY PREDICTED BY IDOCK:   -4.31 KCAL/MOL
REMARK 924 INTRA-LIGAND FREE ENERGY PREDICTED BY IDOCK:    0.93 KCAL/MOL
REMARK 927      BINDING AFFINITY PREDICTED BY RF-SCORE:    0.00 PKD
ROOT
HETATM    1  N   UNL     1      -8.669   6.566  68.321  1.00  0.00    -0.118 NA 
HETATM    2  C   UNL     1      -9.141   7.798  68.004  1.00  0.00    -0.128 C  
HETATM    3  H2  UNL     1      -8.028   6.093  67.684  1.00  0.00     0.000 HD 
HETATM    4  H1  UNL     1      -8.948   6.106  69.188  1.00  0.00     0.000 HD 
HETATM    5  N   UNL     1      -8.785   8.384  66.899  1.00  0.00    -0.127 N  
HETATM    6  C   UNL     1      -9.304   9.649  66.579  1.00  0.00    -0.165 C  
HETATM    7  H   UNL     1      -8.131   7.925  66.266  1.00  0.00     0.000 HD 
HETATM    8  C   UNL     1     -10.269  10.196  67.546  1.00  0.00    -0.211 A  
HETATM    9  O   UNL     1      -8.971  10.258  65.567  1.00  0.00    -0.157 OA 
HETATM   10  C   UNL     1     -10.556   9.484  68.679  1.00  0.00    -0.210 A  
HETATM   11  N   UNL     1      -9.992   8.300  68.952  1.00  0.00    -0.181 NA 
HETATM   12  N   UNL     1     -11.459  10.208  69.394  1.00  0.00    -0.186 NA 
HETATM   13  N   UNL     1     -11.000  11.363  67.533  1.00  0.00    -0.242 NA 
HETATM   14  C   UNL     1     -11.701  11.340  68.655  1.00  0.00    -0.324 A  
ENDROOT
BRANCH  12  15
HETATM   15  C   UNL     1     -11.955   9.886  70.714  1.00  0.00    -0.323 C  
HETATM   16  C   UNL     1     -13.165   8.951  70.725  1.00  0.00     0.300 C  
HETATM   17  C   UNL     1     -13.286   8.616  72.206  1.00  0.00    -0.375 C  
HETATM   18  O   UNL     1     -13.876   9.738  72.873  1.00  0.00    -0.582 OA 
HETATM   19  C   UNL     1     -11.830   8.435  72.701  1.00  0.00    -0.360 C  
HETATM   20  C   UNL     1     -11.001   9.218  71.680  1.00  0.00    -0.433 C  
HETATM   21  H   UNL     1     -13.951   9.530  73.797  1.00  0.00     0.000 HD 
HETATM   22  C   UNL     1      -9.659   9.278  71.665  1.00  0.00    -0.061 C  
BRANCH  19  23
HETATM   23  C   UNL     1     -11.456   6.952  72.804  1.00  0.00    -0.145 C  
HETATM   24  O   UNL     1     -12.115   6.172  71.815  1.00  0.00    -0.277 OA 
HETATM   25  H   UNL     1     -11.882   5.252  71.879  1.00  0.00     0.000 HD 
ENDBRANCH  19  23
ENDBRANCH  12  15
TORSDOF 2
ENDMDL
MODEL      231
REMARK 921   NORMALIZED FREE ENERGY PREDICTED BY IDOCK:   -2.70 KCAL/MOL
REMARK 922        TOTAL FREE ENERGY PREDICTED BY IDOCK:   -3.35 KCAL/MOL
REMARK 923 INTER-LIGAND FREE ENERGY PREDICTED BY IDOCK:   -3.00 KCAL/MOL
REMARK 924 INTRA-LIGAND FREE ENERGY PREDICTED BY IDOCK:   -0.36 KCAL/MOL
REMARK 927      BINDING AFFINITY PREDICTED BY RF-SCORE:    0.00 PKD
ROOT
HETATM    1  N   UNL     1     -11.379  12.818  64.277  1.00  0.00    -0.343 NA 
HETATM    2  C   UNL     1     -10.831  12.575  65.495  1.00  0.00    -0.278 C  
HETATM    3  H2  UNL     1     -12.101  13.533  64.183  1.00  0.00     0.000 HD 
HETATM    4  H1  UNL     1     -11.078  12.296  63.454  1.00  0.00     0.000 HD 
HETATM    5  N   UNL     1     -11.215  13.241  66.543  1.00  0.00    -0.298 N  
HETATM    6  C   UNL     1     -10.653  12.956  67.798  1.00  0.00    -0.222 C  
HETATM    7  H   UNL     1     -11.923  13.969  66.454  1.00  0.00     0.000 HD 
HETATM    8  C   UNL     1      -9.670  11.860  67.813  1.00  0.00    -0.189 A  
HETATM    9  O   UNL     1     -10.954  13.581  68.809  1.00  0.00    -0.248 OA 
HETATM   10  C   UNL     1      -9.344  11.239  66.638  1.00  0.00    -0.180 A  
HETATM   11  N   UNL     1      -9.882  11.588  65.461  1.00  0.00    -0.227 NA 
HETATM   12  N   UNL     1      -8.423  10.282  66.928  1.00  0.00    -0.126 NA 
HETATM   13  N   UNL     1      -8.969  11.288  68.850  1.00  0.00    -0.102 NA 
HETATM   14  C   UNL     1      -8.230  10.347  68.287  1.00  0.00    -0.114 A  
ENDROOT
BRANCH  12  15
HETATM   15  C   UNL     1      -7.718   9.459  65.969  1.00  0.00    -0.099 C  
HETATM   16  C   UNL     1      -6.195   9.546  66.057  1.00  0.00    -0.064 C  
HETATM   17  C   UNL     1      -5.764   8.421  65.126  1.00  0.00    -0.044 C  
HETATM   18  O   UNL     1      -5.927   8.868  63.776  1.00  0.00    -0.071 OA 
HETATM   19  C   UNL     1      -6.754   7.264  65.404  1.00  0.00    -0.048 C  
HETATM   20  C   UNL     1      -7.975   7.968  66.001  1.00  0.00    -0.101 C  
HETATM   21  H   UNL     1      -5.658   8.167  63.195  1.00  0.00     0.000 HD 
HETATM   22  C   UNL     1      -9.069   7.343  66.469  1.00  0.00    -0.195 C  
BRANCH  19  23
HETATM   23  C   UNL     1      -6.133   6.205  66.323  1.00  0.00    -0.029 C  
HETATM   24  O   UNL     1      -5.716   5.057  65.596  1.00  0.00    -0.017 OA 
HETATM   25  H   UNL     1      -5.331   4.400  66.165  1.00  0.00     0.000 HD 
ENDBRANCH  19  23
ENDBRANCH  12  15
TORSDOF 2
ENDMDL
MODEL      232
REMARK 921   NORMALIZED FREE ENERGY PREDICTED BY IDOCK:   -2.70 KCAL/MOL
REMARK 922        TOTAL FREE ENERGY PREDICTED BY IDOCK:   -3.35 KCAL/MOL
REMARK 923 INTER-LIGAND FREE ENERGY PREDICTED BY IDOCK:   -4.17 KCAL/MOL
REMARK 924 INTRA-LIGAND FREE ENERGY PREDICTED BY IDOCK:    0.82 KCAL/MOL
REMARK 927      BINDING AFFINITY PREDICTED BY RF-SCORE:    0.00 PKD
ROOT
HETATM    1  N   UNL     1     -11.164  13.209  65.997  1.00  0.00    -0.288 NA 
HETATM    2  C   UNL     1     -11.271  13.990  67.102  1.00  0.00    -0.313 C  
HETATM    3  H2  UNL     1     -11.870  12.495  65.816  1.00  0.00     0.000 HD 
HETATM    4  H1  UNL     1     -10.389  13.327  65.346  1.00  0.00     0.000 HD 
HETATM    5  N   UNL     1     -12.259  13.840  67.932  1.00  0.00    -0.438 N  
HETATM    6  C   UNL     1     -12.337  14.642  69.082  1.00  0.00    -0.095 C  
HETATM    7  H   UNL     1     -12.978  13.140  67.749  1.00  0.00     0.000 HD 
HETATM    8  C   UNL     1     -11.225  15.589  69.264  1.00  0.00    -0.310 A  
HETATM    9  O   UNL     1     -13.269  14.563  69.876  1.00  0.00     0.174 OA 
HETATM   10  C   UNL     1     -10.244  15.658  68.312  1.00  0.00    -0.223 A  
HETATM   11  N   UNL     1     -10.250  14.896  67.210  1.00  0.00    -0.240 NA 
HETATM   12  N   UNL     1      -9.355  16.604  68.716  1.00  0.00    -0.249 NA 
HETATM   13  N   UNL     1     -10.951  16.478  70.279  1.00  0.00    -0.277 NA 
HETATM   14  C   UNL     1      -9.825  17.071  69.920  1.00  0.00     0.590 A  
ENDROOT
BRANCH  12  15
HETATM   15  C   UNL     1      -8.219  17.085  67.959  1.00  0.00    -0.206 C  
HETATM   16  C   UNL     1      -8.245  16.716  66.476  1.00  0.00    -0.330 C  
HETATM   17  C   UNL     1      -7.091  17.547  65.929  1.00  0.00    -0.177 C  
HETATM   18  O   UNL     1      -5.864  16.903  66.289  1.00  0.00    -0.308 OA 
HETATM   19  C   UNL     1      -7.189  18.907  66.661  1.00  0.00    -0.231 C  
HETATM   20  C   UNL     1      -7.973  18.577  67.934  1.00  0.00    -0.270 C  
HETATM   21  H   UNL     1      -5.144  17.421  65.948  1.00  0.00     0.000 HD 
HETATM   22  C   UNL     1      -8.365  19.480  68.849  1.00  0.00    -0.300 C  
BRANCH  19  23
HETATM   23  C   UNL     1      -7.851  19.971  65.779  1.00  0.00    -0.198 C  
HETATM   24  O   UNL     1      -6.899  20.651  64.970  1.00  0.00    -0.475 OA 
HETATM   25  H   UNL     1      -7.309  21.311  64.423  1.00  0.00     0.000 HD 
ENDBRANCH  19  23
ENDBRANCH  12  15
TORSDOF 2
ENDMDL
MODEL      233
REMARK 921   NORMALIZED FREE ENERGY PREDICTED BY IDOCK:   -2.66 KCAL/MOL
REMARK 922        TOTAL FREE ENERGY PREDICTED BY IDOCK:   -3.31 KCAL/MOL
REMARK 923 INTER-LIGAND FREE ENERGY PREDICTED BY IDOCK:   -3.06 KCAL/MOL
REMARK 924 INTRA-LIGAND FREE ENERGY PREDICTED BY IDOCK:   -0.25 KCAL/MOL
REMARK 927      BINDING AFFINITY PREDICTED BY RF-SCORE:    0.00 PKD
ROOT
HETATM    1  N   UNL     1      -6.537   5.196  66.159  1.00  0.00    -0.051 NA 
HETATM    2  C   UNL     1      -7.128   5.473  67.349  1.00  0.00    -0.074 C  
HETATM    3  H2  UNL     1      -6.030   4.319  66.040  1.00  0.00     0.000 HD 
HETATM    4  H1  UNL     1      -6.592   5.854  65.381  1.00  0.00     0.000 HD 
HETATM    5  N   UNL     1      -7.057   4.634  68.339  1.00  0.00    -0.056 N  
HETATM    6  C   UNL     1      -7.654   4.951  69.570  1.00  0.00    -0.056 C  
HETATM    7  H   UNL     1      -6.567   3.747  68.223  1.00  0.00     0.000 HD 
HETATM    8  C   UNL     1      -8.298   6.273  69.634  1.00  0.00    -0.125 A  
HETATM    9  O   UNL     1      -7.647   4.177  70.522  1.00  0.00    -0.044 OA 
HETATM   10  C   UNL     1      -8.313   7.064  68.517  1.00  0.00    -0.121 A  
HETATM   11  N   UNL     1      -7.764   6.686  67.355  1.00  0.00    -0.107 NA 
HETATM   12  N   UNL     1      -8.966   8.211  68.843  1.00  0.00    -0.141 NA 
HETATM   13  N   UNL     1      -8.927   6.923  70.672  1.00  0.00    -0.151 NA 
HETATM   14  C   UNL     1      -9.316   8.081  70.165  1.00  0.00    -0.156 A  
ENDROOT
BRANCH  12  15
HETATM   15  C   UNL     1      -9.311   9.283  67.934  1.00  0.00    -0.129 C  
HETATM   16  C   UNL     1     -10.812   9.470  67.716  1.00  0.00    -0.258 C  
HETATM   17  C   UNL     1     -10.854  10.779  66.940  1.00  0.00    -0.229 C  
HETATM   18  O   UNL     1     -10.472  10.511  65.586  1.00  0.00    -0.227 OA 
HETATM   19  C   UNL     1      -9.783  11.678  67.605  1.00  0.00    -0.186 C  
HETATM   20  C   UNL     1      -8.842  10.678  68.283  1.00  0.00    -0.139 C  
HETATM   21  H   UNL     1     -10.497  11.328  65.102  1.00  0.00     0.000 HD 
HETATM   22  C   UNL     1      -7.794  11.013  69.054  1.00  0.00    -0.126 C  
BRANCH  19  23
HETATM   23  C   UNL     1     -10.418  12.688  68.566  1.00  0.00    -0.234 C  
HETATM   24  O   UNL     1     -11.013  12.047  69.687  1.00  0.00    -0.453 OA 
HETATM   25  H   UNL     1     -11.407  12.674  70.283  1.00  0.00     0.000 HD 
ENDBRANCH  19  23
ENDBRANCH  12  15
TORSDOF 2
ENDMDL
MODEL      234
REMARK 921   NORMALIZED FREE ENERGY PREDICTED BY IDOCK:   -2.64 KCAL/MOL
REMARK 922        TOTAL FREE ENERGY PREDICTED BY IDOCK:   -3.28 KCAL/MOL
REMARK 923 INTER-LIGAND FREE ENERGY PREDICTED BY IDOCK:   -3.80 KCAL/MOL
REMARK 924 INTRA-LIGAND FREE ENERGY PREDICTED BY IDOCK:    0.51 KCAL/MOL
REMARK 927      BINDING AFFINITY PREDICTED BY RF-SCORE:    0.00 PKD
ROOT
HETATM    1  N   UNL     1      -7.073  14.065  66.382  1.00  0.00     1.169 NA 
HETATM    2  C   UNL     1      -8.253  14.636  66.734  1.00  0.00     0.038 C  
HETATM    3  H2  UNL     1      -7.066  13.124  65.988  1.00  0.00     0.000 HD 
HETATM    4  H1  UNL     1      -6.193  14.565  66.508  1.00  0.00     0.000 HD 
HETATM    5  N   UNL     1      -9.375  13.998  66.575  1.00  0.00    -0.375 N  
HETATM    6  C   UNL     1     -10.583  14.597  66.968  1.00  0.00    -0.280 C  
HETATM    7  H   UNL     1      -9.378  13.065  66.165  1.00  0.00     0.000 HD 
HETATM    8  C   UNL     1     -10.454  15.928  67.582  1.00  0.00    -0.289 A  
HETATM    9  O   UNL     1     -11.670  14.052  66.804  1.00  0.00    -0.364 OA 
HETATM   10  C   UNL     1      -9.214  16.498  67.688  1.00  0.00    -0.200 A  
HETATM   11  N   UNL     1      -8.100  15.894  67.251  1.00  0.00    -0.168 NA 
HETATM   12  N   UNL     1      -9.376  17.712  68.279  1.00  0.00    -0.281 NA 
HETATM   13  N   UNL     1     -11.400  16.772  68.119  1.00  0.00    -0.156 NA 
HETATM   14  C   UNL     1     -10.722  17.832  68.527  1.00  0.00    -0.141 A  
ENDROOT
BRANCH  12  15
HETATM   15  C   UNL     1      -8.343  18.704  68.485  1.00  0.00    -0.340 C  
HETATM   16  C   UNL     1      -6.917  18.179  68.315  1.00  0.00    -0.233 C  
HETATM   17  C   UNL     1      -6.105  19.466  68.346  1.00  0.00    -0.228 C  
HETATM   18  O   UNL     1      -6.012  19.906  69.706  1.00  0.00    -0.275 OA 
HETATM   19  C   UNL     1      -6.937  20.489  67.534  1.00  0.00    -0.370 C  
HETATM   20  C   UNL     1      -8.360  19.930  67.598  1.00  0.00    -0.362 C  
HETATM   21  H   UNL     1      -5.505  20.709  69.726  1.00  0.00     0.000 HD 
HETATM   22  C   UNL     1      -9.420  20.456  66.962  1.00  0.00    -0.544 C  
BRANCH  19  23
HETATM   23  C   UNL     1      -6.392  20.649  66.111  1.00  0.00    -0.242 C  
HETATM   24  O   UNL     1      -5.404  19.671  65.812  1.00  0.00    -0.155 OA 
HETATM   25  H   UNL     1      -5.067  19.770  64.929  1.00  0.00     0.000 HD 
ENDBRANCH  19  23
ENDBRANCH  12  15
TORSDOF 2
ENDMDL
MODEL      235
REMARK 921   NORMALIZED FREE ENERGY PREDICTED BY IDOCK:   -2.58 KCAL/MOL
REMARK 922        TOTAL FREE ENERGY PREDICTED BY IDOCK:   -3.22 KCAL/MOL
REMARK 923 INTER-LIGAND FREE ENERGY PREDICTED BY IDOCK:   -3.44 KCAL/MOL
REMARK 924 INTRA-LIGAND FREE ENERGY PREDICTED BY IDOCK:    0.22 KCAL/MOL
REMARK 927      BINDING AFFINITY PREDICTED BY RF-SCORE:    0.00 PKD
ROOT
HETATM    1  N   UNL     1     -11.183   5.687  67.275  1.00  0.00    -0.196 NA 
HETATM    2  C   UNL     1     -10.967   6.455  68.373  1.00  0.00    -0.309 C  
HETATM    3  H2  UNL     1     -11.540   4.738  67.387  1.00  0.00     0.000 HD 
HETATM    4  H1  UNL     1     -10.994   6.047  66.340  1.00  0.00     0.000 HD 
HETATM    5  N   UNL     1     -11.208   5.996  69.566  1.00  0.00    -0.403 N  
HETATM    6  C   UNL     1     -10.954   6.798  70.690  1.00  0.00    -0.267 C  
HETATM    7  H   UNL     1     -11.582   5.054  69.684  1.00  0.00     0.000 HD 
HETATM    8  C   UNL     1     -10.380   8.122  70.401  1.00  0.00    -0.206 A  
HETATM    9  O   UNL     1     -11.200   6.424  71.832  1.00  0.00    -0.253 OA 
HETATM   10  C   UNL     1     -10.178   8.493  69.099  1.00  0.00    -0.211 A  
HETATM   11  N   UNL     1     -10.485   7.698  68.064  1.00  0.00    -0.204 NA 
HETATM   12  N   UNL     1      -9.651   9.746  69.112  1.00  0.00    -0.178 NA 
HETATM   13  N   UNL     1      -9.967   9.131  71.241  1.00  0.00    -0.302 NA 
HETATM   14  C   UNL     1      -9.537  10.090  70.438  1.00  0.00     0.081 A  
ENDROOT
BRANCH  12  15
HETATM   15  C   UNL     1      -9.385  10.571  67.954  1.00  0.00    -0.143 C  
HETATM   16  C   UNL     1      -9.170  12.052  68.267  1.00  0.00    -0.192 C  
HETATM   17  C   UNL     1      -8.683  12.586  66.926  1.00  0.00    -0.182 C  
HETATM   18  O   UNL     1      -9.813  12.712  66.056  1.00  0.00    -0.256 OA 
HETATM   19  C   UNL     1      -7.734  11.494  66.376  1.00  0.00     0.003 C  
HETATM   20  C   UNL     1      -8.180  10.225  67.107  1.00  0.00    -0.121 C  
HETATM   21  H   UNL     1      -9.510  13.045  65.220  1.00  0.00     0.000 HD 
HETATM   22  C   UNL     1      -7.582   9.026  66.999  1.00  0.00    -0.091 C  
BRANCH  19  23
HETATM   23  C   UNL     1      -6.264  11.862  66.607  1.00  0.00     0.060 C  
HETATM   24  O   UNL     1      -5.389  10.818  66.199  1.00  0.00    -0.072 OA 
HETATM   25  H   UNL     1      -4.478  11.048  66.342  1.00  0.00     0.000 HD 
ENDBRANCH  19  23
ENDBRANCH  12  15
TORSDOF 2
ENDMDL
MODEL      236
REMARK 921   NORMALIZED FREE ENERGY PREDICTED BY IDOCK:   -2.51 KCAL/MOL
REMARK 922        TOTAL FREE ENERGY PREDICTED BY IDOCK:   -3.14 KCAL/MOL
REMARK 923 INTER-LIGAND FREE ENERGY PREDICTED BY IDOCK:   -2.98 KCAL/MOL
REMARK 924 INTRA-LIGAND FREE ENERGY PREDICTED BY IDOCK:   -0.16 KCAL/MOL
REMARK 927      BINDING AFFINITY PREDICTED BY RF-SCORE:    0.00 PKD
ROOT
HETATM    1  N   UNL     1     -10.314   3.972  72.328  1.00  0.00    -0.153 NA 
HETATM    2  C   UNL     1      -9.210   4.190  71.570  1.00  0.00    -0.134 C  
HETATM    3  H2  UNL     1     -10.395   3.106  72.862  1.00  0.00     0.000 HD 
HETATM    4  H1  UNL     1     -11.064   4.661  72.371  1.00  0.00     0.000 HD 
HETATM    5  N   UNL     1      -8.254   3.310  71.516  1.00  0.00    -0.060 N  
HETATM    6  C   UNL     1      -7.131   3.545  70.706  1.00  0.00    -0.033 C  
HETATM    7  H   UNL     1      -8.320   2.451  72.061  1.00  0.00     0.000 HD 
HETATM    8  C   UNL     1      -7.163   4.798  69.935  1.00  0.00    -0.054 A  
HETATM    9  O   UNL     1      -6.188   2.763  70.650  1.00  0.00    -0.022 OA 
HETATM   10  C   UNL     1      -8.226   5.648  70.085  1.00  0.00    -0.114 A  
HETATM   11  N   UNL     1      -9.249   5.389  70.911  1.00  0.00    -0.148 NA 
HETATM   12  N   UNL     1      -8.005   6.718  69.275  1.00  0.00    -0.114 NA 
HETATM   13  N   UNL     1      -6.276   5.320  69.021  1.00  0.00    -0.032 NA 
HETATM   14  C   UNL     1      -6.809   6.471  68.645  1.00  0.00    -0.070 A  
ENDROOT
BRANCH  12  15
HETATM   15  C   UNL     1      -8.818   7.912  69.201  1.00  0.00    -0.142 C  
HETATM   16  C   UNL     1     -10.290   7.657  68.877  1.00  0.00    -0.222 C  
HETATM   17  C   UNL     1     -10.903   9.032  69.109  1.00  0.00    -0.089 C  
HETATM   18  O   UNL     1     -10.577   9.864  67.990  1.00  0.00    -0.211 OA 
HETATM   19  C   UNL     1     -10.200   9.580  70.375  1.00  0.00    -0.337 C  
HETATM   20  C   UNL     1      -8.889   8.791  70.431  1.00  0.00    -0.185 C  
HETATM   21  H   UNL     1     -10.959  10.721  68.134  1.00  0.00     0.000 HD 
HETATM   22  C   UNL     1      -7.981   8.881  71.417  1.00  0.00    -0.150 C  
BRANCH  19  23
HETATM   23  C   UNL     1     -11.081   9.416  71.619  1.00  0.00    -0.339 C  
HETATM   24  O   UNL     1     -12.244  10.231  71.552  1.00  0.00    -0.374 OA 
HETATM   25  H   UNL     1     -12.790  10.129  72.323  1.00  0.00     0.000 HD 
ENDBRANCH  19  23
ENDBRANCH  12  15
TORSDOF 2
ENDMDL
MODEL      237
REMARK 921   NORMALIZED FREE ENERGY PREDICTED BY IDOCK:   -2.51 KCAL/MOL
REMARK 922        TOTAL FREE ENERGY PREDICTED BY IDOCK:   -3.14 KCAL/MOL
REMARK 923 INTER-LIGAND FREE ENERGY PREDICTED BY IDOCK:   -2.99 KCAL/MOL
REMARK 924 INTRA-LIGAND FREE ENERGY PREDICTED BY IDOCK:   -0.15 KCAL/MOL
REMARK 927      BINDING AFFINITY PREDICTED BY RF-SCORE:    0.00 PKD
ROOT
HETATM    1  N   UNL     1     -10.111   4.198  65.650  1.00  0.00    -0.366 NA 
HETATM    2  C   UNL     1      -8.893   4.736  65.912  1.00  0.00    -0.127 C  
HETATM    3  H2  UNL     1     -10.171   3.275  65.219  1.00  0.00     0.000 HD 
HETATM    4  H1  UNL     1     -10.967   4.703  65.878  1.00  0.00     0.000 HD 
HETATM    5  N   UNL     1      -7.802   4.092  65.620  1.00  0.00    -0.089 N  
HETATM    6  C   UNL     1      -6.552   4.677  65.877  1.00  0.00    -0.045 C  
HETATM    7  H   UNL     1      -7.855   3.162  65.205  1.00  0.00     0.000 HD 
HETATM    8  C   UNL     1      -6.598   6.036  66.440  1.00  0.00    -0.055 A  
HETATM    9  O   UNL     1      -5.496   4.095  65.654  1.00  0.00    -0.009 OA 
HETATM   10  C   UNL     1      -7.813   6.607  66.710  1.00  0.00    -0.107 A  
HETATM   11  N   UNL     1      -8.975   5.977  66.485  1.00  0.00    -0.129 NA 
HETATM   12  N   UNL     1      -7.574   7.844  67.222  1.00  0.00    -0.099 NA 
HETATM   13  N   UNL     1      -5.590   6.916  66.764  1.00  0.00    -0.017 NA 
HETATM   14  C   UNL     1      -6.208   7.988  67.231  1.00  0.00    -0.055 A  
ENDROOT
BRANCH  12  15
HETATM   15  C   UNL     1      -8.567   8.753  67.750  1.00  0.00    -0.129 C  
HETATM   16  C   UNL     1      -8.016   9.803  68.714  1.00  0.00    -0.087 C  
HETATM   17  C   UNL     1      -9.215  10.725  68.890  1.00  0.00    -0.173 C  
HETATM   18  O   UNL     1     -10.145  10.089  69.775  1.00  0.00    -0.226 OA 
HETATM   19  C   UNL     1      -9.847  10.841  67.482  1.00  0.00    -0.197 C  
HETATM   20  C   UNL     1      -9.357   9.582  66.761  1.00  0.00    -0.196 C  
HETATM   21  H   UNL     1     -10.893  10.664  69.884  1.00  0.00     0.000 HD 
HETATM   22  C   UNL     1      -9.598   9.294  65.471  1.00  0.00    -0.291 C  
BRANCH  19  23
HETATM   23  C   UNL     1      -9.444  12.151  66.794  1.00  0.00    -0.212 C  
HETATM   24  O   UNL     1      -8.205  12.026  66.108  1.00  0.00    -0.383 OA 
HETATM   25  H   UNL     1      -7.956  12.838  65.681  1.00  0.00     0.000 HD 
ENDBRANCH  19  23
ENDBRANCH  12  15
TORSDOF 2
ENDMDL
MODEL      238
REMARK 921   NORMALIZED FREE ENERGY PREDICTED BY IDOCK:   -2.50 KCAL/MOL
REMARK 922        TOTAL FREE ENERGY PREDICTED BY IDOCK:   -3.13 KCAL/MOL
REMARK 923 INTER-LIGAND FREE ENERGY PREDICTED BY IDOCK:   -2.98 KCAL/MOL
REMARK 924 INTRA-LIGAND FREE ENERGY PREDICTED BY IDOCK:   -0.15 KCAL/MOL
REMARK 927      BINDING AFFINITY PREDICTED BY RF-SCORE:    0.00 PKD
ROOT
HETATM    1  N   UNL     1      -8.154   5.419  66.881  1.00  0.00    -0.105 NA 
HETATM    2  C   UNL     1      -8.150   6.226  65.790  1.00  0.00    -0.126 C  
HETATM    3  H2  UNL     1      -8.044   4.412  66.763  1.00  0.00     0.000 HD 
HETATM    4  H1  UNL     1      -8.265   5.807  67.818  1.00  0.00     0.000 HD 
HETATM    5  N   UNL     1      -8.008   5.731  64.596  1.00  0.00    -0.116 N  
HETATM    6  C   UNL     1      -8.032   6.581  63.478  1.00  0.00    -0.075 C  
HETATM    7  H   UNL     1      -7.880   4.727  64.471  1.00  0.00     0.000 HD 
HETATM    8  C   UNL     1      -8.262   8.004  63.775  1.00  0.00    -0.037 A  
HETATM    9  O   UNL     1      -7.866   6.167  62.336  1.00  0.00    -0.077 OA 
HETATM   10  C   UNL     1      -8.390   8.402  65.078  1.00  0.00    -0.158 A  
HETATM   11  N   UNL     1      -8.312   7.548  66.108  1.00  0.00    -0.131 NA 
HETATM   12  N   UNL     1      -8.586   9.748  65.072  1.00  0.00    -0.151 NA 
HETATM   13  N   UNL     1      -8.393   9.092  62.942  1.00  0.00    -0.192 NA 
HETATM   14  C   UNL     1      -8.585  10.121  63.750  1.00  0.00    -0.200 A  
ENDROOT
BRANCH  12  15
HETATM   15  C   UNL     1      -8.659  10.603  66.237  1.00  0.00    -0.153 C  
HETATM   16  C   UNL     1      -9.738  10.210  67.245  1.00  0.00    -0.203 C  
HETATM   17  C   UNL     1      -9.406  11.114  68.425  1.00  0.00    -0.185 C  
HETATM   18  O   UNL     1      -9.866  12.436  68.122  1.00  0.00    -0.203 OA 
HETATM   19  C   UNL     1      -7.860  11.117  68.510  1.00  0.00    -0.136 C  
HETATM   20  C   UNL     1      -7.420  10.726  67.097  1.00  0.00    -0.102 C  
HETATM   21  H   UNL     1      -9.659  13.000  68.858  1.00  0.00     0.000 HD 
HETATM   22  C   UNL     1      -6.147  10.528  66.717  1.00  0.00    -0.068 C  
BRANCH  19  23
HETATM   23  C   UNL     1      -7.358  10.170  69.605  1.00  0.00    -0.138 C  
HETATM   24  O   UNL     1      -6.848  10.883  70.725  1.00  0.00    -0.427 OA 
HETATM   25  H   UNL     1      -6.537  10.295  71.404  1.00  0.00     0.000 HD 
ENDBRANCH  19  23
ENDBRANCH  12  15
TORSDOF 2
ENDMDL
MODEL      239
REMARK 921   NORMALIZED FREE ENERGY PREDICTED BY IDOCK:   -2.48 KCAL/MOL
REMARK 922        TOTAL FREE ENERGY PREDICTED BY IDOCK:   -3.11 KCAL/MOL
REMARK 923 INTER-LIGAND FREE ENERGY PREDICTED BY IDOCK:   -2.68 KCAL/MOL
REMARK 924 INTRA-LIGAND FREE ENERGY PREDICTED BY IDOCK:   -0.43 KCAL/MOL
REMARK 927      BINDING AFFINITY PREDICTED BY RF-SCORE:    0.00 PKD
ROOT
HETATM    1  N   UNL     1     -10.071   8.682  66.637  1.00  0.00    -0.287 NA 
HETATM    2  C   UNL     1      -9.538   7.434  66.636  1.00  0.00    -0.190 C  
HETATM    3  H2  UNL     1     -10.269   9.145  65.751  1.00  0.00     0.000 HD 
HETATM    4  H1  UNL     1     -10.276   9.162  67.513  1.00  0.00     0.000 HD 
HETATM    5  N   UNL     1      -9.276   6.822  65.520  1.00  0.00    -0.360 N  
HETATM    6  C   UNL     1      -8.701   5.541  65.541  1.00  0.00    -0.154 C  
HETATM    7  H   UNL     1      -9.488   7.271  64.630  1.00  0.00     0.000 HD 
HETATM    8  C   UNL     1      -8.403   5.008  66.880  1.00  0.00    -0.107 A  
HETATM    9  O   UNL     1      -8.470   4.908  64.516  1.00  0.00    -0.132 OA 
HETATM   10  C   UNL     1      -8.734   5.748  67.983  1.00  0.00    -0.103 A  
HETATM   11  N   UNL     1      -9.324   6.948  67.899  1.00  0.00    -0.120 NA 
HETATM   12  N   UNL     1      -8.360   5.032  69.077  1.00  0.00    -0.086 NA 
HETATM   13  N   UNL     1      -7.806   3.831  67.273  1.00  0.00    -0.079 NA 
HETATM   14  C   UNL     1      -7.797   3.876  68.595  1.00  0.00    -0.067 A  
ENDROOT
BRANCH  12  15
HETATM   15  C   UNL     1      -8.622   5.385  70.456  1.00  0.00    -0.122 C  
HETATM   16  C   UNL     1      -9.212   4.255  71.298  1.00  0.00    -0.197 C  
HETATM   17  C   UNL     1      -9.139   4.841  72.702  1.00  0.00    -0.127 C  
HETATM   18  O   UNL     1     -10.200   5.793  72.846  1.00  0.00    -0.180 OA 
HETATM   19  C   UNL     1      -7.779   5.578  72.762  1.00  0.00    -0.098 C  
HETATM   20  C   UNL     1      -7.453   5.858  71.293  1.00  0.00    -0.089 C  
HETATM   21  H   UNL     1     -10.154   6.159  73.721  1.00  0.00     0.000 HD 
HETATM   22  C   UNL     1      -6.316   6.422  70.853  1.00  0.00    -0.047 C  
BRANCH  19  23
HETATM   23  C   UNL     1      -6.721   4.740  73.488  1.00  0.00    -0.068 C  
HETATM   24  O   UNL     1      -7.283   3.998  74.563  1.00  0.00    -0.066 OA 
HETATM   25  H   UNL     1      -6.626   3.478  75.012  1.00  0.00     0.000 HD 
ENDBRANCH  19  23
ENDBRANCH  12  15
TORSDOF 2
ENDMDL
MODEL      240
REMARK 921   NORMALIZED FREE ENERGY PREDICTED BY IDOCK:   -2.46 KCAL/MOL
REMARK 922        TOTAL FREE ENERGY PREDICTED BY IDOCK:   -3.08 KCAL/MOL
REMARK 923 INTER-LIGAND FREE ENERGY PREDICTED BY IDOCK:   -2.91 KCAL/MOL
REMARK 924 INTRA-LIGAND FREE ENERGY PREDICTED BY IDOCK:   -0.18 KCAL/MOL
REMARK 927      BINDING AFFINITY PREDICTED BY RF-SCORE:    0.00 PKD
ROOT
HETATM    1  N   UNL     1      -6.130   7.933  63.907  1.00  0.00    -0.057 NA 
HETATM    2  C   UNL     1      -7.232   8.301  64.609  1.00  0.00    -0.083 C  
HETATM    3  H2  UNL     1      -5.646   8.622  63.332  1.00  0.00     0.000 HD 
HETATM    4  H1  UNL     1      -5.779   6.976  63.947  1.00  0.00     0.000 HD 
HETATM    5  N   UNL     1      -7.678   9.520  64.558  1.00  0.00    -0.113 N  
HETATM    6  C   UNL     1      -8.834   9.874  65.272  1.00  0.00    -0.181 C  
HETATM    7  H   UNL     1      -7.190  10.219  63.999  1.00  0.00     0.000 HD 
HETATM    8  C   UNL     1      -9.477   8.775  66.011  1.00  0.00    -0.233 A  
HETATM    9  O   UNL     1      -9.273  11.019  65.285  1.00  0.00    -0.204 OA 
HETATM   10  C   UNL     1      -8.904   7.532  65.992  1.00  0.00    -0.150 A  
HETATM   11  N   UNL     1      -7.772   7.267  65.327  1.00  0.00    -0.106 NA 
HETATM   12  N   UNL     1      -9.686   6.716  66.748  1.00  0.00    -0.165 NA 
HETATM   13  N   UNL     1     -10.629   8.745  66.764  1.00  0.00    -0.217 NA 
HETATM   14  C   UNL     1     -10.725   7.497  67.193  1.00  0.00    -0.309 A  
ENDROOT
BRANCH  12  15
HETATM   15  C   UNL     1      -9.396   5.341  67.095  1.00  0.00    -0.122 C  
HETATM   16  C   UNL     1      -9.122   4.430  65.898  1.00  0.00    -0.133 C  
HETATM   17  C   UNL     1      -8.624   3.162  66.580  1.00  0.00    -0.119 C  
HETATM   18  O   UNL     1      -9.755   2.470  67.122  1.00  0.00    -0.400 OA 
HETATM   19  C   UNL     1      -7.721   3.653  67.738  1.00  0.00    -0.070 C  
HETATM   20  C   UNL     1      -8.211   5.079  67.999  1.00  0.00    -0.097 C  
HETATM   21  H   UNL     1      -9.444   1.680  67.547  1.00  0.00     0.000 HD 
HETATM   22  C   UNL     1      -7.661   5.931  68.881  1.00  0.00    -0.090 C  
BRANCH  19  23
HETATM   23  C   UNL     1      -6.237   3.561  67.368  1.00  0.00    -0.036 C  
HETATM   24  O   UNL     1      -6.043   2.882  66.133  1.00  0.00    -0.023 OA 
HETATM   25  H   UNL     1      -5.122   2.825  65.904  1.00  0.00     0.000 HD 
ENDBRANCH  19  23
ENDBRANCH  12  15
TORSDOF 2
ENDMDL
MODEL      241
REMARK 921   NORMALIZED FREE ENERGY PREDICTED BY IDOCK:   -2.44 KCAL/MOL
REMARK 922        TOTAL FREE ENERGY PREDICTED BY IDOCK:   -3.07 KCAL/MOL
REMARK 923 INTER-LIGAND FREE ENERGY PREDICTED BY IDOCK:   -2.67 KCAL/MOL
REMARK 924 INTRA-LIGAND FREE ENERGY PREDICTED BY IDOCK:   -0.40 KCAL/MOL
REMARK 927      BINDING AFFINITY PREDICTED BY RF-SCORE:    0.00 PKD
ROOT
HETATM    1  N   UNL     1      -7.944   8.394  65.306  1.00  0.00    -0.117 NA 
HETATM    2  C   UNL     1      -8.298   7.085  65.349  1.00  0.00    -0.118 C  
HETATM    3  H2  UNL     1      -7.781   8.842  64.404  1.00  0.00     0.000 HD 
HETATM    4  H1  UNL     1      -7.839   8.936  66.163  1.00  0.00     0.000 HD 
HETATM    5  N   UNL     1      -8.432   6.394  64.256  1.00  0.00    -0.341 N  
HETATM    6  C   UNL     1      -8.775   5.034  64.324  1.00  0.00    -0.106 C  
HETATM    7  H   UNL     1      -8.288   6.839  63.350  1.00  0.00     0.000 HD 
HETATM    8  C   UNL     1      -8.919   4.489  65.683  1.00  0.00    -0.134 A  
HETATM    9  O   UNL     1      -8.949   4.350  63.321  1.00  0.00    -0.126 OA 
HETATM   10  C   UNL     1      -8.759   5.323  66.758  1.00  0.00    -0.112 A  
HETATM   11  N   UNL     1      -8.477   6.626  66.627  1.00  0.00    -0.116 NA 
HETATM   12  N   UNL     1      -8.948   4.578  67.879  1.00  0.00    -0.111 NA 
HETATM   13  N   UNL     1      -9.193   3.214  66.122  1.00  0.00    -0.147 NA 
HETATM   14  C   UNL     1      -9.205   3.301  67.442  1.00  0.00    -0.198 A  
ENDROOT
BRANCH  12  15
HETATM   15  C   UNL     1      -8.984   5.076  69.237  1.00  0.00    -0.096 C  
HETATM   16  C   UNL     1      -9.990   4.370  70.145  1.00  0.00    -0.249 C  
HETATM   17  C   UNL     1      -9.622   4.929  71.513  1.00  0.00    -0.161 C  
HETATM   18  O   UNL     1     -10.143   6.260  71.609  1.00  0.00    -0.186 OA 
HETATM   19  C   UNL     1      -8.075   4.983  71.525  1.00  0.00    -0.113 C  
HETATM   20  C   UNL     1      -7.703   5.017  70.040  1.00  0.00    -0.063 C  
HETATM   21  H   UNL     1      -9.913   6.609  72.462  1.00  0.00     0.000 HD 
HETATM   22  C   UNL     1      -6.447   4.991  69.563  1.00  0.00    -0.038 C  
BRANCH  19  23
HETATM   23  C   UNL     1      -7.480   3.797  72.291  1.00  0.00    -0.061 C  
HETATM   24  O   UNL     1      -7.538   3.995  73.698  1.00  0.00    -0.073 OA 
HETATM   25  H   UNL     1      -7.169   3.259  74.173  1.00  0.00     0.000 HD 
ENDBRANCH  19  23
ENDBRANCH  12  15
TORSDOF 2
ENDMDL
MODEL      242
REMARK 921   NORMALIZED FREE ENERGY PREDICTED BY IDOCK:   -2.44 KCAL/MOL
REMARK 922        TOTAL FREE ENERGY PREDICTED BY IDOCK:   -3.07 KCAL/MOL
REMARK 923 INTER-LIGAND FREE ENERGY PREDICTED BY IDOCK:   -2.88 KCAL/MOL
REMARK 924 INTRA-LIGAND FREE ENERGY PREDICTED BY IDOCK:   -0.18 KCAL/MOL
REMARK 927      BINDING AFFINITY PREDICTED BY RF-SCORE:    0.00 PKD
ROOT
HETATM    1  N   UNL     1     -11.521   9.647  67.474  1.00  0.00    -0.226 NA 
HETATM    2  C   UNL     1     -10.805  10.800  67.499  1.00  0.00    -0.288 C  
HETATM    3  H2  UNL     1     -12.467   9.650  67.092  1.00  0.00     0.000 HD 
HETATM    4  H1  UNL     1     -11.126   8.778  67.833  1.00  0.00     0.000 HD 
HETATM    5  N   UNL     1     -11.310  11.908  67.042  1.00  0.00    -0.321 N  
HETATM    6  C   UNL     1     -10.561  13.095  67.100  1.00  0.00    -0.257 C  
HETATM    7  H   UNL     1     -12.248  11.915  66.643  1.00  0.00     0.000 HD 
HETATM    8  C   UNL     1      -9.238  12.973  67.732  1.00  0.00    -0.200 A  
HETATM    9  O   UNL     1     -10.978  14.156  66.648  1.00  0.00    -0.296 OA 
HETATM   10  C   UNL     1      -8.816  11.746  68.169  1.00  0.00    -0.169 A  
HETATM   11  N   UNL     1      -9.560  10.638  68.044  1.00  0.00    -0.155 NA 
HETATM   12  N   UNL     1      -7.575  11.911  68.700  1.00  0.00    -0.126 NA 
HETATM   13  N   UNL     1      -8.273  13.918  68.000  1.00  0.00    -0.149 NA 
HETATM   14  C   UNL     1      -7.290  13.249  68.579  1.00  0.00    -0.115 A  
ENDROOT
BRANCH  12  15
HETATM   15  C   UNL     1      -6.707  10.857  69.179  1.00  0.00    -0.079 C  
HETATM   16  C   UNL     1      -7.299  10.012  70.307  1.00  0.00    -0.152 C  
HETATM   17  C   UNL     1      -6.286   8.880  70.412  1.00  0.00    -0.041 C  
HETATM   18  O   UNL     1      -5.130   9.374  71.099  1.00  0.00    -0.029 OA 
HETATM   19  C   UNL     1      -5.906   8.539  68.951  1.00  0.00    -0.040 C  
HETATM   20  C   UNL     1      -6.248   9.817  68.181  1.00  0.00    -0.055 C  
HETATM   21  H   UNL     1      -4.498   8.668  71.164  1.00  0.00     0.000 HD 
HETATM   22  C   UNL     1      -6.152   9.959  66.848  1.00  0.00    -0.063 C  
BRANCH  19  23
HETATM   23  C   UNL     1      -6.650   7.294  68.455  1.00  0.00    -0.045 C  
HETATM   24  O   UNL     1      -7.177   6.531  69.534  1.00  0.00    -0.077 OA 
HETATM   25  H   UNL     1      -7.638   5.759  69.226  1.00  0.00     0.000 HD 
ENDBRANCH  19  23
ENDBRANCH  12  15
TORSDOF 2
ENDMDL
MODEL      243
REMARK 921   NORMALIZED FREE ENERGY PREDICTED BY IDOCK:   -2.44 KCAL/MOL
REMARK 922        TOTAL FREE ENERGY PREDICTED BY IDOCK:   -3.06 KCAL/MOL
REMARK 923 INTER-LIGAND FREE ENERGY PREDICTED BY IDOCK:   -2.94 KCAL/MOL
REMARK 924 INTRA-LIGAND FREE ENERGY PREDICTED BY IDOCK:   -0.12 KCAL/MOL
REMARK 927      BINDING AFFINITY PREDICTED BY RF-SCORE:    0.00 PKD
ROOT
HETATM    1  N   UNL     1      -7.542   5.436  66.538  1.00  0.00    -0.087 NA 
HETATM    2  C   UNL     1      -8.206   6.515  67.025  1.00  0.00    -0.113 C  
HETATM    3  H2  UNL     1      -7.157   5.466  65.594  1.00  0.00     0.000 HD 
HETATM    4  H1  UNL     1      -7.422   4.597  67.105  1.00  0.00     0.000 HD 
HETATM    5  N   UNL     1      -8.359   7.585  66.303  1.00  0.00    -0.127 N  
HETATM    6  C   UNL     1      -9.072   8.681  66.816  1.00  0.00    -0.149 C  
HETATM    7  H   UNL     1      -7.963   7.629  65.365  1.00  0.00     0.000 HD 
HETATM    8  C   UNL     1      -9.632   8.491  68.164  1.00  0.00    -0.143 A  
HETATM    9  O   UNL     1      -9.211   9.726  66.189  1.00  0.00    -0.159 OA 
HETATM   10  C   UNL     1      -9.395   7.317  68.827  1.00  0.00    -0.143 A  
HETATM   11  N   UNL     1      -8.666   6.323  68.300  1.00  0.00    -0.116 NA 
HETATM   12  N   UNL     1     -10.011   7.403  70.036  1.00  0.00    -0.183 NA 
HETATM   13  N   UNL     1     -10.412   9.315  68.944  1.00  0.00    -0.214 NA 
HETATM   14  C   UNL     1     -10.621   8.634  70.059  1.00  0.00    -0.227 A  
ENDROOT
BRANCH  12  15
HETATM   15  C   UNL     1      -9.929   6.433  71.105  1.00  0.00    -0.180 C  
HETATM   16  C   UNL     1     -10.404   5.030  70.727  1.00  0.00    -0.265 C  
HETATM   17  C   UNL     1      -9.973   4.217  71.940  1.00  0.00    -0.183 C  
HETATM   18  O   UNL     1     -10.894   4.476  73.006  1.00  0.00    -0.218 OA 
HETATM   19  C   UNL     1      -8.579   4.770  72.324  1.00  0.00    -0.121 C  
HETATM   20  C   UNL     1      -8.569   6.176  71.717  1.00  0.00    -0.133 C  
HETATM   21  H   UNL     1     -10.625   3.969  73.762  1.00  0.00     0.000 HD 
HETATM   22  C   UNL     1      -7.517   7.011  71.735  1.00  0.00    -0.087 C  
BRANCH  19  23
HETATM   23  C   UNL     1      -7.456   3.861  71.812  1.00  0.00    -0.056 C  
HETATM   24  O   UNL     1      -7.525   3.680  70.403  1.00  0.00    -0.041 OA 
HETATM   25  H   UNL     1      -6.828   3.117  70.086  1.00  0.00     0.000 HD 
ENDBRANCH  19  23
ENDBRANCH  12  15
TORSDOF 2
ENDMDL
MODEL      244
REMARK 921   NORMALIZED FREE ENERGY PREDICTED BY IDOCK:   -2.20 KCAL/MOL
REMARK 922        TOTAL FREE ENERGY PREDICTED BY IDOCK:   -2.79 KCAL/MOL
REMARK 923 INTER-LIGAND FREE ENERGY PREDICTED BY IDOCK:   -2.72 KCAL/MOL
REMARK 924 INTRA-LIGAND FREE ENERGY PREDICTED BY IDOCK:   -0.07 KCAL/MOL
REMARK 927      BINDING AFFINITY PREDICTED BY RF-SCORE:    0.00 PKD
ROOT
HETATM    1  N   UNL     1      -5.669   6.613  65.476  1.00  0.00    -0.029 NA 
HETATM    2  C   UNL     1      -6.522   6.346  66.498  1.00  0.00    -0.047 C  
HETATM    3  H2  UNL     1      -5.206   5.843  64.993  1.00  0.00     0.000 HD 
HETATM    4  H1  UNL     1      -5.485   7.573  65.186  1.00  0.00     0.000 HD 
HETATM    5  N   UNL     1      -6.757   5.122  66.868  1.00  0.00    -0.057 N  
HETATM    6  C   UNL     1      -7.624   4.869  67.943  1.00  0.00    -0.083 C  
HETATM    7  H   UNL     1      -6.311   4.347  66.378  1.00  0.00     0.000 HD 
HETATM    8  C   UNL     1      -8.177   6.065  68.599  1.00  0.00    -0.107 A  
HETATM    9  O   UNL     1      -7.905   3.732  68.306  1.00  0.00    -0.071 OA 
HETATM   10  C   UNL     1      -7.859   7.303  68.110  1.00  0.00    -0.118 A  
HETATM   11  N   UNL     1      -7.060   7.479  67.048  1.00  0.00    -0.082 NA 
HETATM   12  N   UNL     1      -8.498   8.221  68.884  1.00  0.00    -0.127 NA 
HETATM   13  N   UNL     1      -9.004   6.196  69.692  1.00  0.00    -0.133 NA 
HETATM   14  C   UNL     1      -9.178   7.500  69.835  1.00  0.00    -0.147 A  
ENDROOT
BRANCH  12  15
HETATM   15  C   UNL     1      -8.534   9.649  68.658  1.00  0.00    -0.119 C  
HETATM   16  C   UNL     1      -7.199  10.256  68.225  1.00  0.00    -0.083 C  
HETATM   17  C   UNL     1      -7.611  11.671  67.839  1.00  0.00    -0.115 C  
HETATM   18  O   UNL     1      -7.810  12.424  69.041  1.00  0.00    -0.328 OA 
HETATM   19  C   UNL     1      -8.965  11.513  67.105  1.00  0.00    -0.166 C  
HETATM   20  C   UNL     1      -9.498  10.171  67.615  1.00  0.00    -0.166 C  
HETATM   21  H   UNL     1      -8.067  13.306  68.801  1.00  0.00     0.000 HD 
HETATM   22  C   UNL     1     -10.627   9.582  67.187  1.00  0.00    -0.295 C  
BRANCH  19  23
HETATM   23  C   UNL     1      -8.787  11.576  65.584  1.00  0.00    -0.013 C  
HETATM   24  O   UNL     1      -9.728  12.454  64.980  1.00  0.00    -0.438 OA 
HETATM   25  H   UNL     1      -9.618  12.494  64.037  1.00  0.00     0.000 HD 
ENDBRANCH  19  23
ENDBRANCH  12  15
TORSDOF 2
ENDMDL
MODEL      245
REMARK 921   NORMALIZED FREE ENERGY PREDICTED BY IDOCK:   -2.18 KCAL/MOL
REMARK 922        TOTAL FREE ENERGY PREDICTED BY IDOCK:   -2.77 KCAL/MOL
REMARK 923 INTER-LIGAND FREE ENERGY PREDICTED BY IDOCK:   -4.86 KCAL/MOL
REMARK 924 INTRA-LIGAND FREE ENERGY PREDICTED BY IDOCK:    2.09 KCAL/MOL
REMARK 927      BINDING AFFINITY PREDICTED BY RF-SCORE:    0.00 PKD
ROOT
HETATM    1  N   UNL     1     -12.472  14.710  72.748  1.00  0.00    -0.315 NA 
HETATM    2  C   UNL     1     -11.941  14.801  71.502  1.00  0.00    -0.353 C  
HETATM    3  H2  UNL     1     -12.621  15.558  73.295  1.00  0.00     0.000 HD 
HETATM    4  H1  UNL     1     -12.725  13.805  73.144  1.00  0.00     0.000 HD 
HETATM    5  N   UNL     1     -11.619  15.955  70.997  1.00  0.00    -0.394 N  
HETATM    6  C   UNL     1     -11.048  16.025  69.717  1.00  0.00    -0.337 C  
HETATM    7  H   UNL     1     -11.781  16.809  71.531  1.00  0.00     0.000 HD 
HETATM    8  C   UNL     1     -10.824  14.729  69.057  1.00  0.00    -0.245 A  
HETATM    9  O   UNL     1     -10.762  17.092  69.183  1.00  0.00    -0.301 OA 
HETATM   10  C   UNL     1     -11.214  13.580  69.690  1.00  0.00    -0.063 A  
HETATM   11  N   UNL     1     -11.798  13.582  70.897  1.00  0.00    -0.086 NA 
HETATM   12  N   UNL     1     -10.902  12.541  68.872  1.00  0.00    -0.224 NA 
HETATM   13  N   UNL     1     -10.251  14.419  67.844  1.00  0.00    -0.230 NA 
HETATM   14  C   UNL     1     -10.314  13.100  67.763  1.00  0.00    -0.230 A  
ENDROOT
BRANCH  12  15
HETATM   15  C   UNL     1     -11.238  11.151  69.093  1.00  0.00    -0.264 C  
HETATM   16  C   UNL     1     -10.060  10.274  69.516  1.00  0.00    -0.260 C  
HETATM   17  C   UNL     1     -10.759   8.976  69.900  1.00  0.00    -0.229 C  
HETATM   18  O   UNL     1     -11.119   8.287  68.697  1.00  0.00    -0.414 OA 
HETATM   19  C   UNL     1     -12.046   9.414  70.642  1.00  0.00    -0.191 C  
HETATM   20  C   UNL     1     -12.286  10.840  70.140  1.00  0.00    -0.425 C  
HETATM   21  H   UNL     1     -11.556   7.478  68.936  1.00  0.00     0.000 HD 
HETATM   22  C   UNL     1     -13.263  11.653  70.575  1.00  0.00     0.509 C  
BRANCH  19  23
HETATM   23  C   UNL     1     -11.878   9.308  72.162  1.00  0.00    -0.195 C  
HETATM   24  O   UNL     1     -12.990   8.663  72.771  1.00  0.00    -0.610 OA 
HETATM   25  H   UNL     1     -12.885   8.597  73.713  1.00  0.00     0.000 HD 
ENDBRANCH  19  23
ENDBRANCH  12  15
TORSDOF 2
ENDMDL
MODEL      246
REMARK 921   NORMALIZED FREE ENERGY PREDICTED BY IDOCK:   -2.18 KCAL/MOL
REMARK 922        TOTAL FREE ENERGY PREDICTED BY IDOCK:   -2.77 KCAL/MOL
REMARK 923 INTER-LIGAND FREE ENERGY PREDICTED BY IDOCK:   -2.60 KCAL/MOL
REMARK 924 INTRA-LIGAND FREE ENERGY PREDICTED BY IDOCK:   -0.17 KCAL/MOL
REMARK 927      BINDING AFFINITY PREDICTED BY RF-SCORE:    0.00 PKD
ROOT
HETATM    1  N   UNL     1     -10.226   4.019  72.221  1.00  0.00    -0.177 NA 
HETATM    2  C   UNL     1      -9.023   3.666  71.699  1.00  0.00    -0.106 C  
HETATM    3  H2  UNL     1     -10.422   3.831  73.204  1.00  0.00     0.000 HD 
HETATM    4  H1  UNL     1     -10.935   4.469  71.642  1.00  0.00     0.000 HD 
HETATM    5  N   UNL     1      -8.119   3.092  72.436  1.00  0.00    -0.062 N  
HETATM    6  C   UNL     1      -6.891   2.713  71.871  1.00  0.00    -0.022 C  
HETATM    7  H   UNL     1      -8.302   2.918  73.424  1.00  0.00     0.000 HD 
HETATM    8  C   UNL     1      -6.754   2.978  70.430  1.00  0.00    -0.033 A  
HETATM    9  O   UNL     1      -5.993   2.203  72.533  1.00  0.00    -0.008 OA 
HETATM   10  C   UNL     1      -7.778   3.596  69.763  1.00  0.00    -0.051 A  
HETATM   11  N   UNL     1      -8.911   3.977  70.370  1.00  0.00    -0.078 NA 
HETATM   12  N   UNL     1      -7.396   3.725  68.465  1.00  0.00    -0.054 NA 
HETATM   13  N   UNL     1      -5.730   2.700  69.552  1.00  0.00    -0.021 NA 
HETATM   14  C   UNL     1      -6.146   3.161  68.384  1.00  0.00    -0.025 A  
ENDROOT
BRANCH  12  15
HETATM   15  C   UNL     1      -8.125   4.422  67.428  1.00  0.00    -0.100 C  
HETATM   16  C   UNL     1      -9.545   3.906  67.195  1.00  0.00    -0.226 C  
HETATM   17  C   UNL     1     -10.112   4.964  66.257  1.00  0.00    -0.257 C  
HETATM   18  O   UNL     1      -9.581   4.733  64.947  1.00  0.00    -0.303 OA 
HETATM   19  C   UNL     1      -9.574   6.312  66.796  1.00  0.00    -0.183 C  
HETATM   20  C   UNL     1      -8.329   5.912  67.593  1.00  0.00    -0.104 C  
HETATM   21  H   UNL     1      -9.934   5.393  64.362  1.00  0.00     0.000 HD 
HETATM   22  C   UNL     1      -7.572   6.760  68.310  1.00  0.00    -0.107 C  
BRANCH  19  23
HETATM   23  C   UNL     1     -10.635   7.047  67.623  1.00  0.00    -0.257 C  
HETATM   24  O   UNL     1     -10.707   8.425  67.281  1.00  0.00    -0.422 OA 
HETATM   25  H   UNL     1     -11.365   8.880  67.794  1.00  0.00     0.000 HD 
ENDBRANCH  19  23
ENDBRANCH  12  15
TORSDOF 2
ENDMDL
MODEL      247
REMARK 921   NORMALIZED FREE ENERGY PREDICTED BY IDOCK:   -2.13 KCAL/MOL
REMARK 922        TOTAL FREE ENERGY PREDICTED BY IDOCK:   -2.72 KCAL/MOL
REMARK 923 INTER-LIGAND FREE ENERGY PREDICTED BY IDOCK:   -2.90 KCAL/MOL
REMARK 924 INTRA-LIGAND FREE ENERGY PREDICTED BY IDOCK:    0.18 KCAL/MOL
REMARK 927      BINDING AFFINITY PREDICTED BY RF-SCORE:    0.00 PKD
ROOT
HETATM    1  N   UNL     1      -9.609  14.240  65.572  1.00  0.00    -0.547 NA 
HETATM    2  C   UNL     1      -9.423  15.442  66.175  1.00  0.00    -0.336 C  
HETATM    3  H2  UNL     1      -9.162  14.053  64.674  1.00  0.00     0.000 HD 
HETATM    4  H1  UNL     1     -10.189  13.521  66.004  1.00  0.00     0.000 HD 
HETATM    5  N   UNL     1      -8.684  16.358  65.623  1.00  0.00     0.134 N  
HETATM    6  C   UNL     1      -8.525  17.603  66.252  1.00  0.00    -0.202 C  
HETATM    7  H   UNL     1      -8.220  16.172  64.735  1.00  0.00     0.000 HD 
HETATM    8  C   UNL     1      -9.272  17.772  67.509  1.00  0.00    -0.244 A  
HETATM    9  O   UNL     1      -7.808  18.485  65.791  1.00  0.00    -0.504 OA 
HETATM   10  C   UNL     1     -10.013  16.727  67.992  1.00  0.00    -0.272 A  
HETATM   11  N   UNL     1     -10.088  15.544  67.367  1.00  0.00    -0.243 NA 
HETATM   12  N   UNL     1     -10.589  17.142  69.152  1.00  0.00    -0.308 NA 
HETATM   13  N   UNL     1      -9.390  18.854  68.352  1.00  0.00    -0.334 NA 
HETATM   14  C   UNL     1     -10.184  18.443  69.327  1.00  0.00     0.062 A  
ENDROOT
BRANCH  12  15
HETATM   15  C   UNL     1     -11.366  16.324  70.057  1.00  0.00    -0.269 C  
HETATM   16  C   UNL     1     -12.770  15.983  69.556  1.00  0.00     0.732 C  
HETATM   17  C   UNL     1     -13.222  14.947  70.577  1.00  0.00    -0.190 C  
HETATM   18  O   UNL     1     -13.584  15.632  71.782  1.00  0.00    -0.481 OA 
HETATM   19  C   UNL     1     -11.975  14.069  70.842  1.00  0.00    -0.343 C  
HETATM   20  C   UNL     1     -10.805  14.971  70.439  1.00  0.00    -0.182 C  
HETATM   21  H   UNL     1     -13.865  14.986  72.419  1.00  0.00     0.000 HD 
HETATM   22  C   UNL     1      -9.515  14.597  70.430  1.00  0.00     1.294 C  
BRANCH  19  23
HETATM   23  C   UNL     1     -12.044  12.751  70.064  1.00  0.00    -0.285 C  
HETATM   24  O   UNL     1     -11.911  11.625  70.923  1.00  0.00    -0.384 OA 
HETATM   25  H   UNL     1     -11.953  10.807  70.440  1.00  0.00     0.000 HD 
ENDBRANCH  19  23
ENDBRANCH  12  15
TORSDOF 2
ENDMDL
MODEL      248
REMARK 921   NORMALIZED FREE ENERGY PREDICTED BY IDOCK:   -2.08 KCAL/MOL
REMARK 922        TOTAL FREE ENERGY PREDICTED BY IDOCK:   -2.66 KCAL/MOL
REMARK 923 INTER-LIGAND FREE ENERGY PREDICTED BY IDOCK:   -2.95 KCAL/MOL
REMARK 924 INTRA-LIGAND FREE ENERGY PREDICTED BY IDOCK:    0.29 KCAL/MOL
REMARK 927      BINDING AFFINITY PREDICTED BY RF-SCORE:    0.00 PKD
ROOT
HETATM    1  N   UNL     1      -5.931   9.302  63.252  1.00  0.00    -0.088 NA 
HETATM    2  C   UNL     1      -6.763   8.551  64.018  1.00  0.00    -0.075 C  
HETATM    3  H2  UNL     1      -5.477   8.882  62.441  1.00  0.00     0.000 HD 
HETATM    4  H1  UNL     1      -5.754  10.281  63.477  1.00  0.00     0.000 HD 
HETATM    5  N   UNL     1      -6.989   7.304  63.731  1.00  0.00    -0.055 N  
HETATM    6  C   UNL     1      -7.833   6.538  64.551  1.00  0.00    -0.112 C  
HETATM    7  H   UNL     1      -6.552   6.882  62.912  1.00  0.00     0.000 HD 
HETATM    8  C   UNL     1      -8.375   7.240  65.725  1.00  0.00    -0.139 A  
HETATM    9  O   UNL     1      -8.106   5.368  64.301  1.00  0.00    -0.112 OA 
HETATM   10  C   UNL     1      -8.068   8.561  65.915  1.00  0.00    -0.116 A  
HETATM   11  N   UNL     1      -7.291   9.251  65.070  1.00  0.00    -0.100 NA 
HETATM   12  N   UNL     1      -8.693   8.961  67.054  1.00  0.00    -0.122 NA 
HETATM   13  N   UNL     1      -9.180   6.798  66.751  1.00  0.00    -0.145 NA 
HETATM   14  C   UNL     1      -9.353   7.854  67.530  1.00  0.00    -0.143 A  
ENDROOT
BRANCH  12  15
HETATM   15  C   UNL     1      -8.735  10.311  67.573  1.00  0.00    -0.125 C  
HETATM   16  C   UNL     1      -7.579  11.201  67.118  1.00  0.00    -0.125 C  
HETATM   17  C   UNL     1      -8.028  12.571  67.609  1.00  0.00    -0.170 C  
HETATM   18  O   UNL     1      -7.806  12.636  69.023  1.00  0.00    -0.327 OA 
HETATM   19  C   UNL     1      -9.549  12.623  67.328  1.00  0.00    -0.203 C  
HETATM   20  C   UNL     1      -9.954  11.149  67.253  1.00  0.00    -0.211 C  
HETATM   21  H   UNL     1      -8.086  13.490  69.329  1.00  0.00     0.000 HD 
HETATM   22  C   UNL     1     -11.185  10.706  66.948  1.00  0.00    -0.052 C  
BRANCH  19  23
HETATM   23  C   UNL     1      -9.855  13.420  66.055  1.00  0.00    -0.263 C  
HETATM   24  O   UNL     1      -9.820  14.822  66.289  1.00  0.00    -0.265 OA 
HETATM   25  H   UNL     1     -10.010  15.316  65.500  1.00  0.00     0.000 HD 
ENDBRANCH  19  23
ENDBRANCH  12  15
TORSDOF 2
ENDMDL
MODEL      249
REMARK 921   NORMALIZED FREE ENERGY PREDICTED BY IDOCK:   -1.99 KCAL/MOL
REMARK 922        TOTAL FREE ENERGY PREDICTED BY IDOCK:   -2.56 KCAL/MOL
REMARK 923 INTER-LIGAND FREE ENERGY PREDICTED BY IDOCK:   -2.20 KCAL/MOL
REMARK 924 INTRA-LIGAND FREE ENERGY PREDICTED BY IDOCK:   -0.36 KCAL/MOL
REMARK 927      BINDING AFFINITY PREDICTED BY RF-SCORE:    0.00 PKD
ROOT
HETATM    1  N   UNL     1      -6.398   6.947  72.662  1.00  0.00    -0.053 NA 
HETATM    2  C   UNL     1      -7.643   7.202  72.187  1.00  0.00    -0.089 C  
HETATM    3  H2  UNL     1      -6.285   6.565  73.601  1.00  0.00     0.000 HD 
HETATM    4  H1  UNL     1      -5.572   7.133  72.092  1.00  0.00     0.000 HD 
HETATM    5  N   UNL     1      -8.695   6.965  72.914  1.00  0.00    -0.123 N  
HETATM    6  C   UNL     1      -9.973   7.260  72.413  1.00  0.00    -0.175 C  
HETATM    7  H   UNL     1      -8.592   6.567  73.846  1.00  0.00     0.000 HD 
HETATM    8  C   UNL     1      -9.999   7.868  71.073  1.00  0.00    -0.181 A  
HETATM    9  O   UNL     1     -10.997   7.020  73.044  1.00  0.00    -0.283 OA 
HETATM   10  C   UNL     1      -8.820   8.061  70.404  1.00  0.00    -0.141 A  
HETATM   11  N   UNL     1      -7.631   7.716  70.918  1.00  0.00    -0.078 NA 
HETATM   12  N   UNL     1      -9.123   8.625  69.204  1.00  0.00    -0.142 NA 
HETATM   13  N   UNL     1     -11.048   8.323  70.306  1.00  0.00    -0.247 NA 
HETATM   14  C   UNL     1     -10.490   8.769  69.192  1.00  0.00    -0.217 A  
ENDROOT
BRANCH  12  15
HETATM   15  C   UNL     1      -8.192   8.897  68.131  1.00  0.00    -0.114 C  
HETATM   16  C   UNL     1      -8.765   8.696  66.729  1.00  0.00    -0.135 C  
HETATM   17  C   UNL     1      -7.663   9.281  65.855  1.00  0.00    -0.098 C  
HETATM   18  O   UNL     1      -6.592   8.333  65.788  1.00  0.00    -0.052 OA 
HETATM   19  C   UNL     1      -7.180  10.546  66.606  1.00  0.00    -0.119 C  
HETATM   20  C   UNL     1      -7.593  10.285  68.057  1.00  0.00    -0.088 C  
HETATM   21  H   UNL     1      -5.904   8.699  65.243  1.00  0.00     0.000 HD 
HETATM   22  C   UNL     1      -7.441  11.158  69.067  1.00  0.00    -0.124 C  
BRANCH  19  23
HETATM   23  C   UNL     1      -7.786  11.819  66.005  1.00  0.00     0.481 C  
HETATM   24  O   UNL     1      -9.200  11.852  66.156  1.00  0.00    -0.224 OA 
HETATM   25  H   UNL     1      -9.575  12.642  65.783  1.00  0.00     0.000 HD 
ENDBRANCH  19  23
ENDBRANCH  12  15
TORSDOF 2
ENDMDL
MODEL      250
REMARK 921   NORMALIZED FREE ENERGY PREDICTED BY IDOCK:   -1.98 KCAL/MOL
REMARK 922        TOTAL FREE ENERGY PREDICTED BY IDOCK:   -2.55 KCAL/MOL
REMARK 923 INTER-LIGAND FREE ENERGY PREDICTED BY IDOCK:   -3.52 KCAL/MOL
REMARK 924 INTRA-LIGAND FREE ENERGY PREDICTED BY IDOCK:    0.97 KCAL/MOL
REMARK 927      BINDING AFFINITY PREDICTED BY RF-SCORE:    0.00 PKD
ROOT
HETATM    1  N   UNL     1      -5.651   7.248  72.255  1.00  0.00    -0.037 NA 
HETATM    2  C   UNL     1      -6.152   8.227  71.460  1.00  0.00    -0.040 C  
HETATM    3  H2  UNL     1      -4.647   7.207  72.432  1.00  0.00     0.000 HD 
HETATM    4  H1  UNL     1      -6.265   6.551  72.677  1.00  0.00     0.000 HD 
HETATM    5  N   UNL     1      -5.369   9.114  70.922  1.00  0.00    -0.029 N  
HETATM    6  C   UNL     1      -5.905  10.105  70.083  1.00  0.00    -0.059 C  
HETATM    7  H   UNL     1      -4.367   9.091  71.109  1.00  0.00     0.000 HD 
HETATM    8  C   UNL     1      -7.356  10.017  69.854  1.00  0.00    -0.161 A  
HETATM    9  O   UNL     1      -5.213  10.985  69.582  1.00  0.00    -0.041 OA 
HETATM   10  C   UNL     1      -8.074   9.037  70.486  1.00  0.00    -0.154 A  
HETATM   11  N   UNL     1      -7.511   8.147  71.314  1.00  0.00    -0.068 NA 
HETATM   12  N   UNL     1      -9.373   9.183  70.111  1.00  0.00    -0.192 NA 
HETATM   13  N   UNL     1      -8.195  10.773  69.066  1.00  0.00    -0.148 NA 
HETATM   14  C   UNL     1      -9.396  10.248  69.243  1.00  0.00    -0.207 A  
ENDROOT
BRANCH  12  15
HETATM   15  C   UNL     1     -10.498   8.432  70.625  1.00  0.00    -0.200 C  
HETATM   16  C   UNL     1     -10.791   7.134  69.873  1.00  0.00    -0.276 C  
HETATM   17  C   UNL     1     -11.828   6.478  70.775  1.00  0.00    -0.332 C  
HETATM   18  O   UNL     1     -13.083   7.135  70.568  1.00  0.00    -0.525 OA 
HETATM   19  C   UNL     1     -11.340   6.752  72.219  1.00  0.00    -0.310 C  
HETATM   20  C   UNL     1     -10.440   7.981  72.069  1.00  0.00    -0.308 C  
HETATM   21  H   UNL     1     -13.730   6.726  71.131  1.00  0.00     0.000 HD 
HETATM   22  C   UNL     1      -9.729   8.538  73.064  1.00  0.00    -0.063 C  
BRANCH  19  23
HETATM   23  C   UNL     1     -10.632   5.529  72.812  1.00  0.00    -0.225 C  
HETATM   24  O   UNL     1      -9.499   5.150  72.040  1.00  0.00    -0.145 OA 
HETATM   25  H   UNL     1      -9.060   4.392  72.408  1.00  0.00     0.000 HD 
ENDBRANCH  19  23
ENDBRANCH  12  15
TORSDOF 2
ENDMDL
MODEL      251
REMARK 921   NORMALIZED FREE ENERGY PREDICTED BY IDOCK:   -1.91 KCAL/MOL
REMARK 922        TOTAL FREE ENERGY PREDICTED BY IDOCK:   -2.47 KCAL/MOL
REMARK 923 INTER-LIGAND FREE ENERGY PREDICTED BY IDOCK:   -2.12 KCAL/MOL
REMARK 924 INTRA-LIGAND FREE ENERGY PREDICTED BY IDOCK:   -0.35 KCAL/MOL
REMARK 927      BINDING AFFINITY PREDICTED BY RF-SCORE:    0.00 PKD
ROOT
HETATM    1  N   UNL     1      -6.863   6.938  72.422  1.00  0.00    -0.062 NA 
HETATM    2  C   UNL     1      -7.875   7.277  71.583  1.00  0.00    -0.091 C  
HETATM    3  H2  UNL     1      -7.004   6.996  73.431  1.00  0.00     0.000 HD 
HETATM    4  H1  UNL     1      -5.963   6.627  72.057  1.00  0.00     0.000 HD 
HETATM    5  N   UNL     1      -9.022   7.675  72.049  1.00  0.00    -0.120 N  
HETATM    6  C   UNL     1     -10.047   8.044  71.163  1.00  0.00    -0.188 C  
HETATM    7  H   UNL     1      -9.176   7.718  73.055  1.00  0.00     0.000 HD 
HETATM    8  C   UNL     1      -9.698   7.979  69.735  1.00  0.00    -0.176 A  
HETATM    9  O   UNL     1     -11.157   8.390  71.553  1.00  0.00    -0.242 OA 
HETATM   10  C   UNL     1      -8.455   7.536  69.370  1.00  0.00    -0.133 A  
HETATM   11  N   UNL     1      -7.532   7.153  70.263  1.00  0.00    -0.083 NA 
HETATM   12  N   UNL     1      -8.397   7.569  68.012  1.00  0.00    -0.123 NA 
HETATM   13  N   UNL     1     -10.422   8.308  68.611  1.00  0.00    -0.198 NA 
HETATM   14  C   UNL     1      -9.615   8.050  67.596  1.00  0.00    -0.151 A  
ENDROOT
BRANCH  12  15
HETATM   15  C   UNL     1      -7.308   7.081  67.194  1.00  0.00    -0.090 C  
HETATM   16  C   UNL     1      -7.739   6.182  66.036  1.00  0.00    -0.092 C  
HETATM   17  C   UNL     1      -6.442   6.044  65.249  1.00  0.00    -0.042 C  
HETATM   18  O   UNL     1      -5.596   5.116  65.937  1.00  0.00    -0.013 OA 
HETATM   19  C   UNL     1      -5.796   7.450  65.285  1.00  0.00    -0.037 C  
HETATM   20  C   UNL     1      -6.424   8.106  66.518  1.00  0.00    -0.055 C  
HETATM   21  H   UNL     1      -4.787   5.031  65.446  1.00  0.00     0.000 HD 
HETATM   22  C   UNL     1      -6.212   9.375  66.903  1.00  0.00    -0.065 C  
BRANCH  19  23
HETATM   23  C   UNL     1      -6.042   8.213  63.979  1.00  0.00    -0.066 C  
HETATM   24  O   UNL     1      -7.410   8.568  63.826  1.00  0.00    -0.095 OA 
HETATM   25  H   UNL     1      -7.563   9.041  63.016  1.00  0.00     0.000 HD 
ENDBRANCH  19  23
ENDBRANCH  12  15
TORSDOF 2
ENDMDL
MODEL      252
REMARK 921   NORMALIZED FREE ENERGY PREDICTED BY IDOCK:   -1.91 KCAL/MOL
REMARK 922        TOTAL FREE ENERGY PREDICTED BY IDOCK:   -2.47 KCAL/MOL
REMARK 923 INTER-LIGAND FREE ENERGY PREDICTED BY IDOCK:   -2.35 KCAL/MOL
REMARK 924 INTRA-LIGAND FREE ENERGY PREDICTED BY IDOCK:   -0.11 KCAL/MOL
REMARK 927      BINDING AFFINITY PREDICTED BY RF-SCORE:    0.00 PKD
ROOT
HETATM    1  N   UNL     1      -9.928   7.855  67.187  1.00  0.00    -0.204 NA 
HETATM    2  C   UNL     1      -9.265   6.672  67.228  1.00  0.00    -0.125 C  
HETATM    3  H2  UNL     1     -10.266   8.213  66.293  1.00  0.00     0.000 HD 
HETATM    4  H1  UNL     1     -10.094   8.392  68.038  1.00  0.00     0.000 HD 
HETATM    5  N   UNL     1      -9.054   5.988  66.142  1.00  0.00    -0.151 N  
HETATM    6  C   UNL     1      -8.344   4.779  66.203  1.00  0.00    -0.111 C  
HETATM    7  H   UNL     1      -9.403   6.331  65.248  1.00  0.00     0.000 HD 
HETATM    8  C   UNL     1      -7.853   4.404  67.539  1.00  0.00    -0.085 A  
HETATM    9  O   UNL     1      -8.151   4.080  65.213  1.00  0.00    -0.099 OA 
HETATM   10  C   UNL     1      -8.148   5.206  68.608  1.00  0.00    -0.086 A  
HETATM   11  N   UNL     1      -8.872   6.328  68.493  1.00  0.00    -0.115 NA 
HETATM   12  N   UNL     1      -7.589   4.636  69.709  1.00  0.00    -0.054 NA 
HETATM   13  N   UNL     1      -7.095   3.334  67.957  1.00  0.00    -0.050 NA 
HETATM   14  C   UNL     1      -6.955   3.501  69.262  1.00  0.00    -0.045 A  
ENDROOT
BRANCH  12  15
HETATM   15  C   UNL     1      -7.745   5.086  71.074  1.00  0.00    -0.087 C  
HETATM   16  C   UNL     1      -7.160   6.471  71.355  1.00  0.00    -0.077 C  
HETATM   17  C   UNL     1      -7.686   6.752  72.757  1.00  0.00    -0.095 C  
HETATM   18  O   UNL     1      -6.905   5.996  73.690  1.00  0.00    -0.078 OA 
HETATM   19  C   UNL     1      -9.140   6.221  72.758  1.00  0.00    -0.131 C  
HETATM   20  C   UNL     1      -9.151   5.195  71.622  1.00  0.00    -0.163 C  
HETATM   21  H   UNL     1      -7.233   6.171  74.564  1.00  0.00     0.000 HD 
HETATM   22  C   UNL     1     -10.238   4.526  71.203  1.00  0.00    -0.163 C  
BRANCH  19  23
HETATM   23  C   UNL     1     -10.151   7.359  72.580  1.00  0.00    -0.208 C  
HETATM   24  O   UNL     1      -9.543   8.635  72.743  1.00  0.00    -0.224 OA 
HETATM   25  H   UNL     1     -10.170   9.340  72.633  1.00  0.00     0.000 HD 
ENDBRANCH  19  23
ENDBRANCH  12  15
TORSDOF 2
ENDMDL
MODEL      253
REMARK 921   NORMALIZED FREE ENERGY PREDICTED BY IDOCK:   -1.82 KCAL/MOL
REMARK 922        TOTAL FREE ENERGY PREDICTED BY IDOCK:   -2.37 KCAL/MOL
REMARK 923 INTER-LIGAND FREE ENERGY PREDICTED BY IDOCK:   -3.22 KCAL/MOL
REMARK 924 INTRA-LIGAND FREE ENERGY PREDICTED BY IDOCK:    0.85 KCAL/MOL
REMARK 927      BINDING AFFINITY PREDICTED BY RF-SCORE:    0.00 PKD
ROOT
HETATM    1  N   UNL     1      -5.831   9.646  64.996  1.00  0.00    -0.066 NA 
HETATM    2  C   UNL     1      -7.018   9.900  65.603  1.00  0.00    -0.108 C  
HETATM    3  H2  UNL     1      -5.259  10.423  64.664  1.00  0.00     0.000 HD 
HETATM    4  H1  UNL     1      -5.502   8.689  64.868  1.00  0.00     0.000 HD 
HETATM    5  N   UNL     1      -7.436  11.120  65.767  1.00  0.00    -0.370 N  
HETATM    6  C   UNL     1      -8.679  11.359  66.375  1.00  0.00    -0.185 C  
HETATM    7  H   UNL     1      -6.863  11.902  65.453  1.00  0.00     0.000 HD 
HETATM    8  C   UNL     1      -9.437  10.154  66.751  1.00  0.00    -0.168 A  
HETATM    9  O   UNL     1      -9.100  12.491  66.585  1.00  0.00    -0.220 OA 
HETATM   10  C   UNL     1      -8.884   8.921  66.533  1.00  0.00    -0.136 A  
HETATM   11  N   UNL     1      -7.670   8.759  65.988  1.00  0.00    -0.096 NA 
HETATM   12  N   UNL     1      -9.777   7.994  66.970  1.00  0.00    -0.192 NA 
HETATM   13  N   UNL     1     -10.686  10.010  67.311  1.00  0.00    -0.262 NA 
HETATM   14  C   UNL     1     -10.860   8.704  67.430  1.00  0.00    -0.013 A  
ENDROOT
BRANCH  12  15
HETATM   15  C   UNL     1      -9.559   6.565  67.034  1.00  0.00    -0.144 C  
HETATM   16  C   UNL     1      -8.090   6.151  67.118  1.00  0.00    -0.106 C  
HETATM   17  C   UNL     1      -8.202   4.662  67.415  1.00  0.00    -0.101 C  
HETATM   18  O   UNL     1      -8.547   3.986  66.201  1.00  0.00    -0.109 OA 
HETATM   19  C   UNL     1      -9.373   4.537  68.421  1.00  0.00    -0.194 C  
HETATM   20  C   UNL     1     -10.189   5.810  68.184  1.00  0.00    -0.235 C  
HETATM   21  H   UNL     1      -8.617   3.057  66.387  1.00  0.00     0.000 HD 
HETATM   22  C   UNL     1     -11.271   6.171  68.895  1.00  0.00    -0.338 C  
BRANCH  19  23
HETATM   23  C   UNL     1      -8.862   4.381  69.857  1.00  0.00    -0.083 C  
HETATM   24  O   UNL     1      -8.285   5.586  70.345  1.00  0.00    -0.100 OA 
HETATM   25  H   UNL     1      -7.969   5.488  71.236  1.00  0.00     0.000 HD 
ENDBRANCH  19  23
ENDBRANCH  12  15
TORSDOF 2
ENDMDL
MODEL      254
REMARK 921   NORMALIZED FREE ENERGY PREDICTED BY IDOCK:   -1.45 KCAL/MOL
REMARK 922        TOTAL FREE ENERGY PREDICTED BY IDOCK:   -1.96 KCAL/MOL
REMARK 923 INTER-LIGAND FREE ENERGY PREDICTED BY IDOCK:   -1.89 KCAL/MOL
REMARK 924 INTRA-LIGAND FREE ENERGY PREDICTED BY IDOCK:   -0.07 KCAL/MOL
REMARK 927      BINDING AFFINITY PREDICTED BY RF-SCORE:    0.00 PKD
ROOT
HETATM    1  N   UNL     1      -5.602   3.543  66.788  1.00  0.00    -0.021 NA 
HETATM    2  C   UNL     1      -6.630   3.548  67.674  1.00  0.00    -0.042 C  
HETATM    3  H2  UNL     1      -5.011   2.716  66.707  1.00  0.00     0.000 HD 
HETATM    4  H1  UNL     1      -5.413   4.356  66.202  1.00  0.00     0.000 HD 
HETATM    5  N   UNL     1      -6.871   2.511  68.421  1.00  0.00    -0.042 N  
HETATM    6  C   UNL     1      -7.924   2.546  69.350  1.00  0.00    -0.041 C  
HETATM    7  H   UNL     1      -6.295   1.674  68.333  1.00  0.00     0.000 HD 
HETATM    8  C   UNL     1      -8.661   3.818  69.417  1.00  0.00    -0.074 A  
HETATM    9  O   UNL     1      -8.213   1.581  70.050  1.00  0.00    -0.041 OA 
HETATM   10  C   UNL     1      -8.315   4.836  68.570  1.00  0.00    -0.083 A  
HETATM   11  N   UNL     1      -7.327   4.726  67.671  1.00  0.00    -0.073 NA 
HETATM   12  N   UNL     1      -9.145   5.880  68.833  1.00  0.00    -0.120 NA 
HETATM   13  N   UNL     1      -9.698   4.220  70.228  1.00  0.00    -0.199 NA 
HETATM   14  C   UNL     1      -9.966   5.460  69.852  1.00  0.00    -0.224 A  
ENDROOT
BRANCH  12  15
HETATM   15  C   UNL     1      -9.209   7.124  68.097  1.00  0.00    -0.131 C  
HETATM   16  C   UNL     1      -7.954   7.990  68.205  1.00  0.00    -0.128 C  
HETATM   17  C   UNL     1      -8.226   9.065  67.161  1.00  0.00    -0.110 C  
HETATM   18  O   UNL     1      -9.173   9.991  67.705  1.00  0.00    -0.134 OA 
HETATM   19  C   UNL     1      -8.870   8.316  65.968  1.00  0.00    -0.203 C  
HETATM   20  C   UNL     1      -9.439   7.046  66.604  1.00  0.00    -0.210 C  
HETATM   21  H   UNL     1      -9.343  10.661  67.054  1.00  0.00     0.000 HD 
HETATM   22  C   UNL     1     -10.031   6.047  65.926  1.00  0.00     0.205 C  
BRANCH  19  23
HETATM   23  C   UNL     1      -7.849   8.055  64.855  1.00  0.00    -0.129 C  
HETATM   24  O   UNL     1      -7.035   9.194  64.608  1.00  0.00    -0.087 OA 
HETATM   25  H   UNL     1      -6.402   9.031  63.918  1.00  0.00     0.000 HD 
ENDBRANCH  19  23
ENDBRANCH  12  15
TORSDOF 2
ENDMDL
MODEL      255
REMARK 921   NORMALIZED FREE ENERGY PREDICTED BY IDOCK:   -1.44 KCAL/MOL
REMARK 922        TOTAL FREE ENERGY PREDICTED BY IDOCK:   -1.95 KCAL/MOL
REMARK 923 INTER-LIGAND FREE ENERGY PREDICTED BY IDOCK:   -2.50 KCAL/MOL
REMARK 924 INTRA-LIGAND FREE ENERGY PREDICTED BY IDOCK:    0.55 KCAL/MOL
REMARK 927      BINDING AFFINITY PREDICTED BY RF-SCORE:    0.00 PKD
ROOT
HETATM    1  N   UNL     1      -5.132   5.534  70.365  1.00  0.00    -0.004 NA 
HETATM    2  C   UNL     1      -6.004   5.156  69.396  1.00  0.00    -0.021 C  
HETATM    3  H2  UNL     1      -4.153   5.252  70.300  1.00  0.00     0.000 HD 
HETATM    4  H1  UNL     1      -5.441   6.096  71.158  1.00  0.00     0.000 HD 
HETATM    5  N   UNL     1      -5.609   4.439  68.386  1.00  0.00    -0.015 N  
HETATM    6  C   UNL     1      -6.533   4.038  67.408  1.00  0.00    -0.038 C  
HETATM    7  H   UNL     1      -4.629   4.169  68.305  1.00  0.00     0.000 HD 
HETATM    8  C   UNL     1      -7.924   4.453  67.649  1.00  0.00    -0.092 A  
HETATM    9  O   UNL     1      -6.202   3.393  66.418  1.00  0.00    -0.027 OA 
HETATM   10  C   UNL     1      -8.213   5.215  68.750  1.00  0.00    -0.085 A  
HETATM   11  N   UNL     1      -7.277   5.606  69.625  1.00  0.00    -0.064 NA 
HETATM   12  N   UNL     1      -9.550   5.460  68.732  1.00  0.00    -0.129 NA 
HETATM   13  N   UNL     1      -9.078   4.202  66.942  1.00  0.00    -0.131 NA 
HETATM   14  C   UNL     1     -10.034   4.820  67.616  1.00  0.00    -0.124 A  
ENDROOT
BRANCH  12  15
HETATM   15  C   UNL     1     -10.271   6.320  69.645  1.00  0.00    -0.186 C  
HETATM   16  C   UNL     1     -11.773   6.411  69.378  1.00  0.00    -0.044 C  
HETATM   17  C   UNL     1     -12.264   7.160  70.610  1.00  0.00    -0.200 C  
HETATM   18  O   UNL     1     -11.934   8.545  70.455  1.00  0.00    -0.486 OA 
HETATM   19  C   UNL     1     -11.454   6.571  71.791  1.00  0.00    -0.346 C  
HETATM   20  C   UNL     1     -10.207   5.988  71.120  1.00  0.00    -0.257 C  
HETATM   21  H   UNL     1     -12.240   9.012  71.224  1.00  0.00     0.000 HD 
HETATM   22  C   UNL     1      -9.244   5.301  71.756  1.00  0.00    -0.160 C  
BRANCH  19  23
HETATM   23  C   UNL     1     -12.277   5.544  72.577  1.00  0.00     0.184 C  
HETATM   24  O   UNL     1     -13.630   5.957  72.728  1.00  0.00    -0.277 OA 
HETATM   25  H   UNL     1     -14.140   5.320  73.215  1.00  0.00     0.000 HD 
ENDBRANCH  19  23
ENDBRANCH  12  15
TORSDOF 2
ENDMDL
MODEL      256
REMARK 921   NORMALIZED FREE ENERGY PREDICTED BY IDOCK:   -0.17 KCAL/MOL
REMARK 922        TOTAL FREE ENERGY PREDICTED BY IDOCK:   -0.52 KCAL/MOL
REMARK 923 INTER-LIGAND FREE ENERGY PREDICTED BY IDOCK:   -0.88 KCAL/MOL
REMARK 924 INTRA-LIGAND FREE ENERGY PREDICTED BY IDOCK:    0.35 KCAL/MOL
REMARK 927      BINDING AFFINITY PREDICTED BY RF-SCORE:    0.00 PKD
ROOT
HETATM    1  N   UNL     1      -7.966  20.376  65.348  1.00  0.00    -0.401 NA 
HETATM    2  C   UNL     1      -8.548  19.944  66.496  1.00  0.00    -0.341 C  
HETATM    3  H2  UNL     1      -8.202  21.298  64.980  1.00  0.00     0.000 HD 
HETATM    4  H1  UNL     1      -7.297  19.791  64.847  1.00  0.00     0.000 HD 
HETATM    5  N   UNL     1      -9.400  20.690  67.133  1.00  0.00    -0.595 N  
HETATM    6  C   UNL     1     -10.009  20.215  68.306  1.00  0.00    -0.319 C  
HETATM    7  H   UNL     1      -9.627  21.620  66.781  1.00  0.00     0.000 HD 
HETATM    8  C   UNL     1      -9.635  18.846  68.697  1.00  0.00    -0.391 A  
HETATM    9  O   UNL     1     -10.790  20.895  68.962  1.00  0.00     0.462 OA 
HETATM   10  C   UNL     1      -8.718  18.163  67.945  1.00  0.00    -0.261 A  
HETATM   11  N   UNL     1      -8.136  18.690  66.858  1.00  0.00    -0.242 NA 
HETATM   12  N   UNL     1      -8.551  16.942  68.520  1.00  0.00    -0.242 NA 
HETATM   13  N   UNL     1     -10.063  18.055  69.739  1.00  0.00     0.334 NA 
HETATM   14  C   UNL     1      -9.393  16.921  69.606  1.00  0.00     0.477 A  
ENDROOT
BRANCH  12  15
HETATM   15  C   UNL     1      -7.591  15.936  68.122  1.00  0.00    -0.131 C  
HETATM   16  C   UNL     1      -6.133  16.315  68.378  1.00  0.00    -0.112 C  
HETATM   17  C   UNL     1      -5.415  15.001  68.096  1.00  0.00    -0.126 C  
HETATM   18  O   UNL     1      -5.345  14.824  66.676  1.00  0.00     1.038 OA 
HETATM   19  C   UNL     1      -6.324  13.905  68.703  1.00  0.00    -0.090 C  
HETATM   20  C   UNL     1      -7.703  14.568  68.757  1.00  0.00    -0.140 C  
HETATM   21  H   UNL     1      -4.898  14.005  66.500  1.00  0.00     0.000 HD 
HETATM   22  C   UNL     1      -8.803  14.008  69.289  1.00  0.00     0.441 C  
BRANCH  19  23
HETATM   23  C   UNL     1      -5.802  13.437  70.066  1.00  0.00    -0.132 C  
HETATM   24  O   UNL     1      -5.148  14.487  70.768  1.00  0.00    -0.107 OA 
HETATM   25  H   UNL     1      -4.824  14.196  71.613  1.00  0.00     0.000 HD 
ENDBRANCH  19  23
ENDBRANCH  12  15
TORSDOF 2
ENDMDL
MODEL      257
REMARK 921   NORMALIZED FREE ENERGY PREDICTED BY IDOCK:    3.86 KCAL/MOL
REMARK 922        TOTAL FREE ENERGY PREDICTED BY IDOCK:    3.97 KCAL/MOL
REMARK 923 INTER-LIGAND FREE ENERGY PREDICTED BY IDOCK:    3.59 KCAL/MOL
REMARK 924 INTRA-LIGAND FREE ENERGY PREDICTED BY IDOCK:    0.38 KCAL/MOL
REMARK 927      BINDING AFFINITY PREDICTED BY RF-SCORE:    0.00 PKD
ROOT
HETATM    1  N   UNL     1     -13.601  10.904  63.999  1.00  0.00     2.432 NA 
HETATM    2  C   UNL     1     -12.958  12.055  64.321  1.00  0.00     0.012 C  
HETATM    3  H2  UNL     1     -13.754  10.671  63.018  1.00  0.00     0.000 HD 
HETATM    4  H1  UNL     1     -13.934  10.270  64.725  1.00  0.00     0.000 HD 
HETATM    5  N   UNL     1     -12.535  12.864  63.396  1.00  0.00    -0.725 N  
HETATM    6  C   UNL     1     -11.894  14.062  63.751  1.00  0.00    -0.125 C  
HETATM    7  H   UNL     1     -12.668  12.629  62.413  1.00  0.00     0.000 HD 
HETATM    8  C   UNL     1     -11.793  14.315  65.197  1.00  0.00    -0.384 A  
HETATM    9  O   UNL     1     -11.444  14.838  62.915  1.00  0.00     2.027 OA 
HETATM   10  C   UNL     1     -12.272  13.380  66.075  1.00  0.00    -0.437 A  
HETATM   11  N   UNL     1     -12.834  12.231  65.673  1.00  0.00     0.209 NA 
HETATM   12  N   UNL     1     -12.051  13.853  67.330  1.00  0.00    -0.385 NA 
HETATM   13  N   UNL     1     -11.282  15.387  65.894  1.00  0.00    -0.243 NA 
HETATM   14  C   UNL     1     -11.452  15.079  67.170  1.00  0.00    -0.297 A  
ENDROOT
BRANCH  12  15
HETATM   15  C   UNL     1     -12.298  13.140  68.565  1.00  0.00     0.169 C  
HETATM   16  C   UNL     1     -11.090  12.378  69.110  1.00  0.00    -0.260 C  
HETATM   17  C   UNL     1     -11.582  11.959  70.489  1.00  0.00     0.186 C  
HETATM   18  O   UNL     1     -12.479  10.854  70.329  1.00  0.00    -0.312 OA 
HETATM   19  C   UNL     1     -12.367  13.180  71.027  1.00  0.00    -0.355 C  
HETATM   20  C   UNL     1     -12.759  13.945  69.760  1.00  0.00     0.055 C  
HETATM   21  H   UNL     1     -12.786  10.593  71.189  1.00  0.00     0.000 HD 
HETATM   22  C   UNL     1     -13.396  15.128  69.745  1.00  0.00     0.764 C  
BRANCH  19  23
HETATM   23  C   UNL     1     -11.523  13.996  72.013  1.00  0.00     1.602 C  
HETATM   24  O   UNL     1     -12.120  15.254  72.301  1.00  0.00    -0.341 OA 
HETATM   25  H   UNL     1     -11.597  15.760  72.913  1.00  0.00     0.000 HD 
ENDBRANCH  19  23
ENDBRANCH  12  15
TORSDOF 2
ENDMDL
MODEL      258
REMARK 921   NORMALIZED FREE ENERGY PREDICTED BY IDOCK:    6.21 KCAL/MOL
REMARK 922        TOTAL FREE ENERGY PREDICTED BY IDOCK:    6.60 KCAL/MOL
REMARK 923 INTER-LIGAND FREE ENERGY PREDICTED BY IDOCK:    4.49 KCAL/MOL
REMARK 924 INTRA-LIGAND FREE ENERGY PREDICTED BY IDOCK:    2.11 KCAL/MOL
REMARK 927      BINDING AFFINITY PREDICTED BY RF-SCORE:    0.00 PKD
ROOT
HETATM    1  N   UNL     1     -12.360   9.639  67.620  1.00  0.00     3.361 NA 
HETATM    2  C   UNL     1     -11.388   9.663  68.568  1.00  0.00     0.168 C  
HETATM    3  H2  UNL     1     -13.303   9.945  67.859  1.00  0.00     0.000 HD 
HETATM    4  H1  UNL     1     -12.160   9.317  66.673  1.00  0.00     0.000 HD 
HETATM    5  N   UNL     1     -11.644  10.073  69.775  1.00  0.00    -0.411 N  
HETATM    6  C   UNL     1     -10.631  10.067  70.746  1.00  0.00    -0.138 C  
HETATM    7  H   UNL     1     -12.580  10.398  70.016  1.00  0.00     0.000 HD 
HETATM    8  C   UNL     1      -9.332   9.541  70.296  1.00  0.00    -0.259 A  
HETATM    9  O   UNL     1     -10.813  10.478  71.888  1.00  0.00     1.839 OA 
HETATM   10  C   UNL     1      -9.186   9.146  68.994  1.00  0.00    -0.143 A  
HETATM   11  N   UNL     1     -10.181   9.219  68.099  1.00  0.00    -0.195 NA 
HETATM   12  N   UNL     1      -7.905   8.713  68.844  1.00  0.00    -0.103 NA 
HETATM   13  N   UNL     1      -8.151   9.344  70.976  1.00  0.00    -0.318 NA 
HETATM   14  C   UNL     1      -7.316   8.849  70.078  1.00  0.00    -0.056 A  
ENDROOT
BRANCH  12  15
HETATM   15  C   UNL     1      -7.283   8.310  67.602  1.00  0.00    -0.088 C  
HETATM   16  C   UNL     1      -7.153   6.798  67.420  1.00  0.00    -0.084 C  
HETATM   17  C   UNL     1      -6.708   6.696  65.967  1.00  0.00    -0.048 C  
HETATM   18  O   UNL     1      -5.319   7.041  65.897  1.00  0.00    -0.022 OA 
HETATM   19  C   UNL     1      -7.538   7.764  65.213  1.00  0.00    -0.091 C  
HETATM   20  C   UNL     1      -7.938   8.752  66.311  1.00  0.00    -0.106 C  
HETATM   21  H   UNL     1      -5.041   6.977  64.991  1.00  0.00     0.000 HD 
HETATM   22  C   UNL     1      -8.739   9.815  66.132  1.00  0.00    -0.150 C  
BRANCH  19  23
HETATM   23  C   UNL     1      -8.725   7.132  64.478  1.00  0.00     0.490 C  
HETATM   24  O   UNL     1      -9.936   7.278  65.210  1.00  0.00     0.846 OA 
HETATM   25  H   UNL     1     -10.672   6.886  64.754  1.00  0.00     0.000 HD 
ENDBRANCH  19  23
ENDBRANCH  12  15
TORSDOF 2
ENDMDL
MODEL      259
REMARK 921   NORMALIZED FREE ENERGY PREDICTED BY IDOCK:   20.11 KCAL/MOL
REMARK 922        TOTAL FREE ENERGY PREDICTED BY IDOCK:   22.12 KCAL/MOL
REMARK 923 INTER-LIGAND FREE ENERGY PREDICTED BY IDOCK:   22.13 KCAL/MOL
REMARK 924 INTRA-LIGAND FREE ENERGY PREDICTED BY IDOCK:   -0.01 KCAL/MOL
REMARK 927      BINDING AFFINITY PREDICTED BY RF-SCORE:    0.00 PKD
ROOT
HETATM    1  N   UNL     1      -5.930  14.893  64.831  1.00  0.00    14.171 NA 
HETATM    2  C   UNL     1      -6.497  14.737  66.054  1.00  0.00     5.965 C  
HETATM    3  H2  UNL     1      -5.600  15.815  64.544  1.00  0.00     0.000 HD 
HETATM    4  H1  UNL     1      -5.829  14.102  64.196  1.00  0.00     0.000 HD 
HETATM    5  N   UNL     1      -6.626  15.747  66.864  1.00  0.00     0.083 N  
HETATM    6  C   UNL     1      -7.238  15.569  68.114  1.00  0.00    -0.117 C  
HETATM    7  H   UNL     1      -6.282  16.667  66.590  1.00  0.00     0.000 HD 
HETATM    8  C   UNL     1      -7.730  14.209  68.385  1.00  0.00    -0.140 A  
HETATM    9  O   UNL     1      -7.349  16.481  68.927  1.00  0.00    -0.193 OA 
HETATM   10  C   UNL     1      -7.528  13.227  67.453  1.00  0.00    -0.124 A  
HETATM   11  N   UNL     1      -6.893  13.449  66.294  1.00  0.00     2.281 NA 
HETATM   12  N   UNL     1      -8.067  12.081  67.949  1.00  0.00    -0.140 NA 
HETATM   13  N   UNL     1      -8.411  13.691  69.464  1.00  0.00     0.851 NA 
HETATM   14  C   UNL     1      -8.597  12.414  69.172  1.00  0.00     0.651 A  
ENDROOT
BRANCH  12  15
HETATM   15  C   UNL     1      -7.983  10.769  67.346  1.00  0.00    -0.112 C  
HETATM   16  C   UNL     1      -6.859   9.890  67.895  1.00  0.00    -0.076 C  
HETATM   17  C   UNL     1      -7.180   8.542  67.263  1.00  0.00    -0.084 C  
HETATM   18  O   UNL     1      -6.772   8.581  65.891  1.00  0.00    -0.056 OA 
HETATM   19  C   UNL     1      -8.722   8.419  67.334  1.00  0.00    -0.136 C  
HETATM   20  C   UNL     1      -9.196   9.871  67.446  1.00  0.00    -0.151 C  
HETATM   21  H   UNL     1      -6.972   7.740  65.496  1.00  0.00     0.000 HD 
HETATM   22  C   UNL     1     -10.475  10.250  67.610  1.00  0.00    -0.285 C  
BRANCH  19  23
HETATM   23  C   UNL     1      -9.159   7.528  68.501  1.00  0.00    -0.134 C  
HETATM   24  O   UNL     1      -8.301   7.674  69.626  1.00  0.00    -0.127 OA 
HETATM   25  H   UNL     1      -8.573   7.122  70.350  1.00  0.00     0.000 HD 
ENDBRANCH  19  23
ENDBRANCH  12  15
TORSDOF 2
ENDMDL
MODEL      260
REMARK 921   NORMALIZED FREE ENERGY PREDICTED BY IDOCK:   25.25 KCAL/MOL
REMARK 922        TOTAL FREE ENERGY PREDICTED BY IDOCK:   27.87 KCAL/MOL
REMARK 923 INTER-LIGAND FREE ENERGY PREDICTED BY IDOCK:   25.22 KCAL/MOL
REMARK 924 INTRA-LIGAND FREE ENERGY PREDICTED BY IDOCK:    2.64 KCAL/MOL
REMARK 927      BINDING AFFINITY PREDICTED BY RF-SCORE:    0.00 PKD
ROOT
HETATM    1  N   UNL     1     -13.930   9.805  67.385  1.00  0.00    16.322 NA 
HETATM    2  C   UNL     1     -13.353   9.823  68.614  1.00  0.00     7.010 C  
HETATM    3  H2  UNL     1     -14.926  10.003  67.294  1.00  0.00     0.000 HD 
HETATM    4  H1  UNL     1     -13.380   9.596  66.552  1.00  0.00     0.000 HD 
HETATM    5  N   UNL     1     -14.054  10.089  69.676  1.00  0.00     2.007 N  
HETATM    6  C   UNL     1     -13.442  10.078  70.940  1.00  0.00    -0.119 C  
HETATM    7  H   UNL     1     -15.046  10.306  69.591  1.00  0.00     0.000 HD 
HETATM    8  C   UNL     1     -12.016   9.715  70.945  1.00  0.00    -0.309 A  
HETATM    9  O   UNL     1     -14.052  10.359  71.966  1.00  0.00     0.141 OA 
HETATM   10  C   UNL     1     -11.386   9.462  69.756  1.00  0.00    -0.042 A  
HETATM   11  N   UNL     1     -12.015   9.534  68.574  1.00  0.00     1.049 NA 
HETATM   12  N   UNL     1     -10.092   9.160  70.040  1.00  0.00    -0.194 NA 
HETATM   13  N   UNL     1     -11.127   9.557  71.984  1.00  0.00     0.008 NA 
HETATM   14  C   UNL     1      -9.982   9.226  71.408  1.00  0.00    -0.253 A  
ENDROOT
BRANCH  12  15
HETATM   15  C   UNL     1      -9.037   8.936  69.075  1.00  0.00    -0.137 C  
HETATM   16  C   UNL     1      -8.566   7.485  68.978  1.00  0.00    -0.136 C  
HETATM   17  C   UNL     1      -7.667   7.531  67.749  1.00  0.00    -0.115 C  
HETATM   18  O   UNL     1      -6.424   8.136  68.124  1.00  0.00    -0.053 OA 
HETATM   19  C   UNL     1      -8.402   8.452  66.745  1.00  0.00    -0.109 C  
HETATM   20  C   UNL     1      -9.317   9.299  67.633  1.00  0.00    -0.146 C  
HETATM   21  H   UNL     1      -5.864   8.165  67.358  1.00  0.00     0.000 HD 
HETATM   22  C   UNL     1     -10.208  10.198  67.181  1.00  0.00    -0.278 C  
BRANCH  19  23
HETATM   23  C   UNL     1      -9.144   7.638  65.679  1.00  0.00     0.084 C  
HETATM   24  O   UNL     1     -10.542   7.588  65.935  1.00  0.00     0.496 OA 
HETATM   25  H   UNL     1     -11.003   7.083  65.274  1.00  0.00     0.000 HD 
ENDBRANCH  19  23
ENDBRANCH  12  15
TORSDOF 2
ENDMDL
MODEL      261
REMARK 921   NORMALIZED FREE ENERGY PREDICTED BY IDOCK:   28.46 KCAL/MOL
REMARK 922        TOTAL FREE ENERGY PREDICTED BY IDOCK:   31.45 KCAL/MOL
REMARK 923 INTER-LIGAND FREE ENERGY PREDICTED BY IDOCK:   31.47 KCAL/MOL
REMARK 924 INTRA-LIGAND FREE ENERGY PREDICTED BY IDOCK:   -0.02 KCAL/MOL
REMARK 927      BINDING AFFINITY PREDICTED BY RF-SCORE:    0.00 PKD
ROOT
HETATM    1  N   UNL     1     -12.875  10.486  66.616  1.00  0.00     6.329 NA 
HETATM    2  C   UNL     1     -12.316  11.715  66.753  1.00  0.00     1.559 C  
HETATM    3  H2  UNL     1     -12.997  10.089  65.684  1.00  0.00     0.000 HD 
HETATM    4  H1  UNL     1     -13.175   9.954  67.433  1.00  0.00     0.000 HD 
HETATM    5  N   UNL     1     -11.935  12.394  65.711  1.00  0.00    -0.417 N  
HETATM    6  C   UNL     1     -11.382  13.674  65.873  1.00  0.00    -0.309 C  
HETATM    7  H   UNL     1     -12.038  11.996  64.778  1.00  0.00     0.000 HD 
HETATM    8  C   UNL     1     -11.319  14.161  67.261  1.00  0.00    -0.332 A  
HETATM    9  O   UNL     1     -10.973  14.337  64.926  1.00  0.00    -0.362 OA 
HETATM   10  C   UNL     1     -11.747  13.347  68.275  1.00  0.00    -0.356 A  
HETATM   11  N   UNL     1     -12.224  12.113  68.060  1.00  0.00    -0.326 NA 
HETATM   12  N   UNL     1     -11.577  14.028  69.439  1.00  0.00    -0.278 NA 
HETATM   13  N   UNL     1     -10.893  15.363  67.779  1.00  0.00    -0.294 NA 
HETATM   14  C   UNL     1     -11.059  15.251  69.087  1.00  0.00    -0.263 A  
ENDROOT
BRANCH  12  15
HETATM   15  C   UNL     1     -11.793  13.505  70.771  1.00  0.00    -0.034 C  
HETATM   16  C   UNL     1     -13.036  12.627  70.913  1.00  0.00     0.057 C  
HETATM   17  C   UNL     1     -12.853  12.052  72.311  1.00  0.00     0.221 C  
HETATM   18  O   UNL     1     -13.196  13.066  73.263  1.00  0.00    -0.032 OA 
HETATM   19  C   UNL     1     -11.342  11.735  72.424  1.00  0.00     7.033 C  
HETATM   20  C   UNL     1     -10.702  12.648  71.375  1.00  0.00     6.227 C  
HETATM   21  H   UNL     1     -13.081  12.707  74.135  1.00  0.00     0.000 HD 
HETATM   22  C   UNL     1      -9.395  12.660  71.062  1.00  0.00    10.865 C  
BRANCH  19  23
HETATM   23  C   UNL     1     -11.065  10.244  72.205  1.00  0.00     2.554 C  
HETATM   24  O   UNL     1     -12.249   9.532  71.866  1.00  0.00    -0.374 OA 
HETATM   25  H   UNL     1     -12.077   8.608  71.730  1.00  0.00     0.000 HD 
ENDBRANCH  19  23
ENDBRANCH  12  15
TORSDOF 2
ENDMDL
