MODEL        1
REMARK 921   NORMALIZED FREE ENERGY PREDICTED BY IDOCK:   -8.70 KCAL/MOL
REMARK 922        TOTAL FREE ENERGY PREDICTED BY IDOCK:  -14.78 KCAL/MOL
REMARK 923 INTER-LIGAND FREE ENERGY PREDICTED BY IDOCK:  -12.26 KCAL/MOL
REMARK 924 INTRA-LIGAND FREE ENERGY PREDICTED BY IDOCK:   -2.52 KCAL/MOL
REMARK 927      BINDING AFFINITY PREDICTED BY RF-SCORE:    0.00 PKD
ROOT
HETATM    1  C   UNL     1      -8.664  20.211  66.533  1.00  0.00    -0.261 C  
HETATM    2  N   UNL     1     -10.080  19.989  66.816  1.00  0.00    -0.450 NA 
HETATM    3  C   UNL     1     -10.638  18.929  65.946  1.00  0.00    -0.373 C  
HETATM    4  C   UNL     1     -10.176  17.500  66.301  1.00  0.00    -0.355 C  
HETATM    5  N   UNL     1     -10.513  17.218  67.711  1.00  0.00    -0.359 NA 
HETATM    6  C   UNL     1      -9.895  18.174  68.641  1.00  0.00    -0.377 C  
HETATM    7  C   UNL     1     -10.299  19.618  68.237  1.00  0.00    -0.420 C  
ENDROOT
BRANCH   5   8
HETATM    8  C   UNL     1     -10.992  15.977  68.088  1.00  0.00    -0.339 A  
HETATM    9  C   UNL     1     -11.626  15.721  69.300  1.00  0.00    -0.380 A  
HETATM   10  C   UNL     1     -12.031  14.424  69.643  1.00  0.00    -0.385 A  
HETATM   11  C   UNL     1     -11.804  13.339  68.778  1.00  0.00    -0.371 A  
HETATM   12  C   UNL     1     -11.256  13.563  67.503  1.00  0.00    -0.283 A  
HETATM   13  C   UNL     1     -10.886  14.885  67.206  1.00  0.00    -0.306 A  
BRANCH  11  14
HETATM   14  C   UNL     1     -12.145  11.984  69.309  1.00  0.00    -0.190 C  
HETATM   15  H   UNL     1     -11.990  12.713  71.234  1.00  0.00     0.000 HD 
HETATM   16  O   UNL     1     -12.400  11.099  68.494  1.00  0.00    -0.561 OA 
HETATM   17  N   UNL     1     -12.174  11.872  70.686  1.00  0.00    -0.374 N  
BRANCH  17  18
HETATM   18  C   UNL     1     -12.435  10.701  71.377  1.00  0.00    -0.390 A  
HETATM   19  C   UNL     1     -11.612   9.526  71.371  1.00  0.00    -0.466 A  
HETATM   20  C   UNL     1     -10.392   9.116  70.803  1.00  0.00    -0.323 A  
HETATM   21  N   UNL     1     -13.518  10.513  72.132  1.00  0.00    -0.529 NA 
HETATM   22  N   UNL     1     -13.418   9.260  72.575  1.00  0.00    -0.453 NA 
HETATM   23  H   UNL     1     -14.262  11.184  72.327  1.00  0.00     0.000 HD 
HETATM   24  C   UNL     1      -9.937   7.790  70.959  1.00  0.00    -0.191 A  
HETATM   25  C   UNL     1     -10.704   6.884  71.702  1.00  0.00    -0.246 A  
HETATM   26  C   UNL     1     -12.318   8.589  72.119  1.00  0.00    -0.382 A  
HETATM   27  C   UNL     1     -11.905   7.269  72.306  1.00  0.00    -0.287 A  
BRANCH  24  28
HETATM   28  C   UNL     1      -8.605   7.366  70.376  1.00  0.00    -0.144 C  
BRANCH  28  29
HETATM   29  C   UNL     1      -8.548   7.207  68.869  1.00  0.00    -0.129 A  
HETATM   30  C   UNL     1      -9.320   6.274  68.160  1.00  0.00    -0.115 A  
HETATM   31  C   UNL     1      -9.275   6.230  66.767  1.00  0.00    -0.137 A  
HETATM   32  F   UNL     1     -10.038   5.344  66.115  1.00  0.00    -0.183 F  
HETATM   33  C   UNL     1      -8.465   7.093  66.045  1.00  0.00    -0.148 A  
HETATM   34  C   UNL     1      -7.680   7.998  66.741  1.00  0.00    -0.098 A  
HETATM   35  C   UNL     1      -7.712   8.063  68.134  1.00  0.00    -0.118 A  
HETATM   36  F   UNL     1      -6.883   8.836  66.065  1.00  0.00    -0.068 F  
ENDBRANCH  28  29
ENDBRANCH  24  28
ENDBRANCH  17  18
ENDBRANCH  11  14
BRANCH  12  37
HETATM   37  N   UNL     1     -11.008  12.522  66.599  1.00  0.00    -0.257 NA 
HETATM   38  H   UNL     1     -11.567  11.672  66.669  1.00  0.00     0.000 HD 
BRANCH  37  39
HETATM   39  C   UNL     1      -9.975  12.602  65.552  1.00  0.00    -0.224 C  
HETATM   40  C   UNL     1     -10.502  12.864  64.138  1.00  0.00    -0.429 C  
HETATM   41  O   UNL     1     -10.283  10.503  63.586  1.00  0.00    -0.257 OA 
HETATM   42  C   UNL     1      -9.951  10.164  64.931  1.00  0.00    -0.288 C  
HETATM   43  C   UNL     1      -9.169  11.305  65.565  1.00  0.00    -0.220 C  
HETATM   44  C   UNL     1     -11.148  11.634  63.517  1.00  0.00    -0.393 C  
ENDBRANCH  37  39
ENDBRANCH  12  37
ENDBRANCH   5   8
TORSDOF 7
ENDMDL
MODEL        2
REMARK 921   NORMALIZED FREE ENERGY PREDICTED BY IDOCK:   -8.42 KCAL/MOL
REMARK 922        TOTAL FREE ENERGY PREDICTED BY IDOCK:  -14.39 KCAL/MOL
REMARK 923 INTER-LIGAND FREE ENERGY PREDICTED BY IDOCK:  -12.10 KCAL/MOL
REMARK 924 INTRA-LIGAND FREE ENERGY PREDICTED BY IDOCK:   -2.29 KCAL/MOL
REMARK 927      BINDING AFFINITY PREDICTED BY RF-SCORE:    0.00 PKD
ROOT
HETATM    1  C   UNL     1      -8.610  20.497  66.875  1.00  0.00    -0.176 C  
HETATM    2  N   UNL     1     -10.036  20.240  67.060  1.00  0.00    -0.452 NA 
HETATM    3  C   UNL     1     -10.507  19.168  66.153  1.00  0.00    -0.477 C  
HETATM    4  C   UNL     1     -10.035  17.750  66.538  1.00  0.00    -0.346 C  
HETATM    5  N   UNL     1     -10.462  17.457  67.922  1.00  0.00    -0.370 NA 
HETATM    6  C   UNL     1      -9.933  18.426  68.893  1.00  0.00    -0.345 C  
HETATM    7  C   UNL     1     -10.344  19.860  68.462  1.00  0.00    -0.338 C  
ENDROOT
BRANCH   5   8
HETATM    8  C   UNL     1     -10.935  16.204  68.264  1.00  0.00    -0.340 A  
HETATM    9  C   UNL     1     -11.401  15.865  69.531  1.00  0.00    -0.335 A  
HETATM   10  C   UNL     1     -11.808  14.557  69.825  1.00  0.00    -0.367 A  
HETATM   11  C   UNL     1     -11.751  13.542  68.853  1.00  0.00    -0.379 A  
HETATM   12  C   UNL     1     -11.379  13.857  67.534  1.00  0.00    -0.318 A  
HETATM   13  C   UNL     1     -11.000  15.187  67.293  1.00  0.00    -0.327 A  
BRANCH  11  14
HETATM   14  C   UNL     1     -12.071  12.158  69.319  1.00  0.00    -0.178 C  
HETATM   15  H   UNL     1     -12.066  12.828  71.272  1.00  0.00     0.000 HD 
HETATM   16  O   UNL     1     -12.239  11.292  68.462  1.00  0.00    -0.588 OA 
HETATM   17  N   UNL     1     -12.181  11.999  70.687  1.00  0.00    -0.371 N  
BRANCH  17  18
HETATM   18  C   UNL     1     -12.438  10.797  71.323  1.00  0.00    -0.399 A  
HETATM   19  C   UNL     1     -11.597   9.635  71.285  1.00  0.00    -0.466 A  
HETATM   20  C   UNL     1     -10.361   9.266  70.725  1.00  0.00    -0.348 A  
HETATM   21  N   UNL     1     -13.532  10.562  72.047  1.00  0.00    -0.457 NA 
HETATM   22  N   UNL     1     -13.423   9.293  72.440  1.00  0.00    -0.471 NA 
HETATM   23  H   UNL     1     -14.290  11.213  72.255  1.00  0.00     0.000 HD 
HETATM   24  C   UNL     1      -9.889   7.941  70.834  1.00  0.00    -0.192 A  
HETATM   25  C   UNL     1     -10.656   6.994  71.523  1.00  0.00    -0.232 A  
HETATM   26  C   UNL     1     -12.304   8.657  71.979  1.00  0.00    -0.371 A  
HETATM   27  C   UNL     1     -11.875   7.336  72.118  1.00  0.00    -0.324 A  
BRANCH  24  28
HETATM   28  C   UNL     1      -8.539   7.561  70.261  1.00  0.00    -0.144 C  
BRANCH  28  29
HETATM   29  C   UNL     1      -7.748   8.676  69.604  1.00  0.00    -0.089 A  
HETATM   30  C   UNL     1      -7.474   8.723  68.228  1.00  0.00    -0.092 A  
HETATM   31  C   UNL     1      -6.804   9.814  67.676  1.00  0.00    -0.085 A  
HETATM   32  F   UNL     1      -6.574   9.842  66.357  1.00  0.00    -0.067 F  
HETATM   33  C   UNL     1      -6.383  10.875  68.463  1.00  0.00    -0.049 A  
HETATM   34  C   UNL     1      -6.628  10.821  69.826  1.00  0.00    -0.128 A  
HETATM   35  C   UNL     1      -7.299   9.742  70.400  1.00  0.00    -0.151 A  
HETATM   36  F   UNL     1      -6.222  11.831  70.608  1.00  0.00    -0.159 F  
ENDBRANCH  28  29
ENDBRANCH  24  28
ENDBRANCH  17  18
ENDBRANCH  11  14
BRANCH  12  37
HETATM   37  N   UNL     1     -11.305  12.889  66.524  1.00  0.00    -0.303 NA 
HETATM   38  H   UNL     1     -12.006  12.148  66.507  1.00  0.00     0.000 HD 
BRANCH  37  39
HETATM   39  C   UNL     1     -10.260  12.894  65.487  1.00  0.00    -0.287 C  
HETATM   40  C   UNL     1     -10.775  12.857  64.045  1.00  0.00    -0.429 C  
HETATM   41  O   UNL     1     -10.309  10.472  63.908  1.00  0.00    -0.262 OA 
HETATM   42  C   UNL     1      -9.978  10.402  65.294  1.00  0.00    -0.309 C  
HETATM   43  C   UNL     1      -9.330  11.707  65.728  1.00  0.00    -0.220 C  
HETATM   44  C   UNL     1     -11.280  11.480  63.640  1.00  0.00    -0.362 C  
ENDBRANCH  37  39
ENDBRANCH  12  37
ENDBRANCH   5   8
TORSDOF 7
ENDMDL
MODEL        3
REMARK 921   NORMALIZED FREE ENERGY PREDICTED BY IDOCK:   -8.41 KCAL/MOL
REMARK 922        TOTAL FREE ENERGY PREDICTED BY IDOCK:  -14.37 KCAL/MOL
REMARK 923 INTER-LIGAND FREE ENERGY PREDICTED BY IDOCK:  -11.91 KCAL/MOL
REMARK 924 INTRA-LIGAND FREE ENERGY PREDICTED BY IDOCK:   -2.46 KCAL/MOL
REMARK 927      BINDING AFFINITY PREDICTED BY RF-SCORE:    0.00 PKD
ROOT
HETATM    1  C   UNL     1      -7.903  20.215  65.943  1.00  0.00    -0.192 C  
HETATM    2  N   UNL     1      -8.390  20.357  67.313  1.00  0.00    -0.347 NA 
HETATM    3  C   UNL     1      -9.866  20.243  67.369  1.00  0.00    -0.446 C  
HETATM    4  C   UNL     1     -10.406  18.814  67.151  1.00  0.00    -0.404 C  
HETATM    5  N   UNL     1      -9.797  17.909  68.148  1.00  0.00    -0.315 NA 
HETATM    6  C   UNL     1      -8.330  17.891  68.070  1.00  0.00    -0.258 C  
HETATM    7  C   UNL     1      -7.790  19.340  68.212  1.00  0.00    -0.319 C  
ENDROOT
BRANCH   5   8
HETATM    8  C   UNL     1     -10.549  16.922  68.756  1.00  0.00    -0.355 A  
HETATM    9  C   UNL     1     -10.714  16.804  70.133  1.00  0.00     0.016 A  
HETATM   10  C   UNL     1     -11.438  15.741  70.686  1.00  0.00    -0.415 A  
HETATM   11  C   UNL     1     -12.017  14.753  69.869  1.00  0.00    -0.378 A  
HETATM   12  C   UNL     1     -11.961  14.882  68.470  1.00  0.00    -0.241 A  
HETATM   13  C   UNL     1     -11.237  15.977  67.973  1.00  0.00    -0.303 A  
BRANCH  11  14
HETATM   14  C   UNL     1     -12.641  13.591  70.573  1.00  0.00    -0.241 C  
HETATM   15  H   UNL     1     -11.023  12.421  70.048  1.00  0.00     0.000 HD 
HETATM   16  O   UNL     1     -13.708  13.781  71.153  1.00  0.00    -0.141 OA 
HETATM   17  N   UNL     1     -11.924  12.410  70.527  1.00  0.00    -0.284 N  
BRANCH  17  18
HETATM   18  C   UNL     1     -12.340  11.213  71.085  1.00  0.00    -0.346 A  
HETATM   19  C   UNL     1     -11.878   9.909  70.706  1.00  0.00    -0.415 A  
HETATM   20  C   UNL     1     -10.953   9.358  69.800  1.00  0.00    -0.234 A  
HETATM   21  N   UNL     1     -13.256  11.126  72.049  1.00  0.00    -0.538 NA 
HETATM   22  N   UNL     1     -13.405   9.820  72.269  1.00  0.00    -0.428 NA 
HETATM   23  H   UNL     1     -13.739  11.894  72.517  1.00  0.00     0.000 HD 
HETATM   24  C   UNL     1     -10.845   7.960  69.646  1.00  0.00    -0.177 A  
HETATM   25  C   UNL     1     -11.657   7.119  70.418  1.00  0.00    -0.300 A  
HETATM   26  C   UNL     1     -12.640   9.025  71.463  1.00  0.00    -0.338 A  
HETATM   27  C   UNL     1     -12.564   7.636  71.350  1.00  0.00    -0.359 A  
BRANCH  24  28
HETATM   28  C   UNL     1      -9.821   7.373  68.697  1.00  0.00    -0.165 C  
BRANCH  28  29
HETATM   29  C   UNL     1      -9.238   8.320  67.666  1.00  0.00    -0.150 A  
HETATM   30  C   UNL     1      -9.952   8.786  66.552  1.00  0.00    -0.360 A  
HETATM   31  C   UNL     1      -9.381   9.714  65.681  1.00  0.00    -0.237 A  
HETATM   32  F   UNL     1     -10.093  10.158  64.637  1.00  0.00    -0.391 F  
HETATM   33  C   UNL     1      -8.096  10.194  65.882  1.00  0.00    -0.136 A  
HETATM   34  C   UNL     1      -7.376   9.717  66.965  1.00  0.00    -0.087 A  
HETATM   35  C   UNL     1      -7.928   8.792  67.851  1.00  0.00    -0.107 A  
HETATM   36  F   UNL     1      -6.129  10.160  67.175  1.00  0.00    -0.050 F  
ENDBRANCH  28  29
ENDBRANCH  24  28
ENDBRANCH  17  18
ENDBRANCH  11  14
BRANCH  12  37
HETATM   37  N   UNL     1     -12.519  13.931  67.606  1.00  0.00    -0.393 NA 
HETATM   38  H   UNL     1     -13.496  14.037  67.330  1.00  0.00     0.000 HD 
BRANCH  37  39
HETATM   39  C   UNL     1     -11.759  12.785  67.079  1.00  0.00    -0.374 C  
HETATM   40  C   UNL     1     -10.240  12.974  67.044  1.00  0.00    -0.245 C  
HETATM   41  O   UNL     1     -10.325  13.473  64.663  1.00  0.00    -0.408 OA 
HETATM   42  C   UNL     1     -11.752  13.481  64.662  1.00  0.00    -0.381 C  
HETATM   43  C   UNL     1     -12.267  12.470  65.674  1.00  0.00    -0.403 C  
HETATM   44  C   UNL     1      -9.790  13.891  65.917  1.00  0.00    -0.267 C  
ENDBRANCH  37  39
ENDBRANCH  12  37
ENDBRANCH   5   8
TORSDOF 7
ENDMDL
MODEL        4
REMARK 921   NORMALIZED FREE ENERGY PREDICTED BY IDOCK:   -8.25 KCAL/MOL
REMARK 922        TOTAL FREE ENERGY PREDICTED BY IDOCK:  -14.15 KCAL/MOL
REMARK 923 INTER-LIGAND FREE ENERGY PREDICTED BY IDOCK:  -12.18 KCAL/MOL
REMARK 924 INTRA-LIGAND FREE ENERGY PREDICTED BY IDOCK:   -1.97 KCAL/MOL
REMARK 927      BINDING AFFINITY PREDICTED BY RF-SCORE:    0.00 PKD
ROOT
HETATM    1  C   UNL     1      -7.981  19.710  65.866  1.00  0.00    -0.258 C  
HETATM    2  N   UNL     1      -7.324  18.882  66.874  1.00  0.00    -0.211 NA 
HETATM    3  C   UNL     1      -8.141  18.790  68.105  1.00  0.00    -0.299 C  
HETATM    4  C   UNL     1      -9.404  17.913  67.971  1.00  0.00    -0.274 C  
HETATM    5  N   UNL     1      -9.009  16.558  67.532  1.00  0.00    -0.195 NA 
HETATM    6  C   UNL     1      -8.285  16.569  66.252  1.00  0.00    -0.325 C  
HETATM    7  C   UNL     1      -7.057  17.513  66.364  1.00  0.00    -0.286 C  
ENDROOT
BRANCH   5   8
HETATM    8  C   UNL     1      -9.621  15.438  68.061  1.00  0.00    -0.206 A  
HETATM    9  C   UNL     1      -9.080  14.157  68.011  1.00  0.00    -0.191 A  
HETATM   10  C   UNL     1      -9.785  13.055  68.513  1.00  0.00    -0.132 A  
HETATM   11  C   UNL     1     -11.064  13.207  69.078  1.00  0.00    -0.282 A  
HETATM   12  C   UNL     1     -11.610  14.492  69.239  1.00  0.00    -0.302 A  
HETATM   13  C   UNL     1     -10.851  15.560  68.734  1.00  0.00    -0.256 A  
BRANCH  11  14
HETATM   14  C   UNL     1     -11.780  11.947  69.446  1.00  0.00    -0.339 C  
HETATM   15  H   UNL     1     -11.468  12.368  71.443  1.00  0.00     0.000 HD 
HETATM   16  O   UNL     1     -12.255  11.272  68.534  1.00  0.00    -0.588 OA 
HETATM   17  N   UNL     1     -11.868  11.684  70.800  1.00  0.00    -0.169 N  
BRANCH  17  18
HETATM   18  C   UNL     1     -12.458  10.558  71.348  1.00  0.00    -0.411 A  
HETATM   19  C   UNL     1     -11.940   9.222  71.275  1.00  0.00    -0.414 A  
HETATM   20  C   UNL     1     -10.807   8.577  70.748  1.00  0.00    -0.268 A  
HETATM   21  N   UNL     1     -13.617  10.578  72.007  1.00  0.00    -0.386 NA 
HETATM   22  N   UNL     1     -13.857   9.305  72.325  1.00  0.00    -0.457 NA 
HETATM   23  H   UNL     1     -14.195  11.391  72.222  1.00  0.00     0.000 HD 
HETATM   24  C   UNL     1     -10.694   7.171  70.797  1.00  0.00    -0.251 A  
HETATM   25  C   UNL     1     -11.717   6.420  71.390  1.00  0.00    -0.364 A  
HETATM   26  C   UNL     1     -12.911   8.427  71.875  1.00  0.00    -0.355 A  
HETATM   27  C   UNL     1     -12.841   7.035  71.951  1.00  0.00    -0.296 A  
BRANCH  24  28
HETATM   28  C   UNL     1      -9.454   6.485  70.261  1.00  0.00    -0.169 C  
BRANCH  28  29
HETATM   29  C   UNL     1      -9.337   6.387  68.753  1.00  0.00    -0.125 A  
HETATM   30  C   UNL     1      -8.275   6.941  68.021  1.00  0.00    -0.115 A  
HETATM   31  C   UNL     1      -8.189   6.751  66.643  1.00  0.00    -0.115 A  
HETATM   32  F   UNL     1      -7.154   7.274  65.973  1.00  0.00    -0.060 F  
HETATM   33  C   UNL     1      -9.146   6.022  65.955  1.00  0.00    -0.117 A  
HETATM   34  C   UNL     1     -10.211   5.495  66.668  1.00  0.00    -0.235 A  
HETATM   35  C   UNL     1     -10.316   5.669  68.047  1.00  0.00    -0.258 A  
HETATM   36  F   UNL     1     -11.153   4.794  66.023  1.00  0.00    -0.321 F  
ENDBRANCH  28  29
ENDBRANCH  24  28
ENDBRANCH  17  18
ENDBRANCH  11  14
BRANCH  12  37
HETATM   37  N   UNL     1     -12.878  14.705  69.794  1.00  0.00    -0.545 NA 
HETATM   38  H   UNL     1     -13.661  14.148  69.450  1.00  0.00     0.000 HD 
BRANCH  37  39
HETATM   39  C   UNL     1     -13.131  15.697  70.853  1.00  0.00    -0.367 C  
HETATM   40  C   UNL     1     -11.979  15.902  71.841  1.00  0.00    -0.588 C  
HETATM   41  O   UNL     1     -13.094  14.490  73.481  1.00  0.00    -0.564 OA 
HETATM   42  C   UNL     1     -14.111  14.121  72.551  1.00  0.00    -0.353 C  
HETATM   43  C   UNL     1     -14.390  15.285  71.614  1.00  0.00    -0.666 C  
HETATM   44  C   UNL     1     -11.851  14.758  72.835  1.00  0.00    -0.071 C  
ENDBRANCH  37  39
ENDBRANCH  12  37
ENDBRANCH   5   8
TORSDOF 7
ENDMDL
MODEL        5
REMARK 921   NORMALIZED FREE ENERGY PREDICTED BY IDOCK:   -8.25 KCAL/MOL
REMARK 922        TOTAL FREE ENERGY PREDICTED BY IDOCK:  -14.15 KCAL/MOL
REMARK 923 INTER-LIGAND FREE ENERGY PREDICTED BY IDOCK:  -12.52 KCAL/MOL
REMARK 924 INTRA-LIGAND FREE ENERGY PREDICTED BY IDOCK:   -1.62 KCAL/MOL
REMARK 927      BINDING AFFINITY PREDICTED BY RF-SCORE:    0.00 PKD
ROOT
HETATM    1  C   UNL     1      -8.677  20.363  66.634  1.00  0.00    -0.150 C  
HETATM    2  N   UNL     1     -10.090  20.113  66.904  1.00  0.00    -0.451 NA 
HETATM    3  C   UNL     1     -10.623  19.055  66.015  1.00  0.00    -0.423 C  
HETATM    4  C   UNL     1     -10.138  17.630  66.353  1.00  0.00    -0.356 C  
HETATM    5  N   UNL     1     -10.480  17.322  67.757  1.00  0.00    -0.359 NA 
HETATM    6  C   UNL     1      -9.886  18.276  68.705  1.00  0.00    -0.380 C  
HETATM    7  C   UNL     1     -10.313  19.717  68.318  1.00  0.00    -0.410 C  
ENDROOT
BRANCH   5   8
HETATM    8  C   UNL     1     -10.940  16.068  68.113  1.00  0.00    -0.339 A  
HETATM    9  C   UNL     1     -11.483  15.759  69.357  1.00  0.00    -0.357 A  
HETATM   10  C   UNL     1     -11.871  14.451  69.671  1.00  0.00    -0.372 A  
HETATM   11  C   UNL     1     -11.719  13.405  68.743  1.00  0.00    -0.377 A  
HETATM   12  C   UNL     1     -11.268  13.684  67.442  1.00  0.00    -0.302 A  
HETATM   13  C   UNL     1     -10.910  15.016  67.178  1.00  0.00    -0.314 A  
BRANCH  11  14
HETATM   14  C   UNL     1     -12.031  12.029  69.238  1.00  0.00    -0.270 C  
HETATM   15  H   UNL     1     -11.998  12.731  71.179  1.00  0.00     0.000 HD 
HETATM   16  O   UNL     1     -12.211  11.148  68.398  1.00  0.00    -0.610 OA 
HETATM   17  N   UNL     1     -12.121  11.893  70.610  1.00  0.00    -0.356 N  
BRANCH  17  18
HETATM   18  C   UNL     1     -12.367  10.701  71.270  1.00  0.00    -0.383 A  
HETATM   19  C   UNL     1     -11.621   9.487  71.109  1.00  0.00    -0.439 A  
HETATM   20  C   UNL     1     -10.503   9.045  70.379  1.00  0.00    -0.254 A  
HETATM   21  N   UNL     1     -13.363  10.530  72.140  1.00  0.00    -0.569 NA 
HETATM   22  N   UNL     1     -13.285   9.251  72.507  1.00  0.00    -0.418 NA 
HETATM   23  H   UNL     1     -14.038  11.227  72.455  1.00  0.00     0.000 HD 
HETATM   24  C   UNL     1     -10.111   7.690  70.415  1.00  0.00    -0.190 A  
HETATM   25  C   UNL     1     -10.837   6.786  71.200  1.00  0.00    -0.275 A  
HETATM   26  C   UNL     1     -12.288   8.549  71.891  1.00  0.00    -0.352 A  
HETATM   27  C   UNL     1     -11.934   7.200  71.962  1.00  0.00    -0.332 A  
BRANCH  24  28
HETATM   28  C   UNL     1      -8.884   7.229  69.656  1.00  0.00    -0.141 C  
BRANCH  28  29
HETATM   29  C   UNL     1      -9.048   5.990  68.798  1.00  0.00    -0.124 A  
HETATM   30  C   UNL     1      -9.301   4.713  69.322  1.00  0.00    -0.207 A  
HETATM   31  C   UNL     1      -9.515   3.628  68.473  1.00  0.00    -0.146 A  
HETATM   32  F   UNL     1      -9.775   2.425  69.000  1.00  0.00    -0.212 F  
HETATM   33  C   UNL     1      -9.475   3.773  67.095  1.00  0.00    -0.234 A  
HETATM   34  C   UNL     1      -9.199   5.026  66.572  1.00  0.00    -0.135 A  
HETATM   35  C   UNL     1      -8.985   6.126  67.401  1.00  0.00    -0.112 A  
HETATM   36  F   UNL     1      -9.147   5.188  65.243  1.00  0.00    -0.155 F  
ENDBRANCH  28  29
ENDBRANCH  24  28
ENDBRANCH  17  18
ENDBRANCH  11  14
BRANCH  12  37
HETATM   37  N   UNL     1     -11.097  12.684  66.476  1.00  0.00    -0.270 NA 
HETATM   38  H   UNL     1     -11.834  11.988  66.360  1.00  0.00     0.000 HD 
BRANCH  37  39
HETATM   39  C   UNL     1      -9.901  12.594  65.621  1.00  0.00    -0.202 C  
HETATM   40  C   UNL     1     -10.178  12.592  64.115  1.00  0.00    -0.366 C  
HETATM   41  O   UNL     1      -9.902  10.175  64.035  1.00  0.00    -0.290 OA 
HETATM   42  C   UNL     1      -9.806  10.086  65.455  1.00  0.00    -0.303 C  
HETATM   43  C   UNL     1      -9.128  11.333  65.999  1.00  0.00    -0.221 C  
HETATM   44  C   UNL     1     -10.727  11.262  63.622  1.00  0.00    -0.367 C  
ENDBRANCH  37  39
ENDBRANCH  12  37
ENDBRANCH   5   8
TORSDOF 7
ENDMDL
MODEL        6
REMARK 921   NORMALIZED FREE ENERGY PREDICTED BY IDOCK:   -7.99 KCAL/MOL
REMARK 922        TOTAL FREE ENERGY PREDICTED BY IDOCK:  -13.78 KCAL/MOL
REMARK 923 INTER-LIGAND FREE ENERGY PREDICTED BY IDOCK:  -11.43 KCAL/MOL
REMARK 924 INTRA-LIGAND FREE ENERGY PREDICTED BY IDOCK:   -2.35 KCAL/MOL
REMARK 927      BINDING AFFINITY PREDICTED BY RF-SCORE:    0.00 PKD
ROOT
HETATM    1  C   UNL     1      -9.075   2.421  65.529  1.00  0.00    -0.102 C  
HETATM    2  N   UNL     1      -8.722   3.220  66.700  1.00  0.00    -0.121 NA 
HETATM    3  C   UNL     1      -7.630   4.170  66.388  1.00  0.00    -0.089 C  
HETATM    4  C   UNL     1      -8.051   5.360  65.501  1.00  0.00    -0.118 C  
HETATM    5  N   UNL     1      -9.167   6.078  66.150  1.00  0.00    -0.156 NA 
HETATM    6  C   UNL     1     -10.331   5.212  66.389  1.00  0.00    -0.288 C  
HETATM    7  C   UNL     1      -9.892   3.975  67.217  1.00  0.00    -0.083 C  
ENDROOT
BRANCH   5   8
HETATM    8  C   UNL     1      -9.225   7.459  66.131  1.00  0.00    -0.099 A  
HETATM    9  C   UNL     1      -8.465   8.259  65.283  1.00  0.00    -0.179 A  
HETATM   10  C   UNL     1      -8.528   9.656  65.362  1.00  0.00    -0.155 A  
HETATM   11  C   UNL     1      -9.353  10.296  66.304  1.00  0.00    -0.206 A  
HETATM   12  C   UNL     1     -10.210   9.532  67.115  1.00  0.00    -0.242 A  
HETATM   13  C   UNL     1     -10.118   8.138  66.981  1.00  0.00    -0.350 A  
BRANCH  11  14
HETATM   14  C   UNL     1      -9.229  11.783  66.394  1.00  0.00    -0.217 C  
HETATM   15  H   UNL     1      -7.586  11.559  67.624  1.00  0.00     0.000 HD 
HETATM   16  O   UNL     1     -10.021  12.462  65.744  1.00  0.00    -0.252 OA 
HETATM   17  N   UNL     1      -8.196  12.250  67.186  1.00  0.00    -0.180 N  
BRANCH  17  18
HETATM   18  C   UNL     1      -7.931  13.586  67.428  1.00  0.00    -0.156 A  
HETATM   19  C   UNL     1      -8.863  14.543  67.953  1.00  0.00    -0.176 A  
HETATM   20  C   UNL     1     -10.195  14.554  68.402  1.00  0.00    -0.239 A  
HETATM   21  N   UNL     1      -6.755  14.164  67.177  1.00  0.00    -0.375 NA 
HETATM   22  N   UNL     1      -6.924  15.446  67.499  1.00  0.00    -0.181 NA 
HETATM   23  H   UNL     1      -5.910  13.719  66.817  1.00  0.00     0.000 HD 
HETATM   24  C   UNL     1     -10.819  15.764  68.772  1.00  0.00    -0.274 A  
HETATM   25  C   UNL     1     -10.092  16.960  68.703  1.00  0.00    -0.291 A  
HETATM   26  C   UNL     1      -8.183  15.756  67.929  1.00  0.00    -0.145 A  
HETATM   27  C   UNL     1      -8.756  16.977  68.290  1.00  0.00    -0.241 A  
BRANCH  24  28
HETATM   28  C   UNL     1     -12.241  15.764  69.291  1.00  0.00    -0.120 C  
BRANCH  28  29
HETATM   29  C   UNL     1     -12.425  15.413  70.754  1.00  0.00    -0.476 A  
HETATM   30  C   UNL     1     -11.918  16.192  71.806  1.00  0.00    -0.560 A  
HETATM   31  C   UNL     1     -12.186  15.852  73.132  1.00  0.00    -0.516 A  
HETATM   32  F   UNL     1     -11.707  16.625  74.115  1.00  0.00    -0.344 F  
HETATM   33  C   UNL     1     -12.948  14.739  73.451  1.00  0.00    -0.550 A  
HETATM   34  C   UNL     1     -13.428  13.951  72.417  1.00  0.00    -0.560 A  
HETATM   35  C   UNL     1     -13.176  14.273  71.084  1.00  0.00    -0.387 A  
HETATM   36  F   UNL     1     -14.160  12.865  72.701  1.00  0.00    -0.598 F  
ENDBRANCH  28  29
ENDBRANCH  24  28
ENDBRANCH  17  18
ENDBRANCH  11  14
BRANCH  12  37
HETATM   37  N   UNL     1     -11.054  10.113  68.070  1.00  0.00    -0.432 NA 
HETATM   38  H   UNL     1     -12.053  10.169  67.869  1.00  0.00     0.000 HD 
BRANCH  37  39
HETATM   39  C   UNL     1     -10.563  10.646  69.353  1.00  0.00    -0.239 C  
HETATM   40  C   UNL     1     -10.061   9.593  70.344  1.00  0.00    -0.336 C  
HETATM   41  O   UNL     1     -12.156   9.711  71.579  1.00  0.00    -0.351 OA 
HETATM   42  C   UNL     1     -12.747  10.563  70.599  1.00  0.00    -0.355 C  
HETATM   43  C   UNL     1     -11.680  11.464  69.998  1.00  0.00    -0.416 C  
HETATM   44  C   UNL     1     -11.195   8.826  71.008  1.00  0.00    -0.273 C  
ENDBRANCH  37  39
ENDBRANCH  12  37
ENDBRANCH   5   8
TORSDOF 7
ENDMDL
MODEL        7
REMARK 921   NORMALIZED FREE ENERGY PREDICTED BY IDOCK:   -7.95 KCAL/MOL
REMARK 922        TOTAL FREE ENERGY PREDICTED BY IDOCK:  -13.73 KCAL/MOL
REMARK 923 INTER-LIGAND FREE ENERGY PREDICTED BY IDOCK:  -11.66 KCAL/MOL
REMARK 924 INTRA-LIGAND FREE ENERGY PREDICTED BY IDOCK:   -2.07 KCAL/MOL
REMARK 927      BINDING AFFINITY PREDICTED BY RF-SCORE:    0.00 PKD
ROOT
HETATM    1  C   UNL     1     -13.060  15.916  73.107  1.00  0.00    -0.572 C  
HETATM    2  N   UNL     1     -13.747  15.504  71.886  1.00  0.00    -0.491 NA 
HETATM    3  C   UNL     1     -12.816  15.476  70.734  1.00  0.00    -0.458 C  
HETATM    4  C   UNL     1     -11.807  14.308  70.755  1.00  0.00    -0.269 C  
HETATM    5  N   UNL     1     -12.547  13.030  70.832  1.00  0.00    -0.323 NA 
HETATM    6  C   UNL     1     -13.410  12.949  72.018  1.00  0.00    -0.482 C  
HETATM    7  C   UNL     1     -14.374  14.167  72.037  1.00  0.00    -0.512 C  
ENDROOT
BRANCH   5   8
HETATM    8  C   UNL     1     -12.134  11.932  70.102  1.00  0.00    -0.302 A  
HETATM    9  C   UNL     1     -11.875  10.681  70.655  1.00  0.00    -0.463 A  
HETATM   10  C   UNL     1     -11.399   9.627  69.865  1.00  0.00    -0.200 A  
HETATM   11  C   UNL     1     -11.160   9.799  68.490  1.00  0.00    -0.138 A  
HETATM   12  C   UNL     1     -11.498  11.014  67.868  1.00  0.00    -0.282 A  
HETATM   13  C   UNL     1     -11.988  12.028  68.706  1.00  0.00    -0.299 A  
BRANCH  11  14
HETATM   14  C   UNL     1     -10.516   8.652  67.779  1.00  0.00    -0.224 C  
HETATM   15  H   UNL     1     -12.028   7.411  68.437  1.00  0.00     0.000 HD 
HETATM   16  O   UNL     1      -9.499   8.884  67.126  1.00  0.00    -0.146 OA 
HETATM   17  N   UNL     1     -11.160   7.435  67.902  1.00  0.00     0.033 N  
BRANCH  17  18
HETATM   18  C   UNL     1     -10.712   6.247  67.351  1.00  0.00    -0.331 A  
HETATM   19  C   UNL     1      -9.956   5.240  68.038  1.00  0.00    -0.202 A  
HETATM   20  C   UNL     1      -9.453   5.023  69.334  1.00  0.00    -0.206 A  
HETATM   21  N   UNL     1     -10.916   5.898  66.081  1.00  0.00    -0.650 NA 
HETATM   22  N   UNL     1     -10.296   4.726  65.940  1.00  0.00    -0.274 NA 
HETATM   23  H   UNL     1     -11.434   6.416  65.370  1.00  0.00     0.000 HD 
HETATM   24  C   UNL     1      -8.640   3.904  69.610  1.00  0.00    -0.107 A  
HETATM   25  C   UNL     1      -8.350   2.995  68.584  1.00  0.00    -0.085 A  
HETATM   26  C   UNL     1      -9.656   4.291  67.066  1.00  0.00    -0.203 A  
HETATM   27  C   UNL     1      -8.861   3.166  67.294  1.00  0.00    -0.157 A  
BRANCH  24  28
HETATM   28  C   UNL     1      -8.132   3.657  71.016  1.00  0.00    -0.069 C  
BRANCH  28  29
HETATM   29  C   UNL     1      -9.115   3.912  72.142  1.00  0.00    -0.156 A  
HETATM   30  C   UNL     1      -9.261   5.155  72.776  1.00  0.00    -0.146 A  
HETATM   31  C   UNL     1     -10.236   5.342  73.755  1.00  0.00    -0.223 A  
HETATM   32  F   UNL     1     -10.366   6.545  74.329  1.00  0.00    -0.303 F  
HETATM   33  C   UNL     1     -11.080   4.311  74.137  1.00  0.00    -0.067 A  
HETATM   34  C   UNL     1     -10.923   3.073  73.533  1.00  0.00    -0.225 A  
HETATM   35  C   UNL     1      -9.958   2.865  72.549  1.00  0.00    -0.229 A  
HETATM   36  F   UNL     1     -11.722   2.059  73.893  1.00  0.00    -0.272 F  
ENDBRANCH  28  29
ENDBRANCH  24  28
ENDBRANCH  17  18
ENDBRANCH  11  14
BRANCH  12  37
HETATM   37  N   UNL     1     -11.283  11.243  66.503  1.00  0.00    -0.289 NA 
HETATM   38  H   UNL     1     -11.053  10.449  65.905  1.00  0.00     0.000 HD 
BRANCH  37  39
HETATM   39  C   UNL     1     -11.376  12.581  65.892  1.00  0.00    -0.340 C  
HETATM   40  C   UNL     1     -12.611  12.811  65.017  1.00  0.00    -0.538 C  
HETATM   41  O   UNL     1     -11.291  12.446  63.005  1.00  0.00    -0.278 OA 
HETATM   42  C   UNL     1     -10.148  12.053  63.762  1.00  0.00    -0.394 C  
HETATM   43  C   UNL     1     -10.113  12.827  65.070  1.00  0.00    -0.239 C  
HETATM   44  C   UNL     1     -12.510  12.116  63.668  1.00  0.00    -0.549 C  
ENDBRANCH  37  39
ENDBRANCH  12  37
ENDBRANCH   5   8
TORSDOF 7
ENDMDL
MODEL        8
REMARK 921   NORMALIZED FREE ENERGY PREDICTED BY IDOCK:   -7.95 KCAL/MOL
REMARK 922        TOTAL FREE ENERGY PREDICTED BY IDOCK:  -13.72 KCAL/MOL
REMARK 923 INTER-LIGAND FREE ENERGY PREDICTED BY IDOCK:  -12.51 KCAL/MOL
REMARK 924 INTRA-LIGAND FREE ENERGY PREDICTED BY IDOCK:   -1.21 KCAL/MOL
REMARK 927      BINDING AFFINITY PREDICTED BY RF-SCORE:    0.00 PKD
ROOT
HETATM    1  C   UNL     1      -7.175   4.455  67.727  1.00  0.00    -0.065 C  
HETATM    2  N   UNL     1      -7.866   4.761  66.476  1.00  0.00    -0.099 NA 
HETATM    3  C   UNL     1      -9.289   5.087  66.719  1.00  0.00    -0.135 C  
HETATM    4  C   UNL     1      -9.528   6.462  67.378  1.00  0.00    -0.116 C  
HETATM    5  N   UNL     1      -8.911   7.513  66.542  1.00  0.00    -0.141 NA 
HETATM    6  C   UNL     1      -7.468   7.307  66.353  1.00  0.00    -0.084 C  
HETATM    7  C   UNL     1      -7.222   5.893  65.762  1.00  0.00    -0.075 C  
ENDROOT
BRANCH   5   8
HETATM    8  C   UNL     1      -9.550   8.722  66.343  1.00  0.00    -0.249 A  
HETATM    9  C   UNL     1      -9.445   9.477  65.178  1.00  0.00    -0.305 A  
HETATM   10  C   UNL     1     -10.070  10.726  65.069  1.00  0.00    -0.377 A  
HETATM   11  C   UNL     1     -10.818  11.261  66.133  1.00  0.00    -0.281 A  
HETATM   12  C   UNL     1     -11.033  10.494  67.291  1.00  0.00    -0.260 A  
HETATM   13  C   UNL     1     -10.397   9.243  67.338  1.00  0.00    -0.327 A  
BRANCH  11  14
HETATM   14  C   UNL     1     -11.316  12.659  65.957  1.00  0.00    -0.327 C  
HETATM   15  H   UNL     1      -9.664  13.089  64.796  1.00  0.00     0.000 HD 
HETATM   16  O   UNL     1     -12.398  12.947  66.466  1.00  0.00    -0.440 OA 
HETATM   17  N   UNL     1     -10.513  13.489  65.199  1.00  0.00    -0.344 N  
BRANCH  17  18
HETATM   18  C   UNL     1     -10.775  14.824  64.945  1.00  0.00    -0.417 A  
HETATM   19  C   UNL     1     -10.225  15.936  65.665  1.00  0.00    -0.406 A  
HETATM   20  C   UNL     1      -9.324  16.143  66.725  1.00  0.00    -0.255 A  
HETATM   21  N   UNL     1     -11.606  15.246  63.991  1.00  0.00    -0.767 NA 
HETATM   22  N   UNL     1     -11.618  16.574  64.105  1.00  0.00    -1.080 NA 
HETATM   23  H   UNL     1     -12.121  14.675  63.320  1.00  0.00     0.000 HD 
HETATM   24  C   UNL     1      -9.100  17.439  67.235  1.00  0.00    -0.239 A  
HETATM   25  C   UNL     1      -9.773  18.527  66.665  1.00  0.00    -0.353 A  
HETATM   26  C   UNL     1     -10.846  17.057  65.122  1.00  0.00    -0.049 A  
HETATM   27  C   UNL     1     -10.651  18.358  65.590  1.00  0.00    -0.128 A  
BRANCH  24  28
HETATM   28  C   UNL     1      -8.100  17.658  68.352  1.00  0.00    -0.285 C  
BRANCH  28  29
HETATM   29  C   UNL     1      -7.188  18.861  68.213  1.00  0.00    -0.297 A  
HETATM   30  C   UNL     1      -6.865  19.450  66.980  1.00  0.00    -0.206 A  
HETATM   31  C   UNL     1      -6.079  20.601  66.929  1.00  0.00    -0.211 A  
HETATM   32  F   UNL     1      -5.805  21.154  65.741  1.00  0.00    -0.252 F  
HETATM   33  C   UNL     1      -5.587  21.190  68.083  1.00  0.00    -0.377 A  
HETATM   34  C   UNL     1      -5.880  20.597  69.301  1.00  0.00    -0.356 A  
HETATM   35  C   UNL     1      -6.667  19.449  69.377  1.00  0.00    -0.354 A  
HETATM   36  F   UNL     1      -5.408  21.143  70.430  1.00  0.00    -0.347 F  
ENDBRANCH  28  29
ENDBRANCH  24  28
ENDBRANCH  17  18
ENDBRANCH  11  14
BRANCH  12  37
HETATM   37  N   UNL     1     -11.769  10.973  68.383  1.00  0.00    -0.535 NA 
HETATM   38  H   UNL     1     -12.776  11.096  68.275  1.00  0.00     0.000 HD 
BRANCH  37  39
HETATM   39  C   UNL     1     -11.152  11.307  69.678  1.00  0.00    -0.206 C  
HETATM   40  C   UNL     1     -10.307  10.193  70.302  1.00  0.00    -0.234 C  
HETATM   41  O   UNL     1     -12.134   9.603  71.799  1.00  0.00    -0.378 OA 
HETATM   42  C   UNL     1     -13.028  10.504  71.149  1.00  0.00    -0.411 C  
HETATM   43  C   UNL     1     -12.257  11.716  70.650  1.00  0.00    -0.461 C  
HETATM   44  C   UNL     1     -11.155   9.082  70.903  1.00  0.00    -0.280 C  
ENDBRANCH  37  39
ENDBRANCH  12  37
ENDBRANCH   5   8
TORSDOF 7
ENDMDL
MODEL        9
REMARK 921   NORMALIZED FREE ENERGY PREDICTED BY IDOCK:   -7.88 KCAL/MOL
REMARK 922        TOTAL FREE ENERGY PREDICTED BY IDOCK:  -13.63 KCAL/MOL
REMARK 923 INTER-LIGAND FREE ENERGY PREDICTED BY IDOCK:  -11.31 KCAL/MOL
REMARK 924 INTRA-LIGAND FREE ENERGY PREDICTED BY IDOCK:   -2.32 KCAL/MOL
REMARK 927      BINDING AFFINITY PREDICTED BY RF-SCORE:    0.00 PKD
ROOT
HETATM    1  C   UNL     1      -7.077   2.659  69.586  1.00  0.00    -0.040 C  
HETATM    2  N   UNL     1      -6.944   3.238  68.252  1.00  0.00    -0.049 NA 
HETATM    3  C   UNL     1      -8.267   3.413  67.612  1.00  0.00    -0.084 C  
HETATM    4  C   UNL     1      -9.117   4.559  68.202  1.00  0.00    -0.124 C  
HETATM    5  N   UNL     1      -8.352   5.821  68.122  1.00  0.00    -0.107 NA 
HETATM    6  C   UNL     1      -7.069   5.748  68.836  1.00  0.00    -0.073 C  
HETATM    7  C   UNL     1      -6.246   4.549  68.295  1.00  0.00    -0.035 C  
ENDROOT
BRANCH   5   8
HETATM    8  C   UNL     1      -8.978   7.004  67.779  1.00  0.00    -0.121 A  
HETATM    9  C   UNL     1      -8.739   7.698  66.596  1.00  0.00    -0.150 A  
HETATM   10  C   UNL     1      -9.363   8.926  66.341  1.00  0.00    -0.262 A  
HETATM   11  C   UNL     1     -10.244   9.502  67.274  1.00  0.00    -0.295 A  
HETATM   12  C   UNL     1     -10.592   8.793  68.437  1.00  0.00    -0.137 A  
HETATM   13  C   UNL     1      -9.950   7.560  68.632  1.00  0.00    -0.178 A  
BRANCH  11  14
HETATM   14  C   UNL     1     -10.736  10.879  66.961  1.00  0.00    -0.271 C  
HETATM   15  H   UNL     1      -8.933  11.301  66.047  1.00  0.00     0.000 HD 
HETATM   16  O   UNL     1     -11.888  11.161  67.285  1.00  0.00    -0.525 OA 
HETATM   17  N   UNL     1      -9.841  11.696  66.297  1.00  0.00    -0.213 N  
BRANCH  17  18
HETATM   18  C   UNL     1     -10.086  13.012  65.946  1.00  0.00    -0.288 A  
HETATM   19  C   UNL     1     -10.213  14.112  66.858  1.00  0.00    -0.267 A  
HETATM   20  C   UNL     1     -10.131  14.322  68.247  1.00  0.00    -0.238 A  
HETATM   21  N   UNL     1     -10.258  13.422  64.689  1.00  0.00    -0.581 NA 
HETATM   22  N   UNL     1     -10.514  14.727  64.781  1.00  0.00    -0.365 NA 
HETATM   23  H   UNL     1     -10.206  12.858  63.839  1.00  0.00     0.000 HD 
HETATM   24  C   UNL     1     -10.423  15.587  68.799  1.00  0.00    -0.234 A  
HETATM   25  C   UNL     1     -10.781  16.642  67.950  1.00  0.00    -0.344 A  
HETATM   26  C   UNL     1     -10.549  15.202  66.062  1.00  0.00    -0.322 A  
HETATM   27  C   UNL     1     -10.841  16.472  66.563  1.00  0.00    -0.046 A  
BRANCH  24  28
HETATM   28  C   UNL     1     -10.296  15.817  70.291  1.00  0.00    -0.159 C  
BRANCH  28  29
HETATM   29  C   UNL     1     -11.521  15.501  71.128  1.00  0.00    -0.442 A  
HETATM   30  C   UNL     1     -12.378  14.420  70.870  1.00  0.00    -0.419 A  
HETATM   31  C   UNL     1     -13.445  14.143  71.723  1.00  0.00    -0.390 A  
HETATM   32  F   UNL     1     -14.234  13.092  71.464  1.00  0.00    -0.047 F  
HETATM   33  C   UNL     1     -13.698  14.925  72.839  1.00  0.00    -0.427 A  
HETATM   34  C   UNL     1     -12.871  16.010  73.084  1.00  0.00    -0.519 A  
HETATM   35  C   UNL     1     -11.796  16.304  72.247  1.00  0.00    -0.601 A  
HETATM   36  F   UNL     1     -13.101  16.785  74.152  1.00  0.00    -0.285 F  
ENDBRANCH  28  29
ENDBRANCH  24  28
ENDBRANCH  17  18
ENDBRANCH  11  14
BRANCH  12  37
HETATM   37  N   UNL     1     -11.464   9.315  69.401  1.00  0.00    -0.417 NA 
HETATM   38  H   UNL     1     -12.465   9.318  69.202  1.00  0.00     0.000 HD 
BRANCH  37  39
HETATM   39  C   UNL     1     -11.000   9.859  70.689  1.00  0.00    -0.337 C  
HETATM   40  C   UNL     1     -10.566   8.811  71.718  1.00  0.00    -0.417 C  
HETATM   41  O   UNL     1     -12.697   9.020  72.876  1.00  0.00    -0.276 OA 
HETATM   42  C   UNL     1     -13.227   9.869  71.860  1.00  0.00    -0.458 C  
HETATM   43  C   UNL     1     -12.112  10.724  71.279  1.00  0.00    -0.365 C  
HETATM   44  C   UNL     1     -11.745   8.093  72.356  1.00  0.00    -0.399 C  
ENDBRANCH  37  39
ENDBRANCH  12  37
ENDBRANCH   5   8
TORSDOF 7
ENDMDL
MODEL       10
REMARK 921   NORMALIZED FREE ENERGY PREDICTED BY IDOCK:   -7.81 KCAL/MOL
REMARK 922        TOTAL FREE ENERGY PREDICTED BY IDOCK:  -13.52 KCAL/MOL
REMARK 923 INTER-LIGAND FREE ENERGY PREDICTED BY IDOCK:  -11.41 KCAL/MOL
REMARK 924 INTRA-LIGAND FREE ENERGY PREDICTED BY IDOCK:   -2.11 KCAL/MOL
REMARK 927      BINDING AFFINITY PREDICTED BY RF-SCORE:    0.00 PKD
ROOT
HETATM    1  C   UNL     1      -8.223   2.839  64.359  1.00  0.00    -0.083 C  
HETATM    2  N   UNL     1      -9.006   3.989  63.914  1.00  0.00    -0.119 NA 
HETATM    3  C   UNL     1     -10.307   4.054  64.619  1.00  0.00    -0.205 C  
HETATM    4  C   UNL     1     -10.212   4.485  66.098  1.00  0.00    -0.254 C  
HETATM    5  N   UNL     1      -9.534   5.795  66.178  1.00  0.00    -0.151 NA 
HETATM    6  C   UNL     1      -8.187   5.770  65.591  1.00  0.00    -0.128 C  
HETATM    7  C   UNL     1      -8.273   5.263  64.127  1.00  0.00    -0.132 C  
ENDROOT
BRANCH   5   8
HETATM    8  C   UNL     1      -9.971   6.763  67.063  1.00  0.00    -0.177 A  
HETATM    9  C   UNL     1     -10.157   8.101  66.727  1.00  0.00    -0.365 A  
HETATM   10  C   UNL     1     -10.542   9.040  67.692  1.00  0.00    -0.298 A  
HETATM   11  C   UNL     1     -10.747   8.665  69.032  1.00  0.00    -0.122 A  
HETATM   12  C   UNL     1     -10.667   7.311  69.399  1.00  0.00    -0.225 A  
HETATM   13  C   UNL     1     -10.295   6.411  68.387  1.00  0.00    -0.228 A  
BRANCH  11  14
HETATM   14  C   UNL     1     -11.013   9.774  69.999  1.00  0.00    -0.277 C  
HETATM   15  H   UNL     1     -12.546  10.444  68.790  1.00  0.00     0.000 HD 
HETATM   16  O   UNL     1     -10.333   9.813  71.024  1.00  0.00    -0.273 OA 
HETATM   17  N   UNL     1     -12.035  10.637  69.652  1.00  0.00    -0.287 N  
BRANCH  17  18
HETATM   18  C   UNL     1     -12.417  11.743  70.391  1.00  0.00    -0.197 A  
HETATM   19  C   UNL     1     -12.228  13.112  70.005  1.00  0.00    -0.323 A  
HETATM   20  C   UNL     1     -11.702  13.818  68.908  1.00  0.00    -0.374 A  
HETATM   21  N   UNL     1     -13.003  11.668  71.586  1.00  0.00    -0.427 NA 
HETATM   22  N   UNL     1     -13.161  12.933  71.975  1.00  0.00    -0.460 NA 
HETATM   23  H   UNL     1     -13.271  10.824  72.094  1.00  0.00     0.000 HD 
HETATM   24  C   UNL     1     -11.600  15.225  68.941  1.00  0.00    -0.365 A  
HETATM   25  C   UNL     1     -12.043  15.919  70.073  1.00  0.00    -0.264 A  
HETATM   26  C   UNL     1     -12.675  13.856  71.093  1.00  0.00    -0.367 A  
HETATM   27  C   UNL     1     -12.599  15.248  71.168  1.00  0.00    -0.457 A  
BRANCH  24  28
HETATM   28  C   UNL     1     -11.069  15.980  67.741  1.00  0.00    -0.273 C  
BRANCH  28  29
HETATM   29  C   UNL     1     -10.114  17.122  68.032  1.00  0.00    -0.311 A  
HETATM   30  C   UNL     1      -8.849  16.945  68.613  1.00  0.00    -0.262 A  
HETATM   31  C   UNL     1      -7.991  18.030  68.786  1.00  0.00    -0.245 A  
HETATM   32  F   UNL     1      -6.781  17.828  69.325  1.00  0.00    -0.237 F  
HETATM   33  C   UNL     1      -8.360  19.309  68.400  1.00  0.00    -0.383 A  
HETATM   34  C   UNL     1      -9.618  19.494  67.850  1.00  0.00    -0.350 A  
HETATM   35  C   UNL     1     -10.492  18.424  67.664  1.00  0.00    -0.445 A  
HETATM   36  F   UNL     1      -9.999  20.724  67.478  1.00  0.00    -0.574 F  
ENDBRANCH  28  29
ENDBRANCH  24  28
ENDBRANCH  17  18
ENDBRANCH  11  14
BRANCH  12  37
HETATM   37  N   UNL     1     -10.862   6.877  70.716  1.00  0.00    -0.236 NA 
HETATM   38  H   UNL     1     -11.735   7.120  71.185  1.00  0.00     0.000 HD 
BRANCH  37  39
HETATM   39  C   UNL     1      -9.861   6.087  71.454  1.00  0.00    -0.173 C  
HETATM   40  C   UNL     1     -10.395   4.809  72.106  1.00  0.00    -0.256 C  
HETATM   41  O   UNL     1     -10.498   5.919  74.271  1.00  0.00    -0.275 OA 
HETATM   42  C   UNL     1     -10.169   7.183  73.698  1.00  0.00    -0.359 C  
HETATM   43  C   UNL     1      -9.229   6.979  72.521  1.00  0.00    -0.156 C  
HETATM   44  C   UNL     1     -11.213   5.088  73.358  1.00  0.00    -0.319 C  
ENDBRANCH  37  39
ENDBRANCH  12  37
ENDBRANCH   5   8
TORSDOF 7
ENDMDL
MODEL       11
REMARK 921   NORMALIZED FREE ENERGY PREDICTED BY IDOCK:   -7.63 KCAL/MOL
REMARK 922        TOTAL FREE ENERGY PREDICTED BY IDOCK:  -13.27 KCAL/MOL
REMARK 923 INTER-LIGAND FREE ENERGY PREDICTED BY IDOCK:  -11.34 KCAL/MOL
REMARK 924 INTRA-LIGAND FREE ENERGY PREDICTED BY IDOCK:   -1.93 KCAL/MOL
REMARK 927      BINDING AFFINITY PREDICTED BY RF-SCORE:    0.00 PKD
ROOT
HETATM    1  C   UNL     1      -9.335   2.052  65.126  1.00  0.00    -0.035 C  
HETATM    2  N   UNL     1      -8.622   3.327  65.148  1.00  0.00    -0.106 NA 
HETATM    3  C   UNL     1      -9.549   4.461  64.931  1.00  0.00    -0.154 C  
HETATM    4  C   UNL     1     -10.472   4.771  66.129  1.00  0.00    -0.290 C  
HETATM    5  N   UNL     1      -9.644   5.024  67.326  1.00  0.00    -0.139 NA 
HETATM    6  C   UNL     1      -8.776   3.886  67.662  1.00  0.00    -0.106 C  
HETATM    7  C   UNL     1      -7.901   3.526  66.431  1.00  0.00    -0.085 C  
ENDROOT
BRANCH   5   8
HETATM    8  C   UNL     1      -9.978   6.027  68.216  1.00  0.00    -0.147 A  
HETATM    9  C   UNL     1     -10.677   5.819  69.401  1.00  0.00    -0.397 A  
HETATM   10  C   UNL     1     -11.037   6.892  70.225  1.00  0.00    -0.342 A  
HETATM   11  C   UNL     1     -10.711   8.216  69.880  1.00  0.00    -0.241 A  
HETATM   12  C   UNL     1      -9.922   8.468  68.744  1.00  0.00    -0.186 A  
HETATM   13  C   UNL     1      -9.575   7.353  67.965  1.00  0.00    -0.152 A  
BRANCH  11  14
HETATM   14  C   UNL     1     -11.271   9.288  70.758  1.00  0.00    -0.288 C  
HETATM   15  H   UNL     1     -11.861  10.337  69.081  1.00  0.00     0.000 HD 
HETATM   16  O   UNL     1     -11.212   9.118  71.975  1.00  0.00    -0.364 OA 
HETATM   17  N   UNL     1     -11.840  10.363  70.101  1.00  0.00    -0.287 N  
BRANCH  17  18
HETATM   18  C   UNL     1     -12.383  11.472  70.726  1.00  0.00    -0.375 A  
HETATM   19  C   UNL     1     -12.266  12.828  70.273  1.00  0.00    -0.351 A  
HETATM   20  C   UNL     1     -11.689  13.514  69.188  1.00  0.00    -0.374 A  
HETATM   21  N   UNL     1     -13.079  11.413  71.861  1.00  0.00    -0.473 NA 
HETATM   22  N   UNL     1     -13.378  12.680  72.150  1.00  0.00    -0.523 NA 
HETATM   23  H   UNL     1     -13.329  10.579  72.394  1.00  0.00     0.000 HD 
HETATM   24  C   UNL     1     -11.705  14.924  69.140  1.00  0.00    -0.338 A  
HETATM   25  C   UNL     1     -12.316  15.639  70.178  1.00  0.00    -0.366 A  
HETATM   26  C   UNL     1     -12.880  13.590  71.262  1.00  0.00    -0.338 A  
HETATM   27  C   UNL     1     -12.925  14.986  71.254  1.00  0.00    -0.448 A  
BRANCH  24  28
HETATM   28  C   UNL     1     -11.116  15.654  67.952  1.00  0.00    -0.324 C  
BRANCH  28  29
HETATM   29  C   UNL     1     -10.162  16.791  68.263  1.00  0.00    -0.295 A  
HETATM   30  C   UNL     1      -8.857  16.598  68.741  1.00  0.00    -0.264 A  
HETATM   31  C   UNL     1      -8.006  17.685  68.938  1.00  0.00    -0.178 A  
HETATM   32  F   UNL     1      -6.759  17.469  69.375  1.00  0.00    -0.237 F  
HETATM   33  C   UNL     1      -8.422  18.981  68.679  1.00  0.00    -0.394 A  
HETATM   34  C   UNL     1      -9.719  19.181  68.232  1.00  0.00    -0.373 A  
HETATM   35  C   UNL     1     -10.586  18.109  68.025  1.00  0.00    -0.359 A  
HETATM   36  F   UNL     1     -10.146  20.426  67.983  1.00  0.00    -0.514 F  
ENDBRANCH  28  29
ENDBRANCH  24  28
ENDBRANCH  17  18
ENDBRANCH  11  14
BRANCH  12  37
HETATM   37  N   UNL     1      -9.566   9.764  68.351  1.00  0.00    -0.146 NA 
HETATM   38  H   UNL     1      -9.720  10.532  69.005  1.00  0.00     0.000 HD 
BRANCH  37  39
HETATM   39  C   UNL     1      -8.978  10.068  67.035  1.00  0.00    -0.138 C  
HETATM   40  C   UNL     1      -8.059  11.292  67.000  1.00  0.00    -0.149 C  
HETATM   41  O   UNL     1      -9.844  12.644  66.047  1.00  0.00    -0.256 OA 
HETATM   42  C   UNL     1     -10.798  11.596  66.209  1.00  0.00    -0.286 C  
HETATM   43  C   UNL     1     -10.112  10.251  66.028  1.00  0.00    -0.311 C  
HETATM   44  C   UNL     1      -8.828  12.603  67.046  1.00  0.00    -0.212 C  
ENDBRANCH  37  39
ENDBRANCH  12  37
ENDBRANCH   5   8
TORSDOF 7
ENDMDL
MODEL       12
REMARK 921   NORMALIZED FREE ENERGY PREDICTED BY IDOCK:   -7.61 KCAL/MOL
REMARK 922        TOTAL FREE ENERGY PREDICTED BY IDOCK:  -13.24 KCAL/MOL
REMARK 923 INTER-LIGAND FREE ENERGY PREDICTED BY IDOCK:  -10.94 KCAL/MOL
REMARK 924 INTRA-LIGAND FREE ENERGY PREDICTED BY IDOCK:   -2.30 KCAL/MOL
REMARK 927      BINDING AFFINITY PREDICTED BY RF-SCORE:    0.00 PKD
ROOT
HETATM    1  C   UNL     1      -8.292  20.238  67.196  1.00  0.00    -0.336 C  
HETATM    2  N   UNL     1      -8.688  19.271  66.175  1.00  0.00    -0.432 NA 
HETATM    3  C   UNL     1      -7.957  17.994  66.338  1.00  0.00    -0.262 C  
HETATM    4  C   UNL     1      -8.410  17.148  67.547  1.00  0.00    -0.190 C  
HETATM    5  N   UNL     1      -9.859  16.884  67.438  1.00  0.00    -0.255 NA 
HETATM    6  C   UNL     1     -10.655  18.119  67.383  1.00  0.00    -0.388 C  
HETATM    7  C   UNL     1     -10.148  19.005  66.214  1.00  0.00    -0.422 C  
ENDROOT
BRANCH   5   8
HETATM    8  C   UNL     1     -10.378  15.647  67.772  1.00  0.00    -0.266 A  
HETATM    9  C   UNL     1     -11.596  15.461  68.421  1.00  0.00    -0.368 A  
HETATM   10  C   UNL     1     -12.031  14.181  68.785  1.00  0.00    -0.367 A  
HETATM   11  C   UNL     1     -11.251  13.042  68.514  1.00  0.00    -0.309 A  
HETATM   12  C   UNL     1     -10.062  13.169  67.775  1.00  0.00    -0.226 A  
HETATM   13  C   UNL     1      -9.684  14.474  67.421  1.00  0.00    -0.222 A  
BRANCH  11  14
HETATM   14  C   UNL     1     -11.746  11.749  69.076  1.00  0.00    -0.328 C  
HETATM   15  H   UNL     1     -11.592  12.531  70.981  1.00  0.00     0.000 HD 
HETATM   16  O   UNL     1     -12.057  10.863  68.282  1.00  0.00    -0.562 OA 
HETATM   17  N   UNL     1     -11.839  11.692  70.454  1.00  0.00    -0.334 N  
BRANCH  17  18
HETATM   18  C   UNL     1     -12.241  10.580  71.172  1.00  0.00    -0.391 A  
HETATM   19  C   UNL     1     -11.565   9.315  71.203  1.00  0.00    -0.397 A  
HETATM   20  C   UNL     1     -10.401   8.747  70.654  1.00  0.00    -0.253 A  
HETATM   21  N   UNL     1     -13.342  10.544  71.924  1.00  0.00    -0.407 NA 
HETATM   22  N   UNL     1     -13.395   9.300  72.400  1.00  0.00    -0.464 NA 
HETATM   23  H   UNL     1     -14.001  11.304  72.097  1.00  0.00     0.000 HD 
HETATM   24  C   UNL     1     -10.110   7.380  70.848  1.00  0.00    -0.188 A  
HETATM   25  C   UNL     1     -10.983   6.592  71.608  1.00  0.00    -0.291 A  
HETATM   26  C   UNL     1     -12.383   8.490  71.970  1.00  0.00    -0.365 A  
HETATM   27  C   UNL     1     -12.132   7.135  72.193  1.00  0.00    -0.284 A  
BRANCH  24  28
HETATM   28  C   UNL     1      -8.836   6.784  70.286  1.00  0.00    -0.152 C  
BRANCH  28  29
HETATM   29  C   UNL     1      -8.993   5.858  69.095  1.00  0.00    -0.119 A  
HETATM   30  C   UNL     1      -9.203   4.476  69.211  1.00  0.00    -0.195 A  
HETATM   31  C   UNL     1      -9.413   3.693  68.077  1.00  0.00    -0.161 A  
HETATM   32  F   UNL     1      -9.632   2.380  68.219  1.00  0.00    -0.247 F  
HETATM   33  C   UNL     1      -9.412   4.249  66.807  1.00  0.00    -0.202 A  
HETATM   34  C   UNL     1      -9.177   5.609  66.684  1.00  0.00    -0.134 A  
HETATM   35  C   UNL     1      -8.968   6.413  67.805  1.00  0.00    -0.113 A  
HETATM   36  F   UNL     1      -9.162   6.168  65.466  1.00  0.00    -0.135 F  
ENDBRANCH  28  29
ENDBRANCH  24  28
ENDBRANCH  17  18
ENDBRANCH  11  14
BRANCH  12  37
HETATM   37  N   UNL     1      -9.244  12.073  67.475  1.00  0.00    -0.175 NA 
HETATM   38  H   UNL     1      -8.907  11.491  68.243  1.00  0.00     0.000 HD 
BRANCH  37  39
HETATM   39  C   UNL     1      -8.851  11.721  66.100  1.00  0.00    -0.107 C  
HETATM   40  C   UNL     1      -9.843  10.830  65.347  1.00  0.00    -0.317 C  
HETATM   41  O   UNL     1      -8.469   8.871  65.792  1.00  0.00    -0.128 OA 
HETATM   42  C   UNL     1      -7.598   9.610  66.647  1.00  0.00    -0.098 C  
HETATM   43  C   UNL     1      -7.485  11.040  66.145  1.00  0.00    -0.076 C  
HETATM   44  C   UNL     1      -9.799   9.383  65.813  1.00  0.00    -0.275 C  
ENDBRANCH  37  39
ENDBRANCH  12  37
ENDBRANCH   5   8
TORSDOF 7
ENDMDL
MODEL       13
REMARK 921   NORMALIZED FREE ENERGY PREDICTED BY IDOCK:   -7.59 KCAL/MOL
REMARK 922        TOTAL FREE ENERGY PREDICTED BY IDOCK:  -13.21 KCAL/MOL
REMARK 923 INTER-LIGAND FREE ENERGY PREDICTED BY IDOCK:  -10.59 KCAL/MOL
REMARK 924 INTRA-LIGAND FREE ENERGY PREDICTED BY IDOCK:   -2.63 KCAL/MOL
REMARK 927      BINDING AFFINITY PREDICTED BY RF-SCORE:    0.00 PKD
ROOT
HETATM    1  C   UNL     1     -10.895   2.325  74.449  1.00  0.00    -0.069 C  
HETATM    2  N   UNL     1      -9.823   3.315  74.397  1.00  0.00    -0.113 NA 
HETATM    3  C   UNL     1      -9.055   3.204  73.136  1.00  0.00    -0.090 C  
HETATM    4  C   UNL     1      -9.804   3.709  71.884  1.00  0.00    -0.171 C  
HETATM    5  N   UNL     1     -10.214   5.113  72.098  1.00  0.00    -0.196 NA 
HETATM    6  C   UNL     1     -11.074   5.275  73.278  1.00  0.00    -0.316 C  
HETATM    7  C   UNL     1     -10.352   4.697  74.525  1.00  0.00    -0.276 C  
ENDROOT
BRANCH   5   8
HETATM    8  C   UNL     1     -10.129   6.036  71.073  1.00  0.00    -0.192 A  
HETATM    9  C   UNL     1      -9.577   5.767  69.824  1.00  0.00    -0.199 A  
HETATM   10  C   UNL     1      -9.466   6.770  68.853  1.00  0.00    -0.128 A  
HETATM   11  C   UNL     1      -9.900   8.083  69.110  1.00  0.00    -0.178 A  
HETATM   12  C   UNL     1     -10.552   8.380  70.319  1.00  0.00    -0.227 A  
HETATM   13  C   UNL     1     -10.651   7.331  71.248  1.00  0.00    -0.236 A  
BRANCH  11  14
HETATM   14  C   UNL     1      -9.599   9.100  68.056  1.00  0.00    -0.147 C  
HETATM   15  H   UNL     1     -10.693   7.997  66.696  1.00  0.00     0.000 HD 
HETATM   16  O   UNL     1      -8.946  10.088  68.387  1.00  0.00    -0.118 OA 
HETATM   17  N   UNL     1     -10.124   8.838  66.804  1.00  0.00    -0.269 N  
BRANCH  17  18
HETATM   18  C   UNL     1      -9.934   9.633  65.688  1.00  0.00    -0.251 A  
HETATM   19  C   UNL     1     -10.453  10.958  65.507  1.00  0.00    -0.286 A  
HETATM   20  C   UNL     1     -11.212  11.884  66.243  1.00  0.00    -0.392 A  
HETATM   21  N   UNL     1      -9.247   9.245  64.613  1.00  0.00    -0.434 NA 
HETATM   22  N   UNL     1      -9.338  10.264  63.757  1.00  0.00    -0.276 NA 
HETATM   23  H   UNL     1      -8.757   8.361  64.475  1.00  0.00     0.000 HD 
HETATM   24  C   UNL     1     -11.619  13.104  65.661  1.00  0.00    -0.371 A  
HETATM   25  C   UNL     1     -11.245  13.394  64.343  1.00  0.00    -0.408 A  
HETATM   26  C   UNL     1     -10.090  11.311  64.211  1.00  0.00    -0.313 A  
HETATM   27  C   UNL     1     -10.463  12.507  63.595  1.00  0.00    -0.418 A  
BRANCH  24  28
HETATM   28  C   UNL     1     -12.404  14.113  66.473  1.00  0.00    -0.405 C  
BRANCH  28  29
HETATM   29  C   UNL     1     -11.594  15.069  67.326  1.00  0.00    -0.285 A  
HETATM   30  C   UNL     1     -10.734  16.043  66.794  1.00  0.00    -0.259 A  
HETATM   31  C   UNL     1     -10.074  16.940  67.633  1.00  0.00    -0.278 A  
HETATM   32  F   UNL     1      -9.276  17.872  67.097  1.00  0.00    -0.244 F  
HETATM   33  C   UNL     1     -10.238  16.893  69.009  1.00  0.00    -0.308 A  
HETATM   34  C   UNL     1     -11.064  15.917  69.542  1.00  0.00    -0.315 A  
HETATM   35  C   UNL     1     -11.737  15.012  68.722  1.00  0.00    -0.360 A  
HETATM   36  F   UNL     1     -11.231  15.847  70.869  1.00  0.00    -0.302 F  
ENDBRANCH  28  29
ENDBRANCH  24  28
ENDBRANCH  17  18
ENDBRANCH  11  14
BRANCH  12  37
HETATM   37  N   UNL     1     -11.007   9.667  70.630  1.00  0.00    -0.293 NA 
HETATM   38  H   UNL     1     -10.440  10.248  71.249  1.00  0.00     0.000 HD 
BRANCH  37  39
HETATM   39  C   UNL     1     -12.266  10.220  70.103  1.00  0.00    -0.176 C  
HETATM   40  C   UNL     1     -12.282  11.740  69.920  1.00  0.00    -0.293 C  
HETATM   41  O   UNL     1     -13.524  12.008  71.997  1.00  0.00    -0.447 OA 
HETATM   42  C   UNL     1     -13.397  10.624  72.314  1.00  0.00    -0.077 C  
HETATM   43  C   UNL     1     -13.405   9.805  71.032  1.00  0.00    -0.301 C  
HETATM   44  C   UNL     1     -12.415  12.487  71.238  1.00  0.00    -0.170 C  
ENDBRANCH  37  39
ENDBRANCH  12  37
ENDBRANCH   5   8
TORSDOF 7
ENDMDL
MODEL       14
REMARK 921   NORMALIZED FREE ENERGY PREDICTED BY IDOCK:   -7.50 KCAL/MOL
REMARK 922        TOTAL FREE ENERGY PREDICTED BY IDOCK:  -13.09 KCAL/MOL
REMARK 923 INTER-LIGAND FREE ENERGY PREDICTED BY IDOCK:  -11.52 KCAL/MOL
REMARK 924 INTRA-LIGAND FREE ENERGY PREDICTED BY IDOCK:   -1.56 KCAL/MOL
REMARK 927      BINDING AFFINITY PREDICTED BY RF-SCORE:    0.00 PKD
ROOT
HETATM    1  C   UNL     1      -6.057   2.782  68.849  1.00  0.00    -0.025 C  
HETATM    2  N   UNL     1      -5.955   4.108  69.453  1.00  0.00    -0.022 NA 
HETATM    3  C   UNL     1      -5.602   5.130  68.441  1.00  0.00    -0.015 C  
HETATM    4  C   UNL     1      -6.743   5.484  67.464  1.00  0.00    -0.059 C  
HETATM    5  N   UNL     1      -7.920   5.932  68.236  1.00  0.00    -0.108 NA 
HETATM    6  C   UNL     1      -8.391   4.915  69.187  1.00  0.00    -0.081 C  
HETATM    7  C   UNL     1      -7.221   4.502  70.121  1.00  0.00    -0.049 C  
ENDROOT
BRANCH   5   8
HETATM    8  C   UNL     1      -8.691   6.991  67.797  1.00  0.00    -0.121 A  
HETATM    9  C   UNL     1      -8.546   7.598  66.552  1.00  0.00    -0.142 A  
HETATM   10  C   UNL     1      -9.321   8.710  66.197  1.00  0.00    -0.291 A  
HETATM   11  C   UNL     1     -10.264   9.254  67.086  1.00  0.00    -0.324 A  
HETATM   12  C   UNL     1     -10.515   8.618  68.315  1.00  0.00    -0.184 A  
HETATM   13  C   UNL     1      -9.722   7.497  68.610  1.00  0.00    -0.154 A  
BRANCH  11  14
HETATM   14  C   UNL     1     -10.926  10.523  66.657  1.00  0.00    -0.032 C  
HETATM   15  H   UNL     1     -10.042  10.343  64.800  1.00  0.00     0.000 HD 
HETATM   16  O   UNL     1     -11.678  11.074  67.460  1.00  0.00    -0.565 OA 
HETATM   17  N   UNL     1     -10.648  10.937  65.368  1.00  0.00    -0.216 N  
BRANCH  17  18
HETATM   18  C   UNL     1     -11.131  12.098  64.791  1.00  0.00    -0.316 A  
HETATM   19  C   UNL     1     -10.756  13.433  65.157  1.00  0.00    -0.339 A  
HETATM   20  C   UNL     1      -9.878  14.052  66.065  1.00  0.00    -0.316 A  
HETATM   21  N   UNL     1     -12.040  12.115  63.815  1.00  0.00    -0.496 NA 
HETATM   22  N   UNL     1     -12.268  13.407  63.577  1.00  0.00    -0.699 NA 
HETATM   23  H   UNL     1     -12.469  11.314  63.352  1.00  0.00     0.000 HD 
HETATM   24  C   UNL     1      -9.859  15.456  66.202  1.00  0.00    -0.337 A  
HETATM   25  C   UNL     1     -10.713  16.235  65.412  1.00  0.00    -0.342 A  
HETATM   26  C   UNL     1     -11.563  14.259  64.380  1.00  0.00    -0.344 A  
HETATM   27  C   UNL     1     -11.575  15.651  64.477  1.00  0.00    -0.262 A  
BRANCH  24  28
HETATM   28  C   UNL     1      -8.884  16.117  67.155  1.00  0.00    -0.218 C  
BRANCH  28  29
HETATM   29  C   UNL     1      -8.900  17.633  67.191  1.00  0.00    -0.251 A  
HETATM   30  C   UNL     1      -8.124  18.435  66.341  1.00  0.00    -0.285 A  
HETATM   31  C   UNL     1      -8.241  19.824  66.376  1.00  0.00    -0.347 A  
HETATM   32  F   UNL     1      -7.502  20.565  65.539  1.00  0.00    -0.251 F  
HETATM   33  C   UNL     1      -9.114  20.452  67.251  1.00  0.00    -0.500 A  
HETATM   34  C   UNL     1      -9.864  19.666  68.111  1.00  0.00    -0.418 A  
HETATM   35  C   UNL     1      -9.766  18.275  68.091  1.00  0.00    -0.341 A  
HETATM   36  F   UNL     1     -10.708  20.251  68.971  1.00  0.00    -0.434 F  
ENDBRANCH  28  29
ENDBRANCH  24  28
ENDBRANCH  17  18
ENDBRANCH  11  14
BRANCH  12  37
HETATM   37  N   UNL     1     -11.442   9.112  69.240  1.00  0.00    -0.315 NA 
HETATM   38  H   UNL     1     -12.436   9.024  69.029  1.00  0.00     0.000 HD 
BRANCH  37  39
HETATM   39  C   UNL     1     -11.045   9.754  70.505  1.00  0.00    -0.321 C  
HETATM   40  C   UNL     1     -10.697   8.790  71.642  1.00  0.00    -0.397 C  
HETATM   41  O   UNL     1     -12.889   9.132  72.645  1.00  0.00    -0.361 OA 
HETATM   42  C   UNL     1     -13.337   9.902  71.531  1.00  0.00    -0.375 C  
HETATM   43  C   UNL     1     -12.170  10.686  70.951  1.00  0.00    -0.497 C  
HETATM   44  C   UNL     1     -11.929   8.149  72.264  1.00  0.00    -0.377 C  
ENDBRANCH  37  39
ENDBRANCH  12  37
ENDBRANCH   5   8
TORSDOF 7
ENDMDL
MODEL       15
REMARK 921   NORMALIZED FREE ENERGY PREDICTED BY IDOCK:   -7.44 KCAL/MOL
REMARK 922        TOTAL FREE ENERGY PREDICTED BY IDOCK:  -13.01 KCAL/MOL
REMARK 923 INTER-LIGAND FREE ENERGY PREDICTED BY IDOCK:  -10.87 KCAL/MOL
REMARK 924 INTRA-LIGAND FREE ENERGY PREDICTED BY IDOCK:   -2.14 KCAL/MOL
REMARK 927      BINDING AFFINITY PREDICTED BY RF-SCORE:    0.00 PKD
ROOT
HETATM    1  C   UNL     1      -9.706   3.844  74.502  1.00  0.00    -0.128 C  
HETATM    2  N   UNL     1     -10.516   3.777  73.288  1.00  0.00    -0.165 NA 
HETATM    3  C   UNL     1     -11.378   4.974  73.156  1.00  0.00    -0.321 C  
HETATM    4  C   UNL     1     -10.625   6.267  72.779  1.00  0.00    -0.228 C  
HETATM    5  N   UNL     1      -9.883   6.046  71.521  1.00  0.00    -0.167 NA 
HETATM    6  C   UNL     1      -8.924   4.936  71.620  1.00  0.00    -0.138 C  
HETATM    7  C   UNL     1      -9.669   3.652  72.074  1.00  0.00    -0.168 C  
ENDROOT
BRANCH   5   8
HETATM    8  C   UNL     1      -9.823   7.032  70.554  1.00  0.00    -0.179 A  
HETATM    9  C   UNL     1      -9.264   6.854  69.292  1.00  0.00    -0.139 A  
HETATM   10  C   UNL     1      -9.180   7.917  68.383  1.00  0.00    -0.134 A  
HETATM   11  C   UNL     1      -9.652   9.199  68.718  1.00  0.00    -0.161 A  
HETATM   12  C   UNL     1     -10.312   9.404  69.941  1.00  0.00    -0.227 A  
HETATM   13  C   UNL     1     -10.382   8.299  70.805  1.00  0.00    -0.221 A  
BRANCH  11  14
HETATM   14  C   UNL     1      -9.379  10.285  67.728  1.00  0.00    -0.144 C  
HETATM   15  H   UNL     1     -11.307  10.101  67.012  1.00  0.00     0.000 HD 
HETATM   16  O   UNL     1      -8.273  10.824  67.761  1.00  0.00    -0.111 OA 
HETATM   17  N   UNL     1     -10.427  10.603  66.884  1.00  0.00    -0.240 N  
BRANCH  17  18
HETATM   18  C   UNL     1     -10.370  11.552  65.879  1.00  0.00    -0.247 A  
HETATM   19  C   UNL     1     -10.512  12.969  66.058  1.00  0.00    -0.289 A  
HETATM   20  C   UNL     1     -10.705  13.866  67.124  1.00  0.00    -0.282 A  
HETATM   21  N   UNL     1     -10.192  11.256  64.592  1.00  0.00    -0.279 NA 
HETATM   22  N   UNL     1     -10.245  12.426  63.956  1.00  0.00    -0.380 NA 
HETATM   23  H   UNL     1     -10.047  10.333  64.182  1.00  0.00     0.000 HD 
HETATM   24  C   UNL     1     -10.900  15.242  66.878  1.00  0.00    -0.317 A  
HETATM   25  C   UNL     1     -10.884  15.713  65.559  1.00  0.00    -0.356 A  
HETATM   26  C   UNL     1     -10.482  13.497  64.771  1.00  0.00    -0.413 A  
HETATM   27  C   UNL     1     -10.665  14.850  64.480  1.00  0.00    -0.097 A  
BRANCH  24  28
HETATM   28  C   UNL     1     -11.068  16.207  68.033  1.00  0.00    -0.317 C  
BRANCH  28  29
HETATM   29  C   UNL     1     -10.092  17.367  68.090  1.00  0.00    -0.328 A  
HETATM   30  C   UNL     1     -10.433  18.683  67.743  1.00  0.00    -0.457 A  
HETATM   31  C   UNL     1      -9.507  19.716  67.888  1.00  0.00    -0.349 A  
HETATM   32  F   UNL     1      -9.866  20.966  67.569  1.00  0.00    -0.590 F  
HETATM   33  C   UNL     1      -8.229  19.476  68.368  1.00  0.00    -0.379 A  
HETATM   34  C   UNL     1      -7.879  18.174  68.687  1.00  0.00    -0.295 A  
HETATM   35  C   UNL     1      -8.788  17.126  68.553  1.00  0.00    -0.265 A  
HETATM   36  F   UNL     1      -6.646  17.917  69.145  1.00  0.00    -0.210 F  
ENDBRANCH  28  29
ENDBRANCH  24  28
ENDBRANCH  17  18
ENDBRANCH  11  14
BRANCH  12  37
HETATM   37  N   UNL     1     -10.803  10.657  70.329  1.00  0.00    -0.459 NA 
HETATM   38  H   UNL     1     -10.224  11.242  70.932  1.00  0.00     0.000 HD 
BRANCH  37  39
HETATM   39  C   UNL     1     -12.117  11.167  69.903  1.00  0.00    -0.344 C  
HETATM   40  C   UNL     1     -12.278  12.688  69.974  1.00  0.00    -0.267 C  
HETATM   41  O   UNL     1     -13.501  12.493  72.069  1.00  0.00    -0.493 OA 
HETATM   42  C   UNL     1     -13.241  11.093  72.153  1.00  0.00    -0.192 C  
HETATM   43  C   UNL     1     -13.196  10.500  70.753  1.00  0.00    -0.221 C  
HETATM   44  C   UNL     1     -12.456  13.192  71.398  1.00  0.00    -0.172 C  
ENDBRANCH  37  39
ENDBRANCH  12  37
ENDBRANCH   5   8
TORSDOF 7
ENDMDL
MODEL       16
REMARK 921   NORMALIZED FREE ENERGY PREDICTED BY IDOCK:   -7.43 KCAL/MOL
REMARK 922        TOTAL FREE ENERGY PREDICTED BY IDOCK:  -12.99 KCAL/MOL
REMARK 923 INTER-LIGAND FREE ENERGY PREDICTED BY IDOCK:  -10.92 KCAL/MOL
REMARK 924 INTRA-LIGAND FREE ENERGY PREDICTED BY IDOCK:   -2.07 KCAL/MOL
REMARK 927      BINDING AFFINITY PREDICTED BY RF-SCORE:    0.00 PKD
ROOT
HETATM    1  C   UNL     1     -10.780   3.668  72.967  1.00  0.00    -0.142 C  
HETATM    2  N   UNL     1     -10.084   4.936  73.172  1.00  0.00    -0.156 NA 
HETATM    3  C   UNL     1      -9.033   5.139  72.149  1.00  0.00    -0.129 C  
HETATM    4  C   UNL     1      -9.567   5.472  70.740  1.00  0.00    -0.170 C  
HETATM    5  N   UNL     1     -10.426   6.672  70.818  1.00  0.00    -0.212 NA 
HETATM    6  C   UNL     1     -11.558   6.495  71.739  1.00  0.00    -0.312 C  
HETATM    7  C   UNL     1     -11.025   6.085  73.138  1.00  0.00    -0.239 C  
ENDROOT
BRANCH   5   8
HETATM    8  C   UNL     1     -10.377   7.640  69.833  1.00  0.00    -0.225 A  
HETATM    9  C   UNL     1     -10.758   8.966  70.023  1.00  0.00    -0.241 A  
HETATM   10  C   UNL     1     -10.742   9.880  68.962  1.00  0.00    -0.244 A  
HETATM   11  C   UNL     1     -10.349   9.488  67.670  1.00  0.00    -0.299 A  
HETATM   12  C   UNL     1      -9.863   8.187  67.451  1.00  0.00    -0.184 A  
HETATM   13  C   UNL     1      -9.885   7.319  68.554  1.00  0.00    -0.159 A  
BRANCH  11  14
HETATM   14  C   UNL     1     -10.510  10.508  66.589  1.00  0.00    -0.228 C  
HETATM   15  H   UNL     1     -12.070  11.359  67.640  1.00  0.00     0.000 HD 
HETATM   16  O   UNL     1      -9.720  10.472  65.647  1.00  0.00    -0.204 OA 
HETATM   17  N   UNL     1     -11.527  11.424  66.778  1.00  0.00    -0.185 N  
BRANCH  17  18
HETATM   18  C   UNL     1     -11.864  12.425  65.884  1.00  0.00    -0.405 A  
HETATM   19  C   UNL     1     -11.180  13.677  65.734  1.00  0.00    -0.302 A  
HETATM   20  C   UNL     1     -10.061  14.322  66.291  1.00  0.00    -0.308 A  
HETATM   21  N   UNL     1     -12.900  12.352  65.048  1.00  0.00    -0.658 NA 
HETATM   22  N   UNL     1     -12.908  13.518  64.402  1.00  0.00    -0.606 NA 
HETATM   23  H   UNL     1     -13.547  11.572  64.929  1.00  0.00     0.000 HD 
HETATM   24  C   UNL     1      -9.746  15.651  65.936  1.00  0.00    -0.388 A  
HETATM   25  C   UNL     1     -10.551  16.321  65.006  1.00  0.00    -0.257 A  
HETATM   26  C   UNL     1     -11.928  14.385  64.797  1.00  0.00    -0.447 A  
HETATM   27  C   UNL     1     -11.652  15.697  64.411  1.00  0.00    -0.250 A  
BRANCH  24  28
HETATM   28  C   UNL     1      -8.519  16.325  66.511  1.00  0.00    -0.338 C  
BRANCH  28  29
HETATM   29  C   UNL     1      -8.645  17.804  66.822  1.00  0.00    -0.272 A  
HETATM   30  C   UNL     1      -9.580  18.327  67.728  1.00  0.00    -0.289 A  
HETATM   31  C   UNL     1      -9.594  19.690  68.024  1.00  0.00    -0.369 A  
HETATM   32  F   UNL     1     -10.484  20.159  68.908  1.00  0.00    -0.546 F  
HETATM   33  C   UNL     1      -8.698  20.565  67.430  1.00  0.00    -0.373 A  
HETATM   34  C   UNL     1      -7.790  20.058  66.514  1.00  0.00    -0.306 A  
HETATM   35  C   UNL     1      -7.755  18.699  66.206  1.00  0.00    -0.290 A  
HETATM   36  F   UNL     1      -6.921  20.887  65.921  1.00  0.00    -0.235 F  
ENDBRANCH  28  29
ENDBRANCH  24  28
ENDBRANCH  17  18
ENDBRANCH  11  14
BRANCH  12  37
HETATM   37  N   UNL     1      -9.457   7.740  66.187  1.00  0.00    -0.388 NA 
HETATM   38  H   UNL     1     -10.089   7.871  65.397  1.00  0.00     0.000 HD 
BRANCH  37  39
HETATM   39  C   UNL     1      -8.157   7.090  65.949  1.00  0.00    -0.119 C  
HETATM   40  C   UNL     1      -6.939   7.868  66.453  1.00  0.00    -0.067 C  
HETATM   41  O   UNL     1      -6.477   8.668  64.201  1.00  0.00    -0.071 OA 
HETATM   42  C   UNL     1      -7.690   8.110  63.697  1.00  0.00    -0.143 C  
HETATM   43  C   UNL     1      -8.012   6.829  64.451  1.00  0.00    -0.096 C  
HETATM   44  C   UNL     1      -6.595   9.056  65.568  1.00  0.00    -0.068 C  
ENDBRANCH  37  39
ENDBRANCH  12  37
ENDBRANCH   5   8
TORSDOF 7
ENDMDL
MODEL       17
REMARK 921   NORMALIZED FREE ENERGY PREDICTED BY IDOCK:   -7.41 KCAL/MOL
REMARK 922        TOTAL FREE ENERGY PREDICTED BY IDOCK:  -12.96 KCAL/MOL
REMARK 923 INTER-LIGAND FREE ENERGY PREDICTED BY IDOCK:  -11.10 KCAL/MOL
REMARK 924 INTRA-LIGAND FREE ENERGY PREDICTED BY IDOCK:   -1.86 KCAL/MOL
REMARK 927      BINDING AFFINITY PREDICTED BY RF-SCORE:    0.00 PKD
ROOT
HETATM    1  C   UNL     1      -8.497  20.537  67.539  1.00  0.00    -0.239 C  
HETATM    2  N   UNL     1      -8.461  19.417  66.602  1.00  0.00    -0.303 NA 
HETATM    3  C   UNL     1      -7.805  18.236  67.207  1.00  0.00    -0.226 C  
HETATM    4  C   UNL     1      -8.645  17.519  68.286  1.00  0.00    -0.266 C  
HETATM    5  N   UNL     1      -9.945  17.125  67.704  1.00  0.00    -0.274 NA 
HETATM    6  C   UNL     1     -10.700  18.272  67.181  1.00  0.00    -0.305 C  
HETATM    7  C   UNL     1      -9.825  19.038  66.153  1.00  0.00    -0.329 C  
ENDROOT
BRANCH   5   8
HETATM    8  C   UNL     1     -10.514  15.903  68.011  1.00  0.00    -0.274 A  
HETATM    9  C   UNL     1     -11.460  15.713  69.014  1.00  0.00    -0.369 A  
HETATM   10  C   UNL     1     -11.948  14.435  69.313  1.00  0.00    -0.362 A  
HETATM   11  C   UNL     1     -11.494  13.301  68.616  1.00  0.00    -0.339 A  
HETATM   12  C   UNL     1     -10.613  13.454  67.531  1.00  0.00    -0.250 A  
HETATM   13  C   UNL     1     -10.171  14.760  67.265  1.00  0.00    -0.241 A  
BRANCH  11  14
HETATM   14  C   UNL     1     -11.974  11.977  69.117  1.00  0.00    -0.268 C  
HETATM   15  H   UNL     1     -11.686  12.620  71.058  1.00  0.00     0.000 HD 
HETATM   16  O   UNL     1     -12.349  11.153  68.284  1.00  0.00    -0.532 OA 
HETATM   17  N   UNL     1     -11.979  11.824  70.491  1.00  0.00    -0.343 N  
BRANCH  17  18
HETATM   18  C   UNL     1     -12.353  10.668  71.154  1.00  0.00    -0.400 A  
HETATM   19  C   UNL     1     -11.825   9.357  70.912  1.00  0.00    -0.365 A  
HETATM   20  C   UNL     1     -10.857   8.765  70.080  1.00  0.00    -0.241 A  
HETATM   21  N   UNL     1     -13.286  10.631  72.106  1.00  0.00    -0.580 NA 
HETATM   22  N   UNL     1     -13.381   9.346  72.448  1.00  0.00    -0.455 NA 
HETATM   23  H   UNL     1     -13.814  11.417  72.488  1.00  0.00     0.000 HD 
HETATM   24  C   UNL     1     -10.682   7.365  70.064  1.00  0.00    -0.258 A  
HETATM   25  C   UNL     1     -11.473   6.565  70.899  1.00  0.00    -0.408 A  
HETATM   26  C   UNL     1     -12.564   8.514  71.737  1.00  0.00    -0.346 A  
HETATM   27  C   UNL     1     -12.423   7.126  71.760  1.00  0.00    -0.385 A  
BRANCH  24  28
HETATM   28  C   UNL     1      -9.612   6.739  69.195  1.00  0.00    -0.139 C  
BRANCH  28  29
HETATM   29  C   UNL     1      -8.413   7.608  68.871  1.00  0.00    -0.129 A  
HETATM   30  C   UNL     1      -7.407   7.918  69.800  1.00  0.00    -0.078 A  
HETATM   31  C   UNL     1      -6.293   8.662  69.416  1.00  0.00    -0.041 A  
HETATM   32  F   UNL     1      -5.339   8.926  70.318  1.00  0.00    -0.027 F  
HETATM   33  C   UNL     1      -6.147   9.125  68.117  1.00  0.00    -0.050 A  
HETATM   34  C   UNL     1      -7.150   8.845  67.202  1.00  0.00    -0.082 A  
HETATM   35  C   UNL     1      -8.272   8.099  67.562  1.00  0.00    -0.123 A  
HETATM   36  F   UNL     1      -7.035   9.289  65.943  1.00  0.00    -0.082 F  
ENDBRANCH  28  29
ENDBRANCH  24  28
ENDBRANCH  17  18
ENDBRANCH  11  14
BRANCH  12  37
HETATM   37  N   UNL     1     -10.127  12.362  66.800  1.00  0.00    -0.212 NA 
HETATM   38  H   UNL     1      -9.151  12.090  66.922  1.00  0.00     0.000 HD 
BRANCH  37  39
HETATM   39  C   UNL     1     -10.962  11.592  65.863  1.00  0.00    -0.243 C  
HETATM   40  C   UNL     1     -10.257  10.417  65.179  1.00  0.00    -0.326 C  
HETATM   41  O   UNL     1      -9.948  11.738  63.158  1.00  0.00    -0.409 OA 
HETATM   42  C   UNL     1     -10.439  12.919  63.791  1.00  0.00    -0.198 C  
HETATM   43  C   UNL     1     -11.510  12.546  64.803  1.00  0.00    -0.369 C  
HETATM   44  C   UNL     1      -9.303  10.865  64.083  1.00  0.00    -0.234 C  
ENDBRANCH  37  39
ENDBRANCH  12  37
ENDBRANCH   5   8
TORSDOF 7
ENDMDL
MODEL       18
REMARK 921   NORMALIZED FREE ENERGY PREDICTED BY IDOCK:   -7.35 KCAL/MOL
REMARK 922        TOTAL FREE ENERGY PREDICTED BY IDOCK:  -12.88 KCAL/MOL
REMARK 923 INTER-LIGAND FREE ENERGY PREDICTED BY IDOCK:  -11.08 KCAL/MOL
REMARK 924 INTRA-LIGAND FREE ENERGY PREDICTED BY IDOCK:   -1.80 KCAL/MOL
REMARK 927      BINDING AFFINITY PREDICTED BY RF-SCORE:    0.00 PKD
ROOT
HETATM    1  C   UNL     1      -7.766  20.842  67.244  1.00  0.00    -0.278 C  
HETATM    2  N   UNL     1      -8.367  19.949  66.256  1.00  0.00    -0.353 NA 
HETATM    3  C   UNL     1      -7.752  18.603  66.310  1.00  0.00    -0.264 C  
HETATM    4  C   UNL     1      -8.146  17.768  67.546  1.00  0.00    -0.223 C  
HETATM    5  N   UNL     1      -9.618  17.646  67.599  1.00  0.00    -0.264 NA 
HETATM    6  C   UNL     1     -10.289  18.952  67.660  1.00  0.00    -0.426 C  
HETATM    7  C   UNL     1      -9.833  19.822  66.458  1.00  0.00    -0.436 C  
ENDROOT
BRANCH   5   8
HETATM    8  C   UNL     1     -10.214  16.455  67.966  1.00  0.00    -0.264 A  
HETATM    9  C   UNL     1     -10.407  16.052  69.284  1.00  0.00    -0.251 A  
HETATM   10  C   UNL     1     -10.963  14.802  69.584  1.00  0.00    -0.285 A  
HETATM   11  C   UNL     1     -11.337  13.910  68.563  1.00  0.00    -0.311 A  
HETATM   12  C   UNL     1     -11.253  14.310  67.218  1.00  0.00    -0.318 A  
HETATM   13  C   UNL     1     -10.705  15.580  66.979  1.00  0.00    -0.321 A  
BRANCH  11  14
HETATM   14  C   UNL     1     -11.782  12.551  69.000  1.00  0.00    -0.318 C  
HETATM   15  H   UNL     1     -11.618  13.143  70.971  1.00  0.00     0.000 HD 
HETATM   16  O   UNL     1     -12.080  11.739  68.125  1.00  0.00    -0.556 OA 
HETATM   17  N   UNL     1     -11.847  12.353  70.366  1.00  0.00    -0.250 N  
BRANCH  17  18
HETATM   18  C   UNL     1     -12.202  11.162  70.975  1.00  0.00    -0.333 A  
HETATM   19  C   UNL     1     -11.477   9.927  70.882  1.00  0.00    -0.456 A  
HETATM   20  C   UNL     1     -10.295   9.461  70.278  1.00  0.00    -0.293 A  
HETATM   21  N   UNL     1     -13.296  11.010  71.722  1.00  0.00    -0.358 NA 
HETATM   22  N   UNL     1     -13.298   9.725  72.076  1.00  0.00    -0.443 NA 
HETATM   23  H   UNL     1     -13.983  11.724  71.968  1.00  0.00     0.000 HD 
HETATM   24  C   UNL     1      -9.950   8.094  70.339  1.00  0.00    -0.190 A  
HETATM   25  C   UNL     1     -10.787   7.203  71.021  1.00  0.00    -0.262 A  
HETATM   26  C   UNL     1     -12.257   9.001  71.567  1.00  0.00    -0.335 A  
HETATM   27  C   UNL     1     -11.953   7.642  71.658  1.00  0.00    -0.329 A  
BRANCH  24  28
HETATM   28  C   UNL     1      -8.657   7.606  69.719  1.00  0.00    -0.135 C  
BRANCH  28  29
HETATM   29  C   UNL     1      -7.710   6.856  70.637  1.00  0.00    -0.096 A  
HETATM   30  C   UNL     1      -6.972   7.473  71.658  1.00  0.00    -0.061 A  
HETATM   31  C   UNL     1      -6.176   6.714  72.515  1.00  0.00    -0.050 A  
HETATM   32  F   UNL     1      -5.498   7.326  73.494  1.00  0.00    -0.044 F  
HETATM   33  C   UNL     1      -6.081   5.337  72.380  1.00  0.00    -0.030 A  
HETATM   34  C   UNL     1      -6.787   4.726  71.356  1.00  0.00    -0.039 A  
HETATM   35  C   UNL     1      -7.593   5.464  70.490  1.00  0.00    -0.080 A  
HETATM   36  F   UNL     1      -6.704   3.398  71.200  1.00  0.00    -0.028 F  
ENDBRANCH  28  29
ENDBRANCH  24  28
ENDBRANCH  17  18
ENDBRANCH  11  14
BRANCH  12  37
HETATM   37  N   UNL     1     -11.612  13.465  66.160  1.00  0.00    -0.333 NA 
HETATM   38  H   UNL     1     -12.327  12.756  66.323  1.00  0.00     0.000 HD 
BRANCH  37  39
HETATM   39  C   UNL     1     -11.002  13.556  64.822  1.00  0.00    -0.373 C  
HETATM   40  C   UNL     1     -11.980  13.419  63.652  1.00  0.00    -0.504 C  
HETATM   41  O   UNL     1     -11.321  11.097  63.333  1.00  0.00    -0.153 OA 
HETATM   42  C   UNL     1     -10.522  11.106  64.515  1.00  0.00    -0.350 C  
HETATM   43  C   UNL     1      -9.917  12.487  64.710  1.00  0.00    -0.177 C  
HETATM   44  C   UNL     1     -12.433  11.984  63.434  1.00  0.00    -0.509 C  
ENDBRANCH  37  39
ENDBRANCH  12  37
ENDBRANCH   5   8
TORSDOF 7
ENDMDL
MODEL       19
REMARK 921   NORMALIZED FREE ENERGY PREDICTED BY IDOCK:   -7.30 KCAL/MOL
REMARK 922        TOTAL FREE ENERGY PREDICTED BY IDOCK:  -12.80 KCAL/MOL
REMARK 923 INTER-LIGAND FREE ENERGY PREDICTED BY IDOCK:  -10.52 KCAL/MOL
REMARK 924 INTRA-LIGAND FREE ENERGY PREDICTED BY IDOCK:   -2.28 KCAL/MOL
REMARK 927      BINDING AFFINITY PREDICTED BY RF-SCORE:    0.00 PKD
ROOT
HETATM    1  C   UNL     1      -8.183   2.897  63.133  1.00  0.00    -0.081 C  
HETATM    2  N   UNL     1      -7.425   3.299  64.316  1.00  0.00    -0.073 NA 
HETATM    3  C   UNL     1      -7.038   4.726  64.242  1.00  0.00    -0.050 C  
HETATM    4  C   UNL     1      -8.202   5.717  64.451  1.00  0.00    -0.120 C  
HETATM    5  N   UNL     1      -8.846   5.441  65.752  1.00  0.00    -0.148 NA 
HETATM    6  C   UNL     1      -9.354   4.065  65.849  1.00  0.00    -0.166 C  
HETATM    7  C   UNL     1      -8.199   3.068  65.562  1.00  0.00    -0.088 C  
ENDROOT
BRANCH   5   8
HETATM    8  C   UNL     1      -9.265   6.476  66.566  1.00  0.00    -0.157 A  
HETATM    9  C   UNL     1      -9.639   7.732  66.099  1.00  0.00    -0.104 A  
HETATM   10  C   UNL     1      -9.994   8.756  66.987  1.00  0.00    -0.307 A  
HETATM   11  C   UNL     1      -9.976   8.551  68.378  1.00  0.00    -0.208 A  
HETATM   12  C   UNL     1      -9.699   7.273  68.893  1.00  0.00    -0.148 A  
HETATM   13  C   UNL     1      -9.369   6.281  67.956  1.00  0.00    -0.114 A  
BRANCH  11  14
HETATM   14  C   UNL     1     -10.231   9.753  69.230  1.00  0.00    -0.204 C  
HETATM   15  H   UNL     1     -11.898  10.190  68.093  1.00  0.00     0.000 HD 
HETATM   16  O   UNL     1      -9.474   9.951  70.179  1.00  0.00    -0.237 OA 
HETATM   17  N   UNL     1     -11.332  10.512  68.879  1.00  0.00    -0.259 N  
BRANCH  17  18
HETATM   18  C   UNL     1     -11.721  11.678  69.515  1.00  0.00    -0.344 A  
HETATM   19  C   UNL     1     -11.660  12.997  68.954  1.00  0.00    -0.355 A  
HETATM   20  C   UNL     1     -11.283  13.590  67.736  1.00  0.00    -0.308 A  
HETATM   21  N   UNL     1     -12.191  11.718  70.762  1.00  0.00    -0.371 NA 
HETATM   22  N   UNL     1     -12.401  13.010  71.012  1.00  0.00    -0.322 NA 
HETATM   23  H   UNL     1     -12.355  10.929  71.389  1.00  0.00     0.000 HD 
HETATM   24  C   UNL     1     -11.275  14.994  67.593  1.00  0.00    -0.331 A  
HETATM   25  C   UNL     1     -11.662  15.796  68.673  1.00  0.00    -0.353 A  
HETATM   26  C   UNL     1     -12.058  13.843  69.984  1.00  0.00    -0.345 A  
HETATM   27  C   UNL     1     -12.072  15.236  69.888  1.00  0.00    -0.375 A  
BRANCH  24  28
HETATM   28  C   UNL     1     -10.904  15.624  66.266  1.00  0.00    -0.262 C  
BRANCH  28  29
HETATM   29  C   UNL     1      -9.930  16.785  66.320  1.00  0.00    -0.336 A  
HETATM   30  C   UNL     1      -8.537  16.624  66.386  1.00  0.00    -0.345 A  
HETATM   31  C   UNL     1      -7.694  17.734  66.359  1.00  0.00    -0.283 A  
HETATM   32  F   UNL     1      -6.368  17.549  66.402  1.00  0.00    -0.191 F  
HETATM   33  C   UNL     1      -8.200  19.021  66.275  1.00  0.00    -0.294 A  
HETATM   34  C   UNL     1      -9.575  19.188  66.237  1.00  0.00    -0.348 A  
HETATM   35  C   UNL     1     -10.438  18.093  66.259  1.00  0.00    -0.374 A  
HETATM   36  F   UNL     1     -10.087  20.424  66.165  1.00  0.00    -0.521 F  
ENDBRANCH  28  29
ENDBRANCH  24  28
ENDBRANCH  17  18
ENDBRANCH  11  14
BRANCH  12  37
HETATM   37  N   UNL     1      -9.668   7.008  70.268  1.00  0.00    -0.176 NA 
HETATM   38  H   UNL     1      -8.862   7.327  70.807  1.00  0.00     0.000 HD 
BRANCH  37  39
HETATM   39  C   UNL     1     -10.746   6.290  70.970  1.00  0.00    -0.259 C  
HETATM   40  C   UNL     1     -12.149   6.868  70.768  1.00  0.00    -0.400 C  
HETATM   41  O   UNL     1     -12.042   7.967  72.937  1.00  0.00    -0.247 OA 
HETATM   42  C   UNL     1     -10.674   7.605  73.113  1.00  0.00    -0.387 C  
HETATM   43  C   UNL     1     -10.416   6.256  72.460  1.00  0.00    -0.228 C  
HETATM   44  C   UNL     1     -12.376   8.145  71.563  1.00  0.00    -0.306 C  
ENDBRANCH  37  39
ENDBRANCH  12  37
ENDBRANCH   5   8
TORSDOF 7
ENDMDL
MODEL       20
REMARK 921   NORMALIZED FREE ENERGY PREDICTED BY IDOCK:   -7.22 KCAL/MOL
REMARK 922        TOTAL FREE ENERGY PREDICTED BY IDOCK:  -12.70 KCAL/MOL
REMARK 923 INTER-LIGAND FREE ENERGY PREDICTED BY IDOCK:  -10.63 KCAL/MOL
REMARK 924 INTRA-LIGAND FREE ENERGY PREDICTED BY IDOCK:   -2.07 KCAL/MOL
REMARK 927      BINDING AFFINITY PREDICTED BY RF-SCORE:    0.00 PKD
ROOT
HETATM    1  C   UNL     1      -8.773   2.478  66.265  1.00  0.00    -0.126 C  
HETATM    2  N   UNL     1      -9.616   3.595  66.687  1.00  0.00    -0.182 NA 
HETATM    3  C   UNL     1      -9.015   4.311  67.835  1.00  0.00    -0.122 C  
HETATM    4  C   UNL     1      -7.779   5.165  67.482  1.00  0.00    -0.092 C  
HETATM    5  N   UNL     1      -8.144   6.131  66.425  1.00  0.00    -0.109 NA 
HETATM    6  C   UNL     1      -8.646   5.475  65.209  1.00  0.00    -0.149 C  
HETATM    7  C   UNL     1      -9.842   4.556  65.578  1.00  0.00    -0.208 C  
ENDROOT
BRANCH   5   8
HETATM    8  C   UNL     1      -7.667   7.428  66.459  1.00  0.00    -0.093 A  
HETATM    9  C   UNL     1      -6.557   7.832  67.196  1.00  0.00    -0.063 A  
HETATM   10  C   UNL     1      -6.167   9.176  67.235  1.00  0.00    -0.058 A  
HETATM   11  C   UNL     1      -6.886  10.163  66.536  1.00  0.00    -0.090 A  
HETATM   12  C   UNL     1      -7.953   9.791  65.701  1.00  0.00    -0.117 A  
HETATM   13  C   UNL     1      -8.289   8.427  65.687  1.00  0.00    -0.160 A  
BRANCH  11  14
HETATM   14  C   UNL     1      -6.465  11.579  66.767  1.00  0.00    -0.128 C  
HETATM   15  H   UNL     1      -8.216  11.917  67.807  1.00  0.00     0.000 HD 
HETATM   16  O   UNL     1      -5.363  11.923  66.344  1.00  0.00    -0.324 OA 
HETATM   17  N   UNL     1      -7.360  12.360  67.475  1.00  0.00    -0.134 N  
BRANCH  17  18
HETATM   18  C   UNL     1      -7.177  13.701  67.765  1.00  0.00    -0.164 A  
HETATM   19  C   UNL     1      -8.201  14.612  68.190  1.00  0.00    -0.142 A  
HETATM   20  C   UNL     1      -9.576  14.565  68.479  1.00  0.00    -0.220 A  
HETATM   21  N   UNL     1      -6.004  14.326  67.663  1.00  0.00    -0.335 NA 
HETATM   22  N   UNL     1      -6.259  15.596  67.980  1.00  0.00    -0.124 NA 
HETATM   23  H   UNL     1      -5.105  13.921  67.399  1.00  0.00     0.000 HD 
HETATM   24  C   UNL     1     -10.286  15.745  68.789  1.00  0.00    -0.217 A  
HETATM   25  C   UNL     1      -9.603  16.967  68.823  1.00  0.00    -0.269 A  
HETATM   26  C   UNL     1      -7.571  15.851  68.263  1.00  0.00    -0.135 A  
HETATM   27  C   UNL     1      -8.229  17.042  68.571  1.00  0.00    -0.259 A  
BRANCH  24  28
HETATM   28  C   UNL     1     -11.758  15.681  69.137  1.00  0.00    -0.402 C  
BRANCH  28  29
HETATM   29  C   UNL     1     -12.097  15.358  70.579  1.00  0.00    -0.411 A  
HETATM   30  C   UNL     1     -11.795  16.207  71.654  1.00  0.00    -0.557 A  
HETATM   31  C   UNL     1     -12.201  15.884  72.948  1.00  0.00    -0.500 A  
HETATM   32  F   UNL     1     -11.916  16.723  73.953  1.00  0.00    -0.519 F  
HETATM   33  C   UNL     1     -12.902  14.718  73.213  1.00  0.00    -0.621 A  
HETATM   34  C   UNL     1     -13.180  13.862  72.159  1.00  0.00    -0.444 A  
HETATM   35  C   UNL     1     -12.788  14.167  70.857  1.00  0.00    -0.404 A  
HETATM   36  F   UNL     1     -13.850  12.726  72.393  1.00  0.00    -0.594 F  
ENDBRANCH  28  29
ENDBRANCH  24  28
ENDBRANCH  17  18
ENDBRANCH  11  14
BRANCH  12  37
HETATM   37  N   UNL     1      -8.705  10.728  64.981  1.00  0.00    -0.276 NA 
HETATM   38  H   UNL     1      -8.229  11.548  64.603  1.00  0.00     0.000 HD 
BRANCH  37  39
HETATM   39  C   UNL     1     -10.152  10.582  64.746  1.00  0.00    -0.336 C  
HETATM   40  C   UNL     1     -10.684  11.305  63.506  1.00  0.00    -0.408 C  
HETATM   41  O   UNL     1     -11.519  13.127  64.888  1.00  0.00    -0.296 OA 
HETATM   42  C   UNL     1     -10.900  12.594  66.057  1.00  0.00    -0.277 C  
HETATM   43  C   UNL     1     -10.897  11.075  65.984  1.00  0.00    -0.189 C  
HETATM   44  C   UNL     1     -10.789  12.809  63.705  1.00  0.00    -0.378 C  
ENDBRANCH  37  39
ENDBRANCH  12  37
ENDBRANCH   5   8
TORSDOF 7
ENDMDL
MODEL       21
REMARK 921   NORMALIZED FREE ENERGY PREDICTED BY IDOCK:   -7.20 KCAL/MOL
REMARK 922        TOTAL FREE ENERGY PREDICTED BY IDOCK:  -12.67 KCAL/MOL
REMARK 923 INTER-LIGAND FREE ENERGY PREDICTED BY IDOCK:  -10.31 KCAL/MOL
REMARK 924 INTRA-LIGAND FREE ENERGY PREDICTED BY IDOCK:   -2.36 KCAL/MOL
REMARK 927      BINDING AFFINITY PREDICTED BY RF-SCORE:    0.00 PKD
ROOT
HETATM    1  C   UNL     1      -9.413   1.649  70.903  1.00  0.00    -0.122 C  
HETATM    2  N   UNL     1      -8.310   2.165  70.096  1.00  0.00    -0.041 NA 
HETATM    3  C   UNL     1      -8.777   2.564  68.748  1.00  0.00    -0.086 C  
HETATM    4  C   UNL     1      -9.619   3.857  68.719  1.00  0.00    -0.116 C  
HETATM    5  N   UNL     1      -8.839   4.957  69.323  1.00  0.00    -0.087 NA 
HETATM    6  C   UNL     1      -8.436   4.669  70.708  1.00  0.00    -0.096 C  
HETATM    7  C   UNL     1      -7.655   3.328  70.748  1.00  0.00    -0.040 C  
ENDROOT
BRANCH   5   8
HETATM    8  C   UNL     1      -8.870   6.227  68.779  1.00  0.00    -0.123 A  
HETATM    9  C   UNL     1      -7.943   6.703  67.857  1.00  0.00    -0.113 A  
HETATM   10  C   UNL     1      -7.999   8.024  67.393  1.00  0.00    -0.122 A  
HETATM   11  C   UNL     1      -8.989   8.913  67.849  1.00  0.00    -0.142 A  
HETATM   12  C   UNL     1     -10.004   8.451  68.704  1.00  0.00    -0.184 A  
HETATM   13  C   UNL     1      -9.907   7.114  69.122  1.00  0.00    -0.160 A  
BRANCH  11  14
HETATM   14  C   UNL     1      -8.863  10.333  67.399  1.00  0.00    -0.131 C  
HETATM   15  H   UNL     1      -7.352  10.624  68.775  1.00  0.00     0.000 HD 
HETATM   16  O   UNL     1      -9.583  10.704  66.472  1.00  0.00    -0.172 OA 
HETATM   17  N   UNL     1      -7.912  11.088  68.058  1.00  0.00    -0.111 N  
BRANCH  17  18
HETATM   18  C   UNL     1      -7.662  12.428  67.817  1.00  0.00    -0.139 A  
HETATM   19  C   UNL     1      -8.610  13.494  67.960  1.00  0.00    -0.177 A  
HETATM   20  C   UNL     1      -9.950  13.644  68.360  1.00  0.00    -0.235 A  
HETATM   21  N   UNL     1      -6.487  12.896  67.394  1.00  0.00    -0.242 NA 
HETATM   22  N   UNL     1      -6.672  14.207  67.240  1.00  0.00    -0.198 NA 
HETATM   23  H   UNL     1      -5.632  12.365  67.224  1.00  0.00     0.000 HD 
HETATM   24  C   UNL     1     -10.590  14.899  68.271  1.00  0.00    -0.240 A  
HETATM   25  C   UNL     1      -9.873  16.003  67.794  1.00  0.00    -0.231 A  
HETATM   26  C   UNL     1      -7.941  14.631  67.518  1.00  0.00    -0.190 A  
HETATM   27  C   UNL     1      -8.530  15.893  67.418  1.00  0.00    -0.194 A  
BRANCH  24  28
HETATM   28  C   UNL     1     -12.021  15.061  68.739  1.00  0.00    -0.282 C  
BRANCH  28  29
HETATM   29  C   UNL     1     -12.235  15.148  70.238  1.00  0.00    -0.395 A  
HETATM   30  C   UNL     1     -11.730  16.188  71.032  1.00  0.00    -0.407 A  
HETATM   31  C   UNL     1     -12.025  16.247  72.394  1.00  0.00    -0.540 A  
HETATM   32  F   UNL     1     -11.547  17.262  73.124  1.00  0.00    -0.413 F  
HETATM   33  C   UNL     1     -12.813  15.283  73.003  1.00  0.00    -0.577 A  
HETATM   34  C   UNL     1     -13.293  14.238  72.228  1.00  0.00    -0.440 A  
HETATM   35  C   UNL     1     -13.013  14.161  70.864  1.00  0.00    -0.374 A  
HETATM   36  F   UNL     1     -14.049  13.290  72.796  1.00  0.00    -0.583 F  
ENDBRANCH  28  29
ENDBRANCH  24  28
ENDBRANCH  17  18
ENDBRANCH  11  14
BRANCH  12  37
HETATM   37  N   UNL     1     -11.015   9.290  69.190  1.00  0.00    -0.414 NA 
HETATM   38  H   UNL     1     -11.898   9.335  68.680  1.00  0.00     0.000 HD 
BRANCH  37  39
HETATM   39  C   UNL     1     -10.861  10.108  70.405  1.00  0.00    -0.301 C  
HETATM   40  C   UNL     1     -10.420   9.340  71.654  1.00  0.00    -0.328 C  
HETATM   41  O   UNL     1     -12.710   9.303  72.478  1.00  0.00    -0.341 OA 
HETATM   42  C   UNL     1     -13.212   9.862  71.266  1.00  0.00    -0.383 C  
HETATM   43  C   UNL     1     -12.184  10.819  70.683  1.00  0.00    -0.474 C  
HETATM   44  C   UNL     1     -11.543   8.513  72.260  1.00  0.00    -0.374 C  
ENDBRANCH  37  39
ENDBRANCH  12  37
ENDBRANCH   5   8
TORSDOF 7
ENDMDL
MODEL       22
REMARK 921   NORMALIZED FREE ENERGY PREDICTED BY IDOCK:   -7.18 KCAL/MOL
REMARK 922        TOTAL FREE ENERGY PREDICTED BY IDOCK:  -12.64 KCAL/MOL
REMARK 923 INTER-LIGAND FREE ENERGY PREDICTED BY IDOCK:  -11.08 KCAL/MOL
REMARK 924 INTRA-LIGAND FREE ENERGY PREDICTED BY IDOCK:   -1.56 KCAL/MOL
REMARK 927      BINDING AFFINITY PREDICTED BY RF-SCORE:    0.00 PKD
ROOT
HETATM    1  C   UNL     1      -5.800   5.823  63.207  1.00  0.00    -0.021 C  
HETATM    2  N   UNL     1      -5.870   5.921  64.663  1.00  0.00    -0.024 NA 
HETATM    3  C   UNL     1      -5.677   7.318  65.113  1.00  0.00    -0.037 C  
HETATM    4  C   UNL     1      -6.872   8.253  64.830  1.00  0.00    -0.067 C  
HETATM    5  N   UNL     1      -8.087   7.690  65.455  1.00  0.00    -0.123 NA 
HETATM    6  C   UNL     1      -8.398   6.339  64.966  1.00  0.00    -0.099 C  
HETATM    7  C   UNL     1      -7.168   5.417  65.181  1.00  0.00    -0.067 C  
ENDROOT
BRANCH   5   8
HETATM    8  C   UNL     1      -9.003   8.511  66.084  1.00  0.00    -0.179 A  
HETATM    9  C   UNL     1      -9.327   9.794  65.651  1.00  0.00    -0.285 A  
HETATM   10  C   UNL     1     -10.219  10.596  66.374  1.00  0.00    -0.291 A  
HETATM   11  C   UNL     1     -10.810  10.137  67.564  1.00  0.00    -0.349 A  
HETATM   12  C   UNL     1     -10.589   8.815  67.990  1.00  0.00    -0.159 A  
HETATM   13  C   UNL     1      -9.701   8.051  67.216  1.00  0.00    -0.232 A  
BRANCH  11  14
HETATM   14  C   UNL     1     -11.628  11.130  68.325  1.00  0.00    -0.289 C  
HETATM   15  H   UNL     1     -10.907  10.349  70.095  1.00  0.00     0.000 HD 
HETATM   16  O   UNL     1     -12.283  11.945  67.678  1.00  0.00    -0.510 OA 
HETATM   17  N   UNL     1     -11.537  11.050  69.702  1.00  0.00    -0.287 N  
BRANCH  17  18
HETATM   18  C   UNL     1     -12.237  11.851  70.587  1.00  0.00    -0.331 A  
HETATM   19  C   UNL     1     -12.117  13.277  70.698  1.00  0.00    -0.361 A  
HETATM   20  C   UNL     1     -11.402  14.310  70.066  1.00  0.00    -0.224 A  
HETATM   21  N   UNL     1     -13.113  11.382  71.476  1.00  0.00    -0.398 NA 
HETATM   22  N   UNL     1     -13.524  12.452  72.155  1.00  0.00    -0.492 NA 
HETATM   23  H   UNL     1     -13.404  10.413  71.607  1.00  0.00     0.000 HD 
HETATM   24  C   UNL     1     -11.485  15.636  70.543  1.00  0.00    -0.380 A  
HETATM   25  C   UNL     1     -12.301  15.920  71.645  1.00  0.00    -0.519 A  
HETATM   26  C   UNL     1     -12.931  13.622  71.772  1.00  0.00    -0.353 A  
HETATM   27  C   UNL     1     -13.049  14.919  72.275  1.00  0.00    -0.439 A  
BRANCH  24  28
HETATM   28  C   UNL     1     -10.742  16.750  69.835  1.00  0.00    -0.123 C  
BRANCH  28  29
HETATM   29  C   UNL     1     -10.161  16.414  68.475  1.00  0.00    -0.248 A  
HETATM   30  C   UNL     1     -10.868  16.566  67.272  1.00  0.00    -0.173 A  
HETATM   31  C   UNL     1     -10.250  16.309  66.049  1.00  0.00    -0.358 A  
HETATM   32  F   UNL     1     -10.942  16.482  64.916  1.00  0.00    -0.420 F  
HETATM   33  C   UNL     1      -8.930  15.890  65.983  1.00  0.00    -0.337 A  
HETATM   34  C   UNL     1      -8.235  15.713  67.169  1.00  0.00    -0.213 A  
HETATM   35  C   UNL     1      -8.832  15.967  68.403  1.00  0.00    -0.184 A  
HETATM   36  F   UNL     1      -6.961  15.300  67.130  1.00  0.00    -0.214 F  
ENDBRANCH  28  29
ENDBRANCH  24  28
ENDBRANCH  17  18
ENDBRANCH  11  14
BRANCH  12  37
HETATM   37  N   UNL     1     -11.150   8.302  69.166  1.00  0.00    -0.420 NA 
HETATM   38  H   UNL     1     -12.087   8.607  69.432  1.00  0.00     0.000 HD 
BRANCH  37  39
HETATM   39  C   UNL     1     -10.448   7.342  70.035  1.00  0.00    -0.224 C  
HETATM   40  C   UNL     1     -11.338   6.274  70.675  1.00  0.00    -0.409 C  
HETATM   41  O   UNL     1     -11.364   7.510  72.773  1.00  0.00    -0.337 OA 
HETATM   42  C   UNL     1     -10.683   8.618  72.189  1.00  0.00    -0.347 C  
HETATM   43  C   UNL     1      -9.717   8.120  71.126  1.00  0.00    -0.200 C  
HETATM   44  C   UNL     1     -12.174   6.820  71.823  1.00  0.00    -0.358 C  
ENDBRANCH  37  39
ENDBRANCH  12  37
ENDBRANCH   5   8
TORSDOF 7
ENDMDL
MODEL       23
REMARK 921   NORMALIZED FREE ENERGY PREDICTED BY IDOCK:   -7.14 KCAL/MOL
REMARK 922        TOTAL FREE ENERGY PREDICTED BY IDOCK:  -12.58 KCAL/MOL
REMARK 923 INTER-LIGAND FREE ENERGY PREDICTED BY IDOCK:  -10.35 KCAL/MOL
REMARK 924 INTRA-LIGAND FREE ENERGY PREDICTED BY IDOCK:   -2.23 KCAL/MOL
REMARK 927      BINDING AFFINITY PREDICTED BY RF-SCORE:    0.00 PKD
ROOT
HETATM    1  C   UNL     1      -9.823   2.256  63.932  1.00  0.00    -0.139 C  
HETATM    2  N   UNL     1      -8.767   2.615  64.875  1.00  0.00    -0.106 NA 
HETATM    3  C   UNL     1      -7.919   3.703  64.336  1.00  0.00    -0.086 C  
HETATM    4  C   UNL     1      -8.595   5.090  64.313  1.00  0.00    -0.130 C  
HETATM    5  N   UNL     1      -9.041   5.434  65.679  1.00  0.00    -0.158 NA 
HETATM    6  C   UNL     1      -9.977   4.445  66.232  1.00  0.00    -0.235 C  
HETATM    7  C   UNL     1      -9.326   3.037  66.184  1.00  0.00    -0.071 C  
ENDROOT
BRANCH   5   8
HETATM    8  C   UNL     1      -8.907   6.722  66.161  1.00  0.00    -0.148 A  
HETATM    9  C   UNL     1      -8.102   7.695  65.575  1.00  0.00    -0.130 A  
HETATM   10  C   UNL     1      -7.963   8.963  66.154  1.00  0.00    -0.106 A  
HETATM   11  C   UNL     1      -8.626   9.293  67.350  1.00  0.00    -0.122 A  
HETATM   12  C   UNL     1      -9.525   8.378  67.926  1.00  0.00    -0.146 A  
HETATM   13  C   UNL     1      -9.638   7.130  67.292  1.00  0.00    -0.179 A  
BRANCH  11  14
HETATM   14  C   UNL     1      -8.291  10.619  67.951  1.00  0.00    -0.120 C  
HETATM   15  H   UNL     1      -8.376  11.478  66.075  1.00  0.00     0.000 HD 
HETATM   16  O   UNL     1      -8.163  10.676  69.173  1.00  0.00    -0.146 OA 
HETATM   17  N   UNL     1      -8.191  11.671  67.060  1.00  0.00    -0.164 N  
BRANCH  17  18
HETATM   18  C   UNL     1      -7.857  12.969  67.407  1.00  0.00    -0.164 A  
HETATM   19  C   UNL     1      -8.764  13.960  67.909  1.00  0.00    -0.184 A  
HETATM   20  C   UNL     1     -10.128  14.044  68.243  1.00  0.00    -0.246 A  
HETATM   21  N   UNL     1      -6.627  13.471  67.294  1.00  0.00    -0.452 NA 
HETATM   22  N   UNL     1      -6.735  14.743  67.679  1.00  0.00    -0.176 NA 
HETATM   23  H   UNL     1      -5.785  12.987  66.980  1.00  0.00     0.000 HD 
HETATM   24  C   UNL     1     -10.698  15.275  68.633  1.00  0.00    -0.245 A  
HETATM   25  C   UNL     1      -9.887  16.415  68.701  1.00  0.00    -0.234 A  
HETATM   26  C   UNL     1      -8.004  15.120  68.019  1.00  0.00    -0.132 A  
HETATM   27  C   UNL     1      -8.521  16.358  68.406  1.00  0.00    -0.204 A  
BRANCH  24  28
HETATM   28  C   UNL     1     -12.158  15.350  69.028  1.00  0.00    -0.254 C  
BRANCH  28  29
HETATM   29  C   UNL     1     -12.487  14.997  70.465  1.00  0.00    -0.425 A  
HETATM   30  C   UNL     1     -13.013  13.756  70.857  1.00  0.00    -0.287 A  
HETATM   31  C   UNL     1     -13.223  13.469  72.205  1.00  0.00    -0.475 A  
HETATM   32  F   UNL     1     -13.707  12.270  72.552  1.00  0.00    -0.568 F  
HETATM   33  C   UNL     1     -12.931  14.397  73.193  1.00  0.00    -0.517 A  
HETATM   34  C   UNL     1     -12.437  15.633  72.811  1.00  0.00    -0.436 A  
HETATM   35  C   UNL     1     -12.214  15.941  71.469  1.00  0.00    -0.525 A  
HETATM   36  F   UNL     1     -12.155  16.549  73.747  1.00  0.00    -0.529 F  
ENDBRANCH  28  29
ENDBRANCH  24  28
ENDBRANCH  17  18
ENDBRANCH  11  14
BRANCH  12  37
HETATM   37  N   UNL     1     -10.215   8.651  69.115  1.00  0.00    -0.204 NA 
HETATM   38  H   UNL     1     -10.981   9.324  69.090  1.00  0.00     0.000 HD 
BRANCH  37  39
HETATM   39  C   UNL     1      -9.881   8.009  70.398  1.00  0.00    -0.183 C  
HETATM   40  C   UNL     1     -10.552   6.655  70.641  1.00  0.00    -0.268 C  
HETATM   41  O   UNL     1     -12.215   7.702  72.078  1.00  0.00    -0.294 OA 
HETATM   42  C   UNL     1     -11.745   9.010  71.758  1.00  0.00    -0.369 C  
HETATM   43  C   UNL     1     -10.242   8.969  71.529  1.00  0.00    -0.414 C  
HETATM   44  C   UNL     1     -12.024   6.788  71.000  1.00  0.00    -0.379 C  
ENDBRANCH  37  39
ENDBRANCH  12  37
ENDBRANCH   5   8
TORSDOF 7
ENDMDL
MODEL       24
REMARK 921   NORMALIZED FREE ENERGY PREDICTED BY IDOCK:   -7.11 KCAL/MOL
REMARK 922        TOTAL FREE ENERGY PREDICTED BY IDOCK:  -12.54 KCAL/MOL
REMARK 923 INTER-LIGAND FREE ENERGY PREDICTED BY IDOCK:  -10.61 KCAL/MOL
REMARK 924 INTRA-LIGAND FREE ENERGY PREDICTED BY IDOCK:   -1.92 KCAL/MOL
REMARK 927      BINDING AFFINITY PREDICTED BY RF-SCORE:    0.00 PKD
ROOT
HETATM    1  C   UNL     1      -7.745   1.728  70.320  1.00  0.00    -0.039 C  
HETATM    2  N   UNL     1      -8.128   1.799  68.913  1.00  0.00    -0.048 NA 
HETATM    3  C   UNL     1      -9.443   2.459  68.751  1.00  0.00    -0.114 C  
HETATM    4  C   UNL     1      -9.429   3.984  68.993  1.00  0.00    -0.173 C  
HETATM    5  N   UNL     1      -8.442   4.609  68.088  1.00  0.00    -0.101 NA 
HETATM    6  C   UNL     1      -7.086   4.073  68.277  1.00  0.00    -0.055 C  
HETATM    7  C   UNL     1      -7.115   2.530  68.109  1.00  0.00    -0.048 C  
ENDROOT
BRANCH   5   8
HETATM    8  C   UNL     1      -8.715   5.814  67.471  1.00  0.00    -0.107 A  
HETATM    9  C   UNL     1      -8.165   6.211  66.255  1.00  0.00    -0.116 A  
HETATM   10  C   UNL     1      -8.437   7.475  65.718  1.00  0.00    -0.151 A  
HETATM   11  C   UNL     1      -9.268   8.388  66.391  1.00  0.00    -0.253 A  
HETATM   12  C   UNL     1      -9.923   7.998  67.572  1.00  0.00    -0.194 A  
HETATM   13  C   UNL     1      -9.627   6.713  68.055  1.00  0.00    -0.123 A  
BRANCH  11  14
HETATM   14  C   UNL     1      -9.370   9.756  65.797  1.00  0.00    -0.221 C  
HETATM   15  H   UNL     1     -11.405   9.493  65.568  1.00  0.00     0.000 HD 
HETATM   16  O   UNL     1      -8.342  10.429  65.734  1.00  0.00    -0.146 OA 
HETATM   17  N   UNL     1     -10.637  10.144  65.403  1.00  0.00     0.010 N  
BRANCH  17  18
HETATM   18  C   UNL     1     -10.940  11.354  64.802  1.00  0.00    -0.234 A  
HETATM   19  C   UNL     1     -10.808  12.646  65.411  1.00  0.00    -0.318 A  
HETATM   20  C   UNL     1     -10.370  13.175  66.638  1.00  0.00    -0.265 A  
HETATM   21  N   UNL     1     -11.420  11.464  63.563  1.00  0.00    -0.713 NA 
HETATM   22  N   UNL     1     -11.620  12.769  63.384  1.00  0.00    -0.499 NA 
HETATM   23  H   UNL     1     -11.597  10.711  62.897  1.00  0.00     0.000 HD 
HETATM   24  C   UNL     1     -10.488  14.555  66.908  1.00  0.00    -0.269 A  
HETATM   25  C   UNL     1     -11.032  15.402  65.934  1.00  0.00    -0.293 A  
HETATM   26  C   UNL     1     -11.317  13.538  64.472  1.00  0.00    -0.365 A  
HETATM   27  C   UNL     1     -11.447  14.911  64.692  1.00  0.00    -0.380 A  
BRANCH  24  28
HETATM   28  C   UNL     1      -9.980  15.124  68.217  1.00  0.00    -0.223 C  
BRANCH  28  29
HETATM   29  C   UNL     1     -10.896  14.977  69.416  1.00  0.00    -0.265 A  
HETATM   30  C   UNL     1     -11.655  13.826  69.674  1.00  0.00    -0.343 A  
HETATM   31  C   UNL     1     -12.421  13.728  70.835  1.00  0.00    -0.377 A  
HETATM   32  F   UNL     1     -13.120  12.609  71.066  1.00  0.00    -0.316 F  
HETATM   33  C   UNL     1     -12.464  14.760  71.760  1.00  0.00    -0.410 A  
HETATM   34  C   UNL     1     -11.737  15.910  71.497  1.00  0.00    -0.475 A  
HETATM   35  C   UNL     1     -10.961  16.029  70.345  1.00  0.00    -0.347 A  
HETATM   36  F   UNL     1     -11.770  16.924  72.372  1.00  0.00    -0.555 F  
ENDBRANCH  28  29
ENDBRANCH  24  28
ENDBRANCH  17  18
ENDBRANCH  11  14
BRANCH  12  37
HETATM   37  N   UNL     1     -10.763   8.863  68.285  1.00  0.00    -0.426 NA 
HETATM   38  H   UNL     1     -11.772   8.737  68.208  1.00  0.00     0.000 HD 
BRANCH  37  39
HETATM   39  C   UNL     1     -10.252   9.947  69.142  1.00  0.00    -0.205 C  
HETATM   40  C   UNL     1      -8.873   9.693  69.759  1.00  0.00    -0.224 C  
HETATM   41  O   UNL     1      -9.901   9.074  71.877  1.00  0.00    -0.323 OA 
HETATM   42  C   UNL     1     -11.212   9.126  71.317  1.00  0.00    -0.337 C  
HETATM   43  C   UNL     1     -11.268  10.209  70.252  1.00  0.00    -0.387 C  
HETATM   44  C   UNL     1      -8.922   8.700  70.910  1.00  0.00    -0.187 C  
ENDBRANCH  37  39
ENDBRANCH  12  37
ENDBRANCH   5   8
TORSDOF 7
ENDMDL
MODEL       25
REMARK 921   NORMALIZED FREE ENERGY PREDICTED BY IDOCK:   -7.08 KCAL/MOL
REMARK 922        TOTAL FREE ENERGY PREDICTED BY IDOCK:  -12.50 KCAL/MOL
REMARK 923 INTER-LIGAND FREE ENERGY PREDICTED BY IDOCK:  -10.78 KCAL/MOL
REMARK 924 INTRA-LIGAND FREE ENERGY PREDICTED BY IDOCK:   -1.73 KCAL/MOL
REMARK 927      BINDING AFFINITY PREDICTED BY RF-SCORE:    0.00 PKD
ROOT
HETATM    1  C   UNL     1     -11.151   4.455  73.763  1.00  0.00    -0.244 C  
HETATM    2  N   UNL     1     -10.057   5.383  73.486  1.00  0.00    -0.175 NA 
HETATM    3  C   UNL     1      -9.556   5.220  72.103  1.00  0.00    -0.151 C  
HETATM    4  C   UNL     1     -10.504   5.757  71.010  1.00  0.00    -0.244 C  
HETATM    5  N   UNL     1     -10.788   7.183  71.274  1.00  0.00    -0.231 NA 
HETATM    6  C   UNL     1     -11.393   7.403  72.595  1.00  0.00    -0.313 C  
HETATM    7  C   UNL     1     -10.475   6.794  73.689  1.00  0.00    -0.347 C  
ENDROOT
BRANCH   5   8
HETATM    8  C   UNL     1     -10.853   8.093  70.236  1.00  0.00    -0.244 A  
HETATM    9  C   UNL     1     -10.259   7.901  68.992  1.00  0.00    -0.216 A  
HETATM   10  C   UNL     1     -10.312   8.894  68.005  1.00  0.00    -0.271 A  
HETATM   11  C   UNL     1     -10.959  10.120  68.242  1.00  0.00    -0.299 A  
HETATM   12  C   UNL     1     -11.656  10.322  69.445  1.00  0.00    -0.146 A  
HETATM   13  C   UNL     1     -11.584   9.285  70.390  1.00  0.00    -0.215 A  
BRANCH  11  14
HETATM   14  C   UNL     1     -10.827  11.157  67.173  1.00  0.00    -0.273 C  
HETATM   15  H   UNL     1     -12.776  11.744  67.517  1.00  0.00     0.000 HD 
HETATM   16  O   UNL     1      -9.734  11.270  66.619  1.00  0.00    -0.190 OA 
HETATM   17  N   UNL     1     -11.955  11.920  66.937  1.00  0.00    -0.094 N  
BRANCH  17  18
HETATM   18  C   UNL     1     -12.052  12.907  65.972  1.00  0.00    -0.422 A  
HETATM   19  C   UNL     1     -11.251  14.096  65.908  1.00  0.00    -0.313 A  
HETATM   20  C   UNL     1     -10.193  14.675  66.632  1.00  0.00    -0.275 A  
HETATM   21  N   UNL     1     -12.934  12.880  64.973  1.00  0.00    -0.815 NA 
HETATM   22  N   UNL     1     -12.736  14.016  64.304  1.00  0.00    -0.638 NA 
HETATM   23  H   UNL     1     -13.614  12.148  64.765  1.00  0.00     0.000 HD 
HETATM   24  C   UNL     1      -9.715  15.960  66.301  1.00  0.00    -0.332 A  
HETATM   25  C   UNL     1     -10.293  16.652  65.229  1.00  0.00    -0.118 A  
HETATM   26  C   UNL     1     -11.769  14.820  64.839  1.00  0.00    -0.390 A  
HETATM   27  C   UNL     1     -11.325  16.091  64.470  1.00  0.00    -0.303 A  
BRANCH  24  28
HETATM   28  C   UNL     1      -8.550  16.561  67.060  1.00  0.00    -0.219 C  
BRANCH  28  29
HETATM   29  C   UNL     1      -8.624  18.049  67.340  1.00  0.00    -0.244 A  
HETATM   30  C   UNL     1      -7.699  18.978  66.838  1.00  0.00    -0.253 A  
HETATM   31  C   UNL     1      -7.866  20.342  67.072  1.00  0.00    -0.329 A  
HETATM   32  F   UNL     1      -6.979  21.207  66.563  1.00  0.00    -0.305 F  
HETATM   33  C   UNL     1      -8.938  20.820  67.809  1.00  0.00    -0.093 A  
HETATM   34  C   UNL     1      -9.840  19.906  68.330  1.00  0.00    -0.399 A  
HETATM   35  C   UNL     1      -9.695  18.538  68.106  1.00  0.00    -0.367 A  
HETATM   36  F   UNL     1     -10.879  20.345  69.053  1.00  0.00    -0.316 F  
ENDBRANCH  28  29
ENDBRANCH  24  28
ENDBRANCH  17  18
ENDBRANCH  11  14
BRANCH  12  37
HETATM   37  N   UNL     1     -12.320  11.521  69.736  1.00  0.00    -0.203 NA 
HETATM   38  H   UNL     1     -13.211  11.709  69.276  1.00  0.00     0.000 HD 
BRANCH  37  39
HETATM   39  C   UNL     1     -11.788  12.521  70.678  1.00  0.00     0.076 C  
HETATM   40  C   UNL     1     -12.742  12.923  71.806  1.00  0.00    -0.250 C  
HETATM   41  O   UNL     1     -13.331  14.967  70.622  1.00  0.00    -0.333 OA 
HETATM   42  C   UNL     1     -12.595  14.572  69.465  1.00  0.00    -0.002 C  
HETATM   43  C   UNL     1     -11.379  13.762  69.887  1.00  0.00    -0.150 C  
HETATM   44  C   UNL     1     -13.854  13.846  71.331  1.00  0.00    -0.131 C  
ENDBRANCH  37  39
ENDBRANCH  12  37
ENDBRANCH   5   8
TORSDOF 7
ENDMDL
MODEL       26
REMARK 921   NORMALIZED FREE ENERGY PREDICTED BY IDOCK:   -7.07 KCAL/MOL
REMARK 922        TOTAL FREE ENERGY PREDICTED BY IDOCK:  -12.49 KCAL/MOL
REMARK 923 INTER-LIGAND FREE ENERGY PREDICTED BY IDOCK:  -10.89 KCAL/MOL
REMARK 924 INTRA-LIGAND FREE ENERGY PREDICTED BY IDOCK:   -1.60 KCAL/MOL
REMARK 927      BINDING AFFINITY PREDICTED BY RF-SCORE:    0.00 PKD
ROOT
HETATM    1  C   UNL     1      -7.820  19.727  66.072  1.00  0.00    -0.336 C  
HETATM    2  N   UNL     1      -7.191  18.886  67.087  1.00  0.00    -0.212 NA 
HETATM    3  C   UNL     1      -8.069  18.728  68.268  1.00  0.00    -0.324 C  
HETATM    4  C   UNL     1      -9.293  17.816  68.038  1.00  0.00    -0.276 C  
HETATM    5  N   UNL     1      -8.831  16.490  67.578  1.00  0.00    -0.190 NA 
HETATM    6  C   UNL     1      -8.041  16.567  66.341  1.00  0.00    -0.327 C  
HETATM    7  C   UNL     1      -6.853  17.544  66.548  1.00  0.00    -0.247 C  
ENDROOT
BRANCH   5   8
HETATM    8  C   UNL     1      -9.433  15.334  68.038  1.00  0.00    -0.198 A  
HETATM    9  C   UNL     1      -8.998  14.050  67.724  1.00  0.00    -0.186 A  
HETATM   10  C   UNL     1      -9.695  12.922  68.174  1.00  0.00    -0.227 A  
HETATM   11  C   UNL     1     -10.859  13.049  68.953  1.00  0.00    -0.244 A  
HETATM   12  C   UNL     1     -11.281  14.320  69.377  1.00  0.00    -0.273 A  
HETATM   13  C   UNL     1     -10.535  15.414  68.910  1.00  0.00    -0.238 A  
BRANCH  11  14
HETATM   14  C   UNL     1     -11.598  11.784  69.253  1.00  0.00    -0.315 C  
HETATM   15  H   UNL     1     -10.959  11.890  71.213  1.00  0.00     0.000 HD 
HETATM   16  O   UNL     1     -12.251  11.275  68.343  1.00  0.00    -0.604 OA 
HETATM   17  N   UNL     1     -11.498  11.327  70.553  1.00  0.00    -0.135 N  
BRANCH  17  18
HETATM   18  C   UNL     1     -12.077  10.163  71.027  1.00  0.00    -0.377 A  
HETATM   19  C   UNL     1     -11.379   8.947  71.334  1.00  0.00    -0.380 A  
HETATM   20  C   UNL     1     -10.051   8.483  71.329  1.00  0.00    -0.286 A  
HETATM   21  N   UNL     1     -13.385  10.021  71.239  1.00  0.00    -0.363 NA 
HETATM   22  N   UNL     1     -13.536   8.759  71.641  1.00  0.00    -0.381 NA 
HETATM   23  H   UNL     1     -14.113  10.726  71.120  1.00  0.00     0.000 HD 
HETATM   24  C   UNL     1      -9.761   7.134  71.620  1.00  0.00    -0.166 A  
HETATM   25  C   UNL     1     -10.809   6.258  71.933  1.00  0.00    -0.286 A  
HETATM   26  C   UNL     1     -12.376   8.039  71.677  1.00  0.00    -0.314 A  
HETATM   27  C   UNL     1     -12.136   6.697  71.978  1.00  0.00    -0.353 A  
BRANCH  24  28
HETATM   28  C   UNL     1      -8.326   6.650  71.649  1.00  0.00    -0.115 C  
BRANCH  28  29
HETATM   29  C   UNL     1      -7.874   5.811  70.470  1.00  0.00    -0.100 A  
HETATM   30  C   UNL     1      -8.178   6.123  69.136  1.00  0.00    -0.113 A  
HETATM   31  C   UNL     1      -7.668   5.350  68.094  1.00  0.00    -0.085 A  
HETATM   32  F   UNL     1      -7.958   5.683  66.829  1.00  0.00    -0.098 F  
HETATM   33  C   UNL     1      -6.859   4.251  68.340  1.00  0.00    -0.048 A  
HETATM   34  C   UNL     1      -6.578   3.923  69.656  1.00  0.00    -0.033 A  
HETATM   35  C   UNL     1      -7.073   4.683  70.715  1.00  0.00    -0.041 A  
HETATM   36  F   UNL     1      -5.805   2.860  69.919  1.00  0.00    -0.016 F  
ENDBRANCH  28  29
ENDBRANCH  24  28
ENDBRANCH  17  18
ENDBRANCH  11  14
BRANCH  12  37
HETATM   37  N   UNL     1     -12.432  14.509  70.153  1.00  0.00    -0.416 NA 
HETATM   38  H   UNL     1     -13.231  14.985  69.733  1.00  0.00     0.000 HD 
BRANCH  37  39
HETATM   39  C   UNL     1     -12.540  14.049  71.548  1.00  0.00    -0.349 C  
HETATM   40  C   UNL     1     -13.941  14.147  72.159  1.00  0.00    -0.626 C  
HETATM   41  O   UNL     1     -13.322  16.194  73.323  1.00  0.00    -0.563 OA 
HETATM   42  C   UNL     1     -12.062  16.255  72.658  1.00  0.00    -0.534 C  
HETATM   43  C   UNL     1     -11.554  14.845  72.400  1.00  0.00    -0.245 C  
HETATM   44  C   UNL     1     -14.323  15.575  72.518  1.00  0.00    -0.276 C  
ENDBRANCH  37  39
ENDBRANCH  12  37
ENDBRANCH   5   8
TORSDOF 7
ENDMDL
MODEL       27
REMARK 921   NORMALIZED FREE ENERGY PREDICTED BY IDOCK:   -7.05 KCAL/MOL
REMARK 922        TOTAL FREE ENERGY PREDICTED BY IDOCK:  -12.45 KCAL/MOL
REMARK 923 INTER-LIGAND FREE ENERGY PREDICTED BY IDOCK:   -9.77 KCAL/MOL
REMARK 924 INTRA-LIGAND FREE ENERGY PREDICTED BY IDOCK:   -2.68 KCAL/MOL
REMARK 927      BINDING AFFINITY PREDICTED BY RF-SCORE:    0.00 PKD
ROOT
HETATM    1  C   UNL     1      -7.706   1.682  65.989  1.00  0.00    -0.066 C  
HETATM    2  N   UNL     1      -9.096   2.029  66.272  1.00  0.00    -0.086 NA 
HETATM    3  C   UNL     1      -9.358   2.038  67.729  1.00  0.00    -0.143 C  
HETATM    4  C   UNL     1      -8.736   3.233  68.483  1.00  0.00    -0.103 C  
HETATM    5  N   UNL     1      -9.221   4.492  67.880  1.00  0.00    -0.124 NA 
HETATM    6  C   UNL     1      -8.894   4.595  66.451  1.00  0.00    -0.112 C  
HETATM    7  C   UNL     1      -9.454   3.354  65.704  1.00  0.00    -0.119 C  
ENDROOT
BRANCH   5   8
HETATM    8  C   UNL     1      -9.553   5.573  68.675  1.00  0.00    -0.135 A  
HETATM    9  C   UNL     1     -10.489   5.527  69.704  1.00  0.00    -0.379 A  
HETATM   10  C   UNL     1     -10.822   6.678  70.429  1.00  0.00    -0.316 A  
HETATM   11  C   UNL     1     -10.228   7.919  70.136  1.00  0.00    -0.202 A  
HETATM   12  C   UNL     1      -9.208   7.996  69.173  1.00  0.00    -0.151 A  
HETATM   13  C   UNL     1      -8.903   6.808  68.490  1.00  0.00    -0.123 A  
BRANCH  11  14
HETATM   14  C   UNL     1     -10.766   9.103  70.875  1.00  0.00    -0.275 C  
HETATM   15  H   UNL     1     -11.766   9.697  69.169  1.00  0.00     0.000 HD 
HETATM   16  O   UNL     1     -10.478   9.212  72.066  1.00  0.00    -0.322 OA 
HETATM   17  N   UNL     1     -11.574   9.949  70.139  1.00  0.00    -0.243 N  
BRANCH  17  18
HETATM   18  C   UNL     1     -12.143  11.114  70.624  1.00  0.00    -0.379 A  
HETATM   19  C   UNL     1     -12.134  12.387  69.962  1.00  0.00    -0.335 A  
HETATM   20  C   UNL     1     -11.667  12.922  68.748  1.00  0.00    -0.363 A  
HETATM   21  N   UNL     1     -12.764  11.200  71.801  1.00  0.00    -0.352 NA 
HETATM   22  N   UNL     1     -13.119  12.480  71.913  1.00  0.00    -0.407 NA 
HETATM   23  H   UNL     1     -12.931  10.448  72.470  1.00  0.00     0.000 HD 
HETATM   24  C   UNL     1     -11.769  14.305  68.487  1.00  0.00    -0.376 A  
HETATM   25  C   UNL     1     -12.357  15.143  69.443  1.00  0.00    -0.165 A  
HETATM   26  C   UNL     1     -12.731  13.264  70.863  1.00  0.00    -0.254 A  
HETATM   27  C   UNL     1     -12.859  14.637  70.646  1.00  0.00    -0.399 A  
BRANCH  24  28
HETATM   28  C   UNL     1     -11.298  14.869  67.162  1.00  0.00    -0.348 C  
BRANCH  28  29
HETATM   29  C   UNL     1     -11.251  13.900  65.996  1.00  0.00    -0.300 A  
HETATM   30  C   UNL     1     -10.061  13.353  65.492  1.00  0.00    -0.279 A  
HETATM   31  C   UNL     1     -10.094  12.410  64.465  1.00  0.00    -0.250 A  
HETATM   32  F   UNL     1      -8.944  11.890  64.017  1.00  0.00     0.127 F  
HETATM   33  C   UNL     1     -11.293  11.994  63.907  1.00  0.00    -0.503 A  
HETATM   34  C   UNL     1     -12.469  12.550  64.383  1.00  0.00    -0.446 A  
HETATM   35  C   UNL     1     -12.461  13.492  65.412  1.00  0.00    -0.540 A  
HETATM   36  F   UNL     1     -13.639  12.170  63.854  1.00  0.00    -0.258 F  
ENDBRANCH  28  29
ENDBRANCH  24  28
ENDBRANCH  17  18
ENDBRANCH  11  14
BRANCH  12  37
HETATM   37  N   UNL     1      -8.580   9.203  68.840  1.00  0.00    -0.129 NA 
HETATM   38  H   UNL     1      -7.751   9.482  69.364  1.00  0.00     0.000 HD 
BRANCH  37  39
HETATM   39  C   UNL     1      -9.065  10.087  67.765  1.00  0.00    -0.131 C  
HETATM   40  C   UNL     1      -9.728   9.372  66.585  1.00  0.00    -0.280 C  
HETATM   41  O   UNL     1      -7.691   9.588  65.270  1.00  0.00    -0.105 OA 
HETATM   42  C   UNL     1      -6.963  10.104  66.383  1.00  0.00    -0.105 C  
HETATM   43  C   UNL     1      -7.892  10.926  67.262  1.00  0.00    -0.116 C  
HETATM   44  C   UNL     1      -8.720   8.688  65.674  1.00  0.00    -0.182 C  
ENDBRANCH  37  39
ENDBRANCH  12  37
ENDBRANCH   5   8
TORSDOF 7
ENDMDL
MODEL       28
REMARK 921   NORMALIZED FREE ENERGY PREDICTED BY IDOCK:   -7.03 KCAL/MOL
REMARK 922        TOTAL FREE ENERGY PREDICTED BY IDOCK:  -12.43 KCAL/MOL
REMARK 923 INTER-LIGAND FREE ENERGY PREDICTED BY IDOCK:   -9.86 KCAL/MOL
REMARK 924 INTRA-LIGAND FREE ENERGY PREDICTED BY IDOCK:   -2.58 KCAL/MOL
REMARK 927      BINDING AFFINITY PREDICTED BY RF-SCORE:    0.00 PKD
ROOT
HETATM    1  C   UNL     1     -10.066  16.505  65.602  1.00  0.00    -0.251 C  
HETATM    2  N   UNL     1     -11.251  15.684  65.836  1.00  0.00    -0.144 NA 
HETATM    3  C   UNL     1     -11.375  14.622  64.812  1.00  0.00    -0.396 C  
HETATM    4  C   UNL     1     -10.352  13.475  64.953  1.00  0.00    -0.377 C  
HETATM    5  N   UNL     1     -10.470  12.884  66.303  1.00  0.00    -0.266 NA 
HETATM    6  C   UNL     1     -10.247  13.869  67.371  1.00  0.00    -0.252 C  
HETATM    7  C   UNL     1     -11.225  15.060  67.184  1.00  0.00    -0.336 C  
ENDROOT
BRANCH   5   8
HETATM    8  C   UNL     1     -10.382  11.517  66.485  1.00  0.00    -0.232 A  
HETATM    9  C   UNL     1      -9.908  10.631  65.522  1.00  0.00    -0.316 A  
HETATM   10  C   UNL     1      -9.906   9.249  65.751  1.00  0.00    -0.302 A  
HETATM   11  C   UNL     1     -10.388   8.711  66.958  1.00  0.00    -0.368 A  
HETATM   12  C   UNL     1     -10.786   9.570  67.997  1.00  0.00    -0.212 A  
HETATM   13  C   UNL     1     -10.750  10.945  67.717  1.00  0.00    -0.279 A  
BRANCH  11  14
HETATM   14  C   UNL     1     -10.472   7.220  67.033  1.00  0.00    -0.328 C  
HETATM   15  H   UNL     1      -8.530   7.088  66.346  1.00  0.00     0.000 HD 
HETATM   16  O   UNL     1     -11.513   6.728  67.467  1.00  0.00    -0.130 OA 
HETATM   17  N   UNL     1      -9.339   6.537  66.634  1.00  0.00    -0.155 N  
BRANCH  17  18
HETATM   18  C   UNL     1      -9.222   5.158  66.596  1.00  0.00    -0.129 A  
HETATM   19  C   UNL     1      -8.814   4.323  67.689  1.00  0.00    -0.124 A  
HETATM   20  C   UNL     1      -8.449   4.484  69.038  1.00  0.00    -0.090 A  
HETATM   21  N   UNL     1      -9.462   4.426  65.508  1.00  0.00    -0.163 NA 
HETATM   22  N   UNL     1      -9.194   3.171  65.869  1.00  0.00    -0.152 NA 
HETATM   23  H   UNL     1      -9.781   4.755  64.596  1.00  0.00     0.000 HD 
HETATM   24  C   UNL     1      -8.000   3.382  69.796  1.00  0.00    -0.057 A  
HETATM   25  C   UNL     1      -7.935   2.117  69.198  1.00  0.00    -0.056 A  
HETATM   26  C   UNL     1      -8.753   3.039  67.156  1.00  0.00    -0.125 A  
HETATM   27  C   UNL     1      -8.321   1.919  67.869  1.00  0.00    -0.081 A  
BRANCH  24  28
HETATM   28  C   UNL     1      -7.645   3.556  71.258  1.00  0.00    -0.048 C  
BRANCH  28  29
HETATM   29  C   UNL     1      -8.759   4.030  72.171  1.00  0.00    -0.121 A  
HETATM   30  C   UNL     1      -9.920   3.283  72.428  1.00  0.00    -0.233 A  
HETATM   31  C   UNL     1     -10.872   3.744  73.336  1.00  0.00    -0.222 A  
HETATM   32  F   UNL     1     -11.960   3.002  73.576  1.00  0.00    -0.284 F  
HETATM   33  C   UNL     1     -10.709   4.949  74.002  1.00  0.00    -0.354 A  
HETATM   34  C   UNL     1      -9.578   5.703  73.733  1.00  0.00    -0.143 A  
HETATM   35  C   UNL     1      -8.610   5.260  72.831  1.00  0.00    -0.115 A  
HETATM   36  F   UNL     1      -9.403   6.875  74.358  1.00  0.00    -0.201 F  
ENDBRANCH  28  29
ENDBRANCH  24  28
ENDBRANCH  17  18
ENDBRANCH  11  14
BRANCH  12  37
HETATM   37  N   UNL     1     -11.274   9.093  69.220  1.00  0.00    -0.440 NA 
HETATM   38  H   UNL     1     -11.829   8.236  69.222  1.00  0.00     0.000 HD 
BRANCH  37  39
HETATM   39  C   UNL     1     -11.022   9.773  70.502  1.00  0.00    -0.321 C  
HETATM   40  C   UNL     1     -10.600   8.854  71.652  1.00  0.00    -0.422 C  
HETATM   41  O   UNL     1     -12.860   8.895  72.556  1.00  0.00    -0.407 OA 
HETATM   42  C   UNL     1     -13.357   9.607  71.424  1.00  0.00    -0.368 C  
HETATM   43  C   UNL     1     -12.280  10.543  70.898  1.00  0.00    -0.490 C  
HETATM   44  C   UNL     1     -11.762   8.051  72.217  1.00  0.00    -0.371 C  
ENDBRANCH  37  39
ENDBRANCH  12  37
ENDBRANCH   5   8
TORSDOF 7
ENDMDL
MODEL       29
REMARK 921   NORMALIZED FREE ENERGY PREDICTED BY IDOCK:   -7.01 KCAL/MOL
REMARK 922        TOTAL FREE ENERGY PREDICTED BY IDOCK:  -12.41 KCAL/MOL
REMARK 923 INTER-LIGAND FREE ENERGY PREDICTED BY IDOCK:   -9.86 KCAL/MOL
REMARK 924 INTRA-LIGAND FREE ENERGY PREDICTED BY IDOCK:   -2.55 KCAL/MOL
REMARK 927      BINDING AFFINITY PREDICTED BY RF-SCORE:    0.00 PKD
ROOT
HETATM    1  C   UNL     1     -11.811  15.621  64.157  1.00  0.00    -0.068 C  
HETATM    2  N   UNL     1     -12.615  14.406  64.260  1.00  0.00    -0.669 NA 
HETATM    3  C   UNL     1     -12.082  13.337  63.385  1.00  0.00    -0.439 C  
HETATM    4  C   UNL     1     -10.765  12.703  63.880  1.00  0.00    -0.431 C  
HETATM    5  N   UNL     1     -10.963  12.177  65.246  1.00  0.00    -0.296 NA 
HETATM    6  C   UNL     1     -11.389  13.217  66.194  1.00  0.00    -0.312 C  
HETATM    7  C   UNL     1     -12.672  13.907  65.658  1.00  0.00    -0.495 C  
ENDROOT
BRANCH   5   8
HETATM    8  C   UNL     1     -10.409  10.969  65.625  1.00  0.00    -0.251 A  
HETATM    9  C   UNL     1      -9.379  10.334  64.937  1.00  0.00    -0.306 A  
HETATM   10  C   UNL     1      -8.907   9.079  65.342  1.00  0.00    -0.237 A  
HETATM   11  C   UNL     1      -9.462   8.416  66.452  1.00  0.00    -0.293 A  
HETATM   12  C   UNL     1     -10.435   9.060  67.236  1.00  0.00    -0.273 A  
HETATM   13  C   UNL     1     -10.857  10.324  66.793  1.00  0.00    -0.157 A  
BRANCH  11  14
HETATM   14  C   UNL     1      -8.980   7.023  66.703  1.00  0.00    -0.142 C  
HETATM   15  H   UNL     1     -10.937   6.368  66.750  1.00  0.00     0.000 HD 
HETATM   16  O   UNL     1      -7.765   6.836  66.728  1.00  0.00    -0.101 OA 
HETATM   17  N   UNL     1      -9.967   6.067  66.849  1.00  0.00    -0.156 N  
BRANCH  17  18
HETATM   18  C   UNL     1      -9.735   4.730  67.119  1.00  0.00    -0.184 A  
HETATM   19  C   UNL     1      -9.092   4.213  68.293  1.00  0.00    -0.176 A  
HETATM   20  C   UNL     1      -8.541   4.721  69.482  1.00  0.00    -0.103 A  
HETATM   21  N   UNL     1     -10.072   3.739  66.292  1.00  0.00    -0.396 NA 
HETATM   22  N   UNL     1      -9.641   2.628  66.889  1.00  0.00     0.074 NA 
HETATM   23  H   UNL     1     -10.555   3.816  65.397  1.00  0.00     0.000 HD 
HETATM   24  C   UNL     1      -7.884   3.866  70.392  1.00  0.00    -0.051 A  
HETATM   25  C   UNL     1      -7.798   2.497  70.109  1.00  0.00    -0.049 A  
HETATM   26  C   UNL     1      -8.999   2.842  68.076  1.00  0.00    -0.156 A  
HETATM   27  C   UNL     1      -8.364   1.956  68.949  1.00  0.00    -0.075 A  
BRANCH  24  28
HETATM   28  C   UNL     1      -7.326   4.414  71.689  1.00  0.00    -0.064 C  
BRANCH  28  29
HETATM   29  C   UNL     1      -8.298   5.170  72.575  1.00  0.00    -0.117 A  
HETATM   30  C   UNL     1      -8.056   6.464  73.062  1.00  0.00    -0.106 A  
HETATM   31  C   UNL     1      -9.024   7.132  73.811  1.00  0.00    -0.190 A  
HETATM   32  F   UNL     1      -8.774   8.374  74.245  1.00  0.00    -0.282 F  
HETATM   33  C   UNL     1     -10.242   6.540  74.104  1.00  0.00    -0.380 A  
HETATM   34  C   UNL     1     -10.476   5.253  73.649  1.00  0.00    -0.255 A  
HETATM   35  C   UNL     1      -9.525   4.567  72.895  1.00  0.00    -0.153 A  
HETATM   36  F   UNL     1     -11.643   4.657  73.928  1.00  0.00    -0.281 F  
ENDBRANCH  28  29
ENDBRANCH  24  28
ENDBRANCH  17  18
ENDBRANCH  11  14
BRANCH  12  37
HETATM   37  N   UNL     1     -11.023   8.451  68.352  1.00  0.00    -0.428 NA 
HETATM   38  H   UNL     1     -11.985   8.119  68.275  1.00  0.00     0.000 HD 
BRANCH  37  39
HETATM   39  C   UNL     1     -10.314   8.270  69.630  1.00  0.00    -0.218 C  
HETATM   40  C   UNL     1     -10.861   7.152  70.523  1.00  0.00    -0.269 C  
HETATM   41  O   UNL     1     -12.042   8.782  71.892  1.00  0.00    -0.315 OA 
HETATM   42  C   UNL     1     -11.709   9.848  71.005  1.00  0.00    -0.382 C  
HETATM   43  C   UNL     1     -10.341   9.593  70.392  1.00  0.00    -0.350 C  
HETATM   44  C   UNL     1     -12.162   7.536  71.210  1.00  0.00    -0.329 C  
ENDBRANCH  37  39
ENDBRANCH  12  37
ENDBRANCH   5   8
TORSDOF 7
ENDMDL
MODEL       30
REMARK 921   NORMALIZED FREE ENERGY PREDICTED BY IDOCK:   -7.01 KCAL/MOL
REMARK 922        TOTAL FREE ENERGY PREDICTED BY IDOCK:  -12.39 KCAL/MOL
REMARK 923 INTER-LIGAND FREE ENERGY PREDICTED BY IDOCK:  -11.08 KCAL/MOL
REMARK 924 INTRA-LIGAND FREE ENERGY PREDICTED BY IDOCK:   -1.31 KCAL/MOL
REMARK 927      BINDING AFFINITY PREDICTED BY RF-SCORE:    0.00 PKD
ROOT
HETATM    1  C   UNL     1      -8.113   2.582  69.847  1.00  0.00    -0.041 C  
HETATM    2  N   UNL     1      -7.869   2.775  68.419  1.00  0.00    -0.054 NA 
HETATM    3  C   UNL     1      -9.125   3.091  67.702  1.00  0.00    -0.181 C  
HETATM    4  C   UNL     1      -9.675   4.508  67.967  1.00  0.00    -0.134 C  
HETATM    5  N   UNL     1      -8.638   5.503  67.620  1.00  0.00    -0.109 NA 
HETATM    6  C   UNL     1      -7.396   5.312  68.383  1.00  0.00    -0.071 C  
HETATM    7  C   UNL     1      -6.885   3.861  68.177  1.00  0.00    -0.047 C  
ENDROOT
BRANCH   5   8
HETATM    8  C   UNL     1      -8.976   6.679  66.979  1.00  0.00    -0.118 A  
HETATM    9  C   UNL     1      -8.457   7.075  65.749  1.00  0.00    -0.154 A  
HETATM   10  C   UNL     1      -8.796   8.312  65.187  1.00  0.00    -0.024 A  
HETATM   11  C   UNL     1      -9.665   9.198  65.848  1.00  0.00    -0.336 A  
HETATM   12  C   UNL     1     -10.290   8.803  67.044  1.00  0.00    -0.283 A  
HETATM   13  C   UNL     1      -9.927   7.545  67.551  1.00  0.00    -0.228 A  
BRANCH  11  14
HETATM   14  C   UNL     1      -9.839  10.546  65.225  1.00  0.00    -0.284 C  
HETATM   15  H   UNL     1     -11.872  10.429  65.568  1.00  0.00     0.000 HD 
HETATM   16  O   UNL     1      -8.828  11.136  64.850  1.00  0.00    -0.114 OA 
HETATM   17  N   UNL     1     -11.139  11.014  65.166  1.00  0.00    -0.031 N  
BRANCH  17  18
HETATM   18  C   UNL     1     -11.518  12.218  64.600  1.00  0.00    -0.336 A  
HETATM   19  C   UNL     1     -11.083  13.517  65.028  1.00  0.00    -0.338 A  
HETATM   20  C   UNL     1     -10.223  14.054  66.002  1.00  0.00    -0.313 A  
HETATM   21  N   UNL     1     -12.367  12.319  63.577  1.00  0.00    -0.622 NA 
HETATM   22  N   UNL     1     -12.503  13.629  63.367  1.00  0.00    -0.800 NA 
HETATM   23  H   UNL     1     -12.817  11.559  63.066  1.00  0.00     0.000 HD 
HETATM   24  C   UNL     1     -10.127  15.450  66.183  1.00  0.00    -0.325 A  
HETATM   25  C   UNL     1     -10.886  16.302  65.372  1.00  0.00    -0.284 A  
HETATM   26  C   UNL     1     -11.794  14.412  64.234  1.00  0.00    -0.364 A  
HETATM   27  C   UNL     1     -11.728  15.800  64.374  1.00  0.00    -0.201 A  
BRANCH  24  28
HETATM   28  C   UNL     1      -9.170  16.023  67.208  1.00  0.00    -0.215 C  
BRANCH  28  29
HETATM   29  C   UNL     1      -9.069  17.535  67.266  1.00  0.00    -0.240 A  
HETATM   30  C   UNL     1      -8.274  18.291  66.391  1.00  0.00    -0.276 A  
HETATM   31  C   UNL     1      -8.284  19.684  66.450  1.00  0.00    -0.337 A  
HETATM   32  F   UNL     1      -7.532  20.381  65.589  1.00  0.00    -0.292 F  
HETATM   33  C   UNL     1      -9.065  20.361  67.374  1.00  0.00    -0.484 A  
HETATM   34  C   UNL     1      -9.831  19.618  68.258  1.00  0.00    -0.419 A  
HETATM   35  C   UNL     1      -9.840  18.225  68.215  1.00  0.00    -0.366 A  
HETATM   36  F   UNL     1     -10.587  20.250  69.166  1.00  0.00    -0.484 F  
ENDBRANCH  28  29
ENDBRANCH  24  28
ENDBRANCH  17  18
ENDBRANCH  11  14
BRANCH  12  37
HETATM   37  N   UNL     1     -11.165   9.641  67.746  1.00  0.00    -0.471 NA 
HETATM   38  H   UNL     1     -12.169   9.522  67.611  1.00  0.00     0.000 HD 
BRANCH  37  39
HETATM   39  C   UNL     1     -10.698  10.688  68.672  1.00  0.00    -0.207 C  
HETATM   40  C   UNL     1      -9.886  10.183  69.868  1.00  0.00    -0.223 C  
HETATM   41  O   UNL     1     -11.838  10.366  71.311  1.00  0.00    -0.350 OA 
HETATM   42  C   UNL     1     -12.690  10.675  70.209  1.00  0.00    -0.209 C  
HETATM   43  C   UNL     1     -11.912  11.470  69.172  1.00  0.00    -0.386 C  
HETATM   44  C   UNL     1     -10.754   9.522  70.928  1.00  0.00    -0.333 C  
ENDBRANCH  37  39
ENDBRANCH  12  37
ENDBRANCH   5   8
TORSDOF 7
ENDMDL
MODEL       31
REMARK 921   NORMALIZED FREE ENERGY PREDICTED BY IDOCK:   -6.99 KCAL/MOL
REMARK 922        TOTAL FREE ENERGY PREDICTED BY IDOCK:  -12.38 KCAL/MOL
REMARK 923 INTER-LIGAND FREE ENERGY PREDICTED BY IDOCK:  -10.65 KCAL/MOL
REMARK 924 INTRA-LIGAND FREE ENERGY PREDICTED BY IDOCK:   -1.73 KCAL/MOL
REMARK 927      BINDING AFFINITY PREDICTED BY RF-SCORE:    0.00 PKD
ROOT
HETATM    1  C   UNL     1      -8.969   2.230  69.679  1.00  0.00    -0.098 C  
HETATM    2  N   UNL     1      -8.104   3.404  69.763  1.00  0.00    -0.049 NA 
HETATM    3  C   UNL     1      -7.609   3.798  68.424  1.00  0.00    -0.061 C  
HETATM    4  C   UNL     1      -8.673   4.445  67.513  1.00  0.00    -0.105 C  
HETATM    5  N   UNL     1      -9.248   5.621  68.199  1.00  0.00    -0.110 NA 
HETATM    6  C   UNL     1      -9.858   5.277  69.491  1.00  0.00    -0.200 C  
HETATM    7  C   UNL     1      -8.808   4.557  70.380  1.00  0.00    -0.087 C  
ENDROOT
BRANCH   5   8
HETATM    8  C   UNL     1      -9.527   6.779  67.499  1.00  0.00    -0.127 A  
HETATM    9  C   UNL     1      -9.143   7.006  66.180  1.00  0.00    -0.149 A  
HETATM   10  C   UNL     1      -9.404   8.230  65.552  1.00  0.00     0.086 A  
HETATM   11  C   UNL     1     -10.057   9.273  66.234  1.00  0.00    -0.322 A  
HETATM   12  C   UNL     1     -10.550   9.058  67.533  1.00  0.00    -0.237 A  
HETATM   13  C   UNL     1     -10.275   7.806  68.106  1.00  0.00    -0.244 A  
BRANCH  11  14
HETATM   14  C   UNL     1     -10.152  10.580  65.515  1.00  0.00    -0.283 C  
HETATM   15  H   UNL     1     -12.194  10.586  65.821  1.00  0.00     0.000 HD 
HETATM   16  O   UNL     1      -9.106  11.092  65.121  1.00  0.00    -0.205 OA 
HETATM   17  N   UNL     1     -11.425  11.104  65.394  1.00  0.00     0.186 N  
BRANCH  17  18
HETATM   18  C   UNL     1     -11.733  12.283  64.737  1.00  0.00    -0.358 A  
HETATM   19  C   UNL     1     -11.222  13.582  65.065  1.00  0.00    -0.334 A  
HETATM   20  C   UNL     1     -10.329  14.140  65.998  1.00  0.00    -0.316 A  
HETATM   21  N   UNL     1     -12.577  12.356  63.707  1.00  0.00    -0.715 NA 
HETATM   22  N   UNL     1     -12.635  13.651  63.398  1.00  0.00    -0.781 NA 
HETATM   23  H   UNL     1     -13.072  11.587  63.255  1.00  0.00     0.000 HD 
HETATM   24  C   UNL     1     -10.150  15.538  66.073  1.00  0.00    -0.354 A  
HETATM   25  C   UNL     1     -10.859  16.369  65.197  1.00  0.00    -0.289 A  
HETATM   26  C   UNL     1     -11.880  14.455  64.204  1.00  0.00    -0.291 A  
HETATM   27  C   UNL     1     -11.730  15.843  64.238  1.00  0.00    -0.132 A  
BRANCH  24  28
HETATM   28  C   UNL     1      -9.158  16.129  67.053  1.00  0.00    -0.228 C  
BRANCH  28  29
HETATM   29  C   UNL     1      -9.122  17.642  67.145  1.00  0.00    -0.247 A  
HETATM   30  C   UNL     1      -9.918  18.384  68.031  1.00  0.00    -0.374 A  
HETATM   31  C   UNL     1      -9.781  19.769  68.117  1.00  0.00    -0.398 A  
HETATM   32  F   UNL     1     -10.540  20.449  68.986  1.00  0.00    -0.493 F  
HETATM   33  C   UNL     1      -8.869  20.453  67.329  1.00  0.00    -0.444 A  
HETATM   34  C   UNL     1      -8.099  19.729  66.433  1.00  0.00    -0.329 A  
HETATM   35  C   UNL     1      -8.216  18.343  66.332  1.00  0.00    -0.280 A  
HETATM   36  F   UNL     1      -7.217  20.370  65.655  1.00  0.00    -0.292 F  
ENDBRANCH  28  29
ENDBRANCH  24  28
ENDBRANCH  17  18
ENDBRANCH  11  14
BRANCH  12  37
HETATM   37  N   UNL     1     -11.208  10.057  68.261  1.00  0.00    -0.502 NA 
HETATM   38  H   UNL     1     -12.149  10.329  67.975  1.00  0.00     0.000 HD 
BRANCH  37  39
HETATM   39  C   UNL     1     -10.602  10.733  69.421  1.00  0.00    -0.221 C  
HETATM   40  C   UNL     1     -11.323  10.510  70.753  1.00  0.00    -0.295 C  
HETATM   41  O   UNL     1     -12.391  12.691  70.574  1.00  0.00    -0.337 OA 
HETATM   42  C   UNL     1     -11.888  12.888  69.254  1.00  0.00    -0.309 C  
HETATM   43  C   UNL     1     -10.523  12.229  69.126  1.00  0.00     0.043 C  
HETATM   44  C   UNL     1     -12.612  11.312  70.861  1.00  0.00    -0.371 C  
ENDBRANCH  37  39
ENDBRANCH  12  37
ENDBRANCH   5   8
TORSDOF 7
ENDMDL
MODEL       32
REMARK 921   NORMALIZED FREE ENERGY PREDICTED BY IDOCK:   -6.98 KCAL/MOL
REMARK 922        TOTAL FREE ENERGY PREDICTED BY IDOCK:  -12.36 KCAL/MOL
REMARK 923 INTER-LIGAND FREE ENERGY PREDICTED BY IDOCK:  -10.16 KCAL/MOL
REMARK 924 INTRA-LIGAND FREE ENERGY PREDICTED BY IDOCK:   -2.20 KCAL/MOL
REMARK 927      BINDING AFFINITY PREDICTED BY RF-SCORE:    0.00 PKD
ROOT
HETATM    1  C   UNL     1      -7.330   5.113  62.362  1.00  0.00    -0.038 C  
HETATM    2  N   UNL     1      -6.591   5.516  63.556  1.00  0.00    -0.029 NA 
HETATM    3  C   UNL     1      -6.676   6.979  63.766  1.00  0.00    -0.044 C  
HETATM    4  C   UNL     1      -8.055   7.478  64.251  1.00  0.00    -0.064 C  
HETATM    5  N   UNL     1      -8.413   6.772  65.499  1.00  0.00    -0.141 NA 
HETATM    6  C   UNL     1      -8.455   5.312  65.329  1.00  0.00    -0.147 C  
HETATM    7  C   UNL     1      -7.093   4.821  64.768  1.00  0.00    -0.062 C  
ENDROOT
BRANCH   5   8
HETATM    8  C   UNL     1      -9.026   7.444  66.539  1.00  0.00    -0.159 A  
HETATM    9  C   UNL     1      -9.864   8.543  66.371  1.00  0.00    -0.327 A  
HETATM   10  C   UNL     1     -10.402   9.216  67.475  1.00  0.00    -0.324 A  
HETATM   11  C   UNL     1     -10.109   8.809  68.789  1.00  0.00    -0.213 A  
HETATM   12  C   UNL     1      -9.347   7.648  69.008  1.00  0.00    -0.146 A  
HETATM   13  C   UNL     1      -8.849   7.004  67.864  1.00  0.00    -0.124 A  
BRANCH  11  14
HETATM   14  C   UNL     1     -10.619   9.687  69.886  1.00  0.00    -0.249 C  
HETATM   15  H   UNL     1     -11.986  10.509  68.575  1.00  0.00     0.000 HD 
HETATM   16  O   UNL     1     -10.121   9.554  71.002  1.00  0.00    -0.286 OA 
HETATM   17  N   UNL     1     -11.640  10.550  69.534  1.00  0.00    -0.264 N  
BRANCH  17  18
HETATM   18  C   UNL     1     -12.227  11.466  70.390  1.00  0.00    -0.362 A  
HETATM   19  C   UNL     1     -12.216  12.891  70.225  1.00  0.00    -0.362 A  
HETATM   20  C   UNL     1     -11.728  13.824  69.292  1.00  0.00    -0.376 A  
HETATM   21  N   UNL     1     -12.873  11.127  71.506  1.00  0.00    -0.440 NA 
HETATM   22  N   UNL     1     -13.241  12.283  72.059  1.00  0.00    -0.474 NA 
HETATM   23  H   UNL     1     -13.048  10.186  71.860  1.00  0.00     0.000 HD 
HETATM   24  C   UNL     1     -11.835  15.209  69.538  1.00  0.00    -0.358 A  
HETATM   25  C   UNL     1     -12.449  15.652  70.716  1.00  0.00    -0.484 A  
HETATM   26  C   UNL     1     -12.837  13.389  71.366  1.00  0.00    -0.333 A  
HETATM   27  C   UNL     1     -12.972  14.750  71.649  1.00  0.00    -0.411 A  
BRANCH  24  28
HETATM   28  C   UNL     1     -11.342  16.207  68.511  1.00  0.00    -0.359 C  
BRANCH  28  29
HETATM   29  C   UNL     1      -9.909  16.680  68.664  1.00  0.00    -0.252 A  
HETATM   30  C   UNL     1      -8.853  15.838  69.048  1.00  0.00    -0.236 A  
HETATM   31  C   UNL     1      -7.546  16.320  69.098  1.00  0.00    -0.227 A  
HETATM   32  F   UNL     1      -6.555  15.489  69.448  1.00  0.00    -0.120 F  
HETATM   33  C   UNL     1      -7.250  17.637  68.783  1.00  0.00    -0.268 A  
HETATM   34  C   UNL     1      -8.292  18.479  68.429  1.00  0.00    -0.332 A  
HETATM   35  C   UNL     1      -9.607  18.019  68.368  1.00  0.00    -0.338 A  
HETATM   36  F   UNL     1      -8.032  19.759  68.129  1.00  0.00    -0.328 F  
ENDBRANCH  28  29
ENDBRANCH  24  28
ENDBRANCH  17  18
ENDBRANCH  11  14
BRANCH  12  37
HETATM   37  N   UNL     1      -9.023   7.194  70.292  1.00  0.00    -0.151 NA 
HETATM   38  H   UNL     1      -8.426   7.777  70.879  1.00  0.00     0.000 HD 
BRANCH  37  39
HETATM   39  C   UNL     1      -9.507   5.912  70.834  1.00  0.00    -0.165 C  
HETATM   40  C   UNL     1     -11.026   5.724  70.798  1.00  0.00    -0.312 C  
HETATM   41  O   UNL     1     -11.183   6.299  73.159  1.00  0.00    -0.211 OA 
HETATM   42  C   UNL     1      -9.803   6.655  73.218  1.00  0.00    -0.179 C  
HETATM   43  C   UNL     1      -9.008   5.772  72.270  1.00  0.00    -0.139 C  
HETATM   44  C   UNL     1     -11.741   6.535  71.868  1.00  0.00    -0.324 C  
ENDBRANCH  37  39
ENDBRANCH  12  37
ENDBRANCH   5   8
TORSDOF 7
ENDMDL
MODEL       33
REMARK 921   NORMALIZED FREE ENERGY PREDICTED BY IDOCK:   -6.89 KCAL/MOL
REMARK 922        TOTAL FREE ENERGY PREDICTED BY IDOCK:  -12.23 KCAL/MOL
REMARK 923 INTER-LIGAND FREE ENERGY PREDICTED BY IDOCK:  -10.96 KCAL/MOL
REMARK 924 INTRA-LIGAND FREE ENERGY PREDICTED BY IDOCK:   -1.27 KCAL/MOL
REMARK 927      BINDING AFFINITY PREDICTED BY RF-SCORE:    0.00 PKD
ROOT
HETATM    1  C   UNL     1      -8.020   1.984  65.159  1.00  0.00    -0.078 C  
HETATM    2  N   UNL     1      -9.276   2.390  65.786  1.00  0.00    -0.085 NA 
HETATM    3  C   UNL     1      -9.074   2.732  67.212  1.00  0.00    -0.174 C  
HETATM    4  C   UNL     1      -8.333   4.065  67.452  1.00  0.00    -0.098 C  
HETATM    5  N   UNL     1      -9.067   5.155  66.776  1.00  0.00    -0.116 NA 
HETATM    6  C   UNL     1      -9.206   4.929  65.330  1.00  0.00    -0.139 C  
HETATM    7  C   UNL     1      -9.881   3.553  65.087  1.00  0.00    -0.086 C  
ENDROOT
BRANCH   5   8
HETATM    8  C   UNL     1      -9.210   6.390  67.380  1.00  0.00    -0.117 A  
HETATM    9  C   UNL     1      -9.056   6.613  68.745  1.00  0.00    -0.131 A  
HETATM   10  C   UNL     1      -9.279   7.880  69.299  1.00  0.00    -0.148 A  
HETATM   11  C   UNL     1      -9.671   8.966  68.496  1.00  0.00    -0.172 A  
HETATM   12  C   UNL     1      -9.744   8.814  67.100  1.00  0.00    -0.191 A  
HETATM   13  C   UNL     1      -9.493   7.527  66.599  1.00  0.00    -0.246 A  
BRANCH  11  14
HETATM   14  C   UNL     1     -10.020  10.231  69.213  1.00  0.00    -0.227 C  
HETATM   15  H   UNL     1     -12.018   9.724  69.109  1.00  0.00     0.000 HD 
HETATM   16  O   UNL     1      -9.094  10.954  69.579  1.00  0.00     0.019 OA 
HETATM   17  N   UNL     1     -11.368  10.444  69.427  1.00  0.00    -0.250 N  
BRANCH  17  18
HETATM   18  C   UNL     1     -11.902  11.564  70.040  1.00  0.00    -0.355 A  
HETATM   19  C   UNL     1     -11.763  12.916  69.580  1.00  0.00    -0.367 A  
HETATM   20  C   UNL     1     -11.167  13.587  68.497  1.00  0.00    -0.310 A  
HETATM   21  N   UNL     1     -12.609  11.522  71.170  1.00  0.00    -0.390 NA 
HETATM   22  N   UNL     1     -12.894  12.794  71.448  1.00  0.00    -0.339 NA 
HETATM   23  H   UNL     1     -12.875  10.695  71.705  1.00  0.00     0.000 HD 
HETATM   24  C   UNL     1     -11.163  14.997  68.440  1.00  0.00    -0.303 A  
HETATM   25  C   UNL     1     -11.774  15.727  69.468  1.00  0.00    -0.369 A  
HETATM   26  C   UNL     1     -12.375  13.693  70.559  1.00  0.00    -0.355 A  
HETATM   27  C   UNL     1     -12.401  15.089  70.542  1.00  0.00    -0.411 A  
BRANCH  24  28
HETATM   28  C   UNL     1     -10.554  15.712  67.252  1.00  0.00    -0.305 C  
BRANCH  28  29
HETATM   29  C   UNL     1     -10.466  17.223  67.347  1.00  0.00    -0.338 A  
HETATM   30  C   UNL     1     -10.162  17.908  68.533  1.00  0.00    -0.393 A  
HETATM   31  C   UNL     1     -10.025  19.295  68.535  1.00  0.00    -0.433 A  
HETATM   32  F   UNL     1      -9.714  19.921  69.677  1.00  0.00    -0.380 F  
HETATM   33  C   UNL     1     -10.191  20.037  67.376  1.00  0.00    -0.546 A  
HETATM   34  C   UNL     1     -10.518  19.369  66.207  1.00  0.00    -0.493 A  
HETATM   35  C   UNL     1     -10.657  17.982  66.181  1.00  0.00    -0.269 A  
HETATM   36  F   UNL     1     -10.693  20.066  65.076  1.00  0.00    -0.431 F  
ENDBRANCH  28  29
ENDBRANCH  24  28
ENDBRANCH  17  18
ENDBRANCH  11  14
BRANCH  12  37
HETATM   37  N   UNL     1     -10.128   9.859  66.250  1.00  0.00    -0.246 NA 
HETATM   38  H   UNL     1     -11.084   9.872  65.895  1.00  0.00     0.000 HD 
BRANCH  37  39
HETATM   39  C   UNL     1      -9.212  10.940  65.848  1.00  0.00    -0.191 C  
HETATM   40  C   UNL     1      -9.848  12.330  65.757  1.00  0.00    -0.260 C  
HETATM   41  O   UNL     1     -10.006  12.134  63.336  1.00  0.00    -0.407 OA 
HETATM   42  C   UNL     1      -9.580  10.773  63.365  1.00  0.00    -0.338 C  
HETATM   43  C   UNL     1      -8.590  10.574  64.502  1.00  0.00    -0.165 C  
HETATM   44  C   UNL     1     -10.715  12.497  64.519  1.00  0.00    -0.330 C  
ENDBRANCH  37  39
ENDBRANCH  12  37
ENDBRANCH   5   8
TORSDOF 7
ENDMDL
MODEL       34
REMARK 921   NORMALIZED FREE ENERGY PREDICTED BY IDOCK:   -6.86 KCAL/MOL
REMARK 922        TOTAL FREE ENERGY PREDICTED BY IDOCK:  -12.20 KCAL/MOL
REMARK 923 INTER-LIGAND FREE ENERGY PREDICTED BY IDOCK:   -9.01 KCAL/MOL
REMARK 924 INTRA-LIGAND FREE ENERGY PREDICTED BY IDOCK:   -3.19 KCAL/MOL
REMARK 927      BINDING AFFINITY PREDICTED BY RF-SCORE:    0.00 PKD
ROOT
HETATM    1  C   UNL     1     -11.200  15.642  64.610  1.00  0.00    -0.369 C  
HETATM    2  N   UNL     1     -11.790  14.310  64.502  1.00  0.00    -0.431 NA 
HETATM    3  C   UNL     1     -10.744  13.262  64.523  1.00  0.00    -0.411 C  
HETATM    4  C   UNL     1     -10.088  13.038  65.902  1.00  0.00    -0.288 C  
HETATM    5  N   UNL     1     -11.138  12.716  66.891  1.00  0.00    -0.262 NA 
HETATM    6  C   UNL     1     -12.153  13.774  67.000  1.00  0.00    -0.397 C  
HETATM    7  C   UNL     1     -12.758  14.053  65.598  1.00  0.00    -0.481 C  
ENDROOT
BRANCH   5   8
HETATM    8  C   UNL     1     -10.926  11.749  67.855  1.00  0.00    -0.221 A  
HETATM    9  C   UNL     1     -11.810  11.478  68.896  1.00  0.00    -0.406 A  
HETATM   10  C   UNL     1     -11.502  10.526  69.875  1.00  0.00    -0.384 A  
HETATM   11  C   UNL     1     -10.287   9.817  69.843  1.00  0.00    -0.291 A  
HETATM   12  C   UNL     1      -9.408   9.985  68.760  1.00  0.00    -0.162 A  
HETATM   13  C   UNL     1      -9.776  10.939  67.799  1.00  0.00    -0.183 A  
BRANCH  11  14
HETATM   14  C   UNL     1     -10.003   8.934  71.016  1.00  0.00    -0.256 C  
HETATM   15  H   UNL     1     -11.401   7.583  70.323  1.00  0.00     0.000 HD 
HETATM   16  O   UNL     1      -9.126   9.293  71.801  1.00  0.00    -0.303 OA 
HETATM   17  N   UNL     1     -10.744   7.769  71.081  1.00  0.00    -0.225 N  
BRANCH  17  18
HETATM   18  C   UNL     1     -10.658   6.836  72.100  1.00  0.00    -0.211 A  
HETATM   19  C   UNL     1     -10.300   5.456  71.942  1.00  0.00    -0.270 A  
HETATM   20  C   UNL     1      -9.918   4.596  70.896  1.00  0.00    -0.273 A  
HETATM   21  N   UNL     1     -10.922   7.110  73.377  1.00  0.00    -0.555 NA 
HETATM   22  N   UNL     1     -10.771   5.951  74.019  1.00  0.00    -0.179 NA 
HETATM   23  H   UNL     1     -11.184   8.012  73.777  1.00  0.00     0.000 HD 
HETATM   24  C   UNL     1      -9.732   3.217  71.131  1.00  0.00    -0.212 A  
HETATM   25  C   UNL     1      -9.915   2.711  72.424  1.00  0.00    -0.235 A  
HETATM   26  C   UNL     1     -10.442   4.901  73.209  1.00  0.00    -0.207 A  
HETATM   27  C   UNL     1     -10.263   3.545  73.491  1.00  0.00    -0.217 A  
BRANCH  24  28
HETATM   28  C   UNL     1      -9.284   2.305  70.008  1.00  0.00    -0.186 C  
BRANCH  28  29
HETATM   29  C   UNL     1      -8.811   2.982  68.737  1.00  0.00    -0.168 A  
HETATM   30  C   UNL     1      -7.457   3.157  68.411  1.00  0.00    -0.049 A  
HETATM   31  C   UNL     1      -7.090   3.723  67.190  1.00  0.00    -0.063 A  
HETATM   32  F   UNL     1      -5.791   3.859  66.897  1.00  0.00    -0.020 F  
HETATM   33  C   UNL     1      -8.043   4.135  66.271  1.00  0.00    -0.098 A  
HETATM   34  C   UNL     1      -9.381   3.989  66.599  1.00  0.00    -0.184 A  
HETATM   35  C   UNL     1      -9.772   3.423  67.812  1.00  0.00    -0.048 A  
HETATM   36  F   UNL     1     -10.319   4.388  65.731  1.00  0.00    -0.226 F  
ENDBRANCH  28  29
ENDBRANCH  24  28
ENDBRANCH  17  18
ENDBRANCH  11  14
BRANCH  12  37
HETATM   37  N   UNL     1      -8.185   9.306  68.674  1.00  0.00    -0.112 NA 
HETATM   38  H   UNL     1      -7.366   9.720  69.121  1.00  0.00     0.000 HD 
BRANCH  37  39
HETATM   39  C   UNL     1      -8.031   8.023  67.968  1.00  0.00    -0.128 C  
HETATM   40  C   UNL     1      -8.078   6.780  68.861  1.00  0.00    -0.120 C  
HETATM   41  O   UNL     1      -5.650   6.616  68.816  1.00  0.00    -0.015 OA 
HETATM   42  C   UNL     1      -5.526   7.861  68.129  1.00  0.00    -0.033 C  
HETATM   43  C   UNL     1      -6.712   8.049  67.197  1.00  0.00    -0.065 C  
HETATM   44  C   UNL     1      -6.799   6.584  69.659  1.00  0.00    -0.065 C  
ENDBRANCH  37  39
ENDBRANCH  12  37
ENDBRANCH   5   8
TORSDOF 7
ENDMDL
MODEL       35
REMARK 921   NORMALIZED FREE ENERGY PREDICTED BY IDOCK:   -6.81 KCAL/MOL
REMARK 922        TOTAL FREE ENERGY PREDICTED BY IDOCK:  -12.12 KCAL/MOL
REMARK 923 INTER-LIGAND FREE ENERGY PREDICTED BY IDOCK:  -10.79 KCAL/MOL
REMARK 924 INTRA-LIGAND FREE ENERGY PREDICTED BY IDOCK:   -1.33 KCAL/MOL
REMARK 927      BINDING AFFINITY PREDICTED BY RF-SCORE:    0.00 PKD
ROOT
HETATM    1  C   UNL     1      -6.068   2.852  65.288  1.00  0.00    -0.019 C  
HETATM    2  N   UNL     1      -5.594   4.229  65.394  1.00  0.00    -0.013 NA 
HETATM    3  C   UNL     1      -6.318   5.116  64.455  1.00  0.00    -0.034 C  
HETATM    4  C   UNL     1      -7.779   5.416  64.855  1.00  0.00    -0.088 C  
HETATM    5  N   UNL     1      -7.800   6.001  66.211  1.00  0.00    -0.102 NA 
HETATM    6  C   UNL     1      -7.192   5.117  67.216  1.00  0.00    -0.081 C  
HETATM    7  C   UNL     1      -5.748   4.754  66.775  1.00  0.00    -0.021 C  
ENDROOT
BRANCH   5   8
HETATM    8  C   UNL     1      -8.656   7.042  66.518  1.00  0.00    -0.129 A  
HETATM    9  C   UNL     1      -8.693   8.250  65.828  1.00  0.00    -0.196 A  
HETATM   10  C   UNL     1      -9.544   9.286  66.233  1.00  0.00    -0.313 A  
HETATM   11  C   UNL     1     -10.382   9.143  67.354  1.00  0.00    -0.330 A  
HETATM   12  C   UNL     1     -10.451   7.909  68.023  1.00  0.00    -0.185 A  
HETATM   13  C   UNL     1      -9.589   6.901  67.562  1.00  0.00    -0.150 A  
BRANCH  11  14
HETATM   14  C   UNL     1     -11.136  10.362  67.778  1.00  0.00    -0.299 C  
HETATM   15  H   UNL     1     -10.397  10.139  69.692  1.00  0.00     0.000 HD 
HETATM   16  O   UNL     1     -11.776  10.966  66.918  1.00  0.00    -0.255 OA 
HETATM   17  N   UNL     1     -11.008  10.712  69.109  1.00  0.00    -0.229 N  
BRANCH  17  18
HETATM   18  C   UNL     1     -11.648  11.782  69.709  1.00  0.00    -0.299 A  
HETATM   19  C   UNL     1     -11.595  13.145  69.264  1.00  0.00    -0.370 A  
HETATM   20  C   UNL     1     -11.011  13.869  68.209  1.00  0.00    -0.274 A  
HETATM   21  N   UNL     1     -12.394  11.676  70.809  1.00  0.00    -0.385 NA 
HETATM   22  N   UNL     1     -12.784  12.920  71.085  1.00  0.00    -0.335 NA 
HETATM   23  H   UNL     1     -12.616  10.825  71.328  1.00  0.00     0.000 HD 
HETATM   24  C   UNL     1     -11.112  15.276  68.162  1.00  0.00    -0.309 A  
HETATM   25  C   UNL     1     -11.816  15.948  69.169  1.00  0.00    -0.340 A  
HETATM   26  C   UNL     1     -12.302  13.863  70.222  1.00  0.00    -0.345 A  
HETATM   27  C   UNL     1     -12.434  15.253  70.214  1.00  0.00    -0.405 A  
BRANCH  24  28
HETATM   28  C   UNL     1     -10.514  16.046  67.003  1.00  0.00    -0.307 C  
BRANCH  28  29
HETATM   29  C   UNL     1      -9.795  17.335  67.350  1.00  0.00    -0.272 A  
HETATM   30  C   UNL     1     -10.290  18.609  67.029  1.00  0.00    -0.445 A  
HETATM   31  C   UNL     1      -9.615  19.756  67.443  1.00  0.00    -0.355 A  
HETATM   32  F   UNL     1     -10.121  20.959  67.141  1.00  0.00    -0.581 F  
HETATM   33  C   UNL     1      -8.438  19.677  68.171  1.00  0.00    -0.357 A  
HETATM   34  C   UNL     1      -7.930  18.422  68.468  1.00  0.00    -0.314 A  
HETATM   35  C   UNL     1      -8.590  17.261  68.068  1.00  0.00    -0.234 A  
HETATM   36  F   UNL     1      -6.789  18.321  69.163  1.00  0.00    -0.250 F  
ENDBRANCH  28  29
ENDBRANCH  24  28
ENDBRANCH  17  18
ENDBRANCH  11  14
BRANCH  12  37
HETATM   37  N   UNL     1     -11.267   7.707  69.143  1.00  0.00    -0.413 NA 
HETATM   38  H   UNL     1     -12.177   8.168  69.173  1.00  0.00     0.000 HD 
BRANCH  37  39
HETATM   39  C   UNL     1     -10.869   6.859  70.280  1.00  0.00    -0.257 C  
HETATM   40  C   UNL     1     -11.999   6.500  71.249  1.00  0.00    -0.364 C  
HETATM   41  O   UNL     1     -11.250   8.213  72.807  1.00  0.00    -0.389 OA 
HETATM   42  C   UNL     1     -10.286   8.710  71.880  1.00  0.00    -0.335 C  
HETATM   43  C   UNL     1      -9.748   7.563  71.041  1.00  0.00    -0.170 C  
HETATM   44  C   UNL     1     -12.388   7.661  72.150  1.00  0.00    -0.241 C  
ENDBRANCH  37  39
ENDBRANCH  12  37
ENDBRANCH   5   8
TORSDOF 7
ENDMDL
MODEL       36
REMARK 921   NORMALIZED FREE ENERGY PREDICTED BY IDOCK:   -6.79 KCAL/MOL
REMARK 922        TOTAL FREE ENERGY PREDICTED BY IDOCK:  -12.10 KCAL/MOL
REMARK 923 INTER-LIGAND FREE ENERGY PREDICTED BY IDOCK:  -11.02 KCAL/MOL
REMARK 924 INTRA-LIGAND FREE ENERGY PREDICTED BY IDOCK:   -1.08 KCAL/MOL
REMARK 927      BINDING AFFINITY PREDICTED BY RF-SCORE:    0.00 PKD
ROOT
HETATM    1  C   UNL     1      -6.503  20.933  67.006  1.00  0.00    -0.307 C  
HETATM    2  N   UNL     1      -7.838  20.395  67.257  1.00  0.00    -0.324 NA 
HETATM    3  C   UNL     1      -8.240  19.449  66.190  1.00  0.00    -0.311 C  
HETATM    4  C   UNL     1      -7.507  18.092  66.229  1.00  0.00    -0.277 C  
HETATM    5  N   UNL     1      -7.711  17.468  67.553  1.00  0.00    -0.196 NA 
HETATM    6  C   UNL     1      -7.229  18.313  68.654  1.00  0.00    -0.282 C  
HETATM    7  C   UNL     1      -7.909  19.706  68.570  1.00  0.00    -0.323 C  
ENDROOT
BRANCH   5   8
HETATM    8  C   UNL     1      -7.936  16.109  67.666  1.00  0.00    -0.145 A  
HETATM    9  C   UNL     1      -7.455  15.323  68.708  1.00  0.00    -0.135 A  
HETATM   10  C   UNL     1      -7.668  13.938  68.726  1.00  0.00    -0.096 A  
HETATM   11  C   UNL     1      -8.368  13.297  67.689  1.00  0.00    -0.181 A  
HETATM   12  C   UNL     1      -8.956  14.060  66.665  1.00  0.00    -0.154 A  
HETATM   13  C   UNL     1      -8.725  15.444  66.708  1.00  0.00    -0.304 A  
BRANCH  11  14
HETATM   14  C   UNL     1      -8.408  11.803  67.740  1.00  0.00    -0.146 C  
HETATM   15  H   UNL     1      -6.357  11.768  67.973  1.00  0.00     0.000 HD 
HETATM   16  O   UNL     1      -9.510  11.259  67.680  1.00  0.00    -0.164 OA 
HETATM   17  N   UNL     1      -7.184  11.177  67.885  1.00  0.00    -0.087 N  
BRANCH  17  18
HETATM   18  C   UNL     1      -7.000   9.806  67.920  1.00  0.00    -0.078 A  
HETATM   19  C   UNL     1      -7.582   8.908  68.875  1.00  0.00    -0.087 A  
HETATM   20  C   UNL     1      -8.457   8.986  69.974  1.00  0.00    -0.149 A  
HETATM   21  N   UNL     1      -6.225   9.142  67.062  1.00  0.00    -0.058 NA 
HETATM   22  N   UNL     1      -6.277   7.871  67.459  1.00  0.00    -0.050 NA 
HETATM   23  H   UNL     1      -5.704   9.525  66.273  1.00  0.00     0.000 HD 
HETATM   24  C   UNL     1      -8.730   7.844  70.757  1.00  0.00    -0.134 A  
HETATM   25  C   UNL     1      -8.134   6.622  70.421  1.00  0.00    -0.117 A  
HETATM   26  C   UNL     1      -7.039   7.662  68.574  1.00  0.00    -0.081 A  
HETATM   27  C   UNL     1      -7.285   6.505  69.316  1.00  0.00    -0.090 A  
BRANCH  24  28
HETATM   28  C   UNL     1      -9.702   7.928  71.916  1.00  0.00    -0.231 C  
BRANCH  28  29
HETATM   29  C   UNL     1     -10.924   8.801  71.709  1.00  0.00    -0.415 A  
HETATM   30  C   UNL     1     -10.949   9.906  70.844  1.00  0.00    -0.392 A  
HETATM   31  C   UNL     1     -12.128  10.623  70.644  1.00  0.00    -0.365 A  
HETATM   32  F   UNL     1     -12.127  11.661  69.797  1.00  0.00    -0.328 F  
HETATM   33  C   UNL     1     -13.302  10.276  71.294  1.00  0.00    -0.369 A  
HETATM   34  C   UNL     1     -13.277   9.202  72.169  1.00  0.00    -0.458 A  
HETATM   35  C   UNL     1     -12.111   8.468  72.383  1.00  0.00    -0.436 A  
HETATM   36  F   UNL     1     -14.397   8.853  72.816  1.00  0.00    -0.490 F  
ENDBRANCH  28  29
ENDBRANCH  24  28
ENDBRANCH  17  18
ENDBRANCH  11  14
BRANCH  12  37
HETATM   37  N   UNL     1      -9.665  13.477  65.607  1.00  0.00    -0.488 NA 
HETATM   38  H   UNL     1      -9.218  13.427  64.691  1.00  0.00     0.000 HD 
BRANCH  37  39
HETATM   39  C   UNL     1     -11.025  12.934  65.759  1.00  0.00    -0.278 C  
HETATM   40  C   UNL     1     -11.491  12.022  64.620  1.00  0.00    -0.371 C  
HETATM   41  O   UNL     1     -12.781  13.844  63.649  1.00  0.00    -0.754 OA 
HETATM   42  C   UNL     1     -12.251  14.787  64.579  1.00  0.00    -0.428 C  
HETATM   43  C   UNL     1     -11.999  14.100  65.912  1.00  0.00    -0.420 C  
HETATM   44  C   UNL     1     -11.857  12.797  63.363  1.00  0.00    -0.518 C  
ENDBRANCH  37  39
ENDBRANCH  12  37
ENDBRANCH   5   8
TORSDOF 7
ENDMDL
MODEL       37
REMARK 921   NORMALIZED FREE ENERGY PREDICTED BY IDOCK:   -6.77 KCAL/MOL
REMARK 922        TOTAL FREE ENERGY PREDICTED BY IDOCK:  -12.06 KCAL/MOL
REMARK 923 INTER-LIGAND FREE ENERGY PREDICTED BY IDOCK:   -9.19 KCAL/MOL
REMARK 924 INTRA-LIGAND FREE ENERGY PREDICTED BY IDOCK:   -2.87 KCAL/MOL
REMARK 927      BINDING AFFINITY PREDICTED BY RF-SCORE:    0.00 PKD
ROOT
HETATM    1  C   UNL     1     -11.028  15.863  64.767  1.00  0.00    -0.375 C  
HETATM    2  N   UNL     1     -11.560  14.530  64.496  1.00  0.00    -0.393 NA 
HETATM    3  C   UNL     1     -10.499  13.502  64.592  1.00  0.00    -0.421 C  
HETATM    4  C   UNL     1     -10.029  13.200  66.031  1.00  0.00    -0.280 C  
HETATM    5  N   UNL     1     -11.193  12.793  66.845  1.00  0.00    -0.282 NA 
HETATM    6  C   UNL     1     -12.242  13.822  66.882  1.00  0.00    -0.366 C  
HETATM    7  C   UNL     1     -12.660  14.182  65.431  1.00  0.00    -0.466 C  
ENDROOT
BRANCH   5   8
HETATM    8  C   UNL     1     -11.086  11.768  67.766  1.00  0.00    -0.243 A  
HETATM    9  C   UNL     1     -11.963  11.582  68.831  1.00  0.00    -0.364 A  
HETATM   10  C   UNL     1     -11.758  10.557  69.763  1.00  0.00    -0.354 A  
HETATM   11  C   UNL     1     -10.658   9.687  69.659  1.00  0.00    -0.252 A  
HETATM   12  C   UNL     1      -9.801   9.774  68.548  1.00  0.00    -0.156 A  
HETATM   13  C   UNL     1     -10.064  10.809  67.636  1.00  0.00    -0.205 A  
BRANCH  11  14
HETATM   14  C   UNL     1     -10.460   8.728  70.788  1.00  0.00    -0.219 C  
HETATM   15  H   UNL     1     -11.440   7.269  69.704  1.00  0.00     0.000 HD 
HETATM   16  O   UNL     1      -9.829   9.122  71.768  1.00  0.00    -0.299 OA 
HETATM   17  N   UNL     1     -10.986   7.464  70.597  1.00  0.00    -0.251 N  
BRANCH  17  18
HETATM   18  C   UNL     1     -10.941   6.442  71.530  1.00  0.00    -0.263 A  
HETATM   19  C   UNL     1     -10.300   5.171  71.348  1.00  0.00    -0.273 A  
HETATM   20  C   UNL     1      -9.549   4.521  70.353  1.00  0.00    -0.270 A  
HETATM   21  N   UNL     1     -11.517   6.511  72.730  1.00  0.00    -0.452 NA 
HETATM   22  N   UNL     1     -11.287   5.326  73.294  1.00  0.00    -0.296 NA 
HETATM   23  H   UNL     1     -12.025   7.301  73.130  1.00  0.00     0.000 HD 
HETATM   24  C   UNL     1      -9.157   3.175  70.513  1.00  0.00    -0.193 A  
HETATM   25  C   UNL     1      -9.509   2.492  71.684  1.00  0.00    -0.206 A  
HETATM   26  C   UNL     1     -10.599   4.451  72.501  1.00  0.00    -0.132 A  
HETATM   27  C   UNL     1     -10.229   3.121  72.706  1.00  0.00    -0.238 A  
BRANCH  24  28
HETATM   28  C   UNL     1      -8.317   2.493  69.454  1.00  0.00    -0.081 C  
BRANCH  28  29
HETATM   29  C   UNL     1      -8.435   3.040  68.044  1.00  0.00    -0.102 A  
HETATM   30  C   UNL     1      -9.634   3.525  67.500  1.00  0.00    -0.177 A  
HETATM   31  C   UNL     1      -9.657   4.082  66.222  1.00  0.00    -0.199 A  
HETATM   32  F   UNL     1     -10.812   4.556  65.736  1.00  0.00    -0.317 F  
HETATM   33  C   UNL     1      -8.509   4.166  65.451  1.00  0.00    -0.110 A  
HETATM   34  C   UNL     1      -7.327   3.664  65.973  1.00  0.00    -0.076 A  
HETATM   35  C   UNL     1      -7.279   3.106  67.250  1.00  0.00    -0.058 A  
HETATM   36  F   UNL     1      -6.206   3.726  65.243  1.00  0.00    -0.024 F  
ENDBRANCH  28  29
ENDBRANCH  24  28
ENDBRANCH  17  18
ENDBRANCH  11  14
BRANCH  12  37
HETATM   37  N   UNL     1      -8.690   8.936  68.390  1.00  0.00    -0.134 NA 
HETATM   38  H   UNL     1      -7.776   9.276  68.690  1.00  0.00     0.000 HD 
BRANCH  37  39
HETATM   39  C   UNL     1      -8.783   7.586  67.809  1.00  0.00    -0.123 C  
HETATM   40  C   UNL     1      -7.544   6.707  68.006  1.00  0.00    -0.107 C  
HETATM   41  O   UNL     1      -6.811   7.177  65.733  1.00  0.00    -0.054 OA 
HETATM   42  C   UNL     1      -7.846   8.140  65.541  1.00  0.00    -0.104 C  
HETATM   43  C   UNL     1      -9.083   7.718  66.318  1.00  0.00    -0.221 C  
HETATM   44  C   UNL     1      -6.394   7.105  67.094  1.00  0.00    -0.053 C  
ENDBRANCH  37  39
ENDBRANCH  12  37
ENDBRANCH   5   8
TORSDOF 7
ENDMDL
MODEL       38
REMARK 921   NORMALIZED FREE ENERGY PREDICTED BY IDOCK:   -6.76 KCAL/MOL
REMARK 922        TOTAL FREE ENERGY PREDICTED BY IDOCK:  -12.05 KCAL/MOL
REMARK 923 INTER-LIGAND FREE ENERGY PREDICTED BY IDOCK:   -9.29 KCAL/MOL
REMARK 924 INTRA-LIGAND FREE ENERGY PREDICTED BY IDOCK:   -2.77 KCAL/MOL
REMARK 927      BINDING AFFINITY PREDICTED BY RF-SCORE:    0.00 PKD
ROOT
HETATM    1  C   UNL     1      -9.604   3.502  70.445  1.00  0.00    -0.171 C  
HETATM    2  N   UNL     1     -10.098   4.834  70.786  1.00  0.00    -0.230 NA 
HETATM    3  C   UNL     1      -9.032   5.656  71.402  1.00  0.00    -0.140 C  
HETATM    4  C   UNL     1      -7.943   6.135  70.418  1.00  0.00    -0.108 C  
HETATM    5  N   UNL     1      -8.581   6.886  69.318  1.00  0.00    -0.132 NA 
HETATM    6  C   UNL     1      -9.577   6.085  68.591  1.00  0.00    -0.125 C  
HETATM    7  C   UNL     1     -10.629   5.540  69.593  1.00  0.00    -0.305 C  
ENDROOT
BRANCH   5   8
HETATM    8  C   UNL     1      -7.994   8.030  68.811  1.00  0.00    -0.119 A  
HETATM    9  C   UNL     1      -6.900   8.667  69.389  1.00  0.00    -0.049 A  
HETATM   10  C   UNL     1      -6.395   9.860  68.857  1.00  0.00    -0.041 A  
HETATM   11  C   UNL     1      -6.980  10.458  67.727  1.00  0.00    -0.083 A  
HETATM   12  C   UNL     1      -8.025   9.803  67.052  1.00  0.00    -0.105 A  
HETATM   13  C   UNL     1      -8.478   8.602  67.619  1.00  0.00    -0.125 A  
BRANCH  11  14
HETATM   14  C   UNL     1      -6.451  11.800  67.336  1.00  0.00    -0.116 C  
HETATM   15  H   UNL     1      -7.324  12.621  69.018  1.00  0.00     0.000 HD 
HETATM   16  O   UNL     1      -5.753  11.867  66.325  1.00  0.00    -0.206 OA 
HETATM   17  N   UNL     1      -6.777  12.842  68.185  1.00  0.00    -0.081 N  
BRANCH  17  18
HETATM   18  C   UNL     1      -6.416  14.163  67.987  1.00  0.00    -0.149 A  
HETATM   19  C   UNL     1      -7.261  15.302  68.201  1.00  0.00    -0.126 A  
HETATM   20  C   UNL     1      -8.570  15.553  68.649  1.00  0.00    -0.179 A  
HETATM   21  N   UNL     1      -5.217  14.543  67.544  1.00  0.00    -0.337 NA 
HETATM   22  N   UNL     1      -5.288  15.870  67.446  1.00  0.00    -0.309 NA 
HETATM   23  H   UNL     1      -4.418  13.946  67.326  1.00  0.00     0.000 HD 
HETATM   24  C   UNL     1      -9.097  16.862  68.629  1.00  0.00    -0.265 A  
HETATM   25  C   UNL     1      -8.298  17.917  68.172  1.00  0.00    -0.267 A  
HETATM   26  C   UNL     1      -6.505  16.393  67.781  1.00  0.00    -0.138 A  
HETATM   27  C   UNL     1      -6.982  17.705  67.748  1.00  0.00    -0.187 A  
BRANCH  24  28
HETATM   28  C   UNL     1     -10.494  17.130  69.149  1.00  0.00    -0.296 C  
BRANCH  28  29
HETATM   29  C   UNL     1     -11.195  15.970  69.829  1.00  0.00    -0.344 A  
HETATM   30  C   UNL     1     -11.587  14.801  69.159  1.00  0.00    -0.330 A  
HETATM   31  C   UNL     1     -12.160  13.741  69.860  1.00  0.00    -0.348 A  
HETATM   32  F   UNL     1     -12.506  12.629  69.198  1.00  0.00    -0.185 F  
HETATM   33  C   UNL     1     -12.369  13.811  71.228  1.00  0.00    -0.394 A  
HETATM   34  C   UNL     1     -12.009  14.973  71.891  1.00  0.00    -0.382 A  
HETATM   35  C   UNL     1     -11.430  16.045  71.212  1.00  0.00    -0.475 A  
HETATM   36  F   UNL     1     -12.209  15.067  73.213  1.00  0.00    -0.427 F  
ENDBRANCH  28  29
ENDBRANCH  24  28
ENDBRANCH  17  18
ENDBRANCH  11  14
BRANCH  12  37
HETATM   37  N   UNL     1      -8.647  10.349  65.921  1.00  0.00    -0.152 NA 
HETATM   38  H   UNL     1      -8.080  10.530  65.093  1.00  0.00     0.000 HD 
BRANCH  37  39
HETATM   39  C   UNL     1     -10.083  10.673  65.877  1.00  0.00    -0.261 C  
HETATM   40  C   UNL     1     -10.633  10.996  64.485  1.00  0.00    -0.383 C  
HETATM   41  O   UNL     1     -10.540  13.380  64.967  1.00  0.00    -0.319 OA 
HETATM   42  C   UNL     1      -9.868  13.157  66.206  1.00  0.00    -0.283 C  
HETATM   43  C   UNL     1     -10.345  11.849  66.815  1.00  0.00    -0.238 C  
HETATM   44  C   UNL     1     -10.226  12.380  64.001  1.00  0.00    -0.375 C  
ENDBRANCH  37  39
ENDBRANCH  12  37
ENDBRANCH   5   8
TORSDOF 7
ENDMDL
MODEL       39
REMARK 921   NORMALIZED FREE ENERGY PREDICTED BY IDOCK:   -6.76 KCAL/MOL
REMARK 922        TOTAL FREE ENERGY PREDICTED BY IDOCK:  -12.05 KCAL/MOL
REMARK 923 INTER-LIGAND FREE ENERGY PREDICTED BY IDOCK:   -9.93 KCAL/MOL
REMARK 924 INTRA-LIGAND FREE ENERGY PREDICTED BY IDOCK:   -2.11 KCAL/MOL
REMARK 927      BINDING AFFINITY PREDICTED BY RF-SCORE:    0.00 PKD
ROOT
HETATM    1  C   UNL     1      -7.169   1.983  70.392  1.00  0.00    -0.033 C  
HETATM    2  N   UNL     1      -8.346   2.200  71.230  1.00  0.00    -0.053 NA 
HETATM    3  C   UNL     1      -8.123   3.311  72.183  1.00  0.00    -0.063 C  
HETATM    4  C   UNL     1      -8.119   4.715  71.542  1.00  0.00    -0.102 C  
HETATM    5  N   UNL     1      -9.393   4.922  70.822  1.00  0.00    -0.144 NA 
HETATM    6  C   UNL     1      -9.623   3.911  69.780  1.00  0.00    -0.201 C  
HETATM    7  C   UNL     1      -9.550   2.495  70.412  1.00  0.00    -0.049 C  
ENDROOT
BRANCH   5   8
HETATM    8  C   UNL     1     -10.038   6.143  70.865  1.00  0.00    -0.192 A  
HETATM    9  C   UNL     1     -11.406   6.297  71.067  1.00  0.00    -0.378 A  
HETATM   10  C   UNL     1     -12.003   7.563  71.036  1.00  0.00    -0.317 A  
HETATM   11  C   UNL     1     -11.242   8.721  70.794  1.00  0.00    -0.309 A  
HETATM   12  C   UNL     1      -9.844   8.627  70.682  1.00  0.00    -0.183 A  
HETATM   13  C   UNL     1      -9.298   7.334  70.739  1.00  0.00    -0.160 A  
BRANCH  11  14
HETATM   14  C   UNL     1     -12.004   9.997  70.640  1.00  0.00    -0.313 C  
HETATM   15  H   UNL     1     -11.648  10.436  72.625  1.00  0.00     0.000 HD 
HETATM   16  O   UNL     1     -12.442  10.269  69.523  1.00  0.00    -0.004 OA 
HETATM   17  N   UNL     1     -12.112  10.771  71.780  1.00  0.00     0.045 N  
BRANCH  17  18
HETATM   18  C   UNL     1     -12.802  11.968  71.858  1.00  0.00    -0.233 A  
HETATM   19  C   UNL     1     -12.553  13.131  71.056  1.00  0.00    -0.397 A  
HETATM   20  C   UNL     1     -11.689  13.506  70.012  1.00  0.00    -0.311 A  
HETATM   21  N   UNL     1     -13.793  12.195  72.722  1.00  0.00    -0.306 NA 
HETATM   22  N   UNL     1     -14.153  13.461  72.511  1.00  0.00    -0.735 NA 
HETATM   23  H   UNL     1     -14.188  11.541  73.398  1.00  0.00     0.000 HD 
HETATM   24  C   UNL     1     -11.681  14.831  69.527  1.00  0.00    -0.358 A  
HETATM   25  C   UNL     1     -12.556  15.771  70.084  1.00  0.00    -0.156 A  
HETATM   26  C   UNL     1     -13.418  14.102  71.554  1.00  0.00    -0.344 A  
HETATM   27  C   UNL     1     -13.450  15.422  71.102  1.00  0.00    -0.565 A  
BRANCH  24  28
HETATM   28  C   UNL     1     -10.775  15.217  68.377  1.00  0.00    -0.250 C  
BRANCH  28  29
HETATM   29  C   UNL     1     -11.268  14.874  66.984  1.00  0.00    -0.344 A  
HETATM   30  C   UNL     1     -11.890  13.658  66.662  1.00  0.00    -0.447 A  
HETATM   31  C   UNL     1     -12.387  13.435  65.378  1.00  0.00    -0.477 A  
HETATM   32  F   UNL     1     -12.994  12.274  65.104  1.00  0.00    -0.400 F  
HETATM   33  C   UNL     1     -12.276  14.396  64.385  1.00  0.00    -0.481 A  
HETATM   34  C   UNL     1     -11.639  15.588  64.691  1.00  0.00    -0.281 A  
HETATM   35  C   UNL     1     -11.137  15.835  65.968  1.00  0.00    -0.085 A  
HETATM   36  F   UNL     1     -11.511  16.528  63.745  1.00  0.00    -0.193 F  
ENDBRANCH  28  29
ENDBRANCH  24  28
ENDBRANCH  17  18
ENDBRANCH  11  14
BRANCH  12  37
HETATM   37  N   UNL     1      -9.033   9.744  70.442  1.00  0.00    -0.344 NA 
HETATM   38  H   UNL     1      -9.107  10.544  71.071  1.00  0.00     0.000 HD 
BRANCH  37  39
HETATM   39  C   UNL     1      -8.081   9.815  69.321  1.00  0.00    -0.115 C  
HETATM   40  C   UNL     1      -7.376  11.164  69.151  1.00  0.00    -0.115 C  
HETATM   41  O   UNL     1      -8.896  11.765  67.346  1.00  0.00    -0.154 OA 
HETATM   42  C   UNL     1      -9.699  10.607  67.566  1.00  0.00    -0.166 C  
HETATM   43  C   UNL     1      -8.819   9.458  68.032  1.00  0.00    -0.124 C  
HETATM   44  C   UNL     1      -8.284  12.226  68.549  1.00  0.00    -0.096 C  
ENDBRANCH  37  39
ENDBRANCH  12  37
ENDBRANCH   5   8
TORSDOF 7
ENDMDL
MODEL       40
REMARK 921   NORMALIZED FREE ENERGY PREDICTED BY IDOCK:   -6.76 KCAL/MOL
REMARK 922        TOTAL FREE ENERGY PREDICTED BY IDOCK:  -12.04 KCAL/MOL
REMARK 923 INTER-LIGAND FREE ENERGY PREDICTED BY IDOCK:   -9.51 KCAL/MOL
REMARK 924 INTRA-LIGAND FREE ENERGY PREDICTED BY IDOCK:   -2.53 KCAL/MOL
REMARK 927      BINDING AFFINITY PREDICTED BY RF-SCORE:    0.00 PKD
ROOT
HETATM    1  C   UNL     1      -7.362   3.786  73.117  1.00  0.00    -0.064 C  
HETATM    2  N   UNL     1      -6.271   4.198  72.237  1.00  0.00    -0.019 NA 
HETATM    3  C   UNL     1      -6.733   4.322  70.836  1.00  0.00    -0.035 C  
HETATM    4  C   UNL     1      -7.632   5.546  70.564  1.00  0.00    -0.084 C  
HETATM    5  N   UNL     1      -6.913   6.774  70.963  1.00  0.00    -0.065 NA 
HETATM    6  C   UNL     1      -6.521   6.762  72.380  1.00  0.00    -0.058 C  
HETATM    7  C   UNL     1      -5.680   5.490  72.671  1.00  0.00    -0.023 C  
ENDROOT
BRANCH   5   8
HETATM    8  C   UNL     1      -6.993   7.920  70.195  1.00  0.00    -0.049 A  
HETATM    9  C   UNL     1      -5.939   8.430  69.442  1.00  0.00    -0.037 A  
HETATM   10  C   UNL     1      -6.072   9.632  68.736  1.00  0.00    -0.042 A  
HETATM   11  C   UNL     1      -7.271  10.367  68.770  1.00  0.00    -0.085 A  
HETATM   12  C   UNL     1      -8.392   9.845  69.436  1.00  0.00    -0.156 A  
HETATM   13  C   UNL     1      -8.207   8.628  70.111  1.00  0.00    -0.123 A  
BRANCH  11  14
HETATM   14  C   UNL     1      -7.249  11.703  68.100  1.00  0.00    -0.085 C  
HETATM   15  H   UNL     1      -7.345  12.618  69.948  1.00  0.00     0.000 HD 
HETATM   16  O   UNL     1      -7.145  11.726  66.874  1.00  0.00    -0.140 OA 
HETATM   17  N   UNL     1      -7.315  12.796  68.943  1.00  0.00    -0.057 N  
BRANCH  17  18
HETATM   18  C   UNL     1      -7.342  14.115  68.524  1.00  0.00    -0.120 A  
HETATM   19  C   UNL     1      -8.480  14.987  68.580  1.00  0.00    -0.163 A  
HETATM   20  C   UNL     1      -9.813  14.926  69.025  1.00  0.00    -0.220 A  
HETATM   21  N   UNL     1      -6.294  14.742  67.987  1.00  0.00    -0.140 NA 
HETATM   22  N   UNL     1      -6.739  15.960  67.681  1.00  0.00    -0.154 NA 
HETATM   23  H   UNL     1      -5.356  14.369  67.843  1.00  0.00     0.000 HD 
HETATM   24  C   UNL     1     -10.691  16.010  68.812  1.00  0.00    -0.282 A  
HETATM   25  C   UNL     1     -10.219  17.160  68.166  1.00  0.00    -0.332 A  
HETATM   26  C   UNL     1      -8.060  16.164  67.967  1.00  0.00    -0.146 A  
HETATM   27  C   UNL     1      -8.890  17.263  67.740  1.00  0.00    -0.234 A  
BRANCH  24  28
HETATM   28  C   UNL     1     -12.114  15.953  69.327  1.00  0.00    -0.166 C  
BRANCH  28  29
HETATM   29  C   UNL     1     -12.289  15.550  70.779  1.00  0.00    -0.463 A  
HETATM   30  C   UNL     1     -11.848  16.331  71.858  1.00  0.00    -0.538 A  
HETATM   31  C   UNL     1     -12.107  15.937  73.170  1.00  0.00    -0.506 A  
HETATM   32  F   UNL     1     -11.692  16.712  74.180  1.00  0.00    -0.344 F  
HETATM   33  C   UNL     1     -12.795  14.766  73.448  1.00  0.00    -0.597 A  
HETATM   34  C   UNL     1     -13.210  13.978  72.387  1.00  0.00    -0.488 A  
HETATM   35  C   UNL     1     -12.965  14.353  71.067  1.00  0.00    -0.416 A  
HETATM   36  F   UNL     1     -13.869  12.837  72.632  1.00  0.00    -0.613 F  
ENDBRANCH  28  29
ENDBRANCH  24  28
ENDBRANCH  17  18
ENDBRANCH  11  14
BRANCH  12  37
HETATM   37  N   UNL     1      -9.612  10.531  69.504  1.00  0.00    -0.396 NA 
HETATM   38  H   UNL     1      -9.646  11.415  70.012  1.00  0.00     0.000 HD 
BRANCH  37  39
HETATM   39  C   UNL     1     -10.846  10.031  68.874  1.00  0.00    -0.220 C  
HETATM   40  C   UNL     1     -10.741   9.745  67.374  1.00  0.00    -0.314 C  
HETATM   41  O   UNL     1     -11.835  11.858  66.862  1.00  0.00    -0.590 OA 
HETATM   42  C   UNL     1     -11.811  12.263  68.230  1.00  0.00    -0.310 C  
HETATM   43  C   UNL     1     -11.962  11.043  69.124  1.00  0.00    -0.394 C  
HETATM   44  C   UNL     1     -10.733  11.014  66.535  1.00  0.00    -0.241 C  
ENDBRANCH  37  39
ENDBRANCH  12  37
ENDBRANCH   5   8
TORSDOF 7
ENDMDL
MODEL       41
REMARK 921   NORMALIZED FREE ENERGY PREDICTED BY IDOCK:   -6.75 KCAL/MOL
REMARK 922        TOTAL FREE ENERGY PREDICTED BY IDOCK:  -12.03 KCAL/MOL
REMARK 923 INTER-LIGAND FREE ENERGY PREDICTED BY IDOCK:   -9.64 KCAL/MOL
REMARK 924 INTRA-LIGAND FREE ENERGY PREDICTED BY IDOCK:   -2.40 KCAL/MOL
REMARK 927      BINDING AFFINITY PREDICTED BY RF-SCORE:    0.00 PKD
ROOT
HETATM    1  C   UNL     1      -7.912   1.475  64.265  1.00  0.00    -0.065 C  
HETATM    2  N   UNL     1      -7.093   2.054  65.327  1.00  0.00    -0.050 NA 
HETATM    3  C   UNL     1      -7.043   3.530  65.218  1.00  0.00    -0.066 C  
HETATM    4  C   UNL     1      -8.352   4.245  65.615  1.00  0.00    -0.110 C  
HETATM    5  N   UNL     1      -8.717   3.857  66.994  1.00  0.00    -0.106 NA 
HETATM    6  C   UNL     1      -8.891   2.405  67.144  1.00  0.00    -0.134 C  
HETATM    7  C   UNL     1      -7.601   1.682  66.672  1.00  0.00    -0.064 C  
ENDROOT
BRANCH   5   8
HETATM    8  C   UNL     1      -9.226   4.790  67.877  1.00  0.00    -0.122 A  
HETATM    9  C   UNL     1     -10.317   5.610  67.604  1.00  0.00    -0.266 A  
HETATM   10  C   UNL     1     -10.741   6.578  68.523  1.00  0.00    -0.329 A  
HETATM   11  C   UNL     1     -10.075   6.758  69.748  1.00  0.00    -0.198 A  
HETATM   12  C   UNL     1      -9.031   5.890  70.111  1.00  0.00    -0.142 A  
HETATM   13  C   UNL     1      -8.660   4.928  69.159  1.00  0.00    -0.091 A  
BRANCH  11  14
HETATM   14  C   UNL     1     -10.524   7.915  70.583  1.00  0.00    -0.213 C  
HETATM   15  H   UNL     1     -12.477   7.541  70.031  1.00  0.00     0.000 HD 
HETATM   16  O   UNL     1      -9.667   8.521  71.226  1.00  0.00    -0.174 OA 
HETATM   17  N   UNL     1     -11.883   8.167  70.575  1.00  0.00    -0.093 N  
BRANCH  17  18
HETATM   18  C   UNL     1     -12.495   9.207  71.251  1.00  0.00    -0.300 A  
HETATM   19  C   UNL     1     -12.389  10.599  70.919  1.00  0.00    -0.502 A  
HETATM   20  C   UNL     1     -11.765  11.385  69.935  1.00  0.00    -0.424 A  
HETATM   21  N   UNL     1     -13.261   9.038  72.330  1.00  0.00    -0.445 NA 
HETATM   22  N   UNL     1     -13.613  10.269  72.701  1.00  0.00     0.211 NA 
HETATM   23  H   UNL     1     -13.520   8.157  72.775  1.00  0.00     0.000 HD 
HETATM   24  C   UNL     1     -11.817  12.794  70.001  1.00  0.00    -0.352 A  
HETATM   25  C   UNL     1     -12.513  13.406  71.051  1.00  0.00    -0.437 A  
HETATM   26  C   UNL     1     -13.086  11.262  71.925  1.00  0.00    -0.405 A  
HETATM   27  C   UNL     1     -13.170  12.651  72.028  1.00  0.00    -0.531 A  
BRANCH  24  28
HETATM   28  C   UNL     1     -11.175  13.634  68.917  1.00  0.00    -0.309 C  
BRANCH  28  29
HETATM   29  C   UNL     1     -11.053  12.991  67.549  1.00  0.00    -0.297 A  
HETATM   30  C   UNL     1     -12.035  13.100  66.552  1.00  0.00    -0.459 A  
HETATM   31  C   UNL     1     -11.827  12.546  65.290  1.00  0.00    -0.413 A  
HETATM   32  F   UNL     1     -12.772  12.683  64.351  1.00  0.00    -0.476 F  
HETATM   33  C   UNL     1     -10.658  11.866  64.984  1.00  0.00    -0.335 A  
HETATM   34  C   UNL     1      -9.697  11.732  65.973  1.00  0.00    -0.232 A  
HETATM   35  C   UNL     1      -9.881  12.281  67.242  1.00  0.00    -0.208 A  
HETATM   36  F   UNL     1      -8.563  11.071  65.704  1.00  0.00    -0.176 F  
ENDBRANCH  28  29
ENDBRANCH  24  28
ENDBRANCH  17  18
ENDBRANCH  11  14
BRANCH  12  37
HETATM   37  N   UNL     1      -8.332   6.021  71.318  1.00  0.00    -0.123 NA 
HETATM   38  H   UNL     1      -7.718   6.827  71.441  1.00  0.00     0.000 HD 
BRANCH  37  39
HETATM   39  C   UNL     1      -8.444   5.046  72.416  1.00  0.00    -0.121 C  
HETATM   40  C   UNL     1      -9.826   4.409  72.582  1.00  0.00    -0.205 C  
HETATM   41  O   UNL     1     -10.333   5.913  74.428  1.00  0.00    -0.279 OA 
HETATM   42  C   UNL     1      -9.136   6.660  74.217  1.00  0.00    -0.190 C  
HETATM   43  C   UNL     1      -8.038   5.733  73.719  1.00  0.00    -0.107 C  
HETATM   44  C   UNL     1     -10.835   5.355  73.215  1.00  0.00    -0.298 C  
ENDBRANCH  37  39
ENDBRANCH  12  37
ENDBRANCH   5   8
TORSDOF 7
ENDMDL
MODEL       42
REMARK 921   NORMALIZED FREE ENERGY PREDICTED BY IDOCK:   -6.70 KCAL/MOL
REMARK 922        TOTAL FREE ENERGY PREDICTED BY IDOCK:  -11.97 KCAL/MOL
REMARK 923 INTER-LIGAND FREE ENERGY PREDICTED BY IDOCK:   -9.68 KCAL/MOL
REMARK 924 INTRA-LIGAND FREE ENERGY PREDICTED BY IDOCK:   -2.28 KCAL/MOL
REMARK 927      BINDING AFFINITY PREDICTED BY RF-SCORE:    0.00 PKD
ROOT
HETATM    1  C   UNL     1     -13.165  15.581  73.416  1.00  0.00    -0.481 C  
HETATM    2  N   UNL     1     -13.851  15.315  72.154  1.00  0.00    -0.472 NA 
HETATM    3  C   UNL     1     -13.001  15.679  70.998  1.00  0.00    -0.458 C  
HETATM    4  C   UNL     1     -11.818  14.720  70.745  1.00  0.00    -0.312 C  
HETATM    5  N   UNL     1     -12.336  13.347  70.572  1.00  0.00    -0.345 NA 
HETATM    6  C   UNL     1     -13.100  12.881  71.738  1.00  0.00    -0.360 C  
HETATM    7  C   UNL     1     -14.244  13.887  72.039  1.00  0.00    -0.446 C  
ENDROOT
BRANCH   5   8
HETATM    8  C   UNL     1     -11.798  12.505  69.617  1.00  0.00    -0.314 A  
HETATM    9  C   UNL     1     -11.409  12.915  68.345  1.00  0.00    -0.329 A  
HETATM   10  C   UNL     1     -10.930  11.995  67.405  1.00  0.00    -0.311 A  
HETATM   11  C   UNL     1     -10.832  10.626  67.712  1.00  0.00    -0.338 A  
HETATM   12  C   UNL     1     -11.120  10.178  69.012  1.00  0.00    -0.205 A  
HETATM   13  C   UNL     1     -11.579  11.148  69.918  1.00  0.00    -0.416 A  
BRANCH  11  14
HETATM   14  C   UNL     1     -10.446   9.719  66.587  1.00  0.00    -0.163 C  
HETATM   15  H   UNL     1      -9.457  11.287  65.678  1.00  0.00     0.000 HD 
HETATM   16  O   UNL     1     -10.784   8.539  66.664  1.00  0.00    -0.191 OA 
HETATM   17  N   UNL     1      -9.707  10.303  65.575  1.00  0.00    -0.244 N  
BRANCH  17  18
HETATM   18  C   UNL     1      -9.280   9.649  64.433  1.00  0.00    -0.200 A  
HETATM   19  C   UNL     1      -8.355   8.553  64.393  1.00  0.00    -0.125 A  
HETATM   20  C   UNL     1      -7.627   7.775  65.311  1.00  0.00    -0.091 A  
HETATM   21  N   UNL     1      -9.672   9.979  63.202  1.00  0.00    -0.531 NA 
HETATM   22  N   UNL     1      -9.008   9.153  62.393  1.00  0.00    -0.213 NA 
HETATM   23  H   UNL     1     -10.335  10.708  62.936  1.00  0.00     0.000 HD 
HETATM   24  C   UNL     1      -6.707   6.805  64.860  1.00  0.00    -0.049 A  
HETATM   25  C   UNL     1      -6.535   6.610  63.484  1.00  0.00    -0.041 A  
HETATM   26  C   UNL     1      -8.161   8.297  63.039  1.00  0.00    -0.152 A  
HETATM   27  C   UNL     1      -7.266   7.345  62.546  1.00  0.00    -0.083 A  
BRANCH  24  28
HETATM   28  C   UNL     1      -5.955   5.946  65.855  1.00  0.00    -0.028 C  
BRANCH  28  29
HETATM   29  C   UNL     1      -6.794   5.230  66.897  1.00  0.00    -0.063 A  
HETATM   30  C   UNL     1      -7.845   4.357  66.578  1.00  0.00    -0.098 A  
HETATM   31  C   UNL     1      -8.528   3.674  67.583  1.00  0.00    -0.095 A  
HETATM   32  F   UNL     1      -9.514   2.831  67.249  1.00  0.00    -0.207 F  
HETATM   33  C   UNL     1      -8.200   3.841  68.920  1.00  0.00    -0.084 A  
HETATM   34  C   UNL     1      -7.180   4.722  69.242  1.00  0.00    -0.052 A  
HETATM   35  C   UNL     1      -6.480   5.413  68.254  1.00  0.00    -0.044 A  
HETATM   36  F   UNL     1      -6.850   4.906  70.527  1.00  0.00    -0.032 F  
ENDBRANCH  28  29
ENDBRANCH  24  28
ENDBRANCH  17  18
ENDBRANCH  11  14
BRANCH  12  37
HETATM   37  N   UNL     1     -11.040   8.828  69.377  1.00  0.00    -0.436 NA 
HETATM   38  H   UNL     1     -11.453   8.131  68.756  1.00  0.00     0.000 HD 
BRANCH  37  39
HETATM   39  C   UNL     1     -10.387   8.371  70.615  1.00  0.00    -0.197 C  
HETATM   40  C   UNL     1      -9.722   6.994  70.529  1.00  0.00    -0.178 C  
HETATM   41  O   UNL     1     -11.624   5.971  71.653  1.00  0.00    -0.277 OA 
HETATM   42  C   UNL     1     -12.369   7.187  71.613  1.00  0.00    -0.362 C  
HETATM   43  C   UNL     1     -11.422   8.369  71.738  1.00  0.00    -0.365 C  
HETATM   44  C   UNL     1     -10.730   5.855  70.548  1.00  0.00    -0.294 C  
ENDBRANCH  37  39
ENDBRANCH  12  37
ENDBRANCH   5   8
TORSDOF 7
ENDMDL
MODEL       43
REMARK 921   NORMALIZED FREE ENERGY PREDICTED BY IDOCK:   -6.68 KCAL/MOL
REMARK 922        TOTAL FREE ENERGY PREDICTED BY IDOCK:  -11.94 KCAL/MOL
REMARK 923 INTER-LIGAND FREE ENERGY PREDICTED BY IDOCK:   -9.45 KCAL/MOL
REMARK 924 INTRA-LIGAND FREE ENERGY PREDICTED BY IDOCK:   -2.49 KCAL/MOL
REMARK 927      BINDING AFFINITY PREDICTED BY RF-SCORE:    0.00 PKD
ROOT
HETATM    1  C   UNL     1     -12.607  16.331  72.164  1.00  0.00    -0.165 C  
HETATM    2  N   UNL     1     -13.434  15.555  71.243  1.00  0.00    -0.513 NA 
HETATM    3  C   UNL     1     -12.600  14.846  70.246  1.00  0.00    -0.313 C  
HETATM    4  C   UNL     1     -11.811  13.644  70.809  1.00  0.00    -0.087 C  
HETATM    5  N   UNL     1     -12.756  12.696  71.435  1.00  0.00    -0.315 NA 
HETATM    6  C   UNL     1     -13.541  13.312  72.514  1.00  0.00    -0.532 C  
HETATM    7  C   UNL     1     -14.273  14.566  71.966  1.00  0.00    -0.544 C  
ENDROOT
BRANCH   5   8
HETATM    8  C   UNL     1     -12.590  11.332  71.284  1.00  0.00    -0.382 A  
HETATM    9  C   UNL     1     -13.288  10.376  72.016  1.00  0.00    -0.440 A  
HETATM   10  C   UNL     1     -13.023   9.010  71.856  1.00  0.00    -0.451 A  
HETATM   11  C   UNL     1     -12.041   8.559  70.956  1.00  0.00    -0.231 A  
HETATM   12  C   UNL     1     -11.379   9.480  70.125  1.00  0.00    -0.199 A  
HETATM   13  C   UNL     1     -11.697  10.834  70.317  1.00  0.00    -0.442 A  
BRANCH  11  14
HETATM   14  C   UNL     1     -11.744   7.094  70.975  1.00  0.00    -0.320 C  
HETATM   15  H   UNL     1     -11.098   7.262  72.929  1.00  0.00     0.000 HD 
HETATM   16  O   UNL     1     -12.016   6.444  69.967  1.00  0.00    -0.333 OA 
HETATM   17  N   UNL     1     -11.219   6.606  72.157  1.00  0.00    -0.253 N  
BRANCH  17  18
HETATM   18  C   UNL     1     -10.846   5.290  72.369  1.00  0.00    -0.224 A  
HETATM   19  C   UNL     1      -9.923   4.542  71.564  1.00  0.00    -0.259 A  
HETATM   20  C   UNL     1      -9.113   4.765  70.436  1.00  0.00    -0.170 A  
HETATM   21  N   UNL     1     -11.325   4.536  73.359  1.00  0.00    -0.318 NA 
HETATM   22  N   UNL     1     -10.761   3.340  73.188  1.00  0.00    -0.175 NA 
HETATM   23  H   UNL     1     -11.982   4.814  74.088  1.00  0.00     0.000 HD 
HETATM   24  C   UNL     1      -8.384   3.706  69.855  1.00  0.00    -0.079 A  
HETATM   25  C   UNL     1      -8.460   2.428  70.422  1.00  0.00    -0.086 A  
HETATM   26  C   UNL     1      -9.940   3.258  72.099  1.00  0.00    -0.161 A  
HETATM   27  C   UNL     1      -9.232   2.181  71.562  1.00  0.00    -0.170 A  
BRANCH  24  28
HETATM   28  C   UNL     1      -7.485   3.962  68.664  1.00  0.00    -0.054 C  
BRANCH  28  29
HETATM   29  C   UNL     1      -8.024   3.543  67.310  1.00  0.00    -0.082 A  
HETATM   30  C   UNL     1      -9.230   4.021  66.776  1.00  0.00    -0.178 A  
HETATM   31  C   UNL     1      -9.633   3.653  65.492  1.00  0.00    -0.149 A  
HETATM   32  F   UNL     1     -10.778   4.141  65.000  1.00  0.00    -0.260 F  
HETATM   33  C   UNL     1      -8.865   2.802  64.713  1.00  0.00    -0.117 A  
HETATM   34  C   UNL     1      -7.686   2.305  65.246  1.00  0.00    -0.076 A  
HETATM   35  C   UNL     1      -7.262   2.663  66.525  1.00  0.00    -0.065 A  
HETATM   36  F   UNL     1      -6.931   1.474  64.514  1.00  0.00    -0.033 F  
ENDBRANCH  28  29
ENDBRANCH  24  28
ENDBRANCH  17  18
ENDBRANCH  11  14
BRANCH  12  37
HETATM   37  N   UNL     1     -10.393   9.091  69.210  1.00  0.00    -0.215 NA 
HETATM   38  H   UNL     1      -9.434   8.985  69.543  1.00  0.00     0.000 HD 
BRANCH  37  39
HETATM   39  C   UNL     1     -10.679   8.828  67.789  1.00  0.00    -0.125 C  
HETATM   40  C   UNL     1     -10.112   7.514  67.245  1.00  0.00    -0.300 C  
HETATM   41  O   UNL     1      -8.254   8.705  66.217  1.00  0.00    -0.110 OA 
HETATM   42  C   UNL     1      -8.632   9.935  66.834  1.00  0.00    -0.128 C  
HETATM   43  C   UNL     1     -10.146   9.996  66.963  1.00  0.00    -0.274 C  
HETATM   44  C   UNL     1      -8.610   7.577  67.012  1.00  0.00    -0.122 C  
ENDBRANCH  37  39
ENDBRANCH  12  37
ENDBRANCH   5   8
TORSDOF 7
ENDMDL
MODEL       44
REMARK 921   NORMALIZED FREE ENERGY PREDICTED BY IDOCK:   -6.68 KCAL/MOL
REMARK 922        TOTAL FREE ENERGY PREDICTED BY IDOCK:  -11.93 KCAL/MOL
REMARK 923 INTER-LIGAND FREE ENERGY PREDICTED BY IDOCK:  -10.29 KCAL/MOL
REMARK 924 INTRA-LIGAND FREE ENERGY PREDICTED BY IDOCK:   -1.63 KCAL/MOL
REMARK 927      BINDING AFFINITY PREDICTED BY RF-SCORE:    0.00 PKD
ROOT
HETATM    1  C   UNL     1     -10.808   4.838  74.013  1.00  0.00    -0.258 C  
HETATM    2  N   UNL     1      -9.663   5.288  73.225  1.00  0.00    -0.141 NA 
HETATM    3  C   UNL     1      -9.886   5.055  71.780  1.00  0.00    -0.177 C  
HETATM    4  C   UNL     1     -10.915   6.004  71.129  1.00  0.00    -0.278 C  
HETATM    5  N   UNL     1     -10.490   7.403  71.351  1.00  0.00    -0.203 NA 
HETATM    6  C   UNL     1     -10.357   7.733  72.777  1.00  0.00    -0.313 C  
HETATM    7  C   UNL     1      -9.381   6.729  73.448  1.00  0.00    -0.148 C  
ENDROOT
BRANCH   5   8
HETATM    8  C   UNL     1     -10.624   8.347  70.350  1.00  0.00    -0.223 A  
HETATM    9  C   UNL     1     -10.557   8.058  68.991  1.00  0.00    -0.169 A  
HETATM   10  C   UNL     1     -10.638   9.076  68.031  1.00  0.00    -0.242 A  
HETATM   11  C   UNL     1     -10.782  10.422  68.410  1.00  0.00    -0.263 A  
HETATM   12  C   UNL     1     -10.952  10.753  69.766  1.00  0.00    -0.252 A  
HETATM   13  C   UNL     1     -10.880   9.691  70.681  1.00  0.00    -0.386 A  
BRANCH  11  14
HETATM   14  C   UNL     1     -10.711  11.432  67.310  1.00  0.00    -0.241 C  
HETATM   15  H   UNL     1     -12.773  11.535  67.287  1.00  0.00     0.000 HD 
HETATM   16  O   UNL     1      -9.595  11.793  66.938  1.00  0.00    -0.187 OA 
HETATM   17  N   UNL     1     -11.927  11.891  66.840  1.00  0.00    -0.094 N  
BRANCH  17  18
HETATM   18  C   UNL     1     -12.081  12.799  65.807  1.00  0.00    -0.448 A  
HETATM   19  C   UNL     1     -11.554  14.133  65.781  1.00  0.00    -0.343 A  
HETATM   20  C   UNL     1     -10.770  14.956  66.610  1.00  0.00    -0.312 A  
HETATM   21  N   UNL     1     -12.771  12.544  64.695  1.00  0.00    -0.725 NA 
HETATM   22  N   UNL     1     -12.719  13.673  63.988  1.00  0.00    -0.626 NA 
HETATM   23  H   UNL     1     -13.238  11.673  64.441  1.00  0.00     0.000 HD 
HETATM   24  C   UNL     1     -10.532  16.304  66.266  1.00  0.00    -0.314 A  
HETATM   25  C   UNL     1     -11.071  16.815  65.078  1.00  0.00    -0.063 A  
HETATM   26  C   UNL     1     -12.042  14.688  64.602  1.00  0.00    -0.454 A  
HETATM   27  C   UNL     1     -11.828  16.013  64.217  1.00  0.00     0.005 A  
BRANCH  24  28
HETATM   28  C   UNL     1      -9.656  17.172  67.144  1.00  0.00    -0.255 C  
BRANCH  28  29
HETATM   29  C   UNL     1      -8.384  16.534  67.669  1.00  0.00    -0.175 A  
HETATM   30  C   UNL     1      -7.906  15.289  67.234  1.00  0.00    -0.240 A  
HETATM   31  C   UNL     1      -6.690  14.793  67.704  1.00  0.00    -0.176 A  
HETATM   32  F   UNL     1      -6.248  13.612  67.255  1.00  0.00    -0.150 F  
HETATM   33  C   UNL     1      -5.927  15.504  68.616  1.00  0.00    -0.097 A  
HETATM   34  C   UNL     1      -6.407  16.722  69.070  1.00  0.00    -0.187 A  
HETATM   35  C   UNL     1      -7.618  17.240  68.611  1.00  0.00    -0.260 A  
HETATM   36  F   UNL     1      -5.690  17.423  69.959  1.00  0.00    -0.202 F  
ENDBRANCH  28  29
ENDBRANCH  24  28
ENDBRANCH  17  18
ENDBRANCH  11  14
BRANCH  12  37
HETATM   37  N   UNL     1     -11.100  12.076  70.202  1.00  0.00    -0.280 NA 
HETATM   38  H   UNL     1     -10.297  12.543  70.624  1.00  0.00     0.000 HD 
BRANCH  37  39
HETATM   39  C   UNL     1     -12.365  12.821  70.080  1.00  0.00    -0.165 C  
HETATM   40  C   UNL     1     -12.237  14.222  69.474  1.00  0.00    -0.341 C  
HETATM   41  O   UNL     1     -12.348  15.224  71.690  1.00  0.00    -0.310 OA 
HETATM   42  C   UNL     1     -12.298  13.949  72.327  1.00  0.00     0.099 C  
HETATM   43  C   UNL     1     -13.006  12.919  71.463  1.00  0.00    -0.388 C  
HETATM   44  C   UNL     1     -11.647  15.229  70.449  1.00  0.00    -0.308 C  
ENDBRANCH  37  39
ENDBRANCH  12  37
ENDBRANCH   5   8
TORSDOF 7
ENDMDL
MODEL       45
REMARK 921   NORMALIZED FREE ENERGY PREDICTED BY IDOCK:   -6.66 KCAL/MOL
REMARK 922        TOTAL FREE ENERGY PREDICTED BY IDOCK:  -11.90 KCAL/MOL
REMARK 923 INTER-LIGAND FREE ENERGY PREDICTED BY IDOCK:   -9.69 KCAL/MOL
REMARK 924 INTRA-LIGAND FREE ENERGY PREDICTED BY IDOCK:   -2.21 KCAL/MOL
REMARK 927      BINDING AFFINITY PREDICTED BY RF-SCORE:    0.00 PKD
ROOT
HETATM    1  C   UNL     1      -9.983   1.931  74.554  1.00  0.00    -0.106 C  
HETATM    2  N   UNL     1     -11.000   2.298  73.572  1.00  0.00    -0.174 NA 
HETATM    3  C   UNL     1     -11.136   3.769  73.470  1.00  0.00    -0.234 C  
HETATM    4  C   UNL     1      -9.961   4.473  72.759  1.00  0.00    -0.160 C  
HETATM    5  N   UNL     1      -9.793   3.893  71.410  1.00  0.00    -0.187 NA 
HETATM    6  C   UNL     1      -9.543   2.445  71.447  1.00  0.00    -0.154 C  
HETATM    7  C   UNL     1     -10.686   1.745  72.230  1.00  0.00     0.039 C  
ENDROOT
BRANCH   5   8
HETATM    8  C   UNL     1      -9.498   4.698  70.327  1.00  0.00    -0.170 A  
HETATM    9  C   UNL     1      -8.516   4.410  69.384  1.00  0.00    -0.091 A  
HETATM   10  C   UNL     1      -8.227   5.304  68.345  1.00  0.00    -0.090 A  
HETATM   11  C   UNL     1      -8.915   6.524  68.224  1.00  0.00    -0.121 A  
HETATM   12  C   UNL     1      -9.981   6.816  69.092  1.00  0.00    -0.159 A  
HETATM   13  C   UNL     1     -10.237   5.876  70.103  1.00  0.00    -0.281 A  
BRANCH  11  14
HETATM   14  C   UNL     1      -8.424   7.460  67.167  1.00  0.00    -0.118 C  
HETATM   15  H   UNL     1     -10.283   7.404  66.270  1.00  0.00     0.000 HD 
HETATM   16  O   UNL     1      -7.271   7.879  67.265  1.00  0.00    -0.086 OA 
HETATM   17  N   UNL     1      -9.342   7.793  66.189  1.00  0.00    -0.143 N  
BRANCH  17  18
HETATM   18  C   UNL     1      -9.080   8.615  65.107  1.00  0.00     0.017 A  
HETATM   19  C   UNL     1      -9.701   9.882  64.848  1.00  0.00    -0.332 A  
HETATM   20  C   UNL     1     -10.649  10.717  65.466  1.00  0.00    -0.205 A  
HETATM   21  N   UNL     1      -8.211   8.311  64.142  1.00  0.00    -0.297 NA 
HETATM   22  N   UNL     1      -8.285   9.324  63.278  1.00  0.00    -0.164 NA 
HETATM   23  H   UNL     1      -7.618   7.483  64.079  1.00  0.00     0.000 HD 
HETATM   24  C   UNL     1     -11.093  11.895  64.827  1.00  0.00    -0.367 A  
HETATM   25  C   UNL     1     -10.568  12.235  63.574  1.00  0.00    -0.488 A  
HETATM   26  C   UNL     1      -9.197  10.283  63.615  1.00  0.00    -0.280 A  
HETATM   27  C   UNL     1      -9.601  11.441  62.948  1.00  0.00    -0.366 A  
BRANCH  24  28
HETATM   28  C   UNL     1     -12.085  12.809  65.514  1.00  0.00    -0.517 C  
BRANCH  28  29
HETATM   29  C   UNL     1     -11.505  13.996  66.258  1.00  0.00    -0.358 A  
HETATM   30  C   UNL     1     -11.852  14.329  67.576  1.00  0.00    -0.429 A  
HETATM   31  C   UNL     1     -11.225  15.391  68.228  1.00  0.00    -0.323 A  
HETATM   32  F   UNL     1     -11.562  15.673  69.493  1.00  0.00    -0.268 F  
HETATM   33  C   UNL     1     -10.254  16.151  67.596  1.00  0.00    -0.265 A  
HETATM   34  C   UNL     1      -9.926  15.844  66.285  1.00  0.00    -0.298 A  
HETATM   35  C   UNL     1     -10.536  14.785  65.615  1.00  0.00    -0.353 A  
HETATM   36  F   UNL     1      -8.996  16.571  65.651  1.00  0.00    -0.287 F  
ENDBRANCH  28  29
ENDBRANCH  24  28
ENDBRANCH  17  18
ENDBRANCH  11  14
BRANCH  12  37
HETATM   37  N   UNL     1     -10.702   8.014  69.019  1.00  0.00    -0.392 NA 
HETATM   38  H   UNL     1     -11.293   8.178  68.204  1.00  0.00     0.000 HD 
BRANCH  37  39
HETATM   39  C   UNL     1     -10.645   9.047  70.068  1.00  0.00    -0.228 C  
HETATM   40  C   UNL     1     -11.754  10.101  70.003  1.00  0.00    -0.294 C  
HETATM   41  O   UNL     1     -10.232  11.683  68.949  1.00  0.00    -0.198 OA 
HETATM   42  C   UNL     1      -9.210  10.697  68.823  1.00  0.00    -0.180 C  
HETATM   43  C   UNL     1      -9.283   9.734  69.998  1.00  0.00    -0.266 C  
HETATM   44  C   UNL     1     -11.537  11.111  68.886  1.00  0.00    -0.317 C  
ENDBRANCH  37  39
ENDBRANCH  12  37
ENDBRANCH   5   8
TORSDOF 7
ENDMDL
MODEL       46
REMARK 921   NORMALIZED FREE ENERGY PREDICTED BY IDOCK:   -6.63 KCAL/MOL
REMARK 922        TOTAL FREE ENERGY PREDICTED BY IDOCK:  -11.87 KCAL/MOL
REMARK 923 INTER-LIGAND FREE ENERGY PREDICTED BY IDOCK:   -9.77 KCAL/MOL
REMARK 924 INTRA-LIGAND FREE ENERGY PREDICTED BY IDOCK:   -2.10 KCAL/MOL
REMARK 927      BINDING AFFINITY PREDICTED BY RF-SCORE:    0.00 PKD
ROOT
HETATM    1  C   UNL     1      -7.158  19.851  67.112  1.00  0.00    -0.224 C  
HETATM    2  N   UNL     1      -6.569  18.548  66.812  1.00  0.00    -0.183 NA 
HETATM    3  C   UNL     1      -6.347  17.765  68.049  1.00  0.00    -0.176 C  
HETATM    4  C   UNL     1      -7.634  17.216  68.698  1.00  0.00    -0.258 C  
HETATM    5  N   UNL     1      -8.362  16.393  67.710  1.00  0.00    -0.164 NA 
HETATM    6  C   UNL     1      -8.712  17.146  66.497  1.00  0.00    -0.261 C  
HETATM    7  C   UNL     1      -7.425  17.764  65.886  1.00  0.00    -0.165 C  
ENDROOT
BRANCH   5   8
HETATM    8  C   UNL     1      -8.976  15.214  68.088  1.00  0.00    -0.174 A  
HETATM    9  C   UNL     1      -8.480  13.947  67.795  1.00  0.00    -0.183 A  
HETATM   10  C   UNL     1      -9.188  12.793  68.156  1.00  0.00    -0.212 A  
HETATM   11  C   UNL     1     -10.425  12.877  68.819  1.00  0.00    -0.183 A  
HETATM   12  C   UNL     1     -10.919  14.129  69.222  1.00  0.00    -0.220 A  
HETATM   13  C   UNL     1     -10.159  15.249  68.850  1.00  0.00    -0.225 A  
BRANCH  11  14
HETATM   14  C   UNL     1     -11.157  11.589  69.023  1.00  0.00    -0.245 C  
HETATM   15  H   UNL     1      -9.721  11.002  70.385  1.00  0.00     0.000 HD 
HETATM   16  O   UNL     1     -12.215  11.431  68.416  1.00  0.00    -0.571 OA 
HETATM   17  N   UNL     1     -10.578  10.707  69.916  1.00  0.00    -0.207 N  
BRANCH  17  18
HETATM   18  C   UNL     1     -11.076   9.452  70.220  1.00  0.00    -0.257 A  
HETATM   19  C   UNL     1     -10.511   8.203  69.796  1.00  0.00    -0.227 A  
HETATM   20  C   UNL     1      -9.399   7.766  69.054  1.00  0.00    -0.150 A  
HETATM   21  N   UNL     1     -12.177   9.249  70.943  1.00  0.00    -0.434 NA 
HETATM   22  N   UNL     1     -12.339   7.926  70.965  1.00  0.00    -0.222 NA 
HETATM   23  H   UNL     1     -12.769   9.955  71.384  1.00  0.00     0.000 HD 
HETATM   24  C   UNL     1      -9.226   6.397  68.759  1.00  0.00    -0.127 A  
HETATM   25  C   UNL     1     -10.166   5.470  69.227  1.00  0.00    -0.315 A  
HETATM   26  C   UNL     1     -11.398   7.234  70.256  1.00  0.00    -0.238 A  
HETATM   27  C   UNL     1     -11.265   5.870  69.994  1.00  0.00    -0.341 A  
BRANCH  24  28
HETATM   28  C   UNL     1      -8.007   5.929  67.993  1.00  0.00    -0.105 C  
BRANCH  28  29
HETATM   29  C   UNL     1      -8.038   6.128  66.490  1.00  0.00    -0.110 A  
HETATM   30  C   UNL     1      -7.544   7.276  65.850  1.00  0.00    -0.090 A  
HETATM   31  C   UNL     1      -7.536   7.364  64.459  1.00  0.00    -0.095 A  
HETATM   32  F   UNL     1      -7.039   8.462  63.875  1.00  0.00    -0.081 F  
HETATM   33  C   UNL     1      -8.021   6.333  63.669  1.00  0.00    -0.090 A  
HETATM   34  C   UNL     1      -8.536   5.209  64.295  1.00  0.00    -0.131 A  
HETATM   35  C   UNL     1      -8.550   5.097  65.685  1.00  0.00    -0.139 A  
HETATM   36  F   UNL     1      -9.018   4.204  63.552  1.00  0.00    -0.106 F  
ENDBRANCH  28  29
ENDBRANCH  24  28
ENDBRANCH  17  18
ENDBRANCH  11  14
BRANCH  12  37
HETATM   37  N   UNL     1     -12.145  14.275  69.885  1.00  0.00    -0.329 NA 
HETATM   38  H   UNL     1     -12.932  14.671  69.373  1.00  0.00     0.000 HD 
BRANCH  37  39
HETATM   39  C   UNL     1     -12.345  13.880  71.290  1.00  0.00    -0.335 C  
HETATM   40  C   UNL     1     -13.804  13.853  71.755  1.00  0.00    -0.443 C  
HETATM   41  O   UNL     1     -13.530  16.014  72.841  1.00  0.00    -0.533 OA 
HETATM   42  C   UNL     1     -12.222  16.181  72.298  1.00  0.00    -0.496 C  
HETATM   43  C   UNL     1     -11.542  14.826  72.180  1.00  0.00    -0.142 C  
HETATM   44  C   UNL     1     -14.371  15.245  71.984  1.00  0.00    -0.589 C  
ENDBRANCH  37  39
ENDBRANCH  12  37
ENDBRANCH   5   8
TORSDOF 7
ENDMDL
MODEL       47
REMARK 921   NORMALIZED FREE ENERGY PREDICTED BY IDOCK:   -6.63 KCAL/MOL
REMARK 922        TOTAL FREE ENERGY PREDICTED BY IDOCK:  -11.87 KCAL/MOL
REMARK 923 INTER-LIGAND FREE ENERGY PREDICTED BY IDOCK:   -9.23 KCAL/MOL
REMARK 924 INTRA-LIGAND FREE ENERGY PREDICTED BY IDOCK:   -2.63 KCAL/MOL
REMARK 927      BINDING AFFINITY PREDICTED BY RF-SCORE:    0.00 PKD
ROOT
HETATM    1  C   UNL     1     -10.777  17.262  67.760  1.00  0.00    -0.333 C  
HETATM    2  N   UNL     1     -10.945  16.337  68.878  1.00  0.00    -0.314 NA 
HETATM    3  C   UNL     1     -11.833  15.211  68.509  1.00  0.00    -0.281 C  
HETATM    4  C   UNL     1     -11.200  14.186  67.544  1.00  0.00    -0.306 C  
HETATM    5  N   UNL     1      -9.953  13.665  68.141  1.00  0.00    -0.240 NA 
HETATM    6  C   UNL     1      -8.979  14.727  68.430  1.00  0.00    -0.187 C  
HETATM    7  C   UNL     1      -9.641  15.797  69.339  1.00  0.00    -0.284 C  
ENDROOT
BRANCH   5   8
HETATM    8  C   UNL     1      -9.624  12.327  68.032  1.00  0.00    -0.206 A  
HETATM    9  C   UNL     1      -8.533  11.848  67.313  1.00  0.00    -0.172 A  
HETATM   10  C   UNL     1      -8.295  10.473  67.192  1.00  0.00    -0.127 A  
HETATM   11  C   UNL     1      -9.154   9.531  67.787  1.00  0.00    -0.133 A  
HETATM   12  C   UNL     1     -10.212   9.967  68.603  1.00  0.00    -0.180 A  
HETATM   13  C   UNL     1     -10.392  11.356  68.702  1.00  0.00    -0.219 A  
BRANCH  11  14
HETATM   14  C   UNL     1      -8.886   8.095  67.471  1.00  0.00    -0.135 C  
HETATM   15  H   UNL     1     -10.905   7.797  67.161  1.00  0.00     0.000 HD 
HETATM   16  O   UNL     1      -7.714   7.720  67.471  1.00  0.00    -0.112 OA 
HETATM   17  N   UNL     1      -9.998   7.330  67.171  1.00  0.00    -0.195 N  
BRANCH  17  18
HETATM   18  C   UNL     1      -9.970   5.977  66.885  1.00  0.00    -0.169 A  
HETATM   19  C   UNL     1      -9.548   4.940  67.782  1.00  0.00    -0.184 A  
HETATM   20  C   UNL     1      -9.092   4.839  69.109  1.00  0.00    -0.155 A  
HETATM   21  N   UNL     1     -10.321   5.464  65.705  1.00  0.00    -0.436 NA 
HETATM   22  N   UNL     1     -10.110   4.152  65.821  1.00  0.00    -0.196 NA 
HETATM   23  H   UNL     1     -10.674   5.966  64.890  1.00  0.00     0.000 HD 
HETATM   24  C   UNL     1      -8.666   3.598  69.629  1.00  0.00    -0.127 A  
HETATM   25  C   UNL     1      -8.717   2.459  68.816  1.00  0.00    -0.129 A  
HETATM   26  C   UNL     1      -9.600   3.771  67.030  1.00  0.00    -0.180 A  
HETATM   27  C   UNL     1      -9.195   2.521  67.503  1.00  0.00    -0.207 A  
BRANCH  24  28
HETATM   28  C   UNL     1      -8.212   3.489  71.070  1.00  0.00    -0.079 C  
BRANCH  28  29
HETATM   29  C   UNL     1      -8.968   4.330  72.080  1.00  0.00    -0.142 A  
HETATM   30  C   UNL     1      -8.428   5.468  72.699  1.00  0.00    -0.117 A  
HETATM   31  C   UNL     1      -9.203   6.239  73.564  1.00  0.00    -0.131 A  
HETATM   32  F   UNL     1      -8.668   7.332  74.124  1.00  0.00    -0.177 F  
HETATM   33  C   UNL     1     -10.518   5.904  73.846  1.00  0.00    -0.288 A  
HETATM   34  C   UNL     1     -11.048   4.766  73.259  1.00  0.00    -0.333 A  
HETATM   35  C   UNL     1     -10.293   3.982  72.388  1.00  0.00    -0.207 A  
HETATM   36  F   UNL     1     -12.314   4.417  73.523  1.00  0.00    -0.200 F  
ENDBRANCH  28  29
ENDBRANCH  24  28
ENDBRANCH  17  18
ENDBRANCH  11  14
BRANCH  12  37
HETATM   37  N   UNL     1     -11.100   9.077  69.221  1.00  0.00    -0.437 NA 
HETATM   38  H   UNL     1     -12.048   8.999  68.852  1.00  0.00     0.000 HD 
BRANCH  37  39
HETATM   39  C   UNL     1     -10.724   8.248  70.379  1.00  0.00    -0.232 C  
HETATM   40  C   UNL     1     -11.561   6.980  70.570  1.00  0.00    -0.364 C  
HETATM   41  O   UNL     1     -12.872   8.070  72.307  1.00  0.00    -0.273 OA 
HETATM   42  C   UNL     1     -12.249   9.329  72.063  1.00  0.00    -0.348 C  
HETATM   43  C   UNL     1     -10.805   9.108  71.638  1.00  0.00    -0.442 C  
HETATM   44  C   UNL     1     -12.945   7.271  71.128  1.00  0.00    -0.259 C  
ENDBRANCH  37  39
ENDBRANCH  12  37
ENDBRANCH   5   8
TORSDOF 7
ENDMDL
MODEL       48
REMARK 921   NORMALIZED FREE ENERGY PREDICTED BY IDOCK:   -6.61 KCAL/MOL
REMARK 922        TOTAL FREE ENERGY PREDICTED BY IDOCK:  -11.84 KCAL/MOL
REMARK 923 INTER-LIGAND FREE ENERGY PREDICTED BY IDOCK:  -10.01 KCAL/MOL
REMARK 924 INTRA-LIGAND FREE ENERGY PREDICTED BY IDOCK:   -1.82 KCAL/MOL
REMARK 927      BINDING AFFINITY PREDICTED BY RF-SCORE:    0.00 PKD
ROOT
HETATM    1  C   UNL     1      -7.033  19.929  67.253  1.00  0.00    -0.224 C  
HETATM    2  N   UNL     1      -6.464  18.599  67.055  1.00  0.00    -0.186 NA 
HETATM    3  C   UNL     1      -6.373  17.862  68.337  1.00  0.00    -0.191 C  
HETATM    4  C   UNL     1      -7.728  17.378  68.895  1.00  0.00    -0.209 C  
HETATM    5  N   UNL     1      -8.396  16.536  67.881  1.00  0.00    -0.171 NA 
HETATM    6  C   UNL     1      -8.617  17.247  66.614  1.00  0.00    -0.257 C  
HETATM    7  C   UNL     1      -7.264  17.801  66.092  1.00  0.00    -0.311 C  
ENDROOT
BRANCH   5   8
HETATM    8  C   UNL     1      -9.078  15.392  68.252  1.00  0.00    -0.187 A  
HETATM    9  C   UNL     1      -8.668  14.101  67.931  1.00  0.00    -0.182 A  
HETATM   10  C   UNL     1      -9.443  12.989  68.286  1.00  0.00    -0.208 A  
HETATM   11  C   UNL     1     -10.662  13.140  68.971  1.00  0.00    -0.144 A  
HETATM   12  C   UNL     1     -11.068  14.415  69.401  1.00  0.00    -0.261 A  
HETATM   13  C   UNL     1     -10.244  15.491  69.033  1.00  0.00    -0.229 A  
BRANCH  11  14
HETATM   14  C   UNL     1     -11.471  11.899  69.168  1.00  0.00    -0.296 C  
HETATM   15  H   UNL     1     -10.689  11.704  71.068  1.00  0.00     0.000 HD 
HETATM   16  O   UNL     1     -12.223  11.557  68.256  1.00  0.00    -0.561 OA 
HETATM   17  N   UNL     1     -11.314  11.270  70.389  1.00  0.00    -0.123 N  
BRANCH  17  18
HETATM   18  C   UNL     1     -11.944  10.094  70.756  1.00  0.00    -0.348 A  
HETATM   19  C   UNL     1     -11.287   8.876  71.134  1.00  0.00    -0.357 A  
HETATM   20  C   UNL     1      -9.967   8.418  71.301  1.00  0.00    -0.261 A  
HETATM   21  N   UNL     1     -13.268   9.943  70.785  1.00  0.00    -0.602 NA 
HETATM   22  N   UNL     1     -13.464   8.672  71.139  1.00  0.00    -0.101 NA 
HETATM   23  H   UNL     1     -13.978  10.647  70.581  1.00  0.00     0.000 HD 
HETATM   24  C   UNL     1      -9.711   7.064  71.605  1.00  0.00    -0.164 A  
HETATM   25  C   UNL     1     -10.785   6.178  71.755  1.00  0.00    -0.289 A  
HETATM   26  C   UNL     1     -12.315   7.957  71.320  1.00  0.00    -0.281 A  
HETATM   27  C   UNL     1     -12.109   6.610  71.626  1.00  0.00    -0.404 A  
BRANCH  24  28
HETATM   28  C   UNL     1      -8.290   6.586  71.821  1.00  0.00    -0.116 C  
BRANCH  28  29
HETATM   29  C   UNL     1      -7.191   7.448  71.230  1.00  0.00    -0.067 A  
HETATM   30  C   UNL     1      -6.676   7.268  69.937  1.00  0.00    -0.051 A  
HETATM   31  C   UNL     1      -5.717   8.143  69.428  1.00  0.00    -0.030 A  
HETATM   32  F   UNL     1      -5.258   7.960  68.184  1.00  0.00    -0.027 F  
HETATM   33  C   UNL     1      -5.240   9.205  70.180  1.00  0.00    -0.028 A  
HETATM   34  C   UNL     1      -5.726   9.373  71.467  1.00  0.00    -0.074 A  
HETATM   35  C   UNL     1      -6.687   8.512  71.996  1.00  0.00    -0.087 A  
HETATM   36  F   UNL     1      -5.272  10.387  72.216  1.00  0.00    -0.086 F  
ENDBRANCH  28  29
ENDBRANCH  24  28
ENDBRANCH  17  18
ENDBRANCH  11  14
BRANCH  12  37
HETATM   37  N   UNL     1     -12.271  14.627  70.088  1.00  0.00    -0.318 NA 
HETATM   38  H   UNL     1     -13.013  15.150  69.621  1.00  0.00     0.000 HD 
BRANCH  37  39
HETATM   39  C   UNL     1     -12.511  14.129  71.453  1.00  0.00    -0.359 C  
HETATM   40  C   UNL     1     -13.954  14.264  71.949  1.00  0.00    -0.566 C  
HETATM   41  O   UNL     1     -13.360  16.247  73.230  1.00  0.00    -0.492 OA 
HETATM   42  C   UNL     1     -12.048  16.279  72.672  1.00  0.00    -0.534 C  
HETATM   43  C   UNL     1     -11.572  14.860  72.409  1.00  0.00    -0.245 C  
HETATM   44  C   UNL     1     -14.312  15.694  72.323  1.00  0.00    -0.390 C  
ENDBRANCH  37  39
ENDBRANCH  12  37
ENDBRANCH   5   8
TORSDOF 7
ENDMDL
MODEL       49
REMARK 921   NORMALIZED FREE ENERGY PREDICTED BY IDOCK:   -6.58 KCAL/MOL
REMARK 922        TOTAL FREE ENERGY PREDICTED BY IDOCK:  -11.80 KCAL/MOL
REMARK 923 INTER-LIGAND FREE ENERGY PREDICTED BY IDOCK:   -9.43 KCAL/MOL
REMARK 924 INTRA-LIGAND FREE ENERGY PREDICTED BY IDOCK:   -2.36 KCAL/MOL
REMARK 927      BINDING AFFINITY PREDICTED BY RF-SCORE:    0.00 PKD
ROOT
HETATM    1  C   UNL     1     -10.729   2.805  73.020  1.00  0.00    -0.131 C  
HETATM    2  N   UNL     1     -10.470   4.091  73.663  1.00  0.00    -0.166 NA 
HETATM    3  C   UNL     1      -9.040   4.461  73.558  1.00  0.00    -0.105 C  
HETATM    4  C   UNL     1      -8.593   4.893  72.145  1.00  0.00    -0.124 C  
HETATM    5  N   UNL     1      -9.436   6.019  71.693  1.00  0.00    -0.149 NA 
HETATM    6  C   UNL     1     -10.866   5.679  71.669  1.00  0.00    -0.237 C  
HETATM    7  C   UNL     1     -11.298   5.172  73.071  1.00  0.00    -0.309 C  
ENDROOT
BRANCH   5   8
HETATM    8  C   UNL     1      -8.884   7.080  71.000  1.00  0.00    -0.146 A  
HETATM    9  C   UNL     1      -8.662   8.339  71.548  1.00  0.00    -0.208 A  
HETATM   10  C   UNL     1      -8.157   9.387  70.767  1.00  0.00    -0.157 A  
HETATM   11  C   UNL     1      -7.864   9.204  69.404  1.00  0.00    -0.095 A  
HETATM   12  C   UNL     1      -7.980   7.926  68.830  1.00  0.00    -0.123 A  
HETATM   13  C   UNL     1      -8.474   6.910  69.664  1.00  0.00    -0.133 A  
BRANCH  11  14
HETATM   14  C   UNL     1      -7.470  10.426  68.639  1.00  0.00    -0.088 C  
HETATM   15  H   UNL     1      -8.703  11.563  69.842  1.00  0.00     0.000 HD 
HETATM   16  O   UNL     1      -6.636  10.295  67.744  1.00  0.00    -0.065 OA 
HETATM   17  N   UNL     1      -8.067  11.604  69.045  1.00  0.00     0.005 N  
BRANCH  17  18
HETATM   18  C   UNL     1      -7.864  12.837  68.450  1.00  0.00    -0.132 A  
HETATM   19  C   UNL     1      -8.803  13.922  68.434  1.00  0.00    -0.177 A  
HETATM   20  C   UNL     1     -10.087  14.191  68.939  1.00  0.00    -0.155 A  
HETATM   21  N   UNL     1      -6.755  13.164  67.788  1.00  0.00    -0.133 NA 
HETATM   22  N   UNL     1      -6.973  14.399  67.335  1.00  0.00    -0.221 NA 
HETATM   23  H   UNL     1      -5.919  12.593  67.656  1.00  0.00     0.000 HD 
HETATM   24  C   UNL     1     -10.749  15.395  68.617  1.00  0.00    -0.246 A  
HETATM   25  C   UNL     1     -10.107  16.333  67.798  1.00  0.00    -0.252 A  
HETATM   26  C   UNL     1      -8.205  14.901  67.646  1.00  0.00    -0.172 A  
HETATM   27  C   UNL     1      -8.817  16.109  67.306  1.00  0.00    -0.202 A  
BRANCH  24  28
HETATM   28  C   UNL     1     -12.116  15.693  69.195  1.00  0.00    -0.249 C  
BRANCH  28  29
HETATM   29  C   UNL     1     -12.327  15.326  70.652  1.00  0.00    -0.427 A  
HETATM   30  C   UNL     1     -11.900  16.127  71.722  1.00  0.00    -0.581 A  
HETATM   31  C   UNL     1     -12.191  15.766  73.037  1.00  0.00    -0.488 A  
HETATM   32  F   UNL     1     -11.789  16.560  74.038  1.00  0.00    -0.442 F  
HETATM   33  C   UNL     1     -12.897  14.610  73.327  1.00  0.00    -0.580 A  
HETATM   34  C   UNL     1     -13.299  13.801  72.276  1.00  0.00    -0.521 A  
HETATM   35  C   UNL     1     -13.022  14.143  70.953  1.00  0.00    -0.374 A  
HETATM   36  F   UNL     1     -13.975  12.674  72.533  1.00  0.00    -0.578 F  
ENDBRANCH  28  29
ENDBRANCH  24  28
ENDBRANCH  17  18
ENDBRANCH  11  14
BRANCH  12  37
HETATM   37  N   UNL     1      -7.703   7.682  67.479  1.00  0.00    -0.115 NA 
HETATM   38  H   UNL     1      -6.743   7.795  67.150  1.00  0.00     0.000 HD 
BRANCH  37  39
HETATM   39  C   UNL     1      -8.734   7.269  66.513  1.00  0.00    -0.133 C  
HETATM   40  C   UNL     1      -8.236   7.058  65.080  1.00  0.00    -0.113 C  
HETATM   41  O   UNL     1      -9.097   9.240  64.428  1.00  0.00    -0.189 OA 
HETATM   42  C   UNL     1      -9.431   9.570  65.774  1.00  0.00    -0.250 C  
HETATM   43  C   UNL     1      -9.850   8.312  66.518  1.00  0.00    -0.323 C  
HETATM   44  C   UNL     1      -7.970   8.369  64.355  1.00  0.00    -0.148 C  
ENDBRANCH  37  39
ENDBRANCH  12  37
ENDBRANCH   5   8
TORSDOF 7
ENDMDL
MODEL       50
REMARK 921   NORMALIZED FREE ENERGY PREDICTED BY IDOCK:   -6.50 KCAL/MOL
REMARK 922        TOTAL FREE ENERGY PREDICTED BY IDOCK:  -11.69 KCAL/MOL
REMARK 923 INTER-LIGAND FREE ENERGY PREDICTED BY IDOCK:   -9.43 KCAL/MOL
REMARK 924 INTRA-LIGAND FREE ENERGY PREDICTED BY IDOCK:   -2.26 KCAL/MOL
REMARK 927      BINDING AFFINITY PREDICTED BY RF-SCORE:    0.00 PKD
ROOT
HETATM    1  C   UNL     1      -6.755   2.333  67.806  1.00  0.00    -0.039 C  
HETATM    2  N   UNL     1      -7.367   3.214  66.815  1.00  0.00    -0.073 NA 
HETATM    3  C   UNL     1      -8.397   4.079  67.433  1.00  0.00    -0.098 C  
HETATM    4  C   UNL     1      -7.836   5.205  68.327  1.00  0.00    -0.087 C  
HETATM    5  N   UNL     1      -6.900   6.031  67.535  1.00  0.00    -0.061 NA 
HETATM    6  C   UNL     1      -5.786   5.247  66.982  1.00  0.00    -0.018 C  
HETATM    7  C   UNL     1      -6.353   4.068  66.146  1.00  0.00    -0.033 C  
ENDROOT
BRANCH   5   8
HETATM    8  C   UNL     1      -6.880   7.405  67.675  1.00  0.00    -0.078 A  
HETATM    9  C   UNL     1      -5.823   8.216  67.271  1.00  0.00    -0.042 A  
HETATM   10  C   UNL     1      -5.843   9.597  67.501  1.00  0.00    -0.047 A  
HETATM   11  C   UNL     1      -6.927  10.210  68.154  1.00  0.00    -0.075 A  
HETATM   12  C   UNL     1      -8.060   9.450  68.493  1.00  0.00    -0.105 A  
HETATM   13  C   UNL     1      -7.991   8.073  68.223  1.00  0.00    -0.128 A  
BRANCH  11  14
HETATM   14  C   UNL     1      -6.775  11.662  68.475  1.00  0.00    -0.069 C  
HETATM   15  H   UNL     1      -8.030  12.129  66.904  1.00  0.00     0.000 HD 
HETATM   16  O   UNL     1      -6.090  11.962  69.452  1.00  0.00    -0.077 OA 
HETATM   17  N   UNL     1      -7.458  12.532  67.646  1.00  0.00    -0.126 N  
BRANCH  17  18
HETATM   18  C   UNL     1      -7.423  13.912  67.751  1.00  0.00    -0.167 A  
HETATM   19  C   UNL     1      -8.529  14.753  68.107  1.00  0.00    -0.149 A  
HETATM   20  C   UNL     1      -9.879  14.593  68.470  1.00  0.00    -0.228 A  
HETATM   21  N   UNL     1      -6.335  14.644  67.508  1.00  0.00    -0.324 NA 
HETATM   22  N   UNL     1      -6.724  15.908  67.671  1.00  0.00    -0.154 NA 
HETATM   23  H   UNL     1      -5.405  14.308  67.253  1.00  0.00     0.000 HD 
HETATM   24  C   UNL     1     -10.709  15.718  68.661  1.00  0.00    -0.263 A  
HETATM   25  C   UNL     1     -10.173  17.002  68.502  1.00  0.00    -0.324 A  
HETATM   26  C   UNL     1      -8.046  16.052  67.986  1.00  0.00    -0.145 A  
HETATM   27  C   UNL     1      -8.827  17.194  68.171  1.00  0.00    -0.237 A  
BRANCH  24  28
HETATM   28  C   UNL     1     -12.150  15.539  69.090  1.00  0.00    -0.266 C  
BRANCH  28  29
HETATM   29  C   UNL     1     -12.393  15.339  70.573  1.00  0.00    -0.434 A  
HETATM   30  C   UNL     1     -11.890  16.198  71.562  1.00  0.00    -0.528 A  
HETATM   31  C   UNL     1     -12.212  15.999  72.904  1.00  0.00    -0.517 A  
HETATM   32  F   UNL     1     -11.734  16.846  73.825  1.00  0.00    -0.428 F  
HETATM   33  C   UNL     1     -13.026  14.950  73.302  1.00  0.00    -0.635 A  
HETATM   34  C   UNL     1     -13.504  14.083  72.332  1.00  0.00    -0.539 A  
HETATM   35  C   UNL     1     -13.198  14.264  70.984  1.00  0.00    -0.367 A  
HETATM   36  F   UNL     1     -14.285  13.056  72.694  1.00  0.00    -0.587 F  
ENDBRANCH  28  29
ENDBRANCH  24  28
ENDBRANCH  17  18
ENDBRANCH  11  14
BRANCH  12  37
HETATM   37  N   UNL     1      -9.169  10.005  69.144  1.00  0.00    -0.179 NA 
HETATM   38  H   UNL     1      -9.010  10.709  69.864  1.00  0.00     0.000 HD 
BRANCH  37  39
HETATM   39  C   UNL     1     -10.556   9.615  68.834  1.00  0.00    -0.217 C  
HETATM   40  C   UNL     1     -11.483  10.770  68.446  1.00  0.00    -0.358 C  
HETATM   41  O   UNL     1     -12.437  10.798  70.685  1.00  0.00    -0.317 OA 
HETATM   42  C   UNL     1     -11.488   9.845  71.159  1.00  0.00    -0.383 C  
HETATM   43  C   UNL     1     -11.134   8.878  70.039  1.00  0.00    -0.180 C  
HETATM   44  C   UNL     1     -11.904  11.610  69.642  1.00  0.00    -0.352 C  
ENDBRANCH  37  39
ENDBRANCH  12  37
ENDBRANCH   5   8
TORSDOF 7
ENDMDL
MODEL       51
REMARK 921   NORMALIZED FREE ENERGY PREDICTED BY IDOCK:   -6.49 KCAL/MOL
REMARK 922        TOTAL FREE ENERGY PREDICTED BY IDOCK:  -11.66 KCAL/MOL
REMARK 923 INTER-LIGAND FREE ENERGY PREDICTED BY IDOCK:   -9.29 KCAL/MOL
REMARK 924 INTRA-LIGAND FREE ENERGY PREDICTED BY IDOCK:   -2.38 KCAL/MOL
REMARK 927      BINDING AFFINITY PREDICTED BY RF-SCORE:    0.00 PKD
ROOT
HETATM    1  C   UNL     1     -10.422  17.673  66.751  1.00  0.00    -0.289 C  
HETATM    2  N   UNL     1      -9.817  16.878  65.685  1.00  0.00    -0.570 NA 
HETATM    3  C   UNL     1      -8.707  16.046  66.205  1.00  0.00    -0.313 C  
HETATM    4  C   UNL     1      -9.155  14.848  67.069  1.00  0.00    -0.237 C  
HETATM    5  N   UNL     1     -10.085  14.008  66.286  1.00  0.00    -0.291 NA 
HETATM    6  C   UNL     1     -11.270  14.750  65.832  1.00  0.00    -0.340 C  
HETATM    7  C   UNL     1     -10.817  15.998  65.028  1.00  0.00    -0.404 C  
ENDROOT
BRANCH   5   8
HETATM    8  C   UNL     1     -10.020  12.629  66.358  1.00  0.00    -0.255 A  
HETATM    9  C   UNL     1     -10.386  11.776  65.321  1.00  0.00    -0.317 A  
HETATM   10  C   UNL     1     -10.355  10.385  65.485  1.00  0.00    -0.265 A  
HETATM   11  C   UNL     1      -9.959   9.805  66.704  1.00  0.00    -0.292 A  
HETATM   12  C   UNL     1      -9.487  10.622  67.746  1.00  0.00    -0.153 A  
HETATM   13  C   UNL     1      -9.525  12.007  67.519  1.00  0.00    -0.178 A  
BRANCH  11  14
HETATM   14  C   UNL     1     -10.103   8.321  66.810  1.00  0.00    -0.303 C  
HETATM   15  H   UNL     1      -8.299   8.087  65.834  1.00  0.00     0.000 HD 
HETATM   16  O   UNL     1     -11.087   7.884  67.406  1.00  0.00    -0.058 OA 
HETATM   17  N   UNL     1      -9.080   7.579  66.250  1.00  0.00    -0.168 N  
BRANCH  17  18
HETATM   18  C   UNL     1      -9.039   6.196  66.212  1.00  0.00    -0.154 A  
HETATM   19  C   UNL     1      -9.155   5.325  67.346  1.00  0.00    -0.112 A  
HETATM   20  C   UNL     1      -9.355   5.448  68.733  1.00  0.00    -0.159 A  
HETATM   21  N   UNL     1      -8.862   5.492  65.094  1.00  0.00    -0.284 NA 
HETATM   22  N   UNL     1      -8.835   4.219  65.486  1.00  0.00    -0.120 NA 
HETATM   23  H   UNL     1      -8.767   5.851  64.143  1.00  0.00     0.000 HD 
HETATM   24  C   UNL     1      -9.314   4.311  69.568  1.00  0.00    -0.232 A  
HETATM   25  C   UNL     1      -9.087   3.050  69.000  1.00  0.00    -0.205 A  
HETATM   26  C   UNL     1      -8.959   4.045  66.836  1.00  0.00    -0.132 A  
HETATM   27  C   UNL     1      -8.916   2.892  67.621  1.00  0.00    -0.191 A  
BRANCH  24  28
HETATM   28  C   UNL     1      -9.568   4.446  71.054  1.00  0.00    -0.249 C  
BRANCH  28  29
HETATM   29  C   UNL     1     -10.182   5.753  71.518  1.00  0.00    -0.255 A  
HETATM   30  C   UNL     1     -11.492   6.145  71.207  1.00  0.00    -0.311 A  
HETATM   31  C   UNL     1     -12.020   7.327  71.726  1.00  0.00    -0.307 A  
HETATM   32  F   UNL     1     -13.281   7.666  71.430  1.00  0.00    -0.341 F  
HETATM   33  C   UNL     1     -11.270   8.149  72.552  1.00  0.00    -0.459 A  
HETATM   34  C   UNL     1      -9.966   7.780  72.841  1.00  0.00    -0.279 A  
HETATM   35  C   UNL     1      -9.418   6.602  72.336  1.00  0.00    -0.154 A  
HETATM   36  F   UNL     1      -9.219   8.564  73.630  1.00  0.00    -0.255 F  
ENDBRANCH  28  29
ENDBRANCH  24  28
ENDBRANCH  17  18
ENDBRANCH  11  14
BRANCH  12  37
HETATM   37  N   UNL     1      -9.079  10.102  68.981  1.00  0.00    -0.163 NA 
HETATM   38  H   UNL     1      -9.735   9.523  69.507  1.00  0.00     0.000 HD 
BRANCH  37  39
HETATM   39  C   UNL     1      -7.746  10.353  69.554  1.00  0.00    -0.156 C  
HETATM   40  C   UNL     1      -6.600  10.392  68.539  1.00  0.00    -0.052 C  
HETATM   41  O   UNL     1      -5.961   8.117  69.128  1.00  0.00    -0.036 OA 
HETATM   42  C   UNL     1      -7.107   7.954  69.961  1.00  0.00    -0.050 C  
HETATM   43  C   UNL     1      -7.460   9.285  70.607  1.00  0.00    -0.145 C  
HETATM   44  C   UNL     1      -6.212   9.007  68.042  1.00  0.00    -0.051 C  
ENDBRANCH  37  39
ENDBRANCH  12  37
ENDBRANCH   5   8
TORSDOF 7
ENDMDL
MODEL       52
REMARK 921   NORMALIZED FREE ENERGY PREDICTED BY IDOCK:   -6.47 KCAL/MOL
REMARK 922        TOTAL FREE ENERGY PREDICTED BY IDOCK:  -11.65 KCAL/MOL
REMARK 923 INTER-LIGAND FREE ENERGY PREDICTED BY IDOCK:  -10.23 KCAL/MOL
REMARK 924 INTRA-LIGAND FREE ENERGY PREDICTED BY IDOCK:   -1.42 KCAL/MOL
REMARK 927      BINDING AFFINITY PREDICTED BY RF-SCORE:    0.00 PKD
ROOT
HETATM    1  C   UNL     1      -9.556  20.897  67.224  1.00  0.00    -0.246 C  
HETATM    2  N   UNL     1      -9.356  19.968  66.115  1.00  0.00    -0.370 NA 
HETATM    3  C   UNL     1      -8.048  19.282  66.222  1.00  0.00    -0.312 C  
HETATM    4  C   UNL     1      -7.971  18.221  67.340  1.00  0.00    -0.231 C  
HETATM    5  N   UNL     1      -9.042  17.224  67.136  1.00  0.00    -0.223 NA 
HETATM    6  C   UNL     1     -10.382  17.829  67.130  1.00  0.00    -0.353 C  
HETATM    7  C   UNL     1     -10.436  18.949  66.057  1.00  0.00    -0.446 C  
ENDROOT
BRANCH   5   8
HETATM    8  C   UNL     1      -8.805  15.879  67.350  1.00  0.00    -0.188 A  
HETATM    9  C   UNL     1      -8.105  15.375  68.442  1.00  0.00    -0.140 A  
HETATM   10  C   UNL     1      -7.847  14.003  68.563  1.00  0.00    -0.140 A  
HETATM   11  C   UNL     1      -8.279  13.092  67.582  1.00  0.00    -0.175 A  
HETATM   12  C   UNL     1      -9.072  13.541  66.512  1.00  0.00    -0.113 A  
HETATM   13  C   UNL     1      -9.314  14.923  66.451  1.00  0.00    -0.327 A  
BRANCH  11  14
HETATM   14  C   UNL     1      -7.821  11.678  67.742  1.00  0.00    -0.129 C  
HETATM   15  H   UNL     1      -7.308  11.630  65.743  1.00  0.00     0.000 HD 
HETATM   16  O   UNL     1      -7.878  11.184  68.867  1.00  0.00    -0.135 OA 
HETATM   17  N   UNL     1      -7.341  11.072  66.597  1.00  0.00    -0.137 N  
BRANCH  17  18
HETATM   18  C   UNL     1      -6.902   9.761  66.523  1.00  0.00    -0.084 A  
HETATM   19  C   UNL     1      -7.640   8.607  66.949  1.00  0.00    -0.084 A  
HETATM   20  C   UNL     1      -8.905   8.328  67.497  1.00  0.00    -0.138 A  
HETATM   21  N   UNL     1      -5.705   9.408  66.055  1.00  0.00    -0.048 NA 
HETATM   22  N   UNL     1      -5.654   8.084  66.197  1.00  0.00    -0.032 NA 
HETATM   23  H   UNL     1      -4.983  10.020  65.672  1.00  0.00     0.000 HD 
HETATM   24  C   UNL     1      -9.245   7.015  67.886  1.00  0.00    -0.125 A  
HETATM   25  C   UNL     1      -8.315   5.983  67.708  1.00  0.00    -0.112 A  
HETATM   26  C   UNL     1      -6.767   7.538  66.772  1.00  0.00    -0.062 A  
HETATM   27  C   UNL     1      -7.061   6.223  67.137  1.00  0.00    -0.073 A  
BRANCH  24  28
HETATM   28  C   UNL     1     -10.623   6.716  68.440  1.00  0.00    -0.289 C  
BRANCH  28  29
HETATM   29  C   UNL     1     -10.887   7.161  69.866  1.00  0.00    -0.276 A  
HETATM   30  C   UNL     1     -11.149   8.492  70.225  1.00  0.00    -0.222 A  
HETATM   31  C   UNL     1     -11.457   8.822  71.545  1.00  0.00    -0.305 A  
HETATM   32  F   UNL     1     -11.722  10.097  71.856  1.00  0.00    -0.385 F  
HETATM   33  C   UNL     1     -11.505   7.855  72.537  1.00  0.00    -0.455 A  
HETATM   34  C   UNL     1     -11.222   6.543  72.192  1.00  0.00    -0.271 A  
HETATM   35  C   UNL     1     -10.915   6.189  70.879  1.00  0.00    -0.359 A  
HETATM   36  F   UNL     1     -11.254   5.592  73.136  1.00  0.00    -0.279 F  
ENDBRANCH  28  29
ENDBRANCH  24  28
ENDBRANCH  17  18
ENDBRANCH  11  14
BRANCH  12  37
HETATM   37  N   UNL     1      -9.531  12.681  65.506  1.00  0.00    -0.460 NA 
HETATM   38  H   UNL     1      -9.078  12.714  64.593  1.00  0.00     0.000 HD 
BRANCH  37  39
HETATM   39  C   UNL     1     -10.639  11.733  65.709  1.00  0.00    -0.268 C  
HETATM   40  C   UNL     1     -11.149  11.047  64.439  1.00  0.00    -0.030 C  
HETATM   41  O   UNL     1     -13.038  12.580  64.332  1.00  0.00    -0.759 OA 
HETATM   42  C   UNL     1     -12.528  13.367  65.407  1.00  0.00    -0.494 C  
HETATM   43  C   UNL     1     -11.791  12.470  66.390  1.00  0.00    -0.445 C  
HETATM   44  C   UNL     1     -11.995  11.971  63.575  1.00  0.00    -0.507 C  
ENDBRANCH  37  39
ENDBRANCH  12  37
ENDBRANCH   5   8
TORSDOF 7
ENDMDL
MODEL       53
REMARK 921   NORMALIZED FREE ENERGY PREDICTED BY IDOCK:   -6.46 KCAL/MOL
REMARK 922        TOTAL FREE ENERGY PREDICTED BY IDOCK:  -11.63 KCAL/MOL
REMARK 923 INTER-LIGAND FREE ENERGY PREDICTED BY IDOCK:   -8.92 KCAL/MOL
REMARK 924 INTRA-LIGAND FREE ENERGY PREDICTED BY IDOCK:   -2.71 KCAL/MOL
REMARK 927      BINDING AFFINITY PREDICTED BY RF-SCORE:    0.00 PKD
ROOT
HETATM    1  C   UNL     1     -13.296  15.896  73.306  1.00  0.00    -0.564 C  
HETATM    2  N   UNL     1     -13.925  15.454  72.064  1.00  0.00    -0.512 NA 
HETATM    3  C   UNL     1     -13.013  15.634  70.911  1.00  0.00    -0.414 C  
HETATM    4  C   UNL     1     -11.837  14.635  70.863  1.00  0.00    -0.313 C  
HETATM    5  N   UNL     1     -12.372  13.257  70.867  1.00  0.00    -0.368 NA 
HETATM    6  C   UNL     1     -13.201  12.978  72.048  1.00  0.00    -0.444 C  
HETATM    7  C   UNL     1     -14.339  14.030  72.139  1.00  0.00    -0.487 C  
ENDROOT
BRANCH   5   8
HETATM    8  C   UNL     1     -11.804  12.278  70.074  1.00  0.00    -0.296 A  
HETATM    9  C   UNL     1     -11.162  12.528  68.865  1.00  0.00    -0.330 A  
HETATM   10  C   UNL     1     -10.664  11.478  68.082  1.00  0.00    -0.242 A  
HETATM   11  C   UNL     1     -10.802  10.139  68.488  1.00  0.00    -0.278 A  
HETATM   12  C   UNL     1     -11.356   9.843  69.745  1.00  0.00    -0.193 A  
HETATM   13  C   UNL     1     -11.822  10.935  70.495  1.00  0.00    -0.457 A  
BRANCH  11  14
HETATM   14  C   UNL     1     -10.364   9.100  67.506  1.00  0.00    -0.261 C  
HETATM   15  H   UNL     1      -8.550  10.064  67.313  1.00  0.00     0.000 HD 
HETATM   16  O   UNL     1     -11.139   8.174  67.272  1.00  0.00    -0.015 OA 
HETATM   17  N   UNL     1      -9.098   9.270  66.980  1.00  0.00    -0.129 N  
BRANCH  17  18
HETATM   18  C   UNL     1      -8.518   8.442  66.035  1.00  0.00    -0.132 A  
HETATM   19  C   UNL     1      -8.061   7.102  66.265  1.00  0.00    -0.118 A  
HETATM   20  C   UNL     1      -8.025   6.187  67.333  1.00  0.00    -0.105 A  
HETATM   21  N   UNL     1      -8.294   8.806  64.772  1.00  0.00    -0.162 NA 
HETATM   22  N   UNL     1      -7.689   7.758  64.212  1.00  0.00    -0.118 NA 
HETATM   23  H   UNL     1      -8.532   9.694  64.330  1.00  0.00     0.000 HD 
HETATM   24  C   UNL     1      -7.377   4.941  67.189  1.00  0.00    -0.082 A  
HETATM   25  C   UNL     1      -6.782   4.614  65.965  1.00  0.00    -0.053 A  
HETATM   26  C   UNL     1      -7.474   6.712  65.065  1.00  0.00    -0.089 A  
HETATM   27  C   UNL     1      -6.827   5.490  64.875  1.00  0.00    -0.048 A  
BRANCH  24  28
HETATM   28  C   UNL     1      -7.376   3.946  68.331  1.00  0.00    -0.055 C  
BRANCH  28  29
HETATM   29  C   UNL     1      -7.336   4.526  69.731  1.00  0.00    -0.051 A  
HETATM   30  C   UNL     1      -8.048   3.986  70.813  1.00  0.00    -0.063 A  
HETATM   31  C   UNL     1      -7.909   4.525  72.092  1.00  0.00    -0.095 A  
HETATM   32  F   UNL     1      -8.585   3.977  73.110  1.00  0.00    -0.090 F  
HETATM   33  C   UNL     1      -7.078   5.608  72.332  1.00  0.00    -0.084 A  
HETATM   34  C   UNL     1      -6.393   6.162  71.262  1.00  0.00    -0.048 A  
HETATM   35  C   UNL     1      -6.513   5.638  69.976  1.00  0.00    -0.035 A  
HETATM   36  F   UNL     1      -5.590   7.215  71.468  1.00  0.00    -0.033 F  
ENDBRANCH  28  29
ENDBRANCH  24  28
ENDBRANCH  17  18
ENDBRANCH  11  14
BRANCH  12  37
HETATM   37  N   UNL     1     -11.519   8.529  70.203  1.00  0.00    -0.462 NA 
HETATM   38  H   UNL     1     -12.466   8.162  70.305  1.00  0.00     0.000 HD 
BRANCH  37  39
HETATM   39  C   UNL     1     -10.384   7.654  70.543  1.00  0.00    -0.211 C  
HETATM   40  C   UNL     1     -10.747   6.187  70.792  1.00  0.00    -0.326 C  
HETATM   41  O   UNL     1     -10.651   6.541  73.199  1.00  0.00    -0.232 OA 
HETATM   42  C   UNL     1     -10.481   7.948  73.039  1.00  0.00    -0.343 C  
HETATM   43  C   UNL     1      -9.683   8.224  71.774  1.00  0.00    -0.278 C  
HETATM   44  C   UNL     1     -11.418   5.972  72.140  1.00  0.00    -0.302 C  
ENDBRANCH  37  39
ENDBRANCH  12  37
ENDBRANCH   5   8
TORSDOF 7
ENDMDL
MODEL       54
REMARK 921   NORMALIZED FREE ENERGY PREDICTED BY IDOCK:   -6.44 KCAL/MOL
REMARK 922        TOTAL FREE ENERGY PREDICTED BY IDOCK:  -11.59 KCAL/MOL
REMARK 923 INTER-LIGAND FREE ENERGY PREDICTED BY IDOCK:   -9.62 KCAL/MOL
REMARK 924 INTRA-LIGAND FREE ENERGY PREDICTED BY IDOCK:   -1.98 KCAL/MOL
REMARK 927      BINDING AFFINITY PREDICTED BY RF-SCORE:    0.00 PKD
ROOT
HETATM    1  C   UNL     1      -9.854  19.944  67.713  1.00  0.00    -0.402 C  
HETATM    2  N   UNL     1      -9.352  19.108  68.800  1.00  0.00    -0.374 NA 
HETATM    3  C   UNL     1     -10.259  17.966  69.057  1.00  0.00    -0.273 C  
HETATM    4  C   UNL     1     -10.224  16.865  67.976  1.00  0.00    -0.310 C  
HETATM    5  N   UNL     1      -8.837  16.377  67.825  1.00  0.00    -0.188 NA 
HETATM    6  C   UNL     1      -7.899  17.449  67.460  1.00  0.00    -0.197 C  
HETATM    7  C   UNL     1      -7.991  18.591  68.506  1.00  0.00    -0.323 C  
ENDROOT
BRANCH   5   8
HETATM    8  C   UNL     1      -8.577  15.032  67.646  1.00  0.00    -0.171 A  
HETATM    9  C   UNL     1      -7.761  14.276  68.482  1.00  0.00    -0.137 A  
HETATM   10  C   UNL     1      -7.490  12.930  68.204  1.00  0.00    -0.126 A  
HETATM   11  C   UNL     1      -8.029  12.300  67.068  1.00  0.00    -0.123 A  
HETATM   12  C   UNL     1      -8.936  12.993  66.248  1.00  0.00     0.097 A  
HETATM   13  C   UNL     1      -9.184  14.333  66.585  1.00  0.00    -0.276 A  
BRANCH  11  14
HETATM   14  C   UNL     1      -7.557  10.908  66.795  1.00  0.00    -0.134 C  
HETATM   15  H   UNL     1      -7.793  10.448  68.794  1.00  0.00     0.000 HD 
HETATM   16  O   UNL     1      -7.297  10.612  65.630  1.00  0.00    -0.146 OA 
HETATM   17  N   UNL     1      -7.493  10.072  67.894  1.00  0.00    -0.088 N  
BRANCH  17  18
HETATM   18  C   UNL     1      -7.052   8.761  67.862  1.00  0.00    -0.079 A  
HETATM   19  C   UNL     1      -7.821   7.610  68.238  1.00  0.00    -0.121 A  
HETATM   20  C   UNL     1      -9.124   7.336  68.691  1.00  0.00    -0.133 A  
HETATM   21  N   UNL     1      -5.823   8.403  67.487  1.00  0.00    -0.042 NA 
HETATM   22  N   UNL     1      -5.785   7.079  67.641  1.00  0.00    -0.020 NA 
HETATM   23  H   UNL     1      -5.074   9.011  67.156  1.00  0.00     0.000 HD 
HETATM   24  C   UNL     1      -9.495   6.026  69.062  1.00  0.00    -0.143 A  
HETATM   25  C   UNL     1      -8.556   4.992  68.960  1.00  0.00    -0.091 A  
HETATM   26  C   UNL     1      -6.939   6.539  68.134  1.00  0.00    -0.077 A  
HETATM   27  C   UNL     1      -7.262   5.226  68.484  1.00  0.00    -0.063 A  
BRANCH  24  28
HETATM   28  C   UNL     1     -10.911   5.732  69.513  1.00  0.00    -0.410 C  
BRANCH  28  29
HETATM   29  C   UNL     1     -11.422   6.533  70.694  1.00  0.00    -0.433 A  
HETATM   30  C   UNL     1     -10.718   6.670  71.900  1.00  0.00    -0.251 A  
HETATM   31  C   UNL     1     -11.211   7.482  72.920  1.00  0.00    -0.346 A  
HETATM   32  F   UNL     1     -10.507   7.611  74.053  1.00  0.00    -0.301 F  
HETATM   33  C   UNL     1     -12.408   8.167  72.781  1.00  0.00    -0.106 A  
HETATM   34  C   UNL     1     -13.121   8.015  71.603  1.00  0.00    -0.329 A  
HETATM   35  C   UNL     1     -12.646   7.211  70.568  1.00  0.00     0.024 A  
HETATM   36  F   UNL     1     -14.285   8.660  71.450  1.00  0.00    -0.433 F  
ENDBRANCH  28  29
ENDBRANCH  24  28
ENDBRANCH  17  18
ENDBRANCH  11  14
BRANCH  12  37
HETATM   37  N   UNL     1      -9.505  12.417  65.105  1.00  0.00    -0.446 NA 
HETATM   38  H   UNL     1      -9.094  12.632  64.196  1.00  0.00     0.000 HD 
BRANCH  37  39
HETATM   39  C   UNL     1     -10.669  11.517  65.157  1.00  0.00    -0.289 C  
HETATM   40  C   UNL     1     -11.425  11.355  63.836  1.00  0.00    -0.232 C  
HETATM   41  O   UNL     1     -13.133  12.920  64.585  1.00  0.00    -0.742 OA 
HETATM   42  C   UNL     1     -12.393  13.246  65.761  1.00  0.00    -0.447 C  
HETATM   43  C   UNL     1     -11.626  12.022  66.235  1.00  0.00    -0.378 C  
HETATM   44  C   UNL     1     -12.280  12.567  63.498  1.00  0.00    -0.558 C  
ENDBRANCH  37  39
ENDBRANCH  12  37
ENDBRANCH   5   8
TORSDOF 7
ENDMDL
MODEL       55
REMARK 921   NORMALIZED FREE ENERGY PREDICTED BY IDOCK:   -6.43 KCAL/MOL
REMARK 922        TOTAL FREE ENERGY PREDICTED BY IDOCK:  -11.58 KCAL/MOL
REMARK 923 INTER-LIGAND FREE ENERGY PREDICTED BY IDOCK:   -9.97 KCAL/MOL
REMARK 924 INTRA-LIGAND FREE ENERGY PREDICTED BY IDOCK:   -1.62 KCAL/MOL
REMARK 927      BINDING AFFINITY PREDICTED BY RF-SCORE:    0.00 PKD
ROOT
HETATM    1  C   UNL     1      -7.146   2.037  70.068  1.00  0.00    -0.033 C  
HETATM    2  N   UNL     1      -7.925   2.291  71.278  1.00  0.00    -0.043 NA 
HETATM    3  C   UNL     1      -7.513   3.559  71.921  1.00  0.00    -0.056 C  
HETATM    4  C   UNL     1      -7.960   4.832  71.171  1.00  0.00    -0.088 C  
HETATM    5  N   UNL     1      -9.428   4.808  71.007  1.00  0.00    -0.154 NA 
HETATM    6  C   UNL     1      -9.895   3.621  70.275  1.00  0.00    -0.019 C  
HETATM    7  C   UNL     1      -9.380   2.342  70.987  1.00  0.00    -0.139 C  
ENDROOT
BRANCH   5   8
HETATM    8  C   UNL     1     -10.175   5.960  71.162  1.00  0.00    -0.212 A  
HETATM    9  C   UNL     1     -11.407   6.012  71.807  1.00  0.00    -0.324 A  
HETATM   10  C   UNL     1     -12.139   7.204  71.872  1.00  0.00    -0.357 A  
HETATM   11  C   UNL     1     -11.657   8.386  71.282  1.00  0.00    -0.326 A  
HETATM   12  C   UNL     1     -10.376   8.408  70.704  1.00  0.00    -0.197 A  
HETATM   13  C   UNL     1      -9.680   7.188  70.684  1.00  0.00    -0.175 A  
BRANCH  11  14
HETATM   14  C   UNL     1     -12.587   9.557  71.287  1.00  0.00    -0.339 C  
HETATM   15  H   UNL     1     -10.989  10.809  71.665  1.00  0.00     0.000 HD 
HETATM   16  O   UNL     1     -13.774   9.345  71.045  1.00  0.00    -0.248 OA 
HETATM   17  N   UNL     1     -12.001  10.785  71.533  1.00  0.00    -0.119 N  
BRANCH  17  18
HETATM   18  C   UNL     1     -12.687  11.984  71.614  1.00  0.00    -0.221 A  
HETATM   19  C   UNL     1     -12.480  13.124  70.769  1.00  0.00    -0.389 A  
HETATM   20  C   UNL     1     -11.671  13.469  69.671  1.00  0.00    -0.378 A  
HETATM   21  N   UNL     1     -13.631  12.235  72.521  1.00  0.00    -0.537 NA 
HETATM   22  N   UNL     1     -14.002  13.496  72.294  1.00  0.00    -0.590 NA 
HETATM   23  H   UNL     1     -13.991  11.601  73.235  1.00  0.00     0.000 HD 
HETATM   24  C   UNL     1     -11.689  14.780  69.150  1.00  0.00    -0.344 A  
HETATM   25  C   UNL     1     -12.534  15.737  69.725  1.00  0.00    -0.054 A  
HETATM   26  C   UNL     1     -13.318  14.109  71.283  1.00  0.00    -0.302 A  
HETATM   27  C   UNL     1     -13.374  15.416  70.797  1.00  0.00    -0.385 A  
BRANCH  24  28
HETATM   28  C   UNL     1     -10.843  15.134  67.944  1.00  0.00    -0.291 C  
BRANCH  28  29
HETATM   29  C   UNL     1     -10.319  16.556  67.882  1.00  0.00    -0.294 A  
HETATM   30  C   UNL     1     -11.025  17.615  67.292  1.00  0.00    -0.024 A  
HETATM   31  C   UNL     1     -10.519  18.914  67.334  1.00  0.00    -0.449 A  
HETATM   32  F   UNL     1     -11.223  19.910  66.781  1.00  0.00    -0.511 F  
HETATM   33  C   UNL     1      -9.308  19.196  67.947  1.00  0.00    -0.370 A  
HETATM   34  C   UNL     1      -8.594  18.149  68.508  1.00  0.00    -0.294 A  
HETATM   35  C   UNL     1      -9.082  16.843  68.481  1.00  0.00    -0.257 A  
HETATM   36  F   UNL     1      -7.417  18.396  69.098  1.00  0.00    -0.288 F  
ENDBRANCH  28  29
ENDBRANCH  24  28
ENDBRANCH  17  18
ENDBRANCH  11  14
BRANCH  12  37
HETATM   37  N   UNL     1      -9.844   9.555  70.102  1.00  0.00    -0.228 NA 
HETATM   38  H   UNL     1      -9.221  10.149  70.650  1.00  0.00     0.000 HD 
BRANCH  37  39
HETATM   39  C   UNL     1     -10.142   9.940  68.712  1.00  0.00    -0.174 C  
HETATM   40  C   UNL     1      -9.969   8.825  67.677  1.00  0.00    -0.247 C  
HETATM   41  O   UNL     1      -7.807   9.728  67.019  1.00  0.00    -0.101 OA 
HETATM   42  C   UNL     1      -7.826  10.687  68.075  1.00  0.00    -0.105 C  
HETATM   43  C   UNL     1      -9.258  11.127  68.336  1.00  0.00    -0.175 C  
HETATM   44  C   UNL     1      -8.508   8.537  67.366  1.00  0.00    -0.127 C  
ENDBRANCH  37  39
ENDBRANCH  12  37
ENDBRANCH   5   8
TORSDOF 7
ENDMDL
MODEL       56
REMARK 921   NORMALIZED FREE ENERGY PREDICTED BY IDOCK:   -6.42 KCAL/MOL
REMARK 922        TOTAL FREE ENERGY PREDICTED BY IDOCK:  -11.57 KCAL/MOL
REMARK 923 INTER-LIGAND FREE ENERGY PREDICTED BY IDOCK:   -9.41 KCAL/MOL
REMARK 924 INTRA-LIGAND FREE ENERGY PREDICTED BY IDOCK:   -2.16 KCAL/MOL
REMARK 927      BINDING AFFINITY PREDICTED BY RF-SCORE:    0.00 PKD
ROOT
HETATM    1  C   UNL     1     -10.882   3.061  73.300  1.00  0.00    -0.180 C  
HETATM    2  N   UNL     1      -9.672   3.860  73.122  1.00  0.00    -0.120 NA 
HETATM    3  C   UNL     1      -9.014   3.550  71.832  1.00  0.00    -0.105 C  
HETATM    4  C   UNL     1      -9.751   4.092  70.590  1.00  0.00    -0.203 C  
HETATM    5  N   UNL     1      -9.920   5.554  70.726  1.00  0.00    -0.190 NA 
HETATM    6  C   UNL     1     -10.667   5.925  71.936  1.00  0.00    -0.239 C  
HETATM    7  C   UNL     1      -9.967   5.315  73.180  1.00  0.00    -0.167 C  
ENDROOT
BRANCH   5   8
HETATM    8  C   UNL     1      -9.755   6.388  69.636  1.00  0.00    -0.152 A  
HETATM    9  C   UNL     1      -9.626   7.771  69.724  1.00  0.00    -0.167 A  
HETATM   10  C   UNL     1      -9.525   8.562  68.573  1.00  0.00    -0.146 A  
HETATM   11  C   UNL     1      -9.557   7.986  67.290  1.00  0.00    -0.210 A  
HETATM   12  C   UNL     1      -9.588   6.588  67.152  1.00  0.00    -0.136 A  
HETATM   13  C   UNL     1      -9.670   5.845  68.341  1.00  0.00    -0.151 A  
BRANCH  11  14
HETATM   14  C   UNL     1      -9.588   8.936  66.136  1.00  0.00    -0.265 C  
HETATM   15  H   UNL     1     -10.778  10.215  67.237  1.00  0.00     0.000 HD 
HETATM   16  O   UNL     1      -8.936   8.641  65.136  1.00  0.00    -0.164 OA 
HETATM   17  N   UNL     1     -10.332  10.085  66.328  1.00  0.00    -0.200 N  
BRANCH  17  18
HETATM   18  C   UNL     1     -10.516  11.073  65.377  1.00  0.00    -0.241 A  
HETATM   19  C   UNL     1     -10.739  12.465  65.647  1.00  0.00    -0.299 A  
HETATM   20  C   UNL     1     -10.823  13.301  66.775  1.00  0.00    -0.289 A  
HETATM   21  N   UNL     1     -10.529  10.842  64.064  1.00  0.00    -0.474 NA 
HETATM   22  N   UNL     1     -10.778  12.026  63.505  1.00  0.00    -0.433 NA 
HETATM   23  H   UNL     1     -10.381   9.950  63.589  1.00  0.00     0.000 HD 
HETATM   24  C   UNL     1     -11.164  14.663  66.634  1.00  0.00    -0.349 A  
HETATM   25  C   UNL     1     -11.403  15.183  65.355  1.00  0.00    -0.298 A  
HETATM   26  C   UNL     1     -10.962  13.041  64.401  1.00  0.00    -0.374 A  
HETATM   27  C   UNL     1     -11.296  14.384  64.212  1.00  0.00    -0.167 A  
BRANCH  24  28
HETATM   28  C   UNL     1     -11.217  15.567  67.848  1.00  0.00    -0.325 C  
BRANCH  28  29
HETATM   29  C   UNL     1     -10.226  16.715  67.878  1.00  0.00    -0.284 A  
HETATM   30  C   UNL     1      -8.885  16.570  68.264  1.00  0.00    -0.210 A  
HETATM   31  C   UNL     1      -8.008  17.652  68.198  1.00  0.00    -0.256 A  
HETATM   32  F   UNL     1      -6.728  17.480  68.553  1.00  0.00    -0.173 F  
HETATM   33  C   UNL     1      -8.431  18.897  67.761  1.00  0.00    -0.310 A  
HETATM   34  C   UNL     1      -9.761  19.053  67.404  1.00  0.00    -0.315 A  
HETATM   35  C   UNL     1     -10.655  17.984  67.458  1.00  0.00    -0.402 A  
HETATM   36  F   UNL     1     -10.196  20.250  66.987  1.00  0.00    -0.527 F  
ENDBRANCH  28  29
ENDBRANCH  24  28
ENDBRANCH  17  18
ENDBRANCH  11  14
BRANCH  12  37
HETATM   37  N   UNL     1      -9.620   5.958  65.901  1.00  0.00    -0.361 NA 
HETATM   38  H   UNL     1     -10.311   6.268  65.217  1.00  0.00     0.000 HD 
BRANCH  37  39
HETATM   39  C   UNL     1      -8.702   4.867  65.531  1.00  0.00    -0.139 C  
HETATM   40  C   UNL     1      -7.240   5.086  65.928  1.00  0.00    -0.076 C  
HETATM   41  O   UNL     1      -6.690   5.757  63.653  1.00  0.00    -0.035 OA 
HETATM   42  C   UNL     1      -8.060   5.738  63.260  1.00  0.00    -0.102 C  
HETATM   43  C   UNL     1      -8.794   4.646  64.022  1.00  0.00    -0.138 C  
HETATM   44  C   UNL     1      -6.534   6.092  65.031  1.00  0.00    -0.038 C  
ENDBRANCH  37  39
ENDBRANCH  12  37
ENDBRANCH   5   8
TORSDOF 7
ENDMDL
MODEL       57
REMARK 921   NORMALIZED FREE ENERGY PREDICTED BY IDOCK:   -6.42 KCAL/MOL
REMARK 922        TOTAL FREE ENERGY PREDICTED BY IDOCK:  -11.57 KCAL/MOL
REMARK 923 INTER-LIGAND FREE ENERGY PREDICTED BY IDOCK:   -9.55 KCAL/MOL
REMARK 924 INTRA-LIGAND FREE ENERGY PREDICTED BY IDOCK:   -2.02 KCAL/MOL
REMARK 927      BINDING AFFINITY PREDICTED BY RF-SCORE:    0.00 PKD
ROOT
HETATM    1  C   UNL     1      -7.388  19.757  68.039  1.00  0.00    -0.289 C  
HETATM    2  N   UNL     1      -8.709  19.475  67.484  1.00  0.00    -0.299 NA 
HETATM    3  C   UNL     1      -8.676  18.282  66.608  1.00  0.00    -0.277 C  
HETATM    4  C   UNL     1      -8.525  16.941  67.357  1.00  0.00    -0.190 C  
HETATM    5  N   UNL     1      -9.621  16.809  68.340  1.00  0.00    -0.233 NA 
HETATM    6  C   UNL     1      -9.642  17.911  69.313  1.00  0.00     0.073 C  
HETATM    7  C   UNL     1      -9.716  19.264  68.555  1.00  0.00    -0.414 C  
ENDROOT
BRANCH   5   8
HETATM    8  C   UNL     1     -10.247  15.593  68.539  1.00  0.00    -0.211 A  
HETATM    9  C   UNL     1     -11.588  15.454  68.886  1.00  0.00    -0.369 A  
HETATM   10  C   UNL     1     -12.142  14.192  69.134  1.00  0.00    -0.362 A  
HETATM   11  C   UNL     1     -11.362  13.025  69.049  1.00  0.00    -0.340 A  
HETATM   12  C   UNL     1     -10.030  13.106  68.608  1.00  0.00    -0.111 A  
HETATM   13  C   UNL     1      -9.533  14.395  68.356  1.00  0.00    -0.207 A  
BRANCH  11  14
HETATM   14  C   UNL     1     -12.021  11.753  69.476  1.00  0.00    -0.300 C  
HETATM   15  H   UNL     1     -11.834  12.332  71.449  1.00  0.00     0.000 HD 
HETATM   16  O   UNL     1     -12.409  10.987  68.595  1.00  0.00    -0.539 OA 
HETATM   17  N   UNL     1     -12.160  11.581  70.840  1.00  0.00    -0.318 N  
BRANCH  17  18
HETATM   18  C   UNL     1     -12.710  10.462  71.441  1.00  0.00    -0.446 A  
HETATM   19  C   UNL     1     -12.100   9.165  71.512  1.00  0.00    -0.422 A  
HETATM   20  C   UNL     1     -10.893   8.563  71.113  1.00  0.00    -0.298 A  
HETATM   21  N   UNL     1     -13.910  10.450  72.023  1.00  0.00    -0.199 NA 
HETATM   22  N   UNL     1     -14.086   9.193  72.429  1.00  0.00    -0.443 NA 
HETATM   23  H   UNL     1     -14.554  11.234  72.132  1.00  0.00     0.000 HD 
HETATM   24  C   UNL     1     -10.691   7.177  71.285  1.00  0.00    -0.245 A  
HETATM   25  C   UNL     1     -11.700   6.404  71.874  1.00  0.00    -0.378 A  
HETATM   26  C   UNL     1     -13.056   8.352  72.114  1.00  0.00    -0.328 A  
HETATM   27  C   UNL     1     -12.898   6.979  72.310  1.00  0.00     0.039 A  
BRANCH  24  28
HETATM   28  C   UNL     1      -9.375   6.543  70.887  1.00  0.00    -0.165 C  
BRANCH  28  29
HETATM   29  C   UNL     1      -9.448   5.140  70.315  1.00  0.00    -0.233 A  
HETATM   30  C   UNL     1      -9.677   4.868  68.958  1.00  0.00    -0.245 A  
HETATM   31  C   UNL     1      -9.659   3.557  68.485  1.00  0.00    -0.081 A  
HETATM   32  F   UNL     1      -9.861   3.328  67.181  1.00  0.00    -0.210 F  
HETATM   33  C   UNL     1      -9.426   2.487  69.335  1.00  0.00    -0.129 A  
HETATM   34  C   UNL     1      -9.226   2.747  70.682  1.00  0.00    -0.136 A  
HETATM   35  C   UNL     1      -9.236   4.051  71.176  1.00  0.00    -0.196 A  
HETATM   36  F   UNL     1      -9.007   1.729  71.524  1.00  0.00    -0.085 F  
ENDBRANCH  28  29
ENDBRANCH  24  28
ENDBRANCH  17  18
ENDBRANCH  11  14
BRANCH  12  37
HETATM   37  N   UNL     1      -9.204  11.979  68.503  1.00  0.00    -0.336 NA 
HETATM   38  H   UNL     1      -9.156  11.335  69.293  1.00  0.00     0.000 HD 
BRANCH  37  39
HETATM   39  C   UNL     1      -8.404  11.683  67.302  1.00  0.00    -0.158 C  
HETATM   40  C   UNL     1      -8.673  10.318  66.663  1.00  0.00    -0.134 C  
HETATM   41  O   UNL     1      -6.674   9.401  67.707  1.00  0.00    -0.066 OA 
HETATM   42  C   UNL     1      -6.461  10.590  68.466  1.00  0.00    -0.055 C  
HETATM   43  C   UNL     1      -6.925  11.796  67.664  1.00  0.00    -0.103 C  
HETATM   44  C   UNL     1      -8.058   9.171  67.451  1.00  0.00    -0.107 C  
ENDBRANCH  37  39
ENDBRANCH  12  37
ENDBRANCH   5   8
TORSDOF 7
ENDMDL
MODEL       58
REMARK 921   NORMALIZED FREE ENERGY PREDICTED BY IDOCK:   -6.40 KCAL/MOL
REMARK 922        TOTAL FREE ENERGY PREDICTED BY IDOCK:  -11.55 KCAL/MOL
REMARK 923 INTER-LIGAND FREE ENERGY PREDICTED BY IDOCK:   -8.87 KCAL/MOL
REMARK 924 INTRA-LIGAND FREE ENERGY PREDICTED BY IDOCK:   -2.68 KCAL/MOL
REMARK 927      BINDING AFFINITY PREDICTED BY RF-SCORE:    0.00 PKD
ROOT
HETATM    1  C   UNL     1     -10.257  16.707  66.072  1.00  0.00    -0.351 C  
HETATM    2  N   UNL     1     -10.989  15.644  66.757  1.00  0.00    -0.279 NA 
HETATM    3  C   UNL     1     -11.553  14.676  65.789  1.00  0.00    -0.328 C  
HETATM    4  C   UNL     1     -10.509  13.753  65.125  1.00  0.00    -0.384 C  
HETATM    5  N   UNL     1      -9.763  13.031  66.176  1.00  0.00    -0.272 NA 
HETATM    6  C   UNL     1      -9.084  13.940  67.111  1.00  0.00    -0.239 C  
HETATM    7  C   UNL     1     -10.123  14.920  67.721  1.00  0.00    -0.234 C  
ENDROOT
BRANCH   5   8
HETATM    8  C   UNL     1      -9.428  11.700  66.017  1.00  0.00    -0.229 A  
HETATM    9  C   UNL     1     -10.093  10.825  65.162  1.00  0.00    -0.363 A  
HETATM   10  C   UNL     1      -9.740   9.472  65.097  1.00  0.00    -0.207 A  
HETATM   11  C   UNL     1      -8.708   8.950  65.897  1.00  0.00    -0.197 A  
HETATM   12  C   UNL     1      -7.944   9.811  66.703  1.00  0.00    -0.112 A  
HETATM   13  C   UNL     1      -8.331  11.161  66.715  1.00  0.00    -0.152 A  
BRANCH  11  14
HETATM   14  C   UNL     1      -8.517   7.468  65.850  1.00  0.00    -0.147 C  
HETATM   15  H   UNL     1     -10.287   7.219  66.882  1.00  0.00     0.000 HD 
HETATM   16  O   UNL     1      -7.533   7.038  65.249  1.00  0.00    -0.082 OA 
HETATM   17  N   UNL     1      -9.500   6.718  66.468  1.00  0.00    -0.165 N  
BRANCH  17  18
HETATM   18  C   UNL     1      -9.494   5.338  66.566  1.00  0.00    -0.149 A  
HETATM   19  C   UNL     1      -9.567   4.586  67.786  1.00  0.00    -0.208 A  
HETATM   20  C   UNL     1      -9.686   4.850  69.162  1.00  0.00    -0.252 A  
HETATM   21  N   UNL     1      -9.398   4.522  65.516  1.00  0.00    -0.153 NA 
HETATM   22  N   UNL     1      -9.380   3.293  66.031  1.00  0.00    -0.145 NA 
HETATM   23  H   UNL     1      -9.349   4.783  64.530  1.00  0.00     0.000 HD 
HETATM   24  C   UNL     1      -9.626   3.800  70.103  1.00  0.00    -0.258 A  
HETATM   25  C   UNL     1      -9.462   2.484  69.653  1.00  0.00    -0.124 A  
HETATM   26  C   UNL     1      -9.432   3.257  67.396  1.00  0.00    -0.154 A  
HETATM   27  C   UNL     1      -9.372   2.185  68.289  1.00  0.00    -0.260 A  
BRANCH  24  28
HETATM   28  C   UNL     1      -9.792   4.088  71.580  1.00  0.00    -0.253 C  
BRANCH  28  29
HETATM   29  C   UNL     1     -10.204   5.500  71.950  1.00  0.00    -0.251 A  
HETATM   30  C   UNL     1      -9.393   6.375  72.688  1.00  0.00    -0.142 A  
HETATM   31  C   UNL     1      -9.801   7.686  72.930  1.00  0.00    -0.242 A  
HETATM   32  F   UNL     1      -8.998   8.505  73.620  1.00  0.00    -0.288 F  
HETATM   33  C   UNL     1     -11.016   8.160  72.461  1.00  0.00    -0.439 A  
HETATM   34  C   UNL     1     -11.834   7.292  71.755  1.00  0.00    -0.295 A  
HETATM   35  C   UNL     1     -11.444   5.979  71.497  1.00  0.00    -0.280 A  
HETATM   36  F   UNL     1     -13.017   7.726  71.299  1.00  0.00    -0.329 F  
ENDBRANCH  28  29
ENDBRANCH  24  28
ENDBRANCH  17  18
ENDBRANCH  11  14
BRANCH  12  37
HETATM   37  N   UNL     1      -6.904   9.350  67.520  1.00  0.00    -0.075 NA 
HETATM   38  H   UNL     1      -5.961   9.701  67.354  1.00  0.00     0.000 HD 
BRANCH  37  39
HETATM   39  C   UNL     1      -7.113   8.379  68.608  1.00  0.00    -0.072 C  
HETATM   40  C   UNL     1      -8.440   8.521  69.359  1.00  0.00    -0.127 C  
HETATM   41  O   UNL     1      -7.320   9.686  71.180  1.00  0.00    -0.332 OA 
HETATM   42  C   UNL     1      -6.090   9.739  70.460  1.00  0.00    -0.078 C  
HETATM   43  C   UNL     1      -5.953   8.497  69.594  1.00  0.00    -0.032 C  
HETATM   44  C   UNL     1      -8.450   9.708  70.311  1.00  0.00    -0.188 C  
ENDBRANCH  37  39
ENDBRANCH  12  37
ENDBRANCH   5   8
TORSDOF 7
ENDMDL
MODEL       59
REMARK 921   NORMALIZED FREE ENERGY PREDICTED BY IDOCK:   -6.38 KCAL/MOL
REMARK 922        TOTAL FREE ENERGY PREDICTED BY IDOCK:  -11.51 KCAL/MOL
REMARK 923 INTER-LIGAND FREE ENERGY PREDICTED BY IDOCK:   -9.41 KCAL/MOL
REMARK 924 INTRA-LIGAND FREE ENERGY PREDICTED BY IDOCK:   -2.10 KCAL/MOL
REMARK 927      BINDING AFFINITY PREDICTED BY RF-SCORE:    0.00 PKD
ROOT
HETATM    1  C   UNL     1     -12.232  16.340  71.892  1.00  0.00    -0.313 C  
HETATM    2  N   UNL     1     -13.286  15.549  71.261  1.00  0.00    -0.518 NA 
HETATM    3  C   UNL     1     -12.754  14.760  70.127  1.00  0.00    -0.219 C  
HETATM    4  C   UNL     1     -11.875  13.560  70.538  1.00  0.00    -0.178 C  
HETATM    5  N   UNL     1     -12.647  12.680  71.441  1.00  0.00    -0.271 NA 
HETATM    6  C   UNL     1     -13.112  13.379  72.647  1.00  0.00    -0.237 C  
HETATM    7  C   UNL     1     -13.932  14.630  72.233  1.00  0.00    -0.489 C  
ENDROOT
BRANCH   5   8
HETATM    8  C   UNL     1     -12.557  11.306  71.333  1.00  0.00    -0.351 A  
HETATM    9  C   UNL     1     -13.357  10.414  72.041  1.00  0.00    -0.440 A  
HETATM   10  C   UNL     1     -13.168   9.030  71.930  1.00  0.00    -0.462 A  
HETATM   11  C   UNL     1     -12.160   8.497  71.107  1.00  0.00    -0.283 A  
HETATM   12  C   UNL     1     -11.392   9.353  70.299  1.00  0.00    -0.220 A  
HETATM   13  C   UNL     1     -11.637  10.728  70.438  1.00  0.00    -0.431 A  
BRANCH  11  14
HETATM   14  C   UNL     1     -11.957   7.018  71.180  1.00  0.00    -0.356 C  
HETATM   15  H   UNL     1     -11.344   7.210  73.141  1.00  0.00     0.000 HD 
HETATM   16  O   UNL     1     -12.247   6.352  70.186  1.00  0.00    -0.149 OA 
HETATM   17  N   UNL     1     -11.490   6.537  72.388  1.00  0.00    -0.277 N  
BRANCH  17  18
HETATM   18  C   UNL     1     -11.204   5.208  72.651  1.00  0.00    -0.209 A  
HETATM   19  C   UNL     1     -10.403   4.347  71.830  1.00  0.00    -0.141 A  
HETATM   20  C   UNL     1      -9.663   4.443  70.638  1.00  0.00    -0.283 A  
HETATM   21  N   UNL     1     -11.667   4.549  73.714  1.00  0.00    -0.250 NA 
HETATM   22  N   UNL     1     -11.210   3.304  73.575  1.00  0.00    -0.218 NA 
HETATM   23  H   UNL     1     -12.246   4.918  74.469  1.00  0.00     0.000 HD 
HETATM   24  C   UNL     1      -9.062   3.299  70.071  1.00  0.00    -0.197 A  
HETATM   25  C   UNL     1      -9.195   2.063  70.716  1.00  0.00    -0.181 A  
HETATM   26  C   UNL     1     -10.480   3.098  72.439  1.00  0.00    -0.006 A  
HETATM   27  C   UNL     1      -9.899   1.940  71.919  1.00  0.00    -0.214 A  
BRANCH  24  28
HETATM   28  C   UNL     1      -8.235   3.417  68.808  1.00  0.00    -0.075 C  
BRANCH  28  29
HETATM   29  C   UNL     1      -8.992   3.745  67.535  1.00  0.00    -0.157 A  
HETATM   30  C   UNL     1      -8.942   2.952  66.379  1.00  0.00    -0.158 A  
HETATM   31  C   UNL     1      -9.721   3.271  65.267  1.00  0.00    -0.031 A  
HETATM   32  F   UNL     1      -9.670   2.484  64.185  1.00  0.00    -0.132 F  
HETATM   33  C   UNL     1     -10.554   4.378  65.264  1.00  0.00    -0.181 A  
HETATM   34  C   UNL     1     -10.587   5.181  66.393  1.00  0.00    -0.276 A  
HETATM   35  C   UNL     1      -9.820   4.880  67.518  1.00  0.00    -0.207 A  
HETATM   36  F   UNL     1     -11.378   6.262  66.411  1.00  0.00    -0.294 F  
ENDBRANCH  28  29
ENDBRANCH  24  28
ENDBRANCH  17  18
ENDBRANCH  11  14
BRANCH  12  37
HETATM   37  N   UNL     1     -10.375   8.880  69.459  1.00  0.00    -0.208 NA 
HETATM   38  H   UNL     1     -10.599   8.141  68.792  1.00  0.00     0.000 HD 
BRANCH  37  39
HETATM   39  C   UNL     1      -8.999   9.402  69.498  1.00  0.00    -0.164 C  
HETATM   40  C   UNL     1      -8.047   8.803  68.458  1.00  0.00    -0.116 C  
HETATM   41  O   UNL     1      -7.087   7.330  70.142  1.00  0.00    -0.062 OA 
HETATM   42  C   UNL     1      -8.056   7.720  71.113  1.00  0.00    -0.095 C  
HETATM   43  C   UNL     1      -8.433   9.177  70.898  1.00  0.00    -0.251 C  
HETATM   44  C   UNL     1      -7.605   7.392  68.815  1.00  0.00    -0.107 C  
ENDBRANCH  37  39
ENDBRANCH  12  37
ENDBRANCH   5   8
TORSDOF 7
ENDMDL
MODEL       60
REMARK 921   NORMALIZED FREE ENERGY PREDICTED BY IDOCK:   -6.31 KCAL/MOL
REMARK 922        TOTAL FREE ENERGY PREDICTED BY IDOCK:  -11.41 KCAL/MOL
REMARK 923 INTER-LIGAND FREE ENERGY PREDICTED BY IDOCK:   -8.86 KCAL/MOL
REMARK 924 INTRA-LIGAND FREE ENERGY PREDICTED BY IDOCK:   -2.55 KCAL/MOL
REMARK 927      BINDING AFFINITY PREDICTED BY RF-SCORE:    0.00 PKD
ROOT
HETATM    1  C   UNL     1     -10.302  20.092  65.652  1.00  0.00    -0.291 C  
HETATM    2  N   UNL     1      -9.433  19.617  66.726  1.00  0.00    -0.344 NA 
HETATM    3  C   UNL     1     -10.225  19.060  67.846  1.00  0.00    -0.401 C  
HETATM    4  C   UNL     1     -10.880  17.693  67.549  1.00  0.00    -0.199 C  
HETATM    5  N   UNL     1      -9.831  16.731  67.151  1.00  0.00    -0.252 NA 
HETATM    6  C   UNL     1      -9.076  17.176  65.971  1.00  0.00    -0.105 C  
HETATM    7  C   UNL     1      -8.482  18.584  66.241  1.00  0.00    -0.207 C  
ENDROOT
BRANCH   5   8
HETATM    8  C   UNL     1      -9.872  15.421  67.592  1.00  0.00    -0.220 A  
HETATM    9  C   UNL     1     -10.175  15.047  68.897  1.00  0.00    -0.235 A  
HETATM   10  C   UNL     1     -10.136  13.703  69.290  1.00  0.00     0.279 A  
HETATM   11  C   UNL     1      -9.782  12.689  68.381  1.00  0.00    -0.187 A  
HETATM   12  C   UNL     1      -9.562  13.007  67.030  1.00  0.00    -0.236 A  
HETATM   13  C   UNL     1      -9.632  14.368  66.690  1.00  0.00    -0.295 A  
BRANCH  11  14
HETATM   14  C   UNL     1      -9.632  11.313  68.947  1.00  0.00    -0.105 C  
HETATM   15  H   UNL     1     -11.557  11.420  69.685  1.00  0.00     0.000 HD 
HETATM   16  O   UNL     1      -8.576  10.720  68.732  1.00  0.00    -0.142 OA 
HETATM   17  N   UNL     1     -10.728  10.827  69.635  1.00  0.00    -0.234 N  
BRANCH  17  18
HETATM   18  C   UNL     1     -10.781   9.594  70.261  1.00  0.00    -0.281 A  
HETATM   19  C   UNL     1     -10.734   8.320  69.605  1.00  0.00    -0.196 A  
HETATM   20  C   UNL     1     -10.605   7.834  68.291  1.00  0.00    -0.169 A  
HETATM   21  N   UNL     1     -10.907   9.440  71.580  1.00  0.00    -0.359 NA 
HETATM   22  N   UNL     1     -10.967   8.122  71.770  1.00  0.00    -0.247 NA 
HETATM   23  H   UNL     1     -10.948  10.172  72.289  1.00  0.00     0.000 HD 
HETATM   24  C   UNL     1     -10.701   6.451  68.024  1.00  0.00    -0.362 A  
HETATM   25  C   UNL     1     -10.911   5.561  69.084  1.00  0.00    -0.182 A  
HETATM   26  C   UNL     1     -10.916   7.386  70.620  1.00  0.00    -0.256 A  
HETATM   27  C   UNL     1     -11.012   6.010  70.405  1.00  0.00    -0.399 A  
BRANCH  24  28
HETATM   28  C   UNL     1     -10.524   5.932  66.613  1.00  0.00    -0.310 C  
BRANCH  28  29
HETATM   29  C   UNL     1      -9.132   5.462  66.238  1.00  0.00    -0.144 A  
HETATM   30  C   UNL     1      -8.861   4.192  65.705  1.00  0.00    -0.122 A  
HETATM   31  C   UNL     1      -7.568   3.849  65.312  1.00  0.00    -0.081 A  
HETATM   32  F   UNL     1      -7.342   2.638  64.788  1.00  0.00    -0.059 F  
HETATM   33  C   UNL     1      -6.515   4.741  65.443  1.00  0.00    -0.036 A  
HETATM   34  C   UNL     1      -6.771   5.987  65.994  1.00  0.00    -0.056 A  
HETATM   35  C   UNL     1      -8.057   6.353  66.390  1.00  0.00    -0.112 A  
HETATM   36  F   UNL     1      -5.767   6.862  66.138  1.00  0.00    -0.025 F  
ENDBRANCH  28  29
ENDBRANCH  24  28
ENDBRANCH  17  18
ENDBRANCH  11  14
BRANCH  12  37
HETATM   37  N   UNL     1      -9.207  12.041  66.080  1.00  0.00    -0.367 NA 
HETATM   38  H   UNL     1      -8.256  12.046  65.712  1.00  0.00     0.000 HD 
BRANCH  37  39
HETATM   39  C   UNL     1     -10.148  11.019  65.589  1.00  0.00    -0.256 C  
HETATM   40  C   UNL     1      -9.542   9.630  65.372  1.00  0.00    -0.361 C  
HETATM   41  O   UNL     1      -9.389  10.036  62.976  1.00  0.00    -0.287 OA 
HETATM   42  C   UNL     1      -9.786  11.398  63.128  1.00  0.00    -0.388 C  
HETATM   43  C   UNL     1     -10.767  11.516  64.284  1.00  0.00    -0.416 C  
HETATM   44  C   UNL     1      -8.684   9.555  64.118  1.00  0.00    -0.215 C  
ENDBRANCH  37  39
ENDBRANCH  12  37
ENDBRANCH   5   8
TORSDOF 7
ENDMDL
MODEL       61
REMARK 921   NORMALIZED FREE ENERGY PREDICTED BY IDOCK:   -6.27 KCAL/MOL
REMARK 922        TOTAL FREE ENERGY PREDICTED BY IDOCK:  -11.36 KCAL/MOL
REMARK 923 INTER-LIGAND FREE ENERGY PREDICTED BY IDOCK:   -8.71 KCAL/MOL
REMARK 924 INTRA-LIGAND FREE ENERGY PREDICTED BY IDOCK:   -2.65 KCAL/MOL
REMARK 927      BINDING AFFINITY PREDICTED BY RF-SCORE:    0.00 PKD
ROOT
HETATM    1  C   UNL     1      -9.579   2.291  64.019  1.00  0.00    -0.137 C  
HETATM    2  N   UNL     1     -10.071   3.614  63.644  1.00  0.00    -0.181 NA 
HETATM    3  C   UNL     1     -10.880   4.210  64.731  1.00  0.00    -0.090 C  
HETATM    4  C   UNL     1     -10.062   4.681  65.953  1.00  0.00    -0.258 C  
HETATM    5  N   UNL     1      -9.037   5.646  65.506  1.00  0.00    -0.110 NA 
HETATM    6  C   UNL     1      -8.127   5.078  64.502  1.00  0.00    -0.120 C  
HETATM    7  C   UNL     1      -8.955   4.534  63.307  1.00  0.00    -0.132 C  
ENDROOT
BRANCH   5   8
HETATM    8  C   UNL     1      -8.749   6.768  66.260  1.00  0.00    -0.146 A  
HETATM    9  C   UNL     1      -7.811   6.798  67.288  1.00  0.00    -0.110 A  
HETATM   10  C   UNL     1      -7.614   7.955  68.053  1.00  0.00    -0.113 A  
HETATM   11  C   UNL     1      -8.363   9.121  67.813  1.00  0.00    -0.117 A  
HETATM   12  C   UNL     1      -9.251   9.170  66.725  1.00  0.00    -0.155 A  
HETATM   13  C   UNL     1      -9.394   7.988  65.982  1.00  0.00    -0.158 A  
BRANCH  11  14
HETATM   14  C   UNL     1      -8.172  10.243  68.782  1.00  0.00    -0.119 C  
HETATM   15  H   UNL     1      -6.167  10.308  68.295  1.00  0.00     0.000 HD 
HETATM   16  O   UNL     1      -9.166  10.663  69.373  1.00  0.00    -0.158 OA 
HETATM   17  N   UNL     1      -6.881  10.725  68.893  1.00  0.00    -0.063 N  
BRANCH  17  18
HETATM   18  C   UNL     1      -6.488  11.734  69.754  1.00  0.00    -0.094 A  
HETATM   19  C   UNL     1      -6.424  13.131  69.433  1.00  0.00    -0.095 A  
HETATM   20  C   UNL     1      -6.706  13.956  68.329  1.00  0.00    -0.109 A  
HETATM   21  N   UNL     1      -6.092  11.522  71.009  1.00  0.00    -0.464 NA 
HETATM   22  N   UNL     1      -5.758  12.725  71.476  1.00  0.00    -0.332 NA 
HETATM   23  H   UNL     1      -6.053  10.631  71.505  1.00  0.00     0.000 HD 
HETATM   24  C   UNL     1      -6.411  15.335  68.369  1.00  0.00    -0.105 A  
HETATM   25  C   UNL     1      -5.848  15.883  69.528  1.00  0.00    -0.135 A  
HETATM   26  C   UNL     1      -5.889  13.736  70.566  1.00  0.00    -0.169 A  
HETATM   27  C   UNL     1      -5.586  15.096  70.653  1.00  0.00    -0.122 A  
BRANCH  24  28
HETATM   28  C   UNL     1      -6.752  16.223  67.190  1.00  0.00    -0.237 C  
BRANCH  28  29
HETATM   29  C   UNL     1      -8.118  16.881  67.215  1.00  0.00    -0.207 A  
HETATM   30  C   UNL     1      -8.498  17.840  68.166  1.00  0.00    -0.262 A  
HETATM   31  C   UNL     1      -9.744  18.461  68.088  1.00  0.00    -0.331 A  
HETATM   32  F   UNL     1     -10.073  19.388  68.997  1.00  0.00    -0.459 F  
HETATM   33  C   UNL     1     -10.644  18.146  67.082  1.00  0.00    -0.362 A  
HETATM   34  C   UNL     1     -10.285  17.181  66.155  1.00  0.00    -0.334 A  
HETATM   35  C   UNL     1      -9.043  16.550  66.211  1.00  0.00    -0.348 A  
HETATM   36  F   UNL     1     -11.142  16.854  65.178  1.00  0.00    -0.339 F  
ENDBRANCH  28  29
ENDBRANCH  24  28
ENDBRANCH  17  18
ENDBRANCH  11  14
BRANCH  12  37
HETATM   37  N   UNL     1     -10.022  10.304  66.437  1.00  0.00    -0.219 NA 
HETATM   38  H   UNL     1     -10.982  10.341  66.783  1.00  0.00     0.000 HD 
BRANCH  37  39
HETATM   39  C   UNL     1      -9.509  11.443  65.657  1.00  0.00    -0.230 C  
HETATM   40  C   UNL     1      -9.843  12.824  66.228  1.00  0.00    -0.269 C  
HETATM   41  O   UNL     1     -11.656  13.083  64.623  1.00  0.00    -0.320 OA 
HETATM   42  C   UNL     1     -11.510  11.742  64.161  1.00  0.00    -0.327 C  
HETATM   43  C   UNL     1     -10.046  11.336  64.231  1.00  0.00    -0.366 C  
HETATM   44  C   UNL     1     -11.294  13.218  65.996  1.00  0.00    -0.305 C  
ENDBRANCH  37  39
ENDBRANCH  12  37
ENDBRANCH   5   8
TORSDOF 7
ENDMDL
MODEL       62
REMARK 921   NORMALIZED FREE ENERGY PREDICTED BY IDOCK:   -6.26 KCAL/MOL
REMARK 922        TOTAL FREE ENERGY PREDICTED BY IDOCK:  -11.35 KCAL/MOL
REMARK 923 INTER-LIGAND FREE ENERGY PREDICTED BY IDOCK:   -9.46 KCAL/MOL
REMARK 924 INTRA-LIGAND FREE ENERGY PREDICTED BY IDOCK:   -1.89 KCAL/MOL
REMARK 927      BINDING AFFINITY PREDICTED BY RF-SCORE:    0.00 PKD
ROOT
HETATM    1  C   UNL     1      -5.707  20.593  68.567  1.00  0.00    -0.326 C  
HETATM    2  N   UNL     1      -6.614  19.852  69.440  1.00  0.00    -0.344 NA 
HETATM    3  C   UNL     1      -7.829  19.426  68.709  1.00  0.00    -0.357 C  
HETATM    4  C   UNL     1      -7.601  18.281  67.699  1.00  0.00    -0.220 C  
HETATM    5  N   UNL     1      -7.012  17.124  68.405  1.00  0.00    -0.186 NA 
HETATM    6  C   UNL     1      -5.739  17.453  69.063  1.00  0.00    -0.182 C  
HETATM    7  C   UNL     1      -5.952  18.656  70.021  1.00  0.00    -0.201 C  
ENDROOT
BRANCH   5   8
HETATM    8  C   UNL     1      -7.414  15.836  68.107  1.00  0.00    -0.124 A  
HETATM    9  C   UNL     1      -7.015  14.709  68.819  1.00  0.00    -0.102 A  
HETATM   10  C   UNL     1      -7.411  13.426  68.422  1.00  0.00    -0.117 A  
HETATM   11  C   UNL     1      -8.220  13.233  67.287  1.00  0.00    -0.164 A  
HETATM   12  C   UNL     1      -8.728  14.345  66.594  1.00  0.00    -0.099 A  
HETATM   13  C   UNL     1      -8.312  15.607  67.047  1.00  0.00    -0.261 A  
BRANCH  11  14
HETATM   14  C   UNL     1      -8.460  11.816  66.876  1.00  0.00    -0.174 C  
HETATM   15  H   UNL     1      -7.057  11.190  68.255  1.00  0.00     0.000 HD 
HETATM   16  O   UNL     1      -9.322  11.606  66.024  1.00  0.00    -0.223 OA 
HETATM   17  N   UNL     1      -7.698  10.866  67.531  1.00  0.00    -0.107 N  
BRANCH  17  18
HETATM   18  C   UNL     1      -7.742   9.507  67.275  1.00  0.00    -0.091 A  
HETATM   19  C   UNL     1      -8.592   8.558  67.937  1.00  0.00    -0.134 A  
HETATM   20  C   UNL     1      -9.590   8.574  68.927  1.00  0.00    -0.160 A  
HETATM   21  N   UNL     1      -6.968   8.898  66.376  1.00  0.00    -0.078 NA 
HETATM   22  N   UNL     1      -7.280   7.605  66.468  1.00  0.00    -0.080 NA 
HETATM   23  H   UNL     1      -6.285   9.329  65.752  1.00  0.00     0.000 HD 
HETATM   24  C   UNL     1     -10.152   7.369  69.399  1.00  0.00    -0.185 A  
HETATM   25  C   UNL     1      -9.718   6.151  68.861  1.00  0.00    -0.151 A  
HETATM   26  C   UNL     1      -8.218   7.321  67.421  1.00  0.00    -0.116 A  
HETATM   27  C   UNL     1      -8.749   6.104  67.853  1.00  0.00    -0.113 A  
BRANCH  24  28
HETATM   28  C   UNL     1     -11.254   7.396  70.438  1.00  0.00    -0.284 C  
BRANCH  28  29
HETATM   29  C   UNL     1     -10.876   6.936  71.833  1.00  0.00    -0.258 A  
HETATM   30  C   UNL     1     -11.311   5.726  72.393  1.00  0.00    -0.348 A  
HETATM   31  C   UNL     1     -10.867   5.328  73.654  1.00  0.00    -0.294 A  
HETATM   32  F   UNL     1     -11.282   4.158  74.155  1.00  0.00    -0.265 F  
HETATM   33  C   UNL     1      -9.996   6.115  74.392  1.00  0.00    -0.321 A  
HETATM   34  C   UNL     1      -9.585   7.324  73.855  1.00  0.00    -0.276 A  
HETATM   35  C   UNL     1     -10.013   7.740  72.595  1.00  0.00    -0.298 A  
HETATM   36  F   UNL     1      -8.750   8.105  74.554  1.00  0.00    -0.263 F  
ENDBRANCH  28  29
ENDBRANCH  24  28
ENDBRANCH  17  18
ENDBRANCH  11  14
BRANCH  12  37
HETATM   37  N   UNL     1      -9.539  14.215  65.458  1.00  0.00    -0.544 NA 
HETATM   38  H   UNL     1      -9.150  13.759  64.632  1.00  0.00     0.000 HD 
BRANCH  37  39
HETATM   39  C   UNL     1     -10.926  14.708  65.405  1.00  0.00    -0.353 C  
HETATM   40  C   UNL     1     -11.687  14.650  66.732  1.00  0.00    -0.355 C  
HETATM   41  O   UNL     1     -12.827  12.618  66.025  1.00  0.00    -0.161 OA 
HETATM   42  C   UNL     1     -12.030  12.518  64.846  1.00  0.00    -0.412 C  
HETATM   43  C   UNL     1     -11.683  13.911  64.345  1.00  0.00    -0.427 C  
HETATM   44  C   UNL     1     -12.120  13.238  67.097  1.00  0.00    -0.298 C  
ENDBRANCH  37  39
ENDBRANCH  12  37
ENDBRANCH   5   8
TORSDOF 7
ENDMDL
MODEL       63
REMARK 921   NORMALIZED FREE ENERGY PREDICTED BY IDOCK:   -6.22 KCAL/MOL
REMARK 922        TOTAL FREE ENERGY PREDICTED BY IDOCK:  -11.29 KCAL/MOL
REMARK 923 INTER-LIGAND FREE ENERGY PREDICTED BY IDOCK:   -9.27 KCAL/MOL
REMARK 924 INTRA-LIGAND FREE ENERGY PREDICTED BY IDOCK:   -2.02 KCAL/MOL
REMARK 927      BINDING AFFINITY PREDICTED BY RF-SCORE:    0.00 PKD
ROOT
HETATM    1  C   UNL     1      -9.486  21.081  67.360  1.00  0.00    -0.120 C  
HETATM    2  N   UNL     1      -9.198  19.993  66.429  1.00  0.00    -0.369 NA 
HETATM    3  C   UNL     1      -8.165  19.084  66.974  1.00  0.00    -0.270 C  
HETATM    4  C   UNL     1      -8.649  18.183  68.130  1.00  0.00    -0.274 C  
HETATM    5  N   UNL     1      -9.816  17.398  67.677  1.00  0.00    -0.274 NA 
HETATM    6  C   UNL     1     -10.926  18.249  67.224  1.00  0.00    -0.079 C  
HETATM    7  C   UNL     1     -10.419  19.208  66.114  1.00  0.00    -0.477 C  
ENDROOT
BRANCH   5   8
HETATM    8  C   UNL     1      -9.960  16.073  68.042  1.00  0.00    -0.229 A  
HETATM    9  C   UNL     1     -10.142  15.640  69.352  1.00  0.00    -0.269 A  
HETATM   10  C   UNL     1     -10.217  14.275  69.657  1.00  0.00     0.254 A  
HETATM   11  C   UNL     1     -10.106  13.298  68.652  1.00  0.00    -0.151 A  
HETATM   12  C   UNL     1     -10.019  13.687  67.304  1.00  0.00    -0.240 A  
HETATM   13  C   UNL     1      -9.965  15.068  67.056  1.00  0.00    -0.242 A  
BRANCH  11  14
HETATM   14  C   UNL     1     -10.055  11.876  69.111  1.00  0.00     0.174 C  
HETATM   15  H   UNL     1     -11.947  12.080  69.912  1.00  0.00     0.000 HD 
HETATM   16  O   UNL     1      -9.056  11.218  68.823  1.00  0.00    -0.174 OA 
HETATM   17  N   UNL     1     -11.170  11.428  69.794  1.00  0.00    -0.230 N  
BRANCH  17  18
HETATM   18  C   UNL     1     -11.309  10.160  70.331  1.00  0.00    -0.326 A  
HETATM   19  C   UNL     1     -11.060   8.928  69.640  1.00  0.00    -0.056 A  
HETATM   20  C   UNL     1     -10.619   8.523  68.367  1.00  0.00    -0.161 A  
HETATM   21  N   UNL     1     -11.720   9.926  71.577  1.00  0.00    -0.372 NA 
HETATM   22  N   UNL     1     -11.764   8.598  71.684  1.00  0.00    -0.291 NA 
HETATM   23  H   UNL     1     -11.951  10.615  72.294  1.00  0.00     0.000 HD 
HETATM   24  C   UNL     1     -10.592   7.156  68.018  1.00  0.00    -0.251 A  
HETATM   25  C   UNL     1     -10.996   6.199  68.958  1.00  0.00    -0.436 A  
HETATM   26  C   UNL     1     -11.424   7.932  70.541  1.00  0.00    -0.195 A  
HETATM   27  C   UNL     1     -11.410   6.568  70.242  1.00  0.00    -0.456 A  
BRANCH  24  28
HETATM   28  C   UNL     1     -10.080   6.725  66.659  1.00  0.00    -0.205 C  
BRANCH  28  29
HETATM   29  C   UNL     1      -8.750   7.309  66.224  1.00  0.00    -0.162 A  
HETATM   30  C   UNL     1      -7.513   6.704  66.495  1.00  0.00    -0.078 A  
HETATM   31  C   UNL     1      -6.332   7.256  66.001  1.00  0.00    -0.041 A  
HETATM   32  F   UNL     1      -5.167   6.646  66.258  1.00  0.00    -0.014 F  
HETATM   33  C   UNL     1      -6.340   8.415  65.241  1.00  0.00    -0.052 A  
HETATM   34  C   UNL     1      -7.556   9.031  64.993  1.00  0.00    -0.103 A  
HETATM   35  C   UNL     1      -8.751   8.496  65.473  1.00  0.00    -0.208 A  
HETATM   36  F   UNL     1      -7.588  10.157  64.268  1.00  0.00    -0.132 F  
ENDBRANCH  28  29
ENDBRANCH  24  28
ENDBRANCH  17  18
ENDBRANCH  11  14
BRANCH  12  37
HETATM   37  N   UNL     1      -9.906  12.760  66.260  1.00  0.00    -0.264 NA 
HETATM   38  H   UNL     1      -8.997  12.639  65.812  1.00  0.00     0.000 HD 
BRANCH  37  39
HETATM   39  C   UNL     1     -11.041  11.952  65.782  1.00  0.00    -0.317 C  
HETATM   40  C   UNL     1     -10.782  11.169  64.492  1.00  0.00    -0.368 C  
HETATM   41  O   UNL     1     -11.977  12.849  63.197  1.00  0.00    -0.529 OA 
HETATM   42  C   UNL     1     -12.103  13.708  64.328  1.00  0.00    -0.434 C  
HETATM   43  C   UNL     1     -12.245  12.871  65.590  1.00  0.00    -0.519 C  
HETATM   44  C   UNL     1     -10.793  12.057  63.257  1.00  0.00    -0.334 C  
ENDBRANCH  37  39
ENDBRANCH  12  37
ENDBRANCH   5   8
TORSDOF 7
ENDMDL
MODEL       64
REMARK 921   NORMALIZED FREE ENERGY PREDICTED BY IDOCK:   -6.20 KCAL/MOL
REMARK 922        TOTAL FREE ENERGY PREDICTED BY IDOCK:  -11.25 KCAL/MOL
REMARK 923 INTER-LIGAND FREE ENERGY PREDICTED BY IDOCK:   -9.20 KCAL/MOL
REMARK 924 INTRA-LIGAND FREE ENERGY PREDICTED BY IDOCK:   -2.05 KCAL/MOL
REMARK 927      BINDING AFFINITY PREDICTED BY RF-SCORE:    0.00 PKD
ROOT
HETATM    1  C   UNL     1     -13.227  15.800  73.101  1.00  0.00    -0.591 C  
HETATM    2  N   UNL     1     -13.910  15.267  71.925  1.00  0.00    -0.472 NA 
HETATM    3  C   UNL     1     -13.027  15.296  70.736  1.00  0.00    -0.436 C  
HETATM    4  C   UNL     1     -11.894  14.248  70.755  1.00  0.00    -0.269 C  
HETATM    5  N   UNL     1     -12.482  12.901  70.907  1.00  0.00    -0.351 NA 
HETATM    6  C   UNL     1     -13.284  12.772  72.132  1.00  0.00    -0.441 C  
HETATM    7  C   UNL     1     -14.376  13.875  72.150  1.00  0.00    -0.438 C  
ENDROOT
BRANCH   5   8
HETATM    8  C   UNL     1     -11.977  11.827  70.200  1.00  0.00    -0.339 A  
HETATM    9  C   UNL     1     -11.624  10.610  70.775  1.00  0.00    -0.388 A  
HETATM   10  C   UNL     1     -11.059   9.584  70.007  1.00  0.00    -0.268 A  
HETATM   11  C   UNL     1     -10.822   9.753  68.631  1.00  0.00    -0.223 A  
HETATM   12  C   UNL     1     -11.250  10.926  67.986  1.00  0.00    -0.314 A  
HETATM   13  C   UNL     1     -11.827  11.912  68.803  1.00  0.00    -0.371 A  
BRANCH  11  14
HETATM   14  C   UNL     1     -10.083   8.649  67.944  1.00  0.00    -0.203 C  
HETATM   15  H   UNL     1      -8.379   9.152  68.996  1.00  0.00     0.000 HD 
HETATM   16  O   UNL     1     -10.715   7.939  67.164  1.00  0.00    -0.326 OA 
HETATM   17  N   UNL     1      -8.751   8.516  68.289  1.00  0.00    -0.142 N  
BRANCH  17  18
HETATM   18  C   UNL     1      -7.886   7.583  67.746  1.00  0.00    -0.117 A  
HETATM   19  C   UNL     1      -7.694   6.243  68.222  1.00  0.00    -0.104 A  
HETATM   20  C   UNL     1      -8.215   5.418  69.235  1.00  0.00    -0.093 A  
HETATM   21  N   UNL     1      -7.093   7.830  66.703  1.00  0.00    -0.077 NA 
HETATM   22  N   UNL     1      -6.394   6.708  66.526  1.00  0.00    -0.041 NA 
HETATM   23  H   UNL     1      -7.033   8.691  66.159  1.00  0.00     0.000 HD 
HETATM   24  C   UNL     1      -7.681   4.131  69.458  1.00  0.00    -0.053 A  
HETATM   25  C   UNL     1      -6.633   3.673  68.649  1.00  0.00    -0.041 A  
HETATM   26  C   UNL     1      -6.671   5.726  67.434  1.00  0.00    -0.059 A  
HETATM   27  C   UNL     1      -6.115   4.458  67.613  1.00  0.00    -0.031 A  
BRANCH  24  28
HETATM   28  C   UNL     1      -8.271   3.233  70.524  1.00  0.00    -0.072 C  
BRANCH  28  29
HETATM   29  C   UNL     1      -8.519   3.869  71.879  1.00  0.00    -0.107 A  
HETATM   30  C   UNL     1      -9.758   3.833  72.536  1.00  0.00    -0.205 A  
HETATM   31  C   UNL     1      -9.898   4.373  73.814  1.00  0.00    -0.135 A  
HETATM   32  F   UNL     1     -11.088   4.306  74.426  1.00  0.00    -0.256 F  
HETATM   33  C   UNL     1      -8.829   4.967  74.467  1.00  0.00    -0.111 A  
HETATM   34  C   UNL     1      -7.610   5.029  73.812  1.00  0.00    -0.091 A  
HETATM   35  C   UNL     1      -7.445   4.492  72.535  1.00  0.00    -0.083 A  
HETATM   36  F   UNL     1      -6.565   5.606  74.419  1.00  0.00    -0.067 F  
ENDBRANCH  28  29
ENDBRANCH  24  28
ENDBRANCH  17  18
ENDBRANCH  11  14
BRANCH  12  37
HETATM   37  N   UNL     1     -11.043  11.150  66.619  1.00  0.00    -0.241 NA 
HETATM   38  H   UNL     1     -11.675  10.707  65.951  1.00  0.00     0.000 HD 
BRANCH  37  39
HETATM   39  C   UNL     1      -9.952  11.995  66.103  1.00  0.00    -0.231 C  
HETATM   40  C   UNL     1     -10.234  13.500  66.118  1.00  0.00    -0.303 C  
HETATM   41  O   UNL     1     -10.759  13.456  63.741  1.00  0.00    -0.135 OA 
HETATM   42  C   UNL     1     -10.679  12.033  63.695  1.00  0.00    -0.449 C  
HETATM   43  C   UNL     1      -9.625  11.550  64.680  1.00  0.00    -0.186 C  
HETATM   44  C   UNL     1     -11.192  13.926  65.016  1.00  0.00    -0.342 C  
ENDBRANCH  37  39
ENDBRANCH  12  37
ENDBRANCH   5   8
TORSDOF 7
ENDMDL
MODEL       65
REMARK 921   NORMALIZED FREE ENERGY PREDICTED BY IDOCK:   -6.15 KCAL/MOL
REMARK 922        TOTAL FREE ENERGY PREDICTED BY IDOCK:  -11.19 KCAL/MOL
REMARK 923 INTER-LIGAND FREE ENERGY PREDICTED BY IDOCK:   -9.46 KCAL/MOL
REMARK 924 INTRA-LIGAND FREE ENERGY PREDICTED BY IDOCK:   -1.74 KCAL/MOL
REMARK 927      BINDING AFFINITY PREDICTED BY RF-SCORE:    0.00 PKD
ROOT
HETATM    1  C   UNL     1      -5.518   5.296  63.089  1.00  0.00    -0.013 C  
HETATM    2  N   UNL     1      -5.236   6.360  64.049  1.00  0.00    -0.021 NA 
HETATM    3  C   UNL     1      -6.249   7.436  63.967  1.00  0.00    -0.048 C  
HETATM    4  C   UNL     1      -7.631   7.059  64.542  1.00  0.00    -0.107 C  
HETATM    5  N   UNL     1      -7.470   6.631  65.947  1.00  0.00    -0.079 NA 
HETATM    6  C   UNL     1      -6.557   5.488  66.088  1.00  0.00    -0.051 C  
HETATM    7  C   UNL     1      -5.191   5.840  65.440  1.00  0.00    -0.009 C  
ENDROOT
BRANCH   5   8
HETATM    8  C   UNL     1      -8.391   7.005  66.908  1.00  0.00    -0.118 A  
HETATM    9  C   UNL     1      -9.446   7.883  66.679  1.00  0.00    -0.270 A  
HETATM   10  C   UNL     1     -10.305   8.267  67.716  1.00  0.00    -0.296 A  
HETATM   11  C   UNL     1     -10.126   7.783  69.025  1.00  0.00    -0.198 A  
HETATM   12  C   UNL     1      -9.136   6.820  69.285  1.00  0.00    -0.139 A  
HETATM   13  C   UNL     1      -8.317   6.459  68.204  1.00  0.00    -0.116 A  
BRANCH  11  14
HETATM   14  C   UNL     1     -11.010   8.372  70.077  1.00  0.00    -0.194 C  
HETATM   15  H   UNL     1     -11.121  10.122  68.987  1.00  0.00     0.000 HD 
HETATM   16  O   UNL     1     -11.322   7.655  71.027  1.00  0.00    -0.263 OA 
HETATM   17  N   UNL     1     -11.422   9.672  69.853  1.00  0.00    -0.159 N  
BRANCH  17  18
HETATM   18  C   UNL     1     -12.213  10.409  70.717  1.00  0.00    -0.359 A  
HETATM   19  C   UNL     1     -12.349  11.837  70.715  1.00  0.00    -0.433 A  
HETATM   20  C   UNL     1     -11.864  12.924  69.966  1.00  0.00    -0.356 A  
HETATM   21  N   UNL     1     -12.946   9.868  71.691  1.00  0.00    -0.400 NA 
HETATM   22  N   UNL     1     -13.512  10.902  72.314  1.00  0.00    -0.170 NA 
HETATM   23  H   UNL     1     -13.050   8.877  71.911  1.00  0.00     0.000 HD 
HETATM   24  C   UNL     1     -12.162  14.249  70.348  1.00  0.00    -0.411 A  
HETATM   25  C   UNL     1     -12.963  14.475  71.474  1.00  0.00    -0.406 A  
HETATM   26  C   UNL     1     -13.160  12.122  71.809  1.00  0.00    -0.352 A  
HETATM   27  C   UNL     1     -13.486  13.415  72.221  1.00  0.00    -0.683 A  
BRANCH  24  28
HETATM   28  C   UNL     1     -11.668  15.414  69.515  1.00  0.00    -0.364 C  
BRANCH  28  29
HETATM   29  C   UNL     1     -11.410  15.131  68.047  1.00  0.00    -0.346 A  
HETATM   30  C   UNL     1     -10.327  15.669  67.334  1.00  0.00    -0.275 A  
HETATM   31  C   UNL     1     -10.106  15.310  66.005  1.00  0.00    -0.318 A  
HETATM   32  F   UNL     1      -9.053  15.822  65.355  1.00  0.00    -0.244 F  
HETATM   33  C   UNL     1     -10.946  14.425  65.348  1.00  0.00    -0.343 A  
HETATM   34  C   UNL     1     -12.032  13.911  66.039  1.00  0.00    -0.412 A  
HETATM   35  C   UNL     1     -12.272  14.253  67.370  1.00  0.00    -0.267 A  
HETATM   36  F   UNL     1     -12.863  13.061  65.422  1.00  0.00    -0.533 F  
ENDBRANCH  28  29
ENDBRANCH  24  28
ENDBRANCH  17  18
ENDBRANCH  11  14
BRANCH  12  37
HETATM   37  N   UNL     1      -8.912   6.302  70.567  1.00  0.00    -0.150 NA 
HETATM   38  H   UNL     1      -9.654   5.759  71.010  1.00  0.00     0.000 HD 
BRANCH  37  39
HETATM   39  C   UNL     1      -7.652   6.505  71.303  1.00  0.00    -0.094 C  
HETATM   40  C   UNL     1      -6.840   5.234  71.565  1.00  0.00    -0.053 C  
HETATM   41  O   UNL     1      -7.670   5.138  73.852  1.00  0.00    -0.097 OA 
HETATM   42  C   UNL     1      -8.578   6.215  73.623  1.00  0.00    -0.124 C  
HETATM   43  C   UNL     1      -7.970   7.191  72.629  1.00  0.00    -0.108 C  
HETATM   44  C   UNL     1      -7.438   4.375  72.670  1.00  0.00    -0.079 C  
ENDBRANCH  37  39
ENDBRANCH  12  37
ENDBRANCH   5   8
TORSDOF 7
ENDMDL
MODEL       66
REMARK 921   NORMALIZED FREE ENERGY PREDICTED BY IDOCK:   -6.12 KCAL/MOL
REMARK 922        TOTAL FREE ENERGY PREDICTED BY IDOCK:  -11.15 KCAL/MOL
REMARK 923 INTER-LIGAND FREE ENERGY PREDICTED BY IDOCK:  -10.06 KCAL/MOL
REMARK 924 INTRA-LIGAND FREE ENERGY PREDICTED BY IDOCK:   -1.09 KCAL/MOL
REMARK 927      BINDING AFFINITY PREDICTED BY RF-SCORE:    0.00 PKD
ROOT
HETATM    1  C   UNL     1      -5.898   4.512  73.558  1.00  0.00    -0.013 C  
HETATM    2  N   UNL     1      -5.247   5.021  72.354  1.00  0.00    -0.008 NA 
HETATM    3  C   UNL     1      -5.881   4.474  71.133  1.00  0.00    -0.017 C  
HETATM    4  C   UNL     1      -7.276   5.056  70.821  1.00  0.00    -0.060 C  
HETATM    5  N   UNL     1      -7.175   6.526  70.716  1.00  0.00    -0.069 NA 
HETATM    6  C   UNL     1      -6.653   7.144  71.944  1.00  0.00    -0.051 C  
HETATM    7  C   UNL     1      -5.285   6.504  72.300  1.00  0.00    -0.031 C  
ENDROOT
BRANCH   5   8
HETATM    8  C   UNL     1      -7.879   7.214  69.746  1.00  0.00    -0.118 A  
HETATM    9  C   UNL     1      -7.445   7.376  68.434  1.00  0.00    -0.105 A  
HETATM   10  C   UNL     1      -8.179   8.140  67.519  1.00  0.00    -0.123 A  
HETATM   11  C   UNL     1      -9.376   8.775  67.897  1.00  0.00    -0.155 A  
HETATM   12  C   UNL     1      -9.905   8.563  69.181  1.00  0.00    -0.186 A  
HETATM   13  C   UNL     1      -9.135   7.773  70.050  1.00  0.00    -0.150 A  
BRANCH  11  14
HETATM   14  C   UNL     1      -9.996   9.681  66.882  1.00  0.00    -0.212 C  
HETATM   15  H   UNL     1     -10.120  11.172  68.304  1.00  0.00     0.000 HD 
HETATM   16  O   UNL     1     -10.124   9.251  65.736  1.00  0.00    -0.268 OA 
HETATM   17  N   UNL     1     -10.336  10.942  67.334  1.00  0.00    -0.201 N  
BRANCH  17  18
HETATM   18  C   UNL     1     -10.950  11.916  66.566  1.00  0.00    -0.292 A  
HETATM   19  C   UNL     1     -10.437  13.232  66.318  1.00  0.00    -0.289 A  
HETATM   20  C   UNL     1      -9.292  13.979  66.649  1.00  0.00    -0.292 A  
HETATM   21  N   UNL     1     -12.129  11.750  65.965  1.00  0.00    -0.276 NA 
HETATM   22  N   UNL     1     -12.385  12.918  65.376  1.00  0.00    -0.482 NA 
HETATM   23  H   UNL     1     -12.709  10.910  65.958  1.00  0.00     0.000 HD 
HETATM   24  C   UNL     1      -9.188  15.337  66.282  1.00  0.00    -0.350 A  
HETATM   25  C   UNL     1     -10.233  15.936  65.566  1.00  0.00    -0.394 A  
HETATM   26  C   UNL     1     -11.431  13.873  65.586  1.00  0.00    -0.318 A  
HETATM   27  C   UNL     1     -11.371  15.212  65.195  1.00  0.00    -0.357 A  
BRANCH  24  28
HETATM   28  C   UNL     1      -7.936  16.124  66.608  1.00  0.00    -0.305 C  
BRANCH  28  29
HETATM   29  C   UNL     1      -8.123  17.602  66.891  1.00  0.00    -0.249 A  
HETATM   30  C   UNL     1      -8.868  18.095  67.974  1.00  0.00    -0.286 A  
HETATM   31  C   UNL     1      -8.939  19.465  68.219  1.00  0.00    -0.336 A  
HETATM   32  F   UNL     1      -9.639  19.906  69.272  1.00  0.00    -0.387 F  
HETATM   33  C   UNL     1      -8.289  20.378  67.403  1.00  0.00    -0.380 A  
HETATM   34  C   UNL     1      -7.575  19.899  66.317  1.00  0.00    -0.310 A  
HETATM   35  C   UNL     1      -7.487  18.533  66.054  1.00  0.00    -0.259 A  
HETATM   36  F   UNL     1      -6.946  20.763  65.509  1.00  0.00    -0.247 F  
ENDBRANCH  28  29
ENDBRANCH  24  28
ENDBRANCH  17  18
ENDBRANCH  11  14
BRANCH  12  37
HETATM   37  N   UNL     1     -11.092   9.168  69.614  1.00  0.00    -0.405 NA 
HETATM   38  H   UNL     1     -11.905   9.139  68.999  1.00  0.00     0.000 HD 
BRANCH  37  39
HETATM   39  C   UNL     1     -11.216   9.843  70.917  1.00  0.00    -0.360 C  
HETATM   40  C   UNL     1     -11.042   8.936  72.138  1.00  0.00    -0.355 C  
HETATM   41  O   UNL     1     -13.456   8.825  72.438  1.00  0.00    -0.403 OA 
HETATM   42  C   UNL     1     -13.693   9.522  71.216  1.00  0.00    -0.171 C  
HETATM   43  C   UNL     1     -12.579  10.529  70.980  1.00  0.00    -0.499 C  
HETATM   44  C   UNL     1     -12.257   8.055  72.390  1.00  0.00    -0.287 C  
ENDBRANCH  37  39
ENDBRANCH  12  37
ENDBRANCH   5   8
TORSDOF 7
ENDMDL
MODEL       67
REMARK 921   NORMALIZED FREE ENERGY PREDICTED BY IDOCK:   -6.12 KCAL/MOL
REMARK 922        TOTAL FREE ENERGY PREDICTED BY IDOCK:  -11.14 KCAL/MOL
REMARK 923 INTER-LIGAND FREE ENERGY PREDICTED BY IDOCK:   -9.29 KCAL/MOL
REMARK 924 INTRA-LIGAND FREE ENERGY PREDICTED BY IDOCK:   -1.85 KCAL/MOL
REMARK 927      BINDING AFFINITY PREDICTED BY RF-SCORE:    0.00 PKD
ROOT
HETATM    1  C   UNL     1      -6.174   2.824  74.339  1.00  0.00    -0.012 C  
HETATM    2  N   UNL     1      -6.079   2.685  72.888  1.00  0.00    -0.008 NA 
HETATM    3  C   UNL     1      -7.419   2.523  72.279  1.00  0.00    -0.044 C  
HETATM    4  C   UNL     1      -8.275   3.808  72.264  1.00  0.00    -0.084 C  
HETATM    5  N   UNL     1      -7.532   4.876  71.562  1.00  0.00    -0.080 NA 
HETATM    6  C   UNL     1      -6.233   5.163  72.186  1.00  0.00    -0.030 C  
HETATM    7  C   UNL     1      -5.403   3.854  72.272  1.00  0.00     0.000 C  
ENDROOT
BRANCH   5   8
HETATM    8  C   UNL     1      -8.184   5.742  70.705  1.00  0.00    -0.123 A  
HETATM    9  C   UNL     1      -7.554   6.460  69.693  1.00  0.00    -0.094 A  
HETATM   10  C   UNL     1      -8.267   7.370  68.902  1.00  0.00    -0.129 A  
HETATM   11  C   UNL     1      -9.639   7.594  69.108  1.00  0.00    -0.155 A  
HETATM   12  C   UNL     1     -10.339   6.823  70.052  1.00  0.00    -0.199 A  
HETATM   13  C   UNL     1      -9.578   5.914  70.804  1.00  0.00    -0.203 A  
BRANCH  11  14
HETATM   14  C   UNL     1     -10.262   8.690  68.304  1.00  0.00    -0.198 C  
HETATM   15  H   UNL     1      -9.852  10.023  69.826  1.00  0.00     0.000 HD 
HETATM   16  O   UNL     1     -10.672   8.410  67.179  1.00  0.00    -0.291 OA 
HETATM   17  N   UNL     1     -10.281   9.935  68.904  1.00  0.00    -0.186 N  
BRANCH  17  18
HETATM   18  C   UNL     1     -10.839  11.071  68.345  1.00  0.00    -0.220 A  
HETATM   19  C   UNL     1     -10.157  12.313  68.117  1.00  0.00    -0.211 A  
HETATM   20  C   UNL     1      -8.862  12.832  68.292  1.00  0.00    -0.168 A  
HETATM   21  N   UNL     1     -12.112  11.156  67.959  1.00  0.00    -0.711 NA 
HETATM   22  N   UNL     1     -12.260  12.408  67.526  1.00  0.00    -0.363 NA 
HETATM   23  H   UNL     1     -12.820  10.422  67.990  1.00  0.00     0.000 HD 
HETATM   24  C   UNL     1      -8.591  14.191  68.025  1.00  0.00    -0.172 A  
HETATM   25  C   UNL     1      -9.623  15.020  67.566  1.00  0.00    -0.203 A  
HETATM   26  C   UNL     1     -11.136  13.176  67.635  1.00  0.00    -0.270 A  
HETATM   27  C   UNL     1     -10.914  14.525  67.352  1.00  0.00    -0.306 A  
BRANCH  24  28
HETATM   28  C   UNL     1      -7.186  14.735  68.180  1.00  0.00    -0.125 C  
BRANCH  28  29
HETATM   29  C   UNL     1      -7.011  16.224  67.955  1.00  0.00    -0.140 A  
HETATM   30  C   UNL     1      -6.976  17.165  68.996  1.00  0.00    -0.235 A  
HETATM   31  C   UNL     1      -6.737  18.512  68.725  1.00  0.00    -0.266 A  
HETATM   32  F   UNL     1      -6.689  19.385  69.740  1.00  0.00    -0.322 F  
HETATM   33  C   UNL     1      -6.539  18.963  67.430  1.00  0.00    -0.199 A  
HETATM   34  C   UNL     1      -6.599  18.042  66.395  1.00  0.00    -0.221 A  
HETATM   35  C   UNL     1      -6.832  16.690  66.642  1.00  0.00    -0.219 A  
HETATM   36  F   UNL     1      -6.418  18.456  65.134  1.00  0.00    -0.301 F  
ENDBRANCH  28  29
ENDBRANCH  24  28
ENDBRANCH  17  18
ENDBRANCH  11  14
BRANCH  12  37
HETATM   37  N   UNL     1     -11.706   7.001  70.301  1.00  0.00    -0.529 NA 
HETATM   38  H   UNL     1     -12.338   7.099  69.506  1.00  0.00     0.000 HD 
BRANCH  37  39
HETATM   39  C   UNL     1     -12.272   7.052  71.661  1.00  0.00    -0.357 C  
HETATM   40  C   UNL     1     -13.798   7.163  71.726  1.00  0.00    -0.375 C  
HETATM   41  O   UNL     1     -13.637   9.553  72.157  1.00  0.00    -0.424 OA 
HETATM   42  C   UNL     1     -12.227   9.552  71.939  1.00  0.00    -0.358 C  
HETATM   43  C   UNL     1     -11.642   8.228  72.405  1.00  0.00    -0.464 C  
HETATM   44  C   UNL     1     -14.298   8.557  71.380  1.00  0.00    -0.298 C  
ENDBRANCH  37  39
ENDBRANCH  12  37
ENDBRANCH   5   8
TORSDOF 7
ENDMDL
MODEL       68
REMARK 921   NORMALIZED FREE ENERGY PREDICTED BY IDOCK:   -6.07 KCAL/MOL
REMARK 922        TOTAL FREE ENERGY PREDICTED BY IDOCK:  -11.07 KCAL/MOL
REMARK 923 INTER-LIGAND FREE ENERGY PREDICTED BY IDOCK:   -9.13 KCAL/MOL
REMARK 924 INTRA-LIGAND FREE ENERGY PREDICTED BY IDOCK:   -1.94 KCAL/MOL
REMARK 927      BINDING AFFINITY PREDICTED BY RF-SCORE:    0.00 PKD
ROOT
HETATM    1  C   UNL     1      -9.543   2.405  63.349  1.00  0.00    -0.103 C  
HETATM    2  N   UNL     1      -8.643   2.679  64.466  1.00  0.00    -0.091 NA 
HETATM    3  C   UNL     1      -7.752   3.822  64.165  1.00  0.00    -0.083 C  
HETATM    4  C   UNL     1      -8.450   5.199  64.176  1.00  0.00    -0.127 C  
HETATM    5  N   UNL     1      -9.097   5.403  65.489  1.00  0.00    -0.148 NA 
HETATM    6  C   UNL     1     -10.080   4.356  65.801  1.00  0.00    -0.245 C  
HETATM    7  C   UNL     1      -9.396   2.965  65.714  1.00  0.00    -0.059 C  
ENDROOT
BRANCH   5   8
HETATM    8  C   UNL     1      -9.064   6.638  66.108  1.00  0.00    -0.118 A  
HETATM    9  C   UNL     1      -8.203   7.670  65.745  1.00  0.00    -0.133 A  
HETATM   10  C   UNL     1      -8.179   8.875  66.458  1.00  0.00    -0.114 A  
HETATM   11  C   UNL     1      -9.020   9.081  67.566  1.00  0.00    -0.131 A  
HETATM   12  C   UNL     1      -9.974   8.108  67.911  1.00  0.00    -0.182 A  
HETATM   13  C   UNL     1      -9.964   6.928  67.150  1.00  0.00    -0.239 A  
BRANCH  11  14
HETATM   14  C   UNL     1      -8.806  10.345  68.336  1.00  0.00    -0.136 C  
HETATM   15  H   UNL     1      -6.775  10.193  67.999  1.00  0.00     0.000 HD 
HETATM   16  O   UNL     1      -9.801  10.927  68.766  1.00  0.00    -0.184 OA 
HETATM   17  N   UNL     1      -7.492  10.756  68.457  1.00  0.00    -0.093 N  
BRANCH  17  18
HETATM   18  C   UNL     1      -7.078  11.876  69.156  1.00  0.00    -0.053 A  
HETATM   19  C   UNL     1      -7.254  13.237  68.736  1.00  0.00    -0.088 A  
HETATM   20  C   UNL     1      -7.837  13.921  67.654  1.00  0.00    -0.187 A  
HETATM   21  N   UNL     1      -6.434  11.824  70.322  1.00  0.00    -0.481 NA 
HETATM   22  N   UNL     1      -6.176  13.094  70.633  1.00  0.00    -0.054 NA 
HETATM   23  H   UNL     1      -6.191  10.991  70.860  1.00  0.00     0.000 HD 
HETATM   24  C   UNL     1      -7.718  15.323  67.543  1.00  0.00    -0.200 A  
HETATM   25  C   UNL     1      -7.025  16.033  68.531  1.00  0.00    -0.131 A  
HETATM   26  C   UNL     1      -6.599  13.998  69.700  1.00  0.00    -0.099 A  
HETATM   27  C   UNL     1      -6.461  15.385  69.635  1.00  0.00    -0.171 A  
BRANCH  24  28
HETATM   28  C   UNL     1      -8.380  16.057  66.396  1.00  0.00    -0.344 C  
BRANCH  28  29
HETATM   29  C   UNL     1      -8.615  17.542  66.592  1.00  0.00    -0.284 A  
HETATM   30  C   UNL     1      -9.750  18.069  67.228  1.00  0.00    -0.297 A  
HETATM   31  C   UNL     1      -9.870  19.441  67.442  1.00  0.00    -0.345 A  
HETATM   32  F   UNL     1     -10.954  19.914  68.070  1.00  0.00    -0.456 F  
HETATM   33  C   UNL     1      -8.884  20.324  67.028  1.00  0.00    -0.427 A  
HETATM   34  C   UNL     1      -7.773  19.812  66.376  1.00  0.00    -0.303 A  
HETATM   35  C   UNL     1      -7.631  18.443  66.154  1.00  0.00    -0.270 A  
HETATM   36  F   UNL     1      -6.812  20.646  65.959  1.00  0.00    -0.259 F  
ENDBRANCH  28  29
ENDBRANCH  24  28
ENDBRANCH  17  18
ENDBRANCH  11  14
BRANCH  12  37
HETATM   37  N   UNL     1     -10.838   8.258  69.003  1.00  0.00    -0.421 NA 
HETATM   38  H   UNL     1     -11.689   8.806  68.880  1.00  0.00     0.000 HD 
BRANCH  37  39
HETATM   39  C   UNL     1     -10.570   7.658  70.322  1.00  0.00    -0.230 C  
HETATM   40  C   UNL     1     -11.611   6.639  70.795  1.00  0.00    -0.432 C  
HETATM   41  O   UNL     1     -12.641   8.312  72.233  1.00  0.00    -0.334 OA 
HETATM   42  C   UNL     1     -11.814   9.349  71.708  1.00  0.00    -0.382 C  
HETATM   43  C   UNL     1     -10.450   8.781  71.350  1.00  0.00    -0.354 C  
HETATM   44  C   UNL     1     -12.899   7.295  71.268  1.00  0.00    -0.346 C  
ENDBRANCH  37  39
ENDBRANCH  12  37
ENDBRANCH   5   8
TORSDOF 7
ENDMDL
MODEL       69
REMARK 921   NORMALIZED FREE ENERGY PREDICTED BY IDOCK:   -6.06 KCAL/MOL
REMARK 922        TOTAL FREE ENERGY PREDICTED BY IDOCK:  -11.06 KCAL/MOL
REMARK 923 INTER-LIGAND FREE ENERGY PREDICTED BY IDOCK:   -9.17 KCAL/MOL
REMARK 924 INTRA-LIGAND FREE ENERGY PREDICTED BY IDOCK:   -1.90 KCAL/MOL
REMARK 927      BINDING AFFINITY PREDICTED BY RF-SCORE:    0.00 PKD
ROOT
HETATM    1  C   UNL     1      -9.780  20.798  67.260  1.00  0.00    -0.347 C  
HETATM    2  N   UNL     1      -9.480  19.826  66.212  1.00  0.00    -0.393 NA 
HETATM    3  C   UNL     1      -8.192  19.143  66.471  1.00  0.00    -0.306 C  
HETATM    4  C   UNL     1      -8.229  18.126  67.632  1.00  0.00    -0.242 C  
HETATM    5  N   UNL     1      -9.281  17.123  67.364  1.00  0.00    -0.231 NA 
HETATM    6  C   UNL     1     -10.611  17.730  67.206  1.00  0.00    -0.316 C  
HETATM    7  C   UNL     1     -10.554  18.808  66.090  1.00  0.00    -0.377 C  
ENDROOT
BRANCH   5   8
HETATM    8  C   UNL     1      -9.073  15.788  67.652  1.00  0.00    -0.192 A  
HETATM    9  C   UNL     1      -8.580  15.319  68.866  1.00  0.00    -0.207 A  
HETATM   10  C   UNL     1      -8.333  13.955  69.067  1.00  0.00     0.188 A  
HETATM   11  C   UNL     1      -8.569  13.015  68.048  1.00  0.00    -0.186 A  
HETATM   12  C   UNL     1      -9.158  13.427  66.840  1.00  0.00    -0.231 A  
HETATM   13  C   UNL     1      -9.400  14.803  66.701  1.00  0.00    -0.291 A  
BRANCH  11  14
HETATM   14  C   UNL     1      -8.134  11.612  68.325  1.00  0.00    -0.150 C  
HETATM   15  H   UNL     1      -9.187  11.648  70.100  1.00  0.00     0.000 HD 
HETATM   16  O   UNL     1      -7.451  11.047  67.471  1.00  0.00    -0.096 OA 
HETATM   17  N   UNL     1      -8.581  11.072  69.516  1.00  0.00     0.202 N  
BRANCH  17  18
HETATM   18  C   UNL     1      -8.264   9.805  69.974  1.00  0.00    -0.191 A  
HETATM   19  C   UNL     1      -8.778   8.573  69.448  1.00  0.00    -0.136 A  
HETATM   20  C   UNL     1      -9.640   8.165  68.414  1.00  0.00    -0.155 A  
HETATM   21  N   UNL     1      -7.440   9.573  70.997  1.00  0.00    -0.327 NA 
HETATM   22  N   UNL     1      -7.440   8.248  71.148  1.00  0.00    -0.069 NA 
HETATM   23  H   UNL     1      -6.922  10.260  71.545  1.00  0.00     0.000 HD 
HETATM   24  C   UNL     1      -9.990   6.807  68.265  1.00  0.00    -0.153 A  
HETATM   25  C   UNL     1      -9.457   5.859  69.148  1.00  0.00    -0.151 A  
HETATM   26  C   UNL     1      -8.260   7.584  70.280  1.00  0.00    -0.128 A  
HETATM   27  C   UNL     1      -8.573   6.228  70.167  1.00  0.00    -0.134 A  
BRANCH  24  28
HETATM   28  C   UNL     1     -10.889   6.370  67.126  1.00  0.00    -0.467 C  
BRANCH  28  29
HETATM   29  C   UNL     1     -10.252   5.500  66.061  1.00  0.00    -0.061 A  
HETATM   30  C   UNL     1     -10.955   4.528  65.332  1.00  0.00     0.005 A  
HETATM   31  C   UNL     1     -10.326   3.812  64.314  1.00  0.00    -0.245 A  
HETATM   32  F   UNL     1     -11.028   2.906  63.622  1.00  0.00    -0.234 F  
HETATM   33  C   UNL     1      -8.995   4.029  63.998  1.00  0.00    -0.131 A  
HETATM   34  C   UNL     1      -8.287   4.968  64.731  1.00  0.00    -0.140 A  
HETATM   35  C   UNL     1      -8.896   5.698  65.751  1.00  0.00    -0.156 A  
HETATM   36  F   UNL     1      -6.996   5.188  64.449  1.00  0.00    -0.045 F  
ENDBRANCH  28  29
ENDBRANCH  24  28
ENDBRANCH  17  18
ENDBRANCH  11  14
BRANCH  12  37
HETATM   37  N   UNL     1      -9.417  12.537  65.789  1.00  0.00    -0.437 NA 
HETATM   38  H   UNL     1      -8.772  12.516  64.999  1.00  0.00     0.000 HD 
BRANCH  37  39
HETATM   39  C   UNL     1     -10.579  11.632  65.776  1.00  0.00    -0.271 C  
HETATM   40  C   UNL     1     -11.026  11.169  64.386  1.00  0.00    -0.270 C  
HETATM   41  O   UNL     1     -12.830  12.803  64.389  1.00  0.00    -0.700 OA 
HETATM   42  C   UNL     1     -12.365  13.395  65.601  1.00  0.00    -0.470 C  
HETATM   43  C   UNL     1     -11.742  12.324  66.483  1.00  0.00    -0.420 C  
HETATM   44  C   UNL     1     -11.764  12.255  63.618  1.00  0.00    -0.504 C  
ENDBRANCH  37  39
ENDBRANCH  12  37
ENDBRANCH   5   8
TORSDOF 7
ENDMDL
MODEL       70
REMARK 921   NORMALIZED FREE ENERGY PREDICTED BY IDOCK:   -6.04 KCAL/MOL
REMARK 922        TOTAL FREE ENERGY PREDICTED BY IDOCK:  -11.04 KCAL/MOL
REMARK 923 INTER-LIGAND FREE ENERGY PREDICTED BY IDOCK:   -9.53 KCAL/MOL
REMARK 924 INTRA-LIGAND FREE ENERGY PREDICTED BY IDOCK:   -1.51 KCAL/MOL
REMARK 927      BINDING AFFINITY PREDICTED BY RF-SCORE:    0.00 PKD
ROOT
HETATM    1  C   UNL     1      -9.689  16.772  67.660  1.00  0.00    -0.251 C  
HETATM    2  N   UNL     1     -10.891  16.013  67.323  1.00  0.00    -0.293 NA 
HETATM    3  C   UNL     1     -10.545  14.685  66.769  1.00  0.00    -0.288 C  
HETATM    4  C   UNL     1     -10.002  13.679  67.806  1.00  0.00    -0.235 C  
HETATM    5  N   UNL     1     -10.991  13.524  68.893  1.00  0.00    -0.256 NA 
HETATM    6  C   UNL     1     -11.297  14.797  69.563  1.00  0.00    -0.283 C  
HETATM    7  C   UNL     1     -11.770  15.832  68.507  1.00  0.00    -0.319 C  
ENDROOT
BRANCH   5   8
HETATM    8  C   UNL     1     -11.243  12.283  69.446  1.00  0.00    -0.176 A  
HETATM    9  C   UNL     1     -12.205  12.045  70.424  1.00  0.00    -0.379 A  
HETATM   10  C   UNL     1     -12.364  10.772  70.985  1.00  0.00    -0.509 A  
HETATM   11  C   UNL     1     -11.554   9.694  70.585  1.00  0.00    -0.371 A  
HETATM   12  C   UNL     1     -10.637   9.862  69.533  1.00  0.00    -0.242 A  
HETATM   13  C   UNL     1     -10.532  11.155  68.996  1.00  0.00    -0.233 A  
BRANCH  11  14
HETATM   14  C   UNL     1     -11.714   8.422  71.353  1.00  0.00    -0.287 C  
HETATM   15  H   UNL     1      -9.823   8.674  72.142  1.00  0.00     0.000 HD 
HETATM   16  O   UNL     1     -12.790   7.832  71.262  1.00  0.00    -0.303 OA 
HETATM   17  N   UNL     1     -10.632   8.051  72.128  1.00  0.00    -0.250 N  
BRANCH  17  18
HETATM   18  C   UNL     1     -10.564   6.895  72.887  1.00  0.00    -0.261 A  
HETATM   19  C   UNL     1     -10.177   5.600  72.405  1.00  0.00    -0.232 A  
HETATM   20  C   UNL     1      -9.746   5.030  71.194  1.00  0.00    -0.241 A  
HETATM   21  N   UNL     1     -10.877   6.841  74.182  1.00  0.00    -0.373 NA 
HETATM   22  N   UNL     1     -10.728   5.561  74.522  1.00  0.00    -0.203 NA 
HETATM   23  H   UNL     1     -11.168   7.614  74.782  1.00  0.00     0.000 HD 
HETATM   24  C   UNL     1      -9.544   3.637  71.088  1.00  0.00    -0.247 A  
HETATM   25  C   UNL     1      -9.761   2.825  72.207  1.00  0.00    -0.220 A  
HETATM   26  C   UNL     1     -10.353   4.747  73.490  1.00  0.00    -0.198 A  
HETATM   27  C   UNL     1     -10.161   3.365  73.434  1.00  0.00    -0.192 A  
BRANCH  24  28
HETATM   28  C   UNL     1      -9.043   3.035  69.792  1.00  0.00    -0.200 C  
BRANCH  28  29
HETATM   29  C   UNL     1      -9.403   3.778  68.520  1.00  0.00    -0.227 A  
HETATM   30  C   UNL     1      -9.066   3.323  67.236  1.00  0.00    -0.201 A  
HETATM   31  C   UNL     1      -9.492   4.017  66.104  1.00  0.00    -0.186 A  
HETATM   32  F   UNL     1      -9.174   3.548  64.890  1.00  0.00    -0.121 F  
HETATM   33  C   UNL     1     -10.248   5.174  66.210  1.00  0.00    -0.289 A  
HETATM   34  C   UNL     1     -10.561   5.643  67.476  1.00  0.00    -0.221 A  
HETATM   35  C   UNL     1     -10.149   4.964  68.622  1.00  0.00    -0.159 A  
HETATM   36  F   UNL     1     -11.283   6.764  67.603  1.00  0.00    -0.335 F  
ENDBRANCH  28  29
ENDBRANCH  24  28
ENDBRANCH  17  18
ENDBRANCH  11  14
BRANCH  12  37
HETATM   37  N   UNL     1      -9.804   8.825  69.091  1.00  0.00    -0.176 NA 
HETATM   38  H   UNL     1     -10.192   7.884  69.022  1.00  0.00     0.000 HD 
BRANCH  37  39
HETATM   39  C   UNL     1      -8.393   9.035  68.722  1.00  0.00    -0.122 C  
HETATM   40  C   UNL     1      -7.698   7.821  68.100  1.00  0.00    -0.119 C  
HETATM   41  O   UNL     1      -6.627   7.306  70.225  1.00  0.00    -0.045 OA 
HETATM   42  C   UNL     1      -7.373   8.314  70.905  1.00  0.00    -0.059 C  
HETATM   43  C   UNL     1      -7.627   9.482  69.965  1.00  0.00    -0.134 C  
HETATM   44  C   UNL     1      -7.351   6.755  69.127  1.00  0.00    -0.093 C  
ENDBRANCH  37  39
ENDBRANCH  12  37
ENDBRANCH   5   8
TORSDOF 7
ENDMDL
MODEL       71
REMARK 921   NORMALIZED FREE ENERGY PREDICTED BY IDOCK:   -6.02 KCAL/MOL
REMARK 922        TOTAL FREE ENERGY PREDICTED BY IDOCK:  -11.00 KCAL/MOL
REMARK 923 INTER-LIGAND FREE ENERGY PREDICTED BY IDOCK:   -9.92 KCAL/MOL
REMARK 924 INTRA-LIGAND FREE ENERGY PREDICTED BY IDOCK:   -1.08 KCAL/MOL
REMARK 927      BINDING AFFINITY PREDICTED BY RF-SCORE:    0.00 PKD
ROOT
HETATM    1  C   UNL     1      -7.785   2.840  65.692  1.00  0.00    -0.077 C  
HETATM    2  N   UNL     1      -9.136   2.782  66.244  1.00  0.00    -0.141 NA 
HETATM    3  C   UNL     1      -9.106   2.758  67.724  1.00  0.00    -0.182 C  
HETATM    4  C   UNL     1      -8.720   4.101  68.379  1.00  0.00    -0.099 C  
HETATM    5  N   UNL     1      -9.650   5.151  67.915  1.00  0.00    -0.130 NA 
HETATM    6  C   UNL     1      -9.646   5.303  66.453  1.00  0.00    -0.160 C  
HETATM    7  C   UNL     1      -9.958   3.933  65.793  1.00  0.00    -0.088 C  
ENDROOT
BRANCH   5   8
HETATM    8  C   UNL     1     -10.119   6.114  68.789  1.00  0.00    -0.169 A  
HETATM    9  C   UNL     1     -11.281   5.983  69.544  1.00  0.00    -0.416 A  
HETATM   10  C   UNL     1     -11.732   7.027  70.362  1.00  0.00    -0.326 A  
HETATM   11  C   UNL     1     -11.030   8.242  70.443  1.00  0.00    -0.244 A  
HETATM   12  C   UNL     1      -9.801   8.386  69.776  1.00  0.00    -0.187 A  
HETATM   13  C   UNL     1      -9.390   7.302  68.985  1.00  0.00    -0.148 A  
BRANCH  11  14
HETATM   14  C   UNL     1     -11.680   9.333  71.232  1.00  0.00    -0.346 C  
HETATM   15  H   UNL     1     -11.775  10.494  69.528  1.00  0.00     0.000 HD 
HETATM   16  O   UNL     1     -11.916   9.115  72.420  1.00  0.00    -0.278 OA 
HETATM   17  N   UNL     1     -11.985  10.481  70.526  1.00  0.00    -0.313 N  
BRANCH  17  18
HETATM   18  C   UNL     1     -12.557  11.616  71.076  1.00  0.00    -0.331 A  
HETATM   19  C   UNL     1     -12.460  12.944  70.542  1.00  0.00    -0.294 A  
HETATM   20  C   UNL     1     -11.882  13.573  69.424  1.00  0.00    -0.389 A  
HETATM   21  N   UNL     1     -13.267  11.613  72.204  1.00  0.00    -0.545 NA 
HETATM   22  N   UNL     1     -13.594  12.889  72.411  1.00  0.00    -0.564 NA 
HETATM   23  H   UNL     1     -13.508  10.809  72.784  1.00  0.00     0.000 HD 
HETATM   24  C   UNL     1     -11.924  14.977  69.289  1.00  0.00    -0.322 A  
HETATM   25  C   UNL     1     -12.561  15.743  70.273  1.00  0.00    -0.226 A  
HETATM   26  C   UNL     1     -13.101  13.753  71.474  1.00  0.00    -0.357 A  
HETATM   27  C   UNL     1     -13.172  15.144  71.380  1.00  0.00    -0.528 A  
BRANCH  24  28
HETATM   28  C   UNL     1     -11.333  15.644  68.065  1.00  0.00    -0.324 C  
BRANCH  28  29
HETATM   29  C   UNL     1      -9.819  15.673  67.977  1.00  0.00    -0.209 A  
HETATM   30  C   UNL     1      -9.034  14.530  67.765  1.00  0.00    -0.190 A  
HETATM   31  C   UNL     1      -7.651  14.637  67.621  1.00  0.00    -0.180 A  
HETATM   32  F   UNL     1      -6.928  13.532  67.399  1.00  0.00    -0.157 F  
HETATM   33  C   UNL     1      -7.012  15.865  67.691  1.00  0.00    -0.187 A  
HETATM   34  C   UNL     1      -7.780  16.995  67.927  1.00  0.00    -0.175 A  
HETATM   35  C   UNL     1      -9.164  16.912  68.071  1.00  0.00    -0.235 A  
HETATM   36  F   UNL     1      -7.183  18.191  68.008  1.00  0.00    -0.208 F  
ENDBRANCH  28  29
ENDBRANCH  24  28
ENDBRANCH  17  18
ENDBRANCH  11  14
BRANCH  12  37
HETATM   37  N   UNL     1      -9.057   9.572  69.820  1.00  0.00    -0.188 NA 
HETATM   38  H   UNL     1      -8.287   9.640  70.485  1.00  0.00     0.000 HD 
BRANCH  37  39
HETATM   39  C   UNL     1      -9.339  10.726  68.947  1.00  0.00    -0.175 C  
HETATM   40  C   UNL     1     -10.429  10.495  67.897  1.00  0.00    -0.247 C  
HETATM   41  O   UNL     1      -8.742  10.142  66.178  1.00  0.00    -0.138 OA 
HETATM   42  C   UNL     1      -7.684  10.176  67.135  1.00  0.00    -0.092 C  
HETATM   43  C   UNL     1      -8.042  11.139  68.255  1.00  0.00    -0.131 C  
HETATM   44  C   UNL     1      -9.951   9.635  66.737  1.00  0.00    -0.227 C  
ENDBRANCH  37  39
ENDBRANCH  12  37
ENDBRANCH   5   8
TORSDOF 7
ENDMDL
MODEL       72
REMARK 921   NORMALIZED FREE ENERGY PREDICTED BY IDOCK:   -6.01 KCAL/MOL
REMARK 922        TOTAL FREE ENERGY PREDICTED BY IDOCK:  -10.99 KCAL/MOL
REMARK 923 INTER-LIGAND FREE ENERGY PREDICTED BY IDOCK:   -9.03 KCAL/MOL
REMARK 924 INTRA-LIGAND FREE ENERGY PREDICTED BY IDOCK:   -1.96 KCAL/MOL
REMARK 927      BINDING AFFINITY PREDICTED BY RF-SCORE:    0.00 PKD
ROOT
HETATM    1  C   UNL     1     -10.016  20.045  68.597  1.00  0.00    -0.318 C  
HETATM    2  N   UNL     1      -9.219  19.467  67.518  1.00  0.00    -0.306 NA 
HETATM    3  C   UNL     1      -8.268  18.459  68.039  1.00  0.00    -0.271 C  
HETATM    4  C   UNL     1      -8.921  17.134  68.486  1.00  0.00    -0.265 C  
HETATM    5  N   UNL     1      -9.684  16.564  67.356  1.00  0.00    -0.243 NA 
HETATM    6  C   UNL     1     -10.724  17.477  66.860  1.00  0.00    -0.127 C  
HETATM    7  C   UNL     1     -10.077  18.837  66.483  1.00  0.00    -0.397 C  
ENDROOT
BRANCH   5   8
HETATM    8  C   UNL     1      -9.672  15.204  67.110  1.00  0.00    -0.228 A  
HETATM    9  C   UNL     1     -10.355  14.594  66.062  1.00  0.00    -0.317 A  
HETATM   10  C   UNL     1     -10.350  13.202  65.910  1.00  0.00    -0.295 A  
HETATM   11  C   UNL     1      -9.661  12.374  66.815  1.00  0.00    -0.224 A  
HETATM   12  C   UNL     1      -8.877  12.948  67.831  1.00  0.00    -0.190 A  
HETATM   13  C   UNL     1      -8.906  14.349  67.924  1.00  0.00    -0.179 A  
BRANCH  11  14
HETATM   14  C   UNL     1      -9.845  10.901  66.639  1.00  0.00    -0.198 C  
HETATM   15  H   UNL     1      -7.895  10.748  65.979  1.00  0.00     0.000 HD 
HETATM   16  O   UNL     1     -10.929  10.419  66.963  1.00  0.00    -0.244 OA 
HETATM   17  N   UNL     1      -8.747  10.215  66.154  1.00  0.00    -0.139 N  
BRANCH  17  18
HETATM   18  C   UNL     1      -8.721   8.857  65.889  1.00  0.00    -0.170 A  
HETATM   19  C   UNL     1      -8.904   7.812  66.855  1.00  0.00    -0.143 A  
HETATM   20  C   UNL     1      -9.172   7.708  68.232  1.00  0.00    -0.139 A  
HETATM   21  N   UNL     1      -8.497   8.344  64.679  1.00  0.00    -0.330 NA 
HETATM   22  N   UNL     1      -8.505   7.023  64.855  1.00  0.00    -0.004 NA 
HETATM   23  H   UNL     1      -8.350   8.853  63.806  1.00  0.00     0.000 HD 
HETATM   24  C   UNL     1      -9.186   6.448  68.867  1.00  0.00    -0.128 A  
HETATM   25  C   UNL     1      -8.947   5.295  68.110  1.00  0.00    -0.115 A  
HETATM   26  C   UNL     1      -8.698   6.631  66.150  1.00  0.00    -0.148 A  
HETATM   27  C   UNL     1      -8.708   5.363  66.734  1.00  0.00    -0.113 A  
BRANCH  24  28
HETATM   28  C   UNL     1      -9.513   6.341  70.342  1.00  0.00    -0.174 C  
BRANCH  28  29
HETATM   29  C   UNL     1     -10.645   7.214  70.848  1.00  0.00    -0.238 A  
HETATM   30  C   UNL     1     -10.569   8.613  70.925  1.00  0.00    -0.265 A  
HETATM   31  C   UNL     1     -11.673   9.361  71.329  1.00  0.00    -0.360 A  
HETATM   32  F   UNL     1     -11.579  10.697  71.374  1.00  0.00    -0.351 F  
HETATM   33  C   UNL     1     -12.870   8.752  71.674  1.00  0.00    -0.392 A  
HETATM   34  C   UNL     1     -12.942   7.369  71.626  1.00  0.00    -0.366 A  
HETATM   35  C   UNL     1     -11.852   6.600  71.221  1.00  0.00    -0.403 A  
HETATM   36  F   UNL     1     -14.086   6.758  71.964  1.00  0.00    -0.415 F  
ENDBRANCH  28  29
ENDBRANCH  24  28
ENDBRANCH  17  18
ENDBRANCH  11  14
BRANCH  12  37
HETATM   37  N   UNL     1      -8.169  12.175  68.760  1.00  0.00    -0.344 NA 
HETATM   38  H   UNL     1      -8.672  11.453  69.277  1.00  0.00     0.000 HD 
BRANCH  37  39
HETATM   39  C   UNL     1      -6.732  12.359  69.023  1.00  0.00    -0.100 C  
HETATM   40  C   UNL     1      -5.852  12.467  67.774  1.00  0.00    -0.118 C  
HETATM   41  O   UNL     1      -5.170  10.143  68.015  1.00  0.00    -0.036 OA 
HETATM   42  C   UNL     1      -6.096   9.925  69.077  1.00  0.00    -0.040 C  
HETATM   43  C   UNL     1      -6.245  11.201  69.892  1.00  0.00    -0.133 C  
HETATM   44  C   UNL     1      -5.636  11.125  67.092  1.00  0.00    -0.065 C  
ENDBRANCH  37  39
ENDBRANCH  12  37
ENDBRANCH   5   8
TORSDOF 7
ENDMDL
MODEL       73
REMARK 921   NORMALIZED FREE ENERGY PREDICTED BY IDOCK:   -5.96 KCAL/MOL
REMARK 922        TOTAL FREE ENERGY PREDICTED BY IDOCK:  -10.92 KCAL/MOL
REMARK 923 INTER-LIGAND FREE ENERGY PREDICTED BY IDOCK:   -8.72 KCAL/MOL
REMARK 924 INTRA-LIGAND FREE ENERGY PREDICTED BY IDOCK:   -2.20 KCAL/MOL
REMARK 927      BINDING AFFINITY PREDICTED BY RF-SCORE:    0.00 PKD
ROOT
HETATM    1  C   UNL     1     -10.672  20.308  65.304  1.00  0.00     0.239 C  
HETATM    2  N   UNL     1     -10.214  20.180  66.685  1.00  0.00    -0.448 NA 
HETATM    3  C   UNL     1     -10.857  19.027  67.355  1.00  0.00    -0.409 C  
HETATM    4  C   UNL     1     -10.348  17.647  66.886  1.00  0.00    -0.329 C  
HETATM    5  N   UNL     1      -8.884  17.582  67.075  1.00  0.00    -0.234 NA 
HETATM    6  C   UNL     1      -8.173  18.639  66.341  1.00  0.00    -0.277 C  
HETATM    7  C   UNL     1      -8.739  20.023  66.757  1.00  0.00    -0.333 C  
ENDROOT
BRANCH   5   8
HETATM    8  C   UNL     1      -8.283  16.426  67.535  1.00  0.00    -0.150 A  
HETATM    9  C   UNL     1      -6.908  16.212  67.545  1.00  0.00    -0.194 A  
HETATM   10  C   UNL     1      -6.370  14.989  67.968  1.00  0.00    -0.160 A  
HETATM   11  C   UNL     1      -7.202  13.936  68.390  1.00  0.00    -0.110 A  
HETATM   12  C   UNL     1      -8.589  14.138  68.490  1.00  0.00    -0.163 A  
HETATM   13  C   UNL     1      -9.070  15.388  68.069  1.00  0.00    -0.175 A  
BRANCH  11  14
HETATM   14  C   UNL     1      -6.528  12.633  68.679  1.00  0.00    -0.079 C  
HETATM   15  H   UNL     1      -7.431  11.810  67.015  1.00  0.00     0.000 HD 
HETATM   16  O   UNL     1      -5.762  12.588  69.640  1.00  0.00    -0.084 OA 
HETATM   17  N   UNL     1      -6.813  11.605  67.801  1.00  0.00    -0.074 N  
BRANCH  17  18
HETATM   18  C   UNL     1      -6.320  10.316  67.910  1.00  0.00    -0.060 A  
HETATM   19  C   UNL     1      -6.657   9.377  68.941  1.00  0.00    -0.047 A  
HETATM   20  C   UNL     1      -7.495   9.331  70.069  1.00  0.00    -0.094 A  
HETATM   21  N   UNL     1      -5.439   9.787  67.061  1.00  0.00    -0.045 NA 
HETATM   22  N   UNL     1      -5.190   8.566  67.535  1.00  0.00    -0.034 NA 
HETATM   23  H   UNL     1      -5.040  10.223  66.229  1.00  0.00     0.000 HD 
HETATM   24  C   UNL     1      -7.480   8.212  70.930  1.00  0.00    -0.061 A  
HETATM   25  C   UNL     1      -6.631   7.136  70.642  1.00  0.00    -0.048 A  
HETATM   26  C   UNL     1      -5.853   8.268  68.692  1.00  0.00    -0.040 A  
HETATM   27  C   UNL     1      -5.809   7.139  69.511  1.00  0.00    -0.023 A  
BRANCH  24  28
HETATM   28  C   UNL     1      -8.413   8.153  72.121  1.00  0.00    -0.216 C  
BRANCH  28  29
HETATM   29  C   UNL     1      -9.876   7.895  71.820  1.00  0.00    -0.223 A  
HETATM   30  C   UNL     1     -10.930   8.460  72.554  1.00  0.00    -0.388 A  
HETATM   31  C   UNL     1     -12.254   8.240  72.178  1.00  0.00    -0.364 A  
HETATM   32  F   UNL     1     -13.239   8.809  72.885  1.00  0.00    -0.430 F  
HETATM   33  C   UNL     1     -12.571   7.455  71.081  1.00  0.00    -0.330 A  
HETATM   34  C   UNL     1     -11.535   6.872  70.367  1.00  0.00    -0.338 A  
HETATM   35  C   UNL     1     -10.203   7.081  70.723  1.00  0.00    -0.208 A  
HETATM   36  F   UNL     1     -11.817   6.101  69.308  1.00  0.00    -0.425 F  
ENDBRANCH  28  29
ENDBRANCH  24  28
ENDBRANCH  17  18
ENDBRANCH  11  14
BRANCH  12  37
HETATM   37  N   UNL     1      -9.466  13.127  68.903  1.00  0.00    -0.393 NA 
HETATM   38  H   UNL     1      -9.080  12.309  69.375  1.00  0.00     0.000 HD 
BRANCH  37  39
HETATM   39  C   UNL     1     -10.922  13.193  68.687  1.00  0.00    -0.265 C  
HETATM   40  C   UNL     1     -11.765  12.405  69.693  1.00  0.00    -0.377 C  
HETATM   41  O   UNL     1     -12.033  10.590  68.093  1.00  0.00    -0.375 OA 
HETATM   42  C   UNL     1     -11.119  11.190  67.178  1.00  0.00    -0.287 C  
HETATM   43  C   UNL     1     -11.225  12.704  67.272  1.00  0.00    -0.346 C  
HETATM   44  C   UNL     1     -11.718  10.905  69.448  1.00  0.00    -0.325 C  
ENDBRANCH  37  39
ENDBRANCH  12  37
ENDBRANCH   5   8
TORSDOF 7
ENDMDL
MODEL       74
REMARK 921   NORMALIZED FREE ENERGY PREDICTED BY IDOCK:   -5.87 KCAL/MOL
REMARK 922        TOTAL FREE ENERGY PREDICTED BY IDOCK:  -10.80 KCAL/MOL
REMARK 923 INTER-LIGAND FREE ENERGY PREDICTED BY IDOCK:   -8.58 KCAL/MOL
REMARK 924 INTRA-LIGAND FREE ENERGY PREDICTED BY IDOCK:   -2.21 KCAL/MOL
REMARK 927      BINDING AFFINITY PREDICTED BY RF-SCORE:    0.00 PKD
ROOT
HETATM    1  C   UNL     1      -7.980   3.624  71.764  1.00  0.00    -0.063 C  
HETATM    2  N   UNL     1      -6.758   4.002  71.059  1.00  0.00    -0.031 NA 
HETATM    3  C   UNL     1      -7.061   4.514  69.703  1.00  0.00    -0.050 C  
HETATM    4  C   UNL     1      -7.704   5.916  69.677  1.00  0.00    -0.096 C  
HETATM    5  N   UNL     1      -6.821   6.867  70.384  1.00  0.00    -0.056 NA 
HETATM    6  C   UNL     1      -6.569   6.473  71.777  1.00  0.00    -0.054 C  
HETATM    7  C   UNL     1      -5.993   5.032  71.808  1.00  0.00    -0.020 C  
ENDROOT
BRANCH   5   8
HETATM    8  C   UNL     1      -6.630   8.147  69.898  1.00  0.00    -0.039 A  
HETATM    9  C   UNL     1      -5.477   8.898  70.111  1.00  0.00    -0.027 A  
HETATM   10  C   UNL     1      -5.376  10.214  69.642  1.00  0.00    -0.038 A  
HETATM   11  C   UNL     1      -6.438  10.822  68.948  1.00  0.00    -0.047 A  
HETATM   12  C   UNL     1      -7.582  10.073  68.625  1.00  0.00    -0.088 A  
HETATM   13  C   UNL     1      -7.621   8.754  69.105  1.00  0.00    -0.088 A  
BRANCH  11  14
HETATM   14  C   UNL     1      -6.274  12.273  68.625  1.00  0.00    -0.067 C  
HETATM   15  H   UNL     1      -7.664  12.741  70.077  1.00  0.00     0.000 HD 
HETATM   16  O   UNL     1      -5.446  12.576  67.767  1.00  0.00    -0.081 OA 
HETATM   17  N   UNL     1      -7.059  13.141  69.360  1.00  0.00     0.081 N  
BRANCH  17  18
HETATM   18  C   UNL     1      -7.084  14.515  69.193  1.00  0.00    -0.130 A  
HETATM   19  C   UNL     1      -8.258  15.338  69.204  1.00  0.00    -0.234 A  
HETATM   20  C   UNL     1      -9.643  15.168  69.385  1.00  0.00    -0.195 A  
HETATM   21  N   UNL     1      -5.994  15.253  68.976  1.00  0.00    -0.097 NA 
HETATM   22  N   UNL     1      -6.444  16.498  68.825  1.00  0.00    -0.145 NA 
HETATM   23  H   UNL     1      -5.026  14.932  68.935  1.00  0.00     0.000 HD 
HETATM   24  C   UNL     1     -10.527  16.255  69.222  1.00  0.00    -0.285 A  
HETATM   25  C   UNL     1     -10.013  17.516  68.894  1.00  0.00    -0.313 A  
HETATM   26  C   UNL     1      -7.803  16.618  68.903  1.00  0.00    -0.240 A  
HETATM   27  C   UNL     1      -8.638  17.724  68.738  1.00  0.00    -0.206 A  
BRANCH  24  28
HETATM   28  C   UNL     1     -12.013  16.073  69.456  1.00  0.00    -0.194 C  
BRANCH  28  29
HETATM   29  C   UNL     1     -12.423  15.579  70.829  1.00  0.00    -0.491 A  
HETATM   30  C   UNL     1     -13.150  14.397  71.042  1.00  0.00    -0.417 A  
HETATM   31  C   UNL     1     -13.431  13.962  72.336  1.00  0.00    -0.560 A  
HETATM   32  F   UNL     1     -14.108  12.819  72.509  1.00  0.00    -0.558 F  
HETATM   33  C   UNL     1     -13.015  14.681  73.445  1.00  0.00    -0.483 A  
HETATM   34  C   UNL     1     -12.321  15.863  73.241  1.00  0.00    -0.523 A  
HETATM   35  C   UNL     1     -12.024  16.316  71.956  1.00  0.00    -0.544 A  
HETATM   36  F   UNL     1     -11.916  16.580  74.298  1.00  0.00    -0.501 F  
ENDBRANCH  28  29
ENDBRANCH  24  28
ENDBRANCH  17  18
ENDBRANCH  11  14
BRANCH  12  37
HETATM   37  N   UNL     1      -8.670  10.625  67.936  1.00  0.00    -0.126 NA 
HETATM   38  H   UNL     1      -8.756  11.641  67.894  1.00  0.00     0.000 HD 
BRANCH  37  39
HETATM   39  C   UNL     1      -9.695   9.803  67.270  1.00  0.00    -0.169 C  
HETATM   40  C   UNL     1      -9.881  10.082  65.776  1.00  0.00    -0.345 C  
HETATM   41  O   UNL     1     -11.861  11.421  66.242  1.00  0.00    -0.256 OA 
HETATM   42  C   UNL     1     -11.647  11.342  67.650  1.00  0.00    -0.238 C  
HETATM   43  C   UNL     1     -11.023  10.000  67.997  1.00  0.00    -0.296 C  
HETATM   44  C   UNL     1     -10.636  11.376  65.513  1.00  0.00    -0.271 C  
ENDBRANCH  37  39
ENDBRANCH  12  37
ENDBRANCH   5   8
TORSDOF 7
ENDMDL
MODEL       75
REMARK 921   NORMALIZED FREE ENERGY PREDICTED BY IDOCK:   -5.71 KCAL/MOL
REMARK 922        TOTAL FREE ENERGY PREDICTED BY IDOCK:  -10.57 KCAL/MOL
REMARK 923 INTER-LIGAND FREE ENERGY PREDICTED BY IDOCK:   -8.88 KCAL/MOL
REMARK 924 INTRA-LIGAND FREE ENERGY PREDICTED BY IDOCK:   -1.70 KCAL/MOL
REMARK 927      BINDING AFFINITY PREDICTED BY RF-SCORE:    0.00 PKD
ROOT
HETATM    1  C   UNL     1      -9.235   1.904  64.550  1.00  0.00    -0.132 C  
HETATM    2  N   UNL     1      -8.352   2.319  65.637  1.00  0.00    -0.089 NA 
HETATM    3  C   UNL     1      -7.464   3.424  65.210  1.00  0.00    -0.076 C  
HETATM    4  C   UNL     1      -8.171   4.786  65.045  1.00  0.00    -0.126 C  
HETATM    5  N   UNL     1      -8.837   5.143  66.315  1.00  0.00    -0.121 NA 
HETATM    6  C   UNL     1      -9.818   4.133  66.740  1.00  0.00    -0.176 C  
HETATM    7  C   UNL     1      -9.123   2.748  66.831  1.00  0.00    -0.150 C  
ENDROOT
BRANCH   5   8
HETATM    8  C   UNL     1      -8.821   6.444  66.779  1.00  0.00    -0.124 A  
HETATM    9  C   UNL     1      -7.923   7.416  66.346  1.00  0.00    -0.108 A  
HETATM   10  C   UNL     1      -7.923   8.700  66.906  1.00  0.00    -0.095 A  
HETATM   11  C   UNL     1      -8.823   9.047  67.929  1.00  0.00    -0.129 A  
HETATM   12  C   UNL     1      -9.812   8.132  68.331  1.00  0.00    -0.171 A  
HETATM   13  C   UNL     1      -9.776   6.867  67.723  1.00  0.00    -0.148 A  
BRANCH  11  14
HETATM   14  C   UNL     1      -8.635  10.394  68.550  1.00  0.00    -0.134 C  
HETATM   15  H   UNL     1      -6.589  10.168  68.392  1.00  0.00     0.000 HD 
HETATM   16  O   UNL     1      -9.644  11.041  68.827  1.00  0.00    -0.189 OA 
HETATM   17  N   UNL     1      -7.323  10.796  68.721  1.00  0.00    -0.095 N  
BRANCH  17  18
HETATM   18  C   UNL     1      -6.934  11.988  69.305  1.00  0.00    -0.028 A  
HETATM   19  C   UNL     1      -7.247  13.300  68.817  1.00  0.00    -0.088 A  
HETATM   20  C   UNL     1      -7.972  13.866  67.752  1.00  0.00    -0.174 A  
HETATM   21  N   UNL     1      -6.187  12.062  70.407  1.00  0.00    -0.469 NA 
HETATM   22  N   UNL     1      -5.998  13.365  70.611  1.00  0.00    -0.150 NA 
HETATM   23  H   UNL     1      -5.836  11.287  70.972  1.00  0.00     0.000 HD 
HETATM   24  C   UNL     1      -7.968  15.261  67.542  1.00  0.00    -0.197 A  
HETATM   25  C   UNL     1      -7.246  16.085  68.414  1.00  0.00    -0.126 A  
HETATM   26  C   UNL     1      -6.568  14.170  69.665  1.00  0.00    -0.120 A  
HETATM   27  C   UNL     1      -6.540  15.556  69.500  1.00  0.00    -0.172 A  
BRANCH  24  28
HETATM   28  C   UNL     1      -8.782  15.866  66.417  1.00  0.00    -0.362 C  
BRANCH  28  29
HETATM   29  C   UNL     1     -10.146  15.253  66.167  1.00  0.00    -0.315 A  
HETATM   30  C   UNL     1     -10.732  15.160  64.895  1.00  0.00    -0.421 A  
HETATM   31  C   UNL     1     -11.958  14.518  64.725  1.00  0.00    -0.442 A  
HETATM   32  F   UNL     1     -12.484  14.426  63.497  1.00  0.00    -0.413 F  
HETATM   33  C   UNL     1     -12.636  13.963  65.799  1.00  0.00    -0.533 A  
HETATM   34  C   UNL     1     -12.075  14.075  67.061  1.00  0.00    -0.420 A  
HETATM   35  C   UNL     1     -10.849  14.709  67.255  1.00  0.00    -0.305 A  
HETATM   36  F   UNL     1     -12.717  13.554  68.116  1.00  0.00    -0.054 F  
ENDBRANCH  28  29
ENDBRANCH  24  28
ENDBRANCH  17  18
ENDBRANCH  11  14
BRANCH  12  37
HETATM   37  N   UNL     1     -10.735   8.422  69.343  1.00  0.00    -0.350 NA 
HETATM   38  H   UNL     1     -11.671   8.730  69.076  1.00  0.00     0.000 HD 
BRANCH  37  39
HETATM   39  C   UNL     1     -10.415   8.302  70.776  1.00  0.00    -0.196 C  
HETATM   40  C   UNL     1      -9.936   6.918  71.221  1.00  0.00    -0.189 C  
HETATM   41  O   UNL     1     -12.146   6.401  72.102  1.00  0.00    -0.326 OA 
HETATM   42  C   UNL     1     -12.699   7.600  71.563  1.00  0.00    -0.345 C  
HETATM   43  C   UNL     1     -11.649   8.699  71.584  1.00  0.00    -0.379 C  
HETATM   44  C   UNL     1     -11.069   5.906  71.309  1.00  0.00    -0.241 C  
ENDBRANCH  37  39
ENDBRANCH  12  37
ENDBRANCH   5   8
TORSDOF 7
ENDMDL
MODEL       76
REMARK 921   NORMALIZED FREE ENERGY PREDICTED BY IDOCK:   -5.65 KCAL/MOL
REMARK 922        TOTAL FREE ENERGY PREDICTED BY IDOCK:  -10.48 KCAL/MOL
REMARK 923 INTER-LIGAND FREE ENERGY PREDICTED BY IDOCK:   -9.86 KCAL/MOL
REMARK 924 INTRA-LIGAND FREE ENERGY PREDICTED BY IDOCK:   -0.62 KCAL/MOL
REMARK 927      BINDING AFFINITY PREDICTED BY RF-SCORE:    0.00 PKD
ROOT
HETATM    1  C   UNL     1      -8.000   2.207  69.441  1.00  0.00    -0.045 C  
HETATM    2  N   UNL     1      -7.805   3.534  70.021  1.00  0.00    -0.047 NA 
HETATM    3  C   UNL     1      -6.972   4.383  69.141  1.00  0.00    -0.050 C  
HETATM    4  C   UNL     1      -7.683   4.869  67.860  1.00  0.00    -0.083 C  
HETATM    5  N   UNL     1      -8.914   5.595  68.235  1.00  0.00    -0.114 NA 
HETATM    6  C   UNL     1      -9.840   4.767  69.022  1.00  0.00    -0.168 C  
HETATM    7  C   UNL     1      -9.101   4.215  70.271  1.00  0.00    -0.105 C  
ENDROOT
BRANCH   5   8
HETATM    8  C   UNL     1      -9.289   6.743  67.563  1.00  0.00    -0.124 A  
HETATM    9  C   UNL     1      -8.912   7.041  66.257  1.00  0.00    -0.175 A  
HETATM   10  C   UNL     1      -9.276   8.254  65.659  1.00  0.00    -0.077 A  
HETATM   11  C   UNL     1     -10.029   9.213  66.361  1.00  0.00    -0.358 A  
HETATM   12  C   UNL     1     -10.515   8.918  67.646  1.00  0.00    -0.255 A  
HETATM   13  C   UNL     1     -10.134   7.680  68.188  1.00  0.00    -0.220 A  
BRANCH  11  14
HETATM   14  C   UNL     1     -10.234  10.526  65.676  1.00  0.00    -0.246 C  
HETATM   15  H   UNL     1     -11.848  10.903  66.907  1.00  0.00     0.000 HD 
HETATM   16  O   UNL     1      -9.433  10.844  64.798  1.00  0.00    -0.213 OA 
HETATM   17  N   UNL     1     -11.301  11.278  66.131  1.00  0.00    -0.080 N  
BRANCH  17  18
HETATM   18  C   UNL     1     -11.681  12.503  65.611  1.00  0.00    -0.423 A  
HETATM   19  C   UNL     1     -10.915  13.714  65.677  1.00  0.00    -0.294 A  
HETATM   20  C   UNL     1      -9.665  14.125  66.173  1.00  0.00    -0.310 A  
HETATM   21  N   UNL     1     -12.841  12.713  64.988  1.00  0.00    -0.816 NA 
HETATM   22  N   UNL     1     -12.843  14.012  64.687  1.00  0.00    -0.648 NA 
HETATM   23  H   UNL     1     -13.570  12.028  64.786  1.00  0.00     0.000 HD 
HETATM   24  C   UNL     1      -9.288  15.484  66.132  1.00  0.00    -0.380 A  
HETATM   25  C   UNL     1     -10.165  16.424  65.576  1.00  0.00    -0.296 A  
HETATM   26  C   UNL     1     -11.735  14.688  65.114  1.00  0.00    -0.364 A  
HETATM   27  C   UNL     1     -11.402  16.042  65.046  1.00  0.00    -0.157 A  
BRANCH  24  28
HETATM   28  C   UNL     1      -7.925  15.914  66.633  1.00  0.00    -0.270 C  
BRANCH  28  29
HETATM   29  C   UNL     1      -7.285  15.031  67.688  1.00  0.00    -0.208 A  
HETATM   30  C   UNL     1      -6.864  15.504  68.940  1.00  0.00    -0.123 A  
HETATM   31  C   UNL     1      -6.351  14.624  69.893  1.00  0.00    -0.158 A  
HETATM   32  F   UNL     1      -5.975  15.099  71.087  1.00  0.00    -0.065 F  
HETATM   33  C   UNL     1      -6.234  13.268  69.632  1.00  0.00    -0.113 A  
HETATM   34  C   UNL     1      -6.623  12.800  68.388  1.00  0.00    -0.083 A  
HETATM   35  C   UNL     1      -7.142  13.660  67.421  1.00  0.00    -0.097 A  
HETATM   36  F   UNL     1      -6.511  11.494  68.110  1.00  0.00    -0.052 F  
ENDBRANCH  28  29
ENDBRANCH  24  28
ENDBRANCH  17  18
ENDBRANCH  11  14
BRANCH  12  37
HETATM   37  N   UNL     1     -11.269   9.833  68.392  1.00  0.00    -0.512 NA 
HETATM   38  H   UNL     1     -12.226  10.031  68.096  1.00  0.00     0.000 HD 
BRANCH  37  39
HETATM   39  C   UNL     1     -10.743  10.520  69.583  1.00  0.00    -0.259 C  
HETATM   40  C   UNL     1     -10.229   9.597  70.692  1.00  0.00    -0.346 C  
HETATM   41  O   UNL     1     -12.293   9.903  71.945  1.00  0.00    -0.380 OA 
HETATM   42  C   UNL     1     -12.897  10.630  70.876  1.00  0.00    -0.382 C  
HETATM   43  C   UNL     1     -11.835  11.430  70.141  1.00  0.00    -0.440 C  
HETATM   44  C   UNL     1     -11.356   8.938  71.473  1.00  0.00    -0.325 C  
ENDBRANCH  37  39
ENDBRANCH  12  37
ENDBRANCH   5   8
TORSDOF 7
ENDMDL
MODEL       77
REMARK 921   NORMALIZED FREE ENERGY PREDICTED BY IDOCK:   -5.56 KCAL/MOL
REMARK 922        TOTAL FREE ENERGY PREDICTED BY IDOCK:  -10.36 KCAL/MOL
REMARK 923 INTER-LIGAND FREE ENERGY PREDICTED BY IDOCK:   -7.97 KCAL/MOL
REMARK 924 INTRA-LIGAND FREE ENERGY PREDICTED BY IDOCK:   -2.39 KCAL/MOL
REMARK 927      BINDING AFFINITY PREDICTED BY RF-SCORE:    0.00 PKD
ROOT
HETATM    1  C   UNL     1     -10.154  20.194  67.477  1.00  0.00    -0.409 C  
HETATM    2  N   UNL     1      -9.494  19.518  68.591  1.00  0.00    -0.392 NA 
HETATM    3  C   UNL     1     -10.206  18.271  68.954  1.00  0.00    -0.274 C  
HETATM    4  C   UNL     1     -10.037  17.119  67.941  1.00  0.00    -0.308 C  
HETATM    5  N   UNL     1      -8.597  16.838  67.763  1.00  0.00    -0.196 NA 
HETATM    6  C   UNL     1      -7.848  18.013  67.294  1.00  0.00    -0.214 C  
HETATM    7  C   UNL     1      -8.080  19.195  68.273  1.00  0.00    -0.332 C  
ENDROOT
BRANCH   5   8
HETATM    8  C   UNL     1      -8.140  15.539  67.655  1.00  0.00    -0.146 A  
HETATM    9  C   UNL     1      -7.022  15.047  68.322  1.00  0.00    -0.118 A  
HETATM   10  C   UNL     1      -6.578  13.734  68.117  1.00  0.00    -0.126 A  
HETATM   11  C   UNL     1      -7.241  12.873  67.225  1.00  0.00    -0.075 A  
HETATM   12  C   UNL     1      -8.430  13.292  66.603  1.00  0.00     0.147 A  
HETATM   13  C   UNL     1      -8.838  14.611  66.859  1.00  0.00    -0.267 A  
BRANCH  11  14
HETATM   14  C   UNL     1      -6.595  11.548  66.976  1.00  0.00    -0.138 C  
HETATM   15  H   UNL     1      -7.840  10.690  68.381  1.00  0.00     0.000 HD 
HETATM   16  O   UNL     1      -5.724  11.492  66.109  1.00  0.00    -0.200 OA 
HETATM   17  N   UNL     1      -7.074  10.497  67.735  1.00  0.00    -0.083 N  
BRANCH  17  18
HETATM   18  C   UNL     1      -6.590   9.202  67.683  1.00  0.00    -0.064 A  
HETATM   19  C   UNL     1      -7.310   8.023  68.071  1.00  0.00    -0.096 A  
HETATM   20  C   UNL     1      -8.591   7.703  68.556  1.00  0.00    -0.129 A  
HETATM   21  N   UNL     1      -5.360   8.888  67.274  1.00  0.00    -0.033 NA 
HETATM   22  N   UNL     1      -5.274   7.566  67.417  1.00  0.00    -0.025 NA 
HETATM   23  H   UNL     1      -4.641   9.524  66.927  1.00  0.00     0.000 HD 
HETATM   24  C   UNL     1      -8.907   6.379  68.928  1.00  0.00    -0.125 A  
HETATM   25  C   UNL     1      -7.937   5.378  68.794  1.00  0.00    -0.087 A  
HETATM   26  C   UNL     1      -6.395   6.983  67.937  1.00  0.00    -0.043 A  
HETATM   27  C   UNL     1      -6.665   5.659  68.286  1.00  0.00    -0.054 A  
BRANCH  24  28
HETATM   28  C   UNL     1     -10.300   6.034  69.414  1.00  0.00    -0.298 C  
BRANCH  28  29
HETATM   29  C   UNL     1     -10.864   6.907  70.518  1.00  0.00    -0.289 A  
HETATM   30  C   UNL     1     -11.752   7.969  70.288  1.00  0.00     0.081 A  
HETATM   31  C   UNL     1     -12.291   8.685  71.356  1.00  0.00    -0.304 A  
HETATM   32  F   UNL     1     -13.152   9.681  71.109  1.00  0.00    -0.369 F  
HETATM   33  C   UNL     1     -11.962   8.380  72.668  1.00  0.00    -0.346 A  
HETATM   34  C   UNL     1     -11.065   7.350  72.899  1.00  0.00    -0.349 A  
HETATM   35  C   UNL     1     -10.516   6.617  71.848  1.00  0.00    -0.224 A  
HETATM   36  F   UNL     1     -10.725   7.043  74.158  1.00  0.00    -0.390 F  
ENDBRANCH  28  29
ENDBRANCH  24  28
ENDBRANCH  17  18
ENDBRANCH  11  14
BRANCH  12  37
HETATM   37  N   UNL     1      -9.135  12.478  65.706  1.00  0.00    -0.428 NA 
HETATM   38  H   UNL     1      -8.642  12.110  64.892  1.00  0.00     0.000 HD 
BRANCH  37  39
HETATM   39  C   UNL     1     -10.555  12.132  65.887  1.00  0.00    -0.258 C  
HETATM   40  C   UNL     1     -11.023  12.049  67.342  1.00  0.00    -0.311 C  
HETATM   41  O   UNL     1     -10.872   9.620  67.284  1.00  0.00    -0.254 OA 
HETATM   42  C   UNL     1     -10.271   9.635  65.991  1.00  0.00    -0.185 C  
HETATM   43  C   UNL     1     -10.823  10.801  65.187  1.00  0.00    -0.057 C  
HETATM   44  C   UNL     1     -10.545  10.784  68.039  1.00  0.00    -0.207 C  
ENDBRANCH  37  39
ENDBRANCH  12  37
ENDBRANCH   5   8
TORSDOF 7
ENDMDL
MODEL       78
REMARK 921   NORMALIZED FREE ENERGY PREDICTED BY IDOCK:   -5.55 KCAL/MOL
REMARK 922        TOTAL FREE ENERGY PREDICTED BY IDOCK:  -10.35 KCAL/MOL
REMARK 923 INTER-LIGAND FREE ENERGY PREDICTED BY IDOCK:   -8.27 KCAL/MOL
REMARK 924 INTRA-LIGAND FREE ENERGY PREDICTED BY IDOCK:   -2.08 KCAL/MOL
REMARK 927      BINDING AFFINITY PREDICTED BY RF-SCORE:    0.00 PKD
ROOT
HETATM    1  C   UNL     1      -5.644  17.813  68.320  1.00  0.00    -0.158 C  
HETATM    2  N   UNL     1      -6.269  16.948  69.318  1.00  0.00    -0.201 NA 
HETATM    3  C   UNL     1      -7.622  16.527  68.886  1.00  0.00    -0.238 C  
HETATM    4  C   UNL     1      -7.635  15.491  67.742  1.00  0.00    -0.145 C  
HETATM    5  N   UNL     1      -6.850  14.308  68.151  1.00  0.00    -0.109 NA 
HETATM    6  C   UNL     1      -5.459  14.643  68.488  1.00  0.00    -0.102 C  
HETATM    7  C   UNL     1      -5.446  15.742  69.585  1.00  0.00    -0.118 C  
ENDROOT
BRANCH   5   8
HETATM    8  C   UNL     1      -7.281  13.033  67.838  1.00  0.00    -0.129 A  
HETATM    9  C   UNL     1      -6.705  12.233  66.856  1.00  0.00     0.055 A  
HETATM   10  C   UNL     1      -7.234  10.973  66.548  1.00  0.00    -0.143 A  
HETATM   11  C   UNL     1      -8.368  10.478  67.216  1.00  0.00    -0.122 A  
HETATM   12  C   UNL     1      -8.926  11.205  68.281  1.00  0.00    -0.166 A  
HETATM   13  C   UNL     1      -8.343  12.453  68.557  1.00  0.00    -0.081 A  
BRANCH  11  14
HETATM   14  C   UNL     1      -8.929   9.189  66.705  1.00  0.00    -0.128 C  
HETATM   15  H   UNL     1      -7.356   8.174  67.575  1.00  0.00     0.000 HD 
HETATM   16  O   UNL     1      -9.994   9.234  66.092  1.00  0.00    -0.279 OA 
HETATM   17  N   UNL     1      -8.198   8.057  67.010  1.00  0.00    -0.115 N  
BRANCH  17  18
HETATM   18  C   UNL     1      -8.525   6.774  66.605  1.00  0.00    -0.120 A  
HETATM   19  C   UNL     1      -8.935   5.704  67.467  1.00  0.00    -0.107 A  
HETATM   20  C   UNL     1      -9.176   5.510  68.839  1.00  0.00    -0.141 A  
HETATM   21  N   UNL     1      -8.478   6.366  65.336  1.00  0.00    -0.217 NA 
HETATM   22  N   UNL     1      -8.816   5.077  65.375  1.00  0.00    -0.149 NA 
HETATM   23  H   UNL     1      -8.236   6.920  64.514  1.00  0.00     0.000 HD 
HETATM   24  C   UNL     1      -9.488   4.229  69.340  1.00  0.00    -0.256 A  
HETATM   25  C   UNL     1      -9.574   3.148  68.454  1.00  0.00    -0.124 A  
HETATM   26  C   UNL     1      -9.059   4.598  66.631  1.00  0.00    -0.119 A  
HETATM   27  C   UNL     1      -9.371   3.313  67.080  1.00  0.00    -0.212 A  
BRANCH  24  28
HETATM   28  C   UNL     1      -9.783   4.036  70.813  1.00  0.00    -0.263 C  
BRANCH  28  29
HETATM   29  C   UNL     1     -10.241   5.264  71.576  1.00  0.00    -0.276 A  
HETATM   30  C   UNL     1      -9.590   5.753  72.718  1.00  0.00    -0.159 A  
HETATM   31  C   UNL     1     -10.021   6.931  73.329  1.00  0.00    -0.215 A  
HETATM   32  F   UNL     1      -9.368   7.386  74.406  1.00  0.00    -0.266 F  
HETATM   33  C   UNL     1     -11.102   7.644  72.837  1.00  0.00    -0.448 A  
HETATM   34  C   UNL     1     -11.765   7.151  71.724  1.00  0.00    -0.290 A  
HETATM   35  C   UNL     1     -11.351   5.978  71.095  1.00  0.00    -0.300 A  
HETATM   36  F   UNL     1     -12.819   7.819  71.236  1.00  0.00    -0.325 F  
ENDBRANCH  28  29
ENDBRANCH  24  28
ENDBRANCH  17  18
ENDBRANCH  11  14
BRANCH  12  37
HETATM   37  N   UNL     1     -10.054  10.762  68.983  1.00  0.00    -0.208 NA 
HETATM   38  H   UNL     1      -9.915  10.214  69.832  1.00  0.00     0.000 HD 
BRANCH  37  39
HETATM   39  C   UNL     1     -11.431  11.054  68.550  1.00  0.00    -0.309 C  
HETATM   40  C   UNL     1     -11.625  12.414  67.873  1.00  0.00    -0.415 C  
HETATM   41  O   UNL     1     -12.524  13.347  69.934  1.00  0.00    -0.222 OA 
HETATM   42  C   UNL     1     -12.212  12.165  70.668  1.00  0.00    -0.300 C  
HETATM   43  C   UNL     1     -12.354  10.951  69.763  1.00  0.00    -0.326 C  
HETATM   44  C   UNL     1     -11.608  13.568  68.863  1.00  0.00    -0.323 C  
ENDBRANCH  37  39
ENDBRANCH  12  37
ENDBRANCH   5   8
TORSDOF 7
ENDMDL
MODEL       79
REMARK 921   NORMALIZED FREE ENERGY PREDICTED BY IDOCK:   -5.54 KCAL/MOL
REMARK 922        TOTAL FREE ENERGY PREDICTED BY IDOCK:  -10.32 KCAL/MOL
REMARK 923 INTER-LIGAND FREE ENERGY PREDICTED BY IDOCK:   -7.80 KCAL/MOL
REMARK 924 INTRA-LIGAND FREE ENERGY PREDICTED BY IDOCK:   -2.52 KCAL/MOL
REMARK 927      BINDING AFFINITY PREDICTED BY RF-SCORE:    0.00 PKD
ROOT
HETATM    1  C   UNL     1      -8.136   5.489  73.526  1.00  0.00    -0.113 C  
HETATM    2  N   UNL     1      -7.340   6.649  73.921  1.00  0.00    -0.083 NA 
HETATM    3  C   UNL     1      -6.106   6.750  73.108  1.00  0.00    -0.058 C  
HETATM    4  C   UNL     1      -6.336   7.199  71.649  1.00  0.00    -0.037 C  
HETATM    5  N   UNL     1      -7.043   8.497  71.647  1.00  0.00    -0.088 NA 
HETATM    6  C   UNL     1      -8.335   8.435  72.347  1.00  0.00    -0.155 C  
HETATM    7  C   UNL     1      -8.113   7.910  73.791  1.00  0.00    -0.205 C  
ENDROOT
BRANCH   5   8
HETATM    8  C   UNL     1      -6.703   9.485  70.743  1.00  0.00    -0.105 A  
HETATM    9  C   UNL     1      -5.851  10.547  71.032  1.00  0.00    -0.004 A  
HETATM   10  C   UNL     1      -5.599  11.549  70.086  1.00  0.00    -0.123 A  
HETATM   11  C   UNL     1      -6.203  11.519  68.817  1.00  0.00    -0.051 A  
HETATM   12  C   UNL     1      -6.993  10.417  68.444  1.00  0.00    -0.069 A  
HETATM   13  C   UNL     1      -7.196   9.435  69.426  1.00  0.00    -0.066 A  
BRANCH  11  14
HETATM   14  C   UNL     1      -5.976  12.712  67.945  1.00  0.00    -0.108 C  
HETATM   15  H   UNL     1      -6.710  13.930  69.442  1.00  0.00     0.000 HD 
HETATM   16  O   UNL     1      -5.462  12.525  66.844  1.00  0.00    -0.342 OA 
HETATM   17  N   UNL     1      -6.342  13.928  68.490  1.00  0.00    -0.085 N  
BRANCH  17  18
HETATM   18  C   UNL     1      -6.246  15.145  67.838  1.00  0.00    -0.156 A  
HETATM   19  C   UNL     1      -7.300  16.111  67.709  1.00  0.00    -0.153 A  
HETATM   20  C   UNL     1      -8.635  16.251  68.128  1.00  0.00    -0.183 A  
HETATM   21  N   UNL     1      -5.143  15.567  67.220  1.00  0.00    -0.327 NA 
HETATM   22  N   UNL     1      -5.473  16.744  66.687  1.00  0.00    -0.351 NA 
HETATM   23  H   UNL     1      -4.241  15.092  67.166  1.00  0.00     0.000 HD 
HETATM   24  C   UNL     1      -9.409  17.352  67.703  1.00  0.00    -0.245 A  
HETATM   25  C   UNL     1      -8.830  18.317  66.869  1.00  0.00    -0.279 A  
HETATM   26  C   UNL     1      -6.771  17.113  66.902  1.00  0.00    -0.203 A  
HETATM   27  C   UNL     1      -7.496  18.221  66.461  1.00  0.00    -0.266 A  
BRANCH  24  28
HETATM   28  C   UNL     1     -10.834  17.516  68.188  1.00  0.00    -0.246 C  
BRANCH  28  29
HETATM   29  C   UNL     1     -11.360  16.436  69.114  1.00  0.00    -0.241 A  
HETATM   30  C   UNL     1     -11.744  15.160  68.675  1.00  0.00    -0.364 A  
HETATM   31  C   UNL     1     -12.149  14.188  69.589  1.00  0.00    -0.349 A  
HETATM   32  F   UNL     1     -12.491  12.972  69.144  1.00  0.00    -0.230 F  
HETATM   33  C   UNL     1     -12.194  14.453  70.949  1.00  0.00    -0.413 A  
HETATM   34  C   UNL     1     -11.842  15.719  71.386  1.00  0.00    -0.442 A  
HETATM   35  C   UNL     1     -11.429  16.706  70.491  1.00  0.00     0.173 A  
HETATM   36  F   UNL     1     -11.886  16.001  72.695  1.00  0.00    -0.475 F  
ENDBRANCH  28  29
ENDBRANCH  24  28
ENDBRANCH  17  18
ENDBRANCH  11  14
BRANCH  12  37
HETATM   37  N   UNL     1      -7.620  10.332  67.194  1.00  0.00    -0.092 NA 
HETATM   38  H   UNL     1      -7.215   9.718  66.487  1.00  0.00     0.000 HD 
BRANCH  37  39
HETATM   39  C   UNL     1      -8.837  11.089  66.857  1.00  0.00    -0.149 C  
HETATM   40  C   UNL     1      -9.574  11.701  68.051  1.00  0.00    -0.184 C  
HETATM   41  O   UNL     1     -11.198   9.889  68.019  1.00  0.00    -0.214 OA 
HETATM   42  C   UNL     1     -10.466   9.179  67.022  1.00  0.00    -0.240 C  
HETATM   43  C   UNL     1      -9.784  10.168  66.090  1.00  0.00    -0.275 C  
HETATM   44  C   UNL     1     -10.346  10.667  68.856  1.00  0.00    -0.207 C  
ENDBRANCH  37  39
ENDBRANCH  12  37
ENDBRANCH   5   8
TORSDOF 7
ENDMDL
MODEL       80
REMARK 921   NORMALIZED FREE ENERGY PREDICTED BY IDOCK:   -5.49 KCAL/MOL
REMARK 922        TOTAL FREE ENERGY PREDICTED BY IDOCK:  -10.26 KCAL/MOL
REMARK 923 INTER-LIGAND FREE ENERGY PREDICTED BY IDOCK:   -7.76 KCAL/MOL
REMARK 924 INTRA-LIGAND FREE ENERGY PREDICTED BY IDOCK:   -2.50 KCAL/MOL
REMARK 927      BINDING AFFINITY PREDICTED BY RF-SCORE:    0.00 PKD
ROOT
HETATM    1  C   UNL     1      -7.407   2.678  71.255  1.00  0.00    -0.033 C  
HETATM    2  N   UNL     1      -6.382   2.998  70.264  1.00  0.00    -0.027 NA 
HETATM    3  C   UNL     1      -6.993   3.386  68.972  1.00  0.00    -0.045 C  
HETATM    4  C   UNL     1      -7.659   4.779  68.972  1.00  0.00    -0.067 C  
HETATM    5  N   UNL     1      -6.663   5.792  69.380  1.00  0.00    -0.057 NA 
HETATM    6  C   UNL     1      -6.097   5.523  70.709  1.00  0.00    -0.026 C  
HETATM    7  C   UNL     1      -5.495   4.093  70.732  1.00  0.00    -0.011 C  
ENDROOT
BRANCH   5   8
HETATM    8  C   UNL     1      -6.616   7.025  68.756  1.00  0.00    -0.044 A  
HETATM    9  C   UNL     1      -5.451   7.605  68.263  1.00  0.00    -0.027 A  
HETATM   10  C   UNL     1      -5.466   8.887  67.699  1.00  0.00    -0.035 A  
HETATM   11  C   UNL     1      -6.655   9.632  67.618  1.00  0.00    -0.066 A  
HETATM   12  C   UNL     1      -7.873   9.051  68.014  1.00  0.00    -0.101 A  
HETATM   13  C   UNL     1      -7.800   7.758  68.555  1.00  0.00    -0.120 A  
BRANCH  11  14
HETATM   14  C   UNL     1      -6.525  11.040  67.132  1.00  0.00    -0.084 C  
HETATM   15  H   UNL     1      -6.633  11.711  69.081  1.00  0.00     0.000 HD 
HETATM   16  O   UNL     1      -6.374  11.214  65.923  1.00  0.00    -0.078 OA 
HETATM   17  N   UNL     1      -6.554  12.016  68.110  1.00  0.00    -0.052 N  
BRANCH  17  18
HETATM   18  C   UNL     1      -6.482  13.376  67.869  1.00  0.00    -0.151 A  
HETATM   19  C   UNL     1      -7.597  14.278  67.828  1.00  0.00    -0.175 A  
HETATM   20  C   UNL     1      -8.991  14.214  68.008  1.00  0.00    -0.183 A  
HETATM   21  N   UNL     1      -5.344  14.024  67.620  1.00  0.00    -0.332 NA 
HETATM   22  N   UNL     1      -5.706  15.288  67.398  1.00  0.00    -0.337 NA 
HETATM   23  H   UNL     1      -4.400  13.636  67.603  1.00  0.00     0.000 HD 
HETATM   24  C   UNL     1      -9.797  15.349  67.781  1.00  0.00    -0.220 A  
HETATM   25  C   UNL     1      -9.196  16.551  67.388  1.00  0.00    -0.220 A  
HETATM   26  C   UNL     1      -7.053  15.505  67.461  1.00  0.00    -0.191 A  
HETATM   27  C   UNL     1      -7.810  16.655  67.230  1.00  0.00    -0.194 A  
BRANCH  24  28
HETATM   28  C   UNL     1     -11.292  15.283  68.014  1.00  0.00    -0.345 C  
BRANCH  28  29
HETATM   29  C   UNL     1     -11.741  15.007  69.436  1.00  0.00    -0.351 A  
HETATM   30  C   UNL     1     -12.302  13.788  69.848  1.00  0.00    -0.334 A  
HETATM   31  C   UNL     1     -12.625  13.574  71.187  1.00  0.00    -0.355 A  
HETATM   32  F   UNL     1     -13.140  12.394  71.556  1.00  0.00    -0.460 F  
HETATM   33  C   UNL     1     -12.414  14.553  72.145  1.00  0.00    -0.371 A  
HETATM   34  C   UNL     1     -11.886  15.768  71.740  1.00  0.00    -0.467 A  
HETATM   35  C   UNL     1     -11.551  16.004  70.407  1.00  0.00    -0.364 A  
HETATM   36  F   UNL     1     -11.681  16.733  72.646  1.00  0.00    -0.582 F  
ENDBRANCH  28  29
ENDBRANCH  24  28
ENDBRANCH  17  18
ENDBRANCH  11  14
BRANCH  12  37
HETATM   37  N   UNL     1      -9.089   9.744  67.956  1.00  0.00    -0.125 NA 
HETATM   38  H   UNL     1      -9.186  10.604  68.497  1.00  0.00     0.000 HD 
BRANCH  37  39
HETATM   39  C   UNL     1     -10.233   9.287  67.149  1.00  0.00    -0.257 C  
HETATM   40  C   UNL     1      -9.894   8.882  65.712  1.00  0.00    -0.106 C  
HETATM   41  O   UNL     1     -10.706  11.022  64.885  1.00  0.00    -0.286 OA 
HETATM   42  C   UNL     1     -10.885  11.526  66.207  1.00  0.00    -0.282 C  
HETATM   43  C   UNL     1     -11.288  10.390  67.134  1.00  0.00     0.109 C  
HETATM   44  C   UNL     1      -9.638  10.081  64.811  1.00  0.00    -0.308 C  
ENDBRANCH  37  39
ENDBRANCH  12  37
ENDBRANCH   5   8
TORSDOF 7
ENDMDL
MODEL       81
REMARK 921   NORMALIZED FREE ENERGY PREDICTED BY IDOCK:   -5.49 KCAL/MOL
REMARK 922        TOTAL FREE ENERGY PREDICTED BY IDOCK:  -10.26 KCAL/MOL
REMARK 923 INTER-LIGAND FREE ENERGY PREDICTED BY IDOCK:   -9.88 KCAL/MOL
REMARK 924 INTRA-LIGAND FREE ENERGY PREDICTED BY IDOCK:   -0.38 KCAL/MOL
REMARK 927      BINDING AFFINITY PREDICTED BY RF-SCORE:    0.00 PKD
ROOT
HETATM    1  C   UNL     1      -8.726   2.187  64.305  1.00  0.00    -0.098 C  
HETATM    2  N   UNL     1      -7.812   2.834  65.243  1.00  0.00    -0.080 NA 
HETATM    3  C   UNL     1      -7.649   4.270  64.925  1.00  0.00    -0.077 C  
HETATM    4  C   UNL     1      -8.875   5.144  65.264  1.00  0.00    -0.152 C  
HETATM    5  N   UNL     1      -9.202   4.984  66.696  1.00  0.00    -0.124 NA 
HETATM    6  C   UNL     1      -9.485   3.587  67.057  1.00  0.00    -0.176 C  
HETATM    7  C   UNL     1      -8.282   2.696  66.645  1.00  0.00    -0.085 C  
ENDROOT
BRANCH   5   8
HETATM    8  C   UNL     1      -9.591   6.070  67.457  1.00  0.00    -0.113 A  
HETATM    9  C   UNL     1     -10.597   6.959  67.090  1.00  0.00    -0.408 A  
HETATM   10  C   UNL     1     -10.897   8.076  67.881  1.00  0.00    -0.045 A  
HETATM   11  C   UNL     1     -10.188   8.340  69.066  1.00  0.00    -0.226 A  
HETATM   12  C   UNL     1      -9.231   7.419  69.528  1.00  0.00    -0.146 A  
HETATM   13  C   UNL     1      -8.985   6.309  68.705  1.00  0.00    -0.127 A  
BRANCH  11  14
HETATM   14  C   UNL     1     -10.494   9.634  69.749  1.00  0.00    -0.238 C  
HETATM   15  H   UNL     1     -12.493   9.122  69.796  1.00  0.00     0.000 HD 
HETATM   16  O   UNL     1      -9.549  10.372  70.023  1.00  0.00    -0.061 OA 
HETATM   17  N   UNL     1     -11.827   9.856  70.040  1.00  0.00    -0.131 N  
BRANCH  17  18
HETATM   18  C   UNL     1     -12.323  11.001  70.637  1.00  0.00    -0.386 A  
HETATM   19  C   UNL     1     -12.239  12.329  70.099  1.00  0.00    -0.302 A  
HETATM   20  C   UNL     1     -11.742  12.948  68.939  1.00  0.00    -0.370 A  
HETATM   21  N   UNL     1     -12.937  11.011  71.821  1.00  0.00    -0.468 NA 
HETATM   22  N   UNL     1     -13.214  12.294  72.056  1.00  0.00    -0.474 NA 
HETATM   23  H   UNL     1     -13.148  10.210  72.417  1.00  0.00     0.000 HD 
HETATM   24  C   UNL     1     -11.760  14.353  68.810  1.00  0.00    -0.372 A  
HETATM   25  C   UNL     1     -12.295  15.130  69.846  1.00  0.00    -0.314 A  
HETATM   26  C   UNL     1     -12.781  13.150  71.084  1.00  0.00    -0.300 A  
HETATM   27  C   UNL     1     -12.826  14.542  70.999  1.00  0.00    -0.418 A  
BRANCH  24  28
HETATM   28  C   UNL     1     -11.258  15.011  67.542  1.00  0.00    -0.333 C  
BRANCH  28  29
HETATM   29  C   UNL     1     -10.950  14.087  66.380  1.00  0.00    -0.308 A  
HETATM   30  C   UNL     1      -9.896  13.161  66.385  1.00  0.00    -0.279 A  
HETATM   31  C   UNL     1      -9.714  12.289  65.312  1.00  0.00    -0.113 A  
HETATM   32  F   UNL     1      -8.712  11.402  65.353  1.00  0.00    -0.165 F  
HETATM   33  C   UNL     1     -10.555  12.316  64.211  1.00  0.00    -0.387 A  
HETATM   34  C   UNL     1     -11.582  13.247  64.188  1.00  0.00    -0.405 A  
HETATM   35  C   UNL     1     -11.785  14.126  65.251  1.00  0.00    -0.353 A  
HETATM   36  F   UNL     1     -12.402  13.297  63.131  1.00  0.00    -0.607 F  
ENDBRANCH  28  29
ENDBRANCH  24  28
ENDBRANCH  17  18
ENDBRANCH  11  14
BRANCH  12  37
HETATM   37  N   UNL     1      -8.494   7.628  70.701  1.00  0.00    -0.126 NA 
HETATM   38  H   UNL     1      -7.693   8.259  70.668  1.00  0.00     0.000 HD 
BRANCH  37  39
HETATM   39  C   UNL     1      -8.825   6.976  71.980  1.00  0.00    -0.127 C  
HETATM   40  C   UNL     1      -8.727   5.448  71.975  1.00  0.00    -0.131 C  
HETATM   41  O   UNL     1     -11.143   5.263  71.738  1.00  0.00    -0.141 OA 
HETATM   42  C   UNL     1     -11.287   6.671  71.564  1.00  0.00    -0.281 C  
HETATM   43  C   UNL     1     -10.235   7.396  72.388  1.00  0.00    -0.240 C  
HETATM   44  C   UNL     1      -9.890   4.789  71.248  1.00  0.00    -0.187 C  
ENDBRANCH  37  39
ENDBRANCH  12  37
ENDBRANCH   5   8
TORSDOF 7
ENDMDL
MODEL       82
REMARK 921   NORMALIZED FREE ENERGY PREDICTED BY IDOCK:   -5.47 KCAL/MOL
REMARK 922        TOTAL FREE ENERGY PREDICTED BY IDOCK:  -10.23 KCAL/MOL
REMARK 923 INTER-LIGAND FREE ENERGY PREDICTED BY IDOCK:   -8.76 KCAL/MOL
REMARK 924 INTRA-LIGAND FREE ENERGY PREDICTED BY IDOCK:   -1.47 KCAL/MOL
REMARK 927      BINDING AFFINITY PREDICTED BY RF-SCORE:    0.00 PKD
ROOT
HETATM    1  C   UNL     1      -9.191   2.096  67.052  1.00  0.00    -0.043 C  
HETATM    2  N   UNL     1      -8.398   3.125  67.719  1.00  0.00    -0.079 NA 
HETATM    3  C   UNL     1      -7.628   3.924  66.738  1.00  0.00    -0.084 C  
HETATM    4  C   UNL     1      -8.481   4.896  65.894  1.00  0.00    -0.119 C  
HETATM    5  N   UNL     1      -9.224   5.797  66.798  1.00  0.00    -0.127 NA 
HETATM    6  C   UNL     1     -10.097   5.067  67.730  1.00  0.00    -0.122 C  
HETATM    7  C   UNL     1      -9.252   4.035  68.524  1.00  0.00    -0.150 C  
ENDROOT
BRANCH   5   8
HETATM    8  C   UNL     1      -9.372   7.137  66.494  1.00  0.00    -0.164 A  
HETATM    9  C   UNL     1     -10.535   7.866  66.723  1.00  0.00    -0.317 A  
HETATM   10  C   UNL     1     -10.636   9.207  66.331  1.00  0.00    -0.002 A  
HETATM   11  C   UNL     1      -9.569   9.859  65.688  1.00  0.00    -0.320 A  
HETATM   12  C   UNL     1      -8.341   9.195  65.523  1.00  0.00    -0.133 A  
HETATM   13  C   UNL     1      -8.292   7.859  65.951  1.00  0.00    -0.134 A  
BRANCH  11  14
HETATM   14  C   UNL     1      -9.841  11.241  65.187  1.00  0.00    -0.252 C  
HETATM   15  H   UNL     1      -9.424  11.991  67.064  1.00  0.00     0.000 HD 
HETATM   16  O   UNL     1     -10.119  11.372  63.996  1.00  0.00    -0.262 OA 
HETATM   17  N   UNL     1      -9.715  12.252  66.121  1.00  0.00    -0.243 N  
BRANCH  17  18
HETATM   18  C   UNL     1      -9.954  13.591  65.871  1.00  0.00    -0.283 A  
HETATM   19  C   UNL     1     -10.107  14.614  66.865  1.00  0.00    -0.255 A  
HETATM   20  C   UNL     1     -10.061  14.713  68.267  1.00  0.00    -0.228 A  
HETATM   21  N   UNL     1     -10.095  14.101  64.647  1.00  0.00    -0.650 NA 
HETATM   22  N   UNL     1     -10.356  15.394  64.837  1.00  0.00    -0.358 NA 
HETATM   23  H   UNL     1     -10.019  13.607  63.757  1.00  0.00     0.000 HD 
HETATM   24  C   UNL     1     -10.370  15.929  68.912  1.00  0.00    -0.228 A  
HETATM   25  C   UNL     1     -10.709  17.048  68.141  1.00  0.00    -0.374 A  
HETATM   26  C   UNL     1     -10.425  15.765  66.150  1.00  0.00    -0.317 A  
HETATM   27  C   UNL     1     -10.733  16.990  66.744  1.00  0.00    -0.102 A  
BRANCH  24  28
HETATM   28  C   UNL     1     -10.283  16.038  70.420  1.00  0.00     0.254 C  
BRANCH  28  29
HETATM   29  C   UNL     1     -11.488  15.553  71.202  1.00  0.00    -0.442 A  
HETATM   30  C   UNL     1     -12.346  14.539  70.752  1.00  0.00    -0.410 A  
HETATM   31  C   UNL     1     -13.394  14.089  71.554  1.00  0.00    -0.350 A  
HETATM   32  F   UNL     1     -14.185  13.105  71.108  1.00  0.00     0.351 F  
HETATM   33  C   UNL     1     -13.626  14.632  72.808  1.00  0.00    -0.538 A  
HETATM   34  C   UNL     1     -12.798  15.653  73.247  1.00  0.00    -0.527 A  
HETATM   35  C   UNL     1     -11.741  16.116  72.464  1.00  0.00    -0.525 A  
HETATM   36  F   UNL     1     -13.008  16.199  74.452  1.00  0.00    -0.502 F  
ENDBRANCH  28  29
ENDBRANCH  24  28
ENDBRANCH  17  18
ENDBRANCH  11  14
BRANCH  12  37
HETATM   37  N   UNL     1      -7.243   9.793  64.891  1.00  0.00    -0.122 NA 
HETATM   38  H   UNL     1      -6.525  10.229  65.471  1.00  0.00     0.000 HD 
BRANCH  37  39
HETATM   39  C   UNL     1      -7.080   9.820  63.428  1.00  0.00    -0.117 C  
HETATM   40  C   UNL     1      -8.131   9.031  62.642  1.00  0.00    -0.158 C  
HETATM   41  O   UNL     1      -6.575   7.180  62.360  1.00  0.00    -0.054 OA 
HETATM   42  C   UNL     1      -5.615   7.786  63.224  1.00  0.00    -0.054 C  
HETATM   43  C   UNL     1      -5.687   9.298  63.085  1.00  0.00    -0.084 C  
HETATM   44  C   UNL     1      -7.910   7.528  62.717  1.00  0.00    -0.132 C  
ENDBRANCH  37  39
ENDBRANCH  12  37
ENDBRANCH   5   8
TORSDOF 7
ENDMDL
MODEL       83
REMARK 921   NORMALIZED FREE ENERGY PREDICTED BY IDOCK:   -5.40 KCAL/MOL
REMARK 922        TOTAL FREE ENERGY PREDICTED BY IDOCK:  -10.14 KCAL/MOL
REMARK 923 INTER-LIGAND FREE ENERGY PREDICTED BY IDOCK:   -8.46 KCAL/MOL
REMARK 924 INTRA-LIGAND FREE ENERGY PREDICTED BY IDOCK:   -1.68 KCAL/MOL
REMARK 927      BINDING AFFINITY PREDICTED BY RF-SCORE:    0.00 PKD
ROOT
HETATM    1  C   UNL     1     -13.305  15.836  73.198  1.00  0.00    -0.587 C  
HETATM    2  N   UNL     1     -14.140  15.061  72.284  1.00  0.00    -0.493 NA 
HETATM    3  C   UNL     1     -13.788  15.340  70.873  1.00  0.00    -0.234 C  
HETATM    4  C   UNL     1     -12.443  14.736  70.417  1.00  0.00    -0.349 C  
HETATM    5  N   UNL     1     -12.465  13.276  70.647  1.00  0.00    -0.328 NA 
HETATM    6  C   UNL     1     -12.701  12.931  72.056  1.00  0.00    -0.044 C  
HETATM    7  C   UNL     1     -14.016  13.603  72.537  1.00  0.00    -0.466 C  
ENDROOT
BRANCH   5   8
HETATM    8  C   UNL     1     -11.916  12.408  69.722  1.00  0.00    -0.289 A  
HETATM    9  C   UNL     1     -11.894  11.024  69.868  1.00  0.00    -0.431 A  
HETATM   10  C   UNL     1     -11.264  10.208  68.920  1.00  0.00    -0.220 A  
HETATM   11  C   UNL     1     -10.628  10.759  67.794  1.00  0.00    -0.266 A  
HETATM   12  C   UNL     1     -10.707  12.142  67.552  1.00  0.00    -0.232 A  
HETATM   13  C   UNL     1     -11.366  12.908  68.527  1.00  0.00    -0.324 A  
BRANCH  11  14
HETATM   14  C   UNL     1      -9.866   9.807  66.930  1.00  0.00    -0.201 C  
HETATM   15  H   UNL     1      -8.096  10.573  67.666  1.00  0.00     0.000 HD 
HETATM   16  O   UNL     1     -10.512   9.012  66.248  1.00  0.00    -0.179 OA 
HETATM   17  N   UNL     1      -8.489   9.895  67.012  1.00  0.00    -0.121 N  
BRANCH  17  18
HETATM   18  C   UNL     1      -7.604   9.129  66.273  1.00  0.00    -0.092 A  
HETATM   19  C   UNL     1      -7.445   7.707  66.370  1.00  0.00    -0.084 A  
HETATM   20  C   UNL     1      -8.020   6.646  67.093  1.00  0.00    -0.109 A  
HETATM   21  N   UNL     1      -6.760   9.637  65.374  1.00  0.00    -0.085 NA 
HETATM   22  N   UNL     1      -6.062   8.593  64.926  1.00  0.00    -0.060 NA 
HETATM   23  H   UNL     1      -6.669  10.613  65.090  1.00  0.00     0.000 HD 
HETATM   24  C   UNL     1      -7.506   5.337  66.977  1.00  0.00    -0.087 A  
HETATM   25  C   UNL     1      -6.423   5.097  66.121  1.00  0.00    -0.040 A  
HETATM   26  C   UNL     1      -6.389   7.405  65.516  1.00  0.00    -0.041 A  
HETATM   27  C   UNL     1      -5.850   6.126  65.365  1.00  0.00    -0.025 A  
BRANCH  24  28
HETATM   28  C   UNL     1      -8.153   4.193  67.729  1.00  0.00    -0.094 C  
BRANCH  28  29
HETATM   29  C   UNL     1      -8.376   4.402  69.214  1.00  0.00    -0.083 A  
HETATM   30  C   UNL     1      -9.547   4.017  69.884  1.00  0.00    -0.281 A  
HETATM   31  C   UNL     1      -9.657   4.171  71.265  1.00  0.00    -0.172 A  
HETATM   32  F   UNL     1     -10.778   3.776  71.881  1.00  0.00    -0.092 F  
HETATM   33  C   UNL     1      -8.625   4.715  72.014  1.00  0.00    -0.124 A  
HETATM   34  C   UNL     1      -7.476   5.123  71.355  1.00  0.00    -0.091 A  
HETATM   35  C   UNL     1      -7.342   4.974  69.975  1.00  0.00    -0.059 A  
HETATM   36  F   UNL     1      -6.469   5.659  72.056  1.00  0.00    -0.044 F  
ENDBRANCH  28  29
ENDBRANCH  24  28
ENDBRANCH  17  18
ENDBRANCH  11  14
BRANCH  12  37
HETATM   37  N   UNL     1     -10.094  12.747  66.448  1.00  0.00    -0.254 NA 
HETATM   38  H   UNL     1      -9.090  12.620  66.318  1.00  0.00     0.000 HD 
BRANCH  37  39
HETATM   39  C   UNL     1     -10.835  13.558  65.467  1.00  0.00    -0.288 C  
HETATM   40  C   UNL     1     -12.340  13.285  65.402  1.00  0.00    -0.528 C  
HETATM   41  O   UNL     1     -12.037  11.916  63.412  1.00  0.00    -0.502 OA 
HETATM   42  C   UNL     1     -10.616  11.989  63.513  1.00  0.00    -0.465 C  
HETATM   43  C   UNL     1     -10.216  13.339  64.089  1.00  0.00    -0.087 C  
HETATM   44  C   UNL     1     -12.668  11.982  64.689  1.00  0.00     0.091 C  
ENDBRANCH  37  39
ENDBRANCH  12  37
ENDBRANCH   5   8
TORSDOF 7
ENDMDL
MODEL       84
REMARK 921   NORMALIZED FREE ENERGY PREDICTED BY IDOCK:   -5.34 KCAL/MOL
REMARK 922        TOTAL FREE ENERGY PREDICTED BY IDOCK:  -10.05 KCAL/MOL
REMARK 923 INTER-LIGAND FREE ENERGY PREDICTED BY IDOCK:   -7.51 KCAL/MOL
REMARK 924 INTRA-LIGAND FREE ENERGY PREDICTED BY IDOCK:   -2.55 KCAL/MOL
REMARK 927      BINDING AFFINITY PREDICTED BY RF-SCORE:    0.00 PKD
ROOT
HETATM    1  C   UNL     1      -8.547   2.439  64.078  1.00  0.00    -0.086 C  
HETATM    2  N   UNL     1      -9.341   2.799  65.250  1.00  0.00    -0.133 NA 
HETATM    3  C   UNL     1      -8.512   2.799  66.476  1.00  0.00    -0.103 C  
HETATM    4  C   UNL     1      -7.523   3.979  66.581  1.00  0.00    -0.084 C  
HETATM    5  N   UNL     1      -8.272   5.249  66.486  1.00  0.00    -0.108 NA 
HETATM    6  C   UNL     1      -9.034   5.361  65.233  1.00  0.00    -0.098 C  
HETATM    7  C   UNL     1      -9.973   4.134  65.091  1.00  0.00    -0.210 C  
ENDROOT
BRANCH   5   8
HETATM    8  C   UNL     1      -7.940   6.326  67.284  1.00  0.00    -0.109 A  
HETATM    9  C   UNL     1      -7.187   6.230  68.451  1.00  0.00    -0.085 A  
HETATM   10  C   UNL     1      -6.941   7.356  69.247  1.00  0.00    -0.065 A  
HETATM   11  C   UNL     1      -7.451   8.619  68.897  1.00  0.00    -0.090 A  
HETATM   12  C   UNL     1      -8.134   8.785  67.680  1.00  0.00    -0.106 A  
HETATM   13  C   UNL     1      -8.336   7.626  66.914  1.00  0.00    -0.124 A  
BRANCH  11  14
HETATM   14  C   UNL     1      -7.249   9.715  69.893  1.00  0.00    -0.106 C  
HETATM   15  H   UNL     1      -5.873  10.594  68.629  1.00  0.00     0.000 HD 
HETATM   16  O   UNL     1      -7.931   9.690  70.917  1.00  0.00    -0.307 OA 
HETATM   17  N   UNL     1      -6.324  10.681  69.540  1.00  0.00    -0.059 N  
BRANCH  17  18
HETATM   18  C   UNL     1      -5.967  11.757  70.333  1.00  0.00    -0.123 A  
HETATM   19  C   UNL     1      -5.985  13.134  69.932  1.00  0.00    -0.138 A  
HETATM   20  C   UNL     1      -6.334  13.877  68.789  1.00  0.00    -0.091 A  
HETATM   21  N   UNL     1      -5.534  11.639  71.589  1.00  0.00    -0.350 NA 
HETATM   22  N   UNL     1      -5.255  12.883  71.978  1.00  0.00    -0.372 NA 
HETATM   23  H   UNL     1      -5.437  10.781  72.133  1.00  0.00     0.000 HD 
HETATM   24  C   UNL     1      -6.112  15.270  68.744  1.00  0.00    -0.087 A  
HETATM   25  C   UNL     1      -5.555  15.914  69.856  1.00  0.00    -0.147 A  
HETATM   26  C   UNL     1      -5.458  13.831  71.015  1.00  0.00    -0.188 A  
HETATM   27  C   UNL     1      -5.227  15.208  71.018  1.00  0.00    -0.134 A  
BRANCH  24  28
HETATM   28  C   UNL     1      -6.525  16.069  67.525  1.00  0.00    -0.207 C  
BRANCH  28  29
HETATM   29  C   UNL     1      -8.007  16.356  67.377  1.00  0.00    -0.179 A  
HETATM   30  C   UNL     1      -8.685  16.313  66.149  1.00  0.00    -0.353 A  
HETATM   31  C   UNL     1     -10.063  16.514  66.094  1.00  0.00    -0.348 A  
HETATM   32  F   UNL     1     -10.688  16.447  64.911  1.00  0.00    -0.393 F  
HETATM   33  C   UNL     1     -10.801  16.772  67.239  1.00  0.00    -0.137 A  
HETATM   34  C   UNL     1     -10.133  16.843  68.451  1.00  0.00    -0.304 A  
HETATM   35  C   UNL     1      -8.755  16.641  68.531  1.00  0.00    -0.242 A  
HETATM   36  F   UNL     1     -10.823  17.099  69.570  1.00  0.00    -0.310 F  
ENDBRANCH  28  29
ENDBRANCH  24  28
ENDBRANCH  17  18
ENDBRANCH  11  14
BRANCH  12  37
HETATM   37  N   UNL     1      -8.664  10.018  67.279  1.00  0.00    -0.125 NA 
HETATM   38  H   UNL     1      -8.249  10.488  66.474  1.00  0.00     0.000 HD 
BRANCH  37  39
HETATM   39  C   UNL     1      -9.793  10.665  67.968  1.00  0.00    -0.160 C  
HETATM   40  C   UNL     1     -11.115  10.660  67.194  1.00  0.00    -0.267 C  
HETATM   41  O   UNL     1     -10.757  12.969  66.508  1.00  0.00    -0.274 OA 
HETATM   42  C   UNL     1      -9.443  12.986  67.062  1.00  0.00    -0.237 C  
HETATM   43  C   UNL     1      -9.401  12.103  68.299  1.00  0.00    -0.198 C  
HETATM   44  C   UNL     1     -11.130  11.669  66.056  1.00  0.00    -0.270 C  
ENDBRANCH  37  39
ENDBRANCH  12  37
ENDBRANCH   5   8
TORSDOF 7
ENDMDL
MODEL       85
REMARK 921   NORMALIZED FREE ENERGY PREDICTED BY IDOCK:   -5.30 KCAL/MOL
REMARK 922        TOTAL FREE ENERGY PREDICTED BY IDOCK:   -9.99 KCAL/MOL
REMARK 923 INTER-LIGAND FREE ENERGY PREDICTED BY IDOCK:   -7.74 KCAL/MOL
REMARK 924 INTRA-LIGAND FREE ENERGY PREDICTED BY IDOCK:   -2.25 KCAL/MOL
REMARK 927      BINDING AFFINITY PREDICTED BY RF-SCORE:    0.00 PKD
ROOT
HETATM    1  C   UNL     1      -7.663  20.002  65.873  1.00  0.00    -0.282 C  
HETATM    2  N   UNL     1      -8.168  19.585  67.179  1.00  0.00    -0.269 NA 
HETATM    3  C   UNL     1      -9.290  18.630  67.037  1.00  0.00    -0.294 C  
HETATM    4  C   UNL     1      -8.874  17.220  66.566  1.00  0.00    -0.261 C  
HETATM    5  N   UNL     1      -7.868  16.674  67.501  1.00  0.00    -0.167 NA 
HETATM    6  C   UNL     1      -6.674  17.525  67.604  1.00  0.00    -0.162 C  
HETATM    7  C   UNL     1      -7.100  18.963  68.002  1.00  0.00    -0.238 C  
ENDROOT
BRANCH   5   8
HETATM    8  C   UNL     1      -7.901  15.344  67.876  1.00  0.00    -0.133 A  
HETATM    9  C   UNL     1      -7.548  14.881  69.140  1.00  0.00    -0.160 A  
HETATM   10  C   UNL     1      -7.545  13.511  69.432  1.00  0.00     0.407 A  
HETATM   11  C   UNL     1      -7.891  12.559  68.456  1.00  0.00    -0.108 A  
HETATM   12  C   UNL     1      -8.348  12.982  67.196  1.00  0.00    -0.150 A  
HETATM   13  C   UNL     1      -8.347  14.367  66.966  1.00  0.00    -0.172 A  
BRANCH  11  14
HETATM   14  C   UNL     1      -7.712  11.124  68.836  1.00  0.00    -0.137 C  
HETATM   15  H   UNL     1      -9.320  11.276  70.122  1.00  0.00     0.000 HD 
HETATM   16  O   UNL     1      -6.824  10.490  68.268  1.00  0.00    -0.066 OA 
HETATM   17  N   UNL     1      -8.600  10.640  69.778  1.00  0.00     0.131 N  
BRANCH  17  18
HETATM   18  C   UNL     1      -8.584   9.353  70.289  1.00  0.00    -0.221 A  
HETATM   19  C   UNL     1      -9.164   8.199  69.666  1.00  0.00    -0.155 A  
HETATM   20  C   UNL     1      -9.851   7.897  68.476  1.00  0.00    -0.186 A  
HETATM   21  N   UNL     1      -8.031   9.029  71.458  1.00  0.00    -0.339 NA 
HETATM   22  N   UNL     1      -8.266   7.725  71.603  1.00  0.00    -0.105 NA 
HETATM   23  H   UNL     1      -7.535   9.646  72.102  1.00  0.00     0.000 HD 
HETATM   24  C   UNL     1     -10.369   6.603  68.255  1.00  0.00    -0.220 A  
HETATM   25  C   UNL     1     -10.180   5.612  69.226  1.00  0.00    -0.309 A  
HETATM   26  C   UNL     1      -8.985   7.168  70.584  1.00  0.00    -0.154 A  
HETATM   27  C   UNL     1      -9.475   5.873  70.406  1.00  0.00    -0.192 A  
BRANCH  24  28
HETATM   28  C   UNL     1     -11.074   6.275  66.955  1.00  0.00    -0.329 C  
BRANCH  28  29
HETATM   29  C   UNL     1     -10.292   5.445  65.955  1.00  0.00    -0.118 A  
HETATM   30  C   UNL     1      -8.899   5.523  65.804  1.00  0.00    -0.154 A  
HETATM   31  C   UNL     1      -8.234   4.678  64.918  1.00  0.00    -0.113 A  
HETATM   32  F   UNL     1      -6.902   4.761  64.809  1.00  0.00    -0.044 F  
HETATM   33  C   UNL     1      -8.922   3.747  64.156  1.00  0.00    -0.123 A  
HETATM   34  C   UNL     1     -10.301   3.683  64.281  1.00  0.00    -0.227 A  
HETATM   35  C   UNL     1     -10.987   4.515  65.164  1.00  0.00    -0.017 A  
HETATM   36  F   UNL     1     -10.989   2.797  63.549  1.00  0.00    -0.227 F  
ENDBRANCH  28  29
ENDBRANCH  24  28
ENDBRANCH  17  18
ENDBRANCH  11  14
BRANCH  12  37
HETATM   37  N   UNL     1      -8.707  12.081  66.186  1.00  0.00    -0.398 NA 
HETATM   38  H   UNL     1      -7.988  11.771  65.532  1.00  0.00     0.000 HD 
BRANCH  37  39
HETATM   39  C   UNL     1     -10.076  11.561  66.027  1.00  0.00    -0.232 C  
HETATM   40  C   UNL     1     -10.234  10.458  64.977  1.00  0.00    -0.334 C  
HETATM   41  O   UNL     1     -11.110  12.067  63.374  1.00  0.00    -0.410 OA 
HETATM   42  C   UNL     1     -10.829  13.164  64.241  1.00  0.00    -0.406 C  
HETATM   43  C   UNL     1     -11.001  12.727  65.687  1.00  0.00    -0.302 C  
HETATM   44  C   UNL     1     -10.188  10.994  63.554  1.00  0.00    -0.365 C  
ENDBRANCH  37  39
ENDBRANCH  12  37
ENDBRANCH   5   8
TORSDOF 7
ENDMDL
MODEL       86
REMARK 921   NORMALIZED FREE ENERGY PREDICTED BY IDOCK:   -5.30 KCAL/MOL
REMARK 922        TOTAL FREE ENERGY PREDICTED BY IDOCK:   -9.99 KCAL/MOL
REMARK 923 INTER-LIGAND FREE ENERGY PREDICTED BY IDOCK:   -8.91 KCAL/MOL
REMARK 924 INTRA-LIGAND FREE ENERGY PREDICTED BY IDOCK:   -1.08 KCAL/MOL
REMARK 927      BINDING AFFINITY PREDICTED BY RF-SCORE:    0.00 PKD
ROOT
HETATM    1  C   UNL     1      -8.846  19.548  68.627  1.00  0.00    -0.339 C  
HETATM    2  N   UNL     1      -9.321  19.038  67.343  1.00  0.00    -0.300 NA 
HETATM    3  C   UNL     1      -8.378  18.043  66.782  1.00  0.00    -0.253 C  
HETATM    4  C   UNL     1      -8.378  16.681  67.508  1.00  0.00    -0.175 C  
HETATM    5  N   UNL     1      -9.749  16.129  67.503  1.00  0.00    -0.231 NA 
HETATM    6  C   UNL     1     -10.720  17.025  68.148  1.00  0.00    -0.374 C  
HETATM    7  C   UNL     1     -10.665  18.419  67.467  1.00  0.00    -0.365 C  
ENDROOT
BRANCH   5   8
HETATM    8  C   UNL     1      -9.966  14.781  67.292  1.00  0.00    -0.231 A  
HETATM    9  C   UNL     1     -11.222  14.181  67.304  1.00  0.00    -0.330 A  
HETATM   10  C   UNL     1     -11.362  12.796  67.146  1.00  0.00    -0.365 A  
HETATM   11  C   UNL     1     -10.240  11.966  66.978  1.00  0.00    -0.233 A  
HETATM   12  C   UNL     1      -8.960  12.535  66.862  1.00  0.00    -0.212 A  
HETATM   13  C   UNL     1      -8.881  13.929  67.010  1.00  0.00    -0.231 A  
BRANCH  11  14
HETATM   14  C   UNL     1     -10.499  10.494  66.965  1.00  0.00    -0.249 C  
HETATM   15  H   UNL     1      -8.511  10.159  66.521  1.00  0.00     0.000 HD 
HETATM   16  O   UNL     1     -11.636  10.112  67.239  1.00  0.00    -0.029 OA 
HETATM   17  N   UNL     1      -9.408   9.696  66.676  1.00  0.00    -0.150 N  
BRANCH  17  18
HETATM   18  C   UNL     1      -9.443   8.316  66.582  1.00  0.00    -0.209 A  
HETATM   19  C   UNL     1      -9.935   7.421  67.590  1.00  0.00    -0.213 A  
HETATM   20  C   UNL     1     -10.520   7.516  68.865  1.00  0.00    -0.214 A  
HETATM   21  N   UNL     1      -8.994   7.636  65.527  1.00  0.00    -0.378 NA 
HETATM   22  N   UNL     1      -9.160   6.352  65.846  1.00  0.00    -0.103 NA 
HETATM   23  H   UNL     1      -8.606   8.016  64.663  1.00  0.00     0.000 HD 
HETATM   24  C   UNL     1     -10.792   6.354  69.619  1.00  0.00    -0.380 A  
HETATM   25  C   UNL     1     -10.490   5.098  69.077  1.00  0.00    -0.149 A  
HETATM   26  C   UNL     1      -9.679   6.147  67.093  1.00  0.00    -0.135 A  
HETATM   27  C   UNL     1      -9.937   4.970  67.799  1.00  0.00    -0.198 A  
BRANCH  24  28
HETATM   28  C   UNL     1     -11.456   6.462  70.975  1.00  0.00    -0.394 C  
BRANCH  28  29
HETATM   29  C   UNL     1     -10.543   6.374  72.182  1.00  0.00    -0.249 A  
HETATM   30  C   UNL     1      -9.901   7.485  72.750  1.00  0.00    -0.261 A  
HETATM   31  C   UNL     1      -9.132   7.346  73.904  1.00  0.00    -0.252 A  
HETATM   32  F   UNL     1      -8.547   8.428  74.436  1.00  0.00    -0.281 F  
HETATM   33  C   UNL     1      -8.971   6.114  74.519  1.00  0.00    -0.146 A  
HETATM   34  C   UNL     1      -9.580   5.009  73.948  1.00  0.00    -0.131 A  
HETATM   35  C   UNL     1     -10.357   5.124  72.795  1.00  0.00    -0.242 A  
HETATM   36  F   UNL     1      -9.431   3.806  74.519  1.00  0.00    -0.111 F  
ENDBRANCH  28  29
ENDBRANCH  24  28
ENDBRANCH  17  18
ENDBRANCH  11  14
BRANCH  12  37
HETATM   37  N   UNL     1      -7.806  11.759  66.694  1.00  0.00    -0.330 NA 
HETATM   38  H   UNL     1      -7.753  11.132  65.890  1.00  0.00     0.000 HD 
BRANCH  37  39
HETATM   39  C   UNL     1      -6.665  11.809  67.625  1.00  0.00    -0.091 C  
HETATM   40  C   UNL     1      -5.639  10.685  67.455  1.00  0.00    -0.044 C  
HETATM   41  O   UNL     1      -6.592   9.488  69.350  1.00  0.00    -0.043 OA 
HETATM   42  C   UNL     1      -7.676  10.410  69.455  1.00  0.00    -0.158 C  
HETATM   43  C   UNL     1      -7.204  11.798  69.053  1.00  0.00    -0.080 C  
HETATM   44  C   UNL     1      -6.132   9.355  68.007  1.00  0.00    -0.052 C  
ENDBRANCH  37  39
ENDBRANCH  12  37
ENDBRANCH   5   8
TORSDOF 7
ENDMDL
MODEL       87
REMARK 921   NORMALIZED FREE ENERGY PREDICTED BY IDOCK:   -5.24 KCAL/MOL
REMARK 922        TOTAL FREE ENERGY PREDICTED BY IDOCK:   -9.91 KCAL/MOL
REMARK 923 INTER-LIGAND FREE ENERGY PREDICTED BY IDOCK:   -8.10 KCAL/MOL
REMARK 924 INTRA-LIGAND FREE ENERGY PREDICTED BY IDOCK:   -1.81 KCAL/MOL
REMARK 927      BINDING AFFINITY PREDICTED BY RF-SCORE:    0.00 PKD
ROOT
HETATM    1  C   UNL     1      -7.057   2.857  70.103  1.00  0.00    -0.034 C  
HETATM    2  N   UNL     1      -8.226   3.378  70.807  1.00  0.00    -0.056 NA 
HETATM    3  C   UNL     1      -7.901   4.629  71.529  1.00  0.00    -0.099 C  
HETATM    4  C   UNL     1      -7.698   5.859  70.618  1.00  0.00    -0.097 C  
HETATM    5  N   UNL     1      -8.909   6.057  69.795  1.00  0.00    -0.133 NA 
HETATM    6  C   UNL     1      -9.226   4.885  68.967  1.00  0.00    -0.119 C  
HETATM    7  C   UNL     1      -9.354   3.633  69.875  1.00  0.00    -0.176 C  
ENDROOT
BRANCH   5   8
HETATM    8  C   UNL     1      -9.396   7.328  69.552  1.00  0.00    -0.152 A  
HETATM    9  C   UNL     1     -10.563   7.836  70.114  1.00  0.00    -0.237 A  
HETATM   10  C   UNL     1     -11.033   9.111  69.773  1.00  0.00    -0.195 A  
HETATM   11  C   UNL     1     -10.345   9.916  68.848  1.00  0.00    -0.221 A  
HETATM   12  C   UNL     1      -9.112   9.486  68.328  1.00  0.00    -0.127 A  
HETATM   13  C   UNL     1      -8.682   8.208  68.718  1.00  0.00    -0.138 A  
BRANCH  11  14
HETATM   14  C   UNL     1     -11.014  11.193  68.452  1.00  0.00    -0.227 C  
HETATM   15  H   UNL     1      -9.757  12.230  69.720  1.00  0.00     0.000 HD 
HETATM   16  O   UNL     1     -11.899  11.134  67.601  1.00  0.00    -0.612 OA 
HETATM   17  N   UNL     1     -10.537  12.334  69.070  1.00  0.00    -0.129 N  
BRANCH  17  18
HETATM   18  C   UNL     1     -11.039  13.608  68.869  1.00  0.00    -0.256 A  
HETATM   19  C   UNL     1     -10.261  14.781  68.592  1.00  0.00    -0.236 A  
HETATM   20  C   UNL     1      -8.905  15.105  68.402  1.00  0.00    -0.174 A  
HETATM   21  N   UNL     1     -12.337  13.909  68.932  1.00  0.00    -0.454 NA 
HETATM   22  N   UNL     1     -12.398  15.225  68.731  1.00  0.00    -0.025 NA 
HETATM   23  H   UNL     1     -13.115  13.269  69.097  1.00  0.00     0.000 HD 
HETATM   24  C   UNL     1      -8.505  16.448  68.236  1.00  0.00    -0.195 A  
HETATM   25  C   UNL     1      -9.474  17.459  68.244  1.00  0.00    -0.290 A  
HETATM   26  C   UNL     1     -11.181  15.824  68.566  1.00  0.00    -0.354 A  
HETATM   27  C   UNL     1     -10.833  17.166  68.399  1.00  0.00    -0.309 A  
BRANCH  24  28
HETATM   28  C   UNL     1      -7.049  16.786  67.994  1.00  0.00    -0.159 C  
BRANCH  28  29
HETATM   29  C   UNL     1      -6.695  18.260  67.965  1.00  0.00    -0.203 A  
HETATM   30  C   UNL     1      -6.712  19.038  66.796  1.00  0.00    -0.202 A  
HETATM   31  C   UNL     1      -6.448  20.405  66.851  1.00  0.00    -0.225 A  
HETATM   32  F   UNL     1      -6.492  21.127  65.724  1.00  0.00    -0.280 F  
HETATM   33  C   UNL     1      -6.152  21.035  68.050  1.00  0.00    -0.398 A  
HETATM   34  C   UNL     1      -6.107  20.267  69.203  1.00  0.00    -0.335 A  
HETATM   35  C   UNL     1      -6.372  18.899  69.173  1.00  0.00    -0.291 A  
HETATM   36  F   UNL     1      -5.815  20.852  70.373  1.00  0.00    -0.339 F  
ENDBRANCH  28  29
ENDBRANCH  24  28
ENDBRANCH  17  18
ENDBRANCH  11  14
BRANCH  12  37
HETATM   37  N   UNL     1      -8.381  10.244  67.404  1.00  0.00    -0.118 NA 
HETATM   38  H   UNL     1      -7.573  10.771  67.736  1.00  0.00     0.000 HD 
BRANCH  37  39
HETATM   39  C   UNL     1      -8.729  10.315  65.974  1.00  0.00    -0.150 C  
HETATM   40  C   UNL     1      -9.155   8.986  65.343  1.00  0.00    -0.250 C  
HETATM   41  O   UNL     1      -6.945   8.710  64.360  1.00  0.00    -0.080 OA 
HETATM   42  C   UNL     1      -6.435   9.846  65.056  1.00  0.00    -0.106 C  
HETATM   43  C   UNL     1      -7.535  10.884  65.211  1.00  0.00     0.204 C  
HETATM   44  C   UNL     1      -7.978   8.055  65.091  1.00  0.00    -0.127 C  
ENDBRANCH  37  39
ENDBRANCH  12  37
ENDBRANCH   5   8
TORSDOF 7
ENDMDL
MODEL       88
REMARK 921   NORMALIZED FREE ENERGY PREDICTED BY IDOCK:   -5.20 KCAL/MOL
REMARK 922        TOTAL FREE ENERGY PREDICTED BY IDOCK:   -9.85 KCAL/MOL
REMARK 923 INTER-LIGAND FREE ENERGY PREDICTED BY IDOCK:   -8.29 KCAL/MOL
REMARK 924 INTRA-LIGAND FREE ENERGY PREDICTED BY IDOCK:   -1.56 KCAL/MOL
REMARK 927      BINDING AFFINITY PREDICTED BY RF-SCORE:    0.00 PKD
ROOT
HETATM    1  C   UNL     1      -7.488   2.439  68.279  1.00  0.00    -0.048 C  
HETATM    2  N   UNL     1      -8.439   3.369  68.882  1.00  0.00    -0.071 NA 
HETATM    3  C   UNL     1      -7.805   4.679  69.153  1.00  0.00    -0.070 C  
HETATM    4  C   UNL     1      -7.525   5.527  67.894  1.00  0.00    -0.080 C  
HETATM    5  N   UNL     1      -8.788   5.727  67.154  1.00  0.00    -0.108 NA 
HETATM    6  C   UNL     1      -9.415   4.458  66.757  1.00  0.00    -0.180 C  
HETATM    7  C   UNL     1      -9.627   3.573  68.015  1.00  0.00    -0.105 C  
ENDROOT
BRANCH   5   8
HETATM    8  C   UNL     1      -9.080   6.946  66.573  1.00  0.00    -0.155 A  
HETATM    9  C   UNL     1      -8.463   7.429  65.422  1.00  0.00    -0.101 A  
HETATM   10  C   UNL     1      -8.763   8.703  64.923  1.00  0.00    -0.126 A  
HETATM   11  C   UNL     1      -9.691   9.538  65.570  1.00  0.00    -0.344 A  
HETATM   12  C   UNL     1     -10.410   9.057  66.678  1.00  0.00    -0.219 A  
HETATM   13  C   UNL     1     -10.081   7.767  67.124  1.00  0.00    -0.328 A  
BRANCH  11  14
HETATM   14  C   UNL     1      -9.823  10.927  65.032  1.00  0.00    -0.281 C  
HETATM   15  H   UNL     1     -11.830  10.911  65.515  1.00  0.00     0.000 HD 
HETATM   16  O   UNL     1      -8.804  11.476  64.615  1.00  0.00     0.143 OA 
HETATM   17  N   UNL     1     -11.091  11.473  65.091  1.00  0.00    -0.239 N  
BRANCH  17  18
HETATM   18  C   UNL     1     -11.432  12.728  64.617  1.00  0.00    -0.324 A  
HETATM   19  C   UNL     1     -10.908  13.974  65.099  1.00  0.00    -0.376 A  
HETATM   20  C   UNL     1      -9.975  14.406  66.057  1.00  0.00    -0.337 A  
HETATM   21  N   UNL     1     -12.323  12.935  63.647  1.00  0.00    -0.678 NA 
HETATM   22  N   UNL     1     -12.397  14.260  63.522  1.00  0.00    -0.672 NA 
HETATM   23  H   UNL     1     -12.836  12.231  63.116  1.00  0.00     0.000 HD 
HETATM   24  C   UNL     1      -9.795  15.782  66.316  1.00  0.00    -0.320 A  
HETATM   25  C   UNL     1     -10.546  16.719  65.596  1.00  0.00    -0.258 A  
HETATM   26  C   UNL     1     -11.608  14.951  64.397  1.00  0.00    -0.288 A  
HETATM   27  C   UNL     1     -11.460  16.322  64.615  1.00  0.00    -0.168 A  
BRANCH  24  28
HETATM   28  C   UNL     1      -8.761  16.241  67.323  1.00  0.00    -0.200 C  
BRANCH  28  29
HETATM   29  C   UNL     1      -7.840  15.172  67.878  1.00  0.00    -0.144 A  
HETATM   30  C   UNL     1      -7.208  14.205  67.082  1.00  0.00     0.207 A  
HETATM   31  C   UNL     1      -6.314  13.296  67.647  1.00  0.00    -0.156 A  
HETATM   32  F   UNL     1      -5.709  12.397  66.860  1.00  0.00    -0.136 F  
HETATM   33  C   UNL     1      -6.031  13.312  69.004  1.00  0.00    -0.083 A  
HETATM   34  C   UNL     1      -6.673  14.247  69.800  1.00  0.00    -0.095 A  
HETATM   35  C   UNL     1      -7.568  15.168  69.256  1.00  0.00    -0.201 A  
HETATM   36  F   UNL     1      -6.423  14.276  71.115  1.00  0.00    -0.176 F  
ENDBRANCH  28  29
ENDBRANCH  24  28
ENDBRANCH  17  18
ENDBRANCH  11  14
BRANCH  12  37
HETATM   37  N   UNL     1     -11.347   9.842  67.362  1.00  0.00    -0.365 NA 
HETATM   38  H   UNL     1     -12.155  10.195  66.849  1.00  0.00     0.000 HD 
BRANCH  37  39
HETATM   39  C   UNL     1     -11.216  10.181  68.790  1.00  0.00    -0.164 C  
HETATM   40  C   UNL     1     -12.273  11.149  69.328  1.00  0.00    -0.295 C  
HETATM   41  O   UNL     1     -10.700  13.000  69.176  1.00  0.00    -0.155 OA 
HETATM   42  C   UNL     1      -9.730  12.191  68.514  1.00  0.00    -0.149 C  
HETATM   43  C   UNL     1      -9.824  10.763  69.025  1.00  0.00    -0.208 C  
HETATM   44  C   UNL     1     -12.032  12.584  68.885  1.00  0.00    -0.236 C  
ENDBRANCH  37  39
ENDBRANCH  12  37
ENDBRANCH   5   8
TORSDOF 7
ENDMDL
MODEL       89
REMARK 921   NORMALIZED FREE ENERGY PREDICTED BY IDOCK:   -5.17 KCAL/MOL
REMARK 922        TOTAL FREE ENERGY PREDICTED BY IDOCK:   -9.81 KCAL/MOL
REMARK 923 INTER-LIGAND FREE ENERGY PREDICTED BY IDOCK:   -8.10 KCAL/MOL
REMARK 924 INTRA-LIGAND FREE ENERGY PREDICTED BY IDOCK:   -1.71 KCAL/MOL
REMARK 927      BINDING AFFINITY PREDICTED BY RF-SCORE:    0.00 PKD
ROOT
HETATM    1  C   UNL     1      -9.264   2.222  64.181  1.00  0.00    -0.117 C  
HETATM    2  N   UNL     1      -9.694   3.511  63.643  1.00  0.00    -0.138 NA 
HETATM    3  C   UNL     1     -10.743   4.119  64.493  1.00  0.00    -0.135 C  
HETATM    4  C   UNL     1     -10.236   4.667  65.843  1.00  0.00    -0.276 C  
HETATM    5  N   UNL     1      -9.162   5.652  65.593  1.00  0.00    -0.107 NA 
HETATM    6  C   UNL     1      -8.034   5.078  64.846  1.00  0.00    -0.099 C  
HETATM    7  C   UNL     1      -8.556   4.458  63.522  1.00  0.00    -0.115 C  
ENDROOT
BRANCH   5   8
HETATM    8  C   UNL     1      -9.082   6.813  66.339  1.00  0.00    -0.152 A  
HETATM    9  C   UNL     1      -8.906   8.080  65.792  1.00  0.00    -0.170 A  
HETATM   10  C   UNL     1      -8.770   9.208  66.613  1.00  0.00    -0.140 A  
HETATM   11  C   UNL     1      -8.799   9.095  68.014  1.00  0.00    -0.129 A  
HETATM   12  C   UNL     1      -9.071   7.852  68.610  1.00  0.00    -0.136 A  
HETATM   13  C   UNL     1      -9.217   6.761  67.739  1.00  0.00    -0.111 A  
BRANCH  11  14
HETATM   14  C   UNL     1      -8.498  10.340  68.786  1.00  0.00    -0.130 C  
HETATM   15  H   UNL     1      -6.478   9.988  68.544  1.00  0.00     0.000 HD 
HETATM   16  O   UNL     1      -9.450  11.019  69.167  1.00  0.00    -0.156 OA 
HETATM   17  N   UNL     1      -7.157  10.623  68.966  1.00  0.00    -0.077 N  
BRANCH  17  18
HETATM   18  C   UNL     1      -6.668  11.704  69.678  1.00  0.00    -0.059 A  
HETATM   19  C   UNL     1      -6.654  13.066  69.225  1.00  0.00    -0.089 A  
HETATM   20  C   UNL     1      -7.073  13.787  68.093  1.00  0.00    -0.118 A  
HETATM   21  N   UNL     1      -6.121  11.605  70.890  1.00  0.00    -0.505 NA 
HETATM   22  N   UNL     1      -5.741  12.845  71.200  1.00  0.00    -0.339 NA 
HETATM   23  H   UNL     1      -6.016  10.763  71.456  1.00  0.00     0.000 HD 
HETATM   24  C   UNL     1      -6.785  15.163  67.971  1.00  0.00    -0.153 A  
HETATM   25  C   UNL     1      -6.089  15.812  68.998  1.00  0.00    -0.116 A  
HETATM   26  C   UNL     1      -5.988  13.769  70.224  1.00  0.00    -0.152 A  
HETATM   27  C   UNL     1      -5.686  15.129  70.150  1.00  0.00    -0.134 A  
BRANCH  24  28
HETATM   28  C   UNL     1      -7.272  15.941  66.767  1.00  0.00    -0.082 C  
BRANCH  28  29
HETATM   29  C   UNL     1      -8.518  16.783  66.967  1.00  0.00    -0.225 A  
HETATM   30  C   UNL     1      -9.632  16.354  67.704  1.00  0.00    -0.227 A  
HETATM   31  C   UNL     1     -10.715  17.206  67.912  1.00  0.00    -0.355 A  
HETATM   32  F   UNL     1     -11.756  16.777  68.637  1.00  0.00    -0.218 F  
HETATM   33  C   UNL     1     -10.731  18.492  67.394  1.00  0.00    -0.424 A  
HETATM   34  C   UNL     1      -9.645  18.912  66.642  1.00  0.00    -0.336 A  
HETATM   35  C   UNL     1      -8.549  18.078  66.424  1.00  0.00    -0.253 A  
HETATM   36  F   UNL     1      -9.641  20.147  66.123  1.00  0.00    -0.437 F  
ENDBRANCH  28  29
ENDBRANCH  24  28
ENDBRANCH  17  18
ENDBRANCH  11  14
BRANCH  12  37
HETATM   37  N   UNL     1      -9.112   7.679  70.000  1.00  0.00    -0.151 NA 
HETATM   38  H   UNL     1      -8.407   7.086  70.439  1.00  0.00     0.000 HD 
BRANCH  37  39
HETATM   39  C   UNL     1     -10.129   8.316  70.855  1.00  0.00    -0.190 C  
HETATM   40  C   UNL     1      -9.907   8.149  72.361  1.00  0.00    -0.346 C  
HETATM   41  O   UNL     1     -11.565   6.368  72.439  1.00  0.00    -0.284 OA 
HETATM   42  C   UNL     1     -11.694   6.353  71.019  1.00  0.00    -0.296 C  
HETATM   43  C   UNL     1     -11.500   7.760  70.475  1.00  0.00    -0.219 C  
HETATM   44  C   UNL     1     -10.255   6.753  72.853  1.00  0.00    -0.201 C  
ENDBRANCH  37  39
ENDBRANCH  12  37
ENDBRANCH   5   8
TORSDOF 7
ENDMDL
MODEL       90
REMARK 921   NORMALIZED FREE ENERGY PREDICTED BY IDOCK:   -5.09 KCAL/MOL
REMARK 922        TOTAL FREE ENERGY PREDICTED BY IDOCK:   -9.69 KCAL/MOL
REMARK 923 INTER-LIGAND FREE ENERGY PREDICTED BY IDOCK:   -7.85 KCAL/MOL
REMARK 924 INTRA-LIGAND FREE ENERGY PREDICTED BY IDOCK:   -1.84 KCAL/MOL
REMARK 927      BINDING AFFINITY PREDICTED BY RF-SCORE:    0.00 PKD
ROOT
HETATM    1  C   UNL     1     -13.208  15.918  72.861  1.00  0.00    -0.527 C  
HETATM    2  N   UNL     1     -13.832  15.278  71.706  1.00  0.00    -0.477 NA 
HETATM    3  C   UNL     1     -12.877  15.160  70.581  1.00  0.00    -0.388 C  
HETATM    4  C   UNL     1     -11.778  14.095  70.783  1.00  0.00    -0.163 C  
HETATM    5  N   UNL     1     -12.414  12.786  71.038  1.00  0.00    -0.347 NA 
HETATM    6  C   UNL     1     -13.294  12.806  72.214  1.00  0.00    -0.458 C  
HETATM    7  C   UNL     1     -14.353  13.929  72.045  1.00  0.00    -0.388 C  
ENDROOT
BRANCH   5   8
HETATM    8  C   UNL     1     -11.898  11.631  70.481  1.00  0.00    -0.231 A  
HETATM    9  C   UNL     1     -11.276  11.574  69.237  1.00  0.00    -0.336 A  
HETATM   10  C   UNL     1     -10.832  10.356  68.706  1.00  0.00    -0.269 A  
HETATM   11  C   UNL     1     -11.006   9.150  69.409  1.00  0.00    -0.108 A  
HETATM   12  C   UNL     1     -11.539   9.169  70.709  1.00  0.00    -0.276 A  
HETATM   13  C   UNL     1     -11.950  10.420  71.197  1.00  0.00    -0.460 A  
BRANCH  11  14
HETATM   14  C   UNL     1     -10.626   7.899  68.684  1.00  0.00    -0.111 C  
HETATM   15  H   UNL     1      -8.930   7.751  69.852  1.00  0.00     0.000 HD 
HETATM   16  O   UNL     1     -11.400   7.480  67.825  1.00  0.00     0.237 OA 
HETATM   17  N   UNL     1      -9.440   7.312  69.085  1.00  0.00    -0.149 N  
BRANCH  17  18
HETATM   18  C   UNL     1      -8.895   6.172  68.521  1.00  0.00    -0.113 A  
HETATM   19  C   UNL     1      -7.884   6.144  67.504  1.00  0.00    -0.102 A  
HETATM   20  C   UNL     1      -7.114   7.072  66.780  1.00  0.00    -0.082 A  
HETATM   21  N   UNL     1      -9.267   4.935  68.849  1.00  0.00    -0.112 NA 
HETATM   22  N   UNL     1      -8.549   4.136  68.059  1.00  0.00    -0.094 NA 
HETATM   23  H   UNL     1      -9.953   4.659  69.553  1.00  0.00     0.000 HD 
HETATM   24  C   UNL     1      -6.253   6.641  65.748  1.00  0.00    -0.038 A  
HETATM   25  C   UNL     1      -6.157   5.274  65.460  1.00  0.00    -0.033 A  
HETATM   26  C   UNL     1      -7.729   4.797  67.190  1.00  0.00    -0.091 A  
HETATM   27  C   UNL     1      -6.885   4.324  66.183  1.00  0.00    -0.057 A  
BRANCH  24  28
HETATM   28  C   UNL     1      -5.399   7.643  64.999  1.00  0.00    -0.029 C  
BRANCH  28  29
HETATM   29  C   UNL     1      -6.136   8.626  64.111  1.00  0.00    -0.071 A  
HETATM   30  C   UNL     1      -7.503   8.525  63.812  1.00  0.00    -0.118 A  
HETATM   31  C   UNL     1      -8.136   9.505  63.048  1.00  0.00    -0.146 A  
HETATM   32  F   UNL     1      -9.447   9.394  62.796  1.00  0.00    -0.239 F  
HETATM   33  C   UNL     1      -7.439  10.597  62.556  1.00  0.00    -0.123 A  
HETATM   34  C   UNL     1      -6.083  10.689  62.826  1.00  0.00    -0.097 A  
HETATM   35  C   UNL     1      -5.429   9.723  63.590  1.00  0.00    -0.084 A  
HETATM   36  F   UNL     1      -5.386  11.731  62.353  1.00  0.00    -0.127 F  
ENDBRANCH  28  29
ENDBRANCH  24  28
ENDBRANCH  17  18
ENDBRANCH  11  14
BRANCH  12  37
HETATM   37  N   UNL     1     -11.735   8.001  71.457  1.00  0.00    -0.274 NA 
HETATM   38  H   UNL     1     -12.346   7.277  71.079  1.00  0.00     0.000 HD 
BRANCH  37  39
HETATM   39  C   UNL     1     -11.097   7.773  72.765  1.00  0.00    -0.398 C  
HETATM   40  C   UNL     1      -9.670   8.311  72.895  1.00  0.00    -0.310 C  
HETATM   41  O   UNL     1      -8.763   6.081  72.536  1.00  0.00    -0.123 OA 
HETATM   42  C   UNL     1     -10.051   5.547  72.235  1.00  0.00    -0.183 C  
HETATM   43  C   UNL     1     -11.106   6.273  73.054  1.00  0.00    -0.237 C  
HETATM   44  C   UNL     1      -8.652   7.452  72.161  1.00  0.00    -0.113 C  
ENDBRANCH  37  39
ENDBRANCH  12  37
ENDBRANCH   5   8
TORSDOF 7
ENDMDL
MODEL       91
REMARK 921   NORMALIZED FREE ENERGY PREDICTED BY IDOCK:   -5.08 KCAL/MOL
REMARK 922        TOTAL FREE ENERGY PREDICTED BY IDOCK:   -9.68 KCAL/MOL
REMARK 923 INTER-LIGAND FREE ENERGY PREDICTED BY IDOCK:   -7.83 KCAL/MOL
REMARK 924 INTRA-LIGAND FREE ENERGY PREDICTED BY IDOCK:   -1.85 KCAL/MOL
REMARK 927      BINDING AFFINITY PREDICTED BY RF-SCORE:    0.00 PKD
ROOT
HETATM    1  C   UNL     1      -8.492   2.898  65.809  1.00  0.00    -0.107 C  
HETATM    2  N   UNL     1      -7.603   3.898  65.221  1.00  0.00    -0.081 NA 
HETATM    3  C   UNL     1      -8.372   5.041  64.678  1.00  0.00    -0.141 C  
HETATM    4  C   UNL     1      -8.979   5.972  65.750  1.00  0.00    -0.104 C  
HETATM    5  N   UNL     1      -7.898   6.468  66.627  1.00  0.00    -0.102 NA 
HETATM    6  C   UNL     1      -7.163   5.380  67.287  1.00  0.00    -0.075 C  
HETATM    7  C   UNL     1      -6.619   4.401  66.213  1.00  0.00    -0.045 C  
ENDROOT
BRANCH   5   8
HETATM    8  C   UNL     1      -7.891   7.779  67.065  1.00  0.00    -0.112 A  
HETATM    9  C   UNL     1      -7.004   8.749  66.607  1.00  0.00    -0.080 A  
HETATM   10  C   UNL     1      -7.012  10.044  67.141  1.00  0.00    -0.084 A  
HETATM   11  C   UNL     1      -7.911  10.405  68.161  1.00  0.00    -0.108 A  
HETATM   12  C   UNL     1      -8.889   9.489  68.587  1.00  0.00    -0.132 A  
HETATM   13  C   UNL     1      -8.845   8.213  68.005  1.00  0.00    -0.131 A  
BRANCH  11  14
HETATM   14  C   UNL     1      -7.731  11.765  68.754  1.00  0.00    -0.091 C  
HETATM   15  H   UNL     1      -5.847  11.223  69.399  1.00  0.00     0.000 HD 
HETATM   16  O   UNL     1      -8.640  12.580  68.598  1.00  0.00    -0.087 OA 
HETATM   17  N   UNL     1      -6.527  11.983  69.397  1.00  0.00    -0.112 N  
BRANCH  17  18
HETATM   18  C   UNL     1      -6.178  13.159  70.039  1.00  0.00    -0.073 A  
HETATM   19  C   UNL     1      -6.154  14.463  69.441  1.00  0.00    -0.107 A  
HETATM   20  C   UNL     1      -6.445  15.036  68.190  1.00  0.00    -0.138 A  
HETATM   21  N   UNL     1      -5.794  13.219  71.314  1.00  0.00    -0.537 NA 
HETATM   22  N   UNL     1      -5.505  14.502  71.529  1.00  0.00    -0.153 NA 
HETATM   23  H   UNL     1      -5.734  12.449  71.981  1.00  0.00     0.000 HD 
HETATM   24  C   UNL     1      -6.194  16.404  67.951  1.00  0.00    -0.143 A  
HETATM   25  C   UNL     1      -5.665  17.195  68.979  1.00  0.00    -0.156 A  
HETATM   26  C   UNL     1      -5.654  15.302  70.431  1.00  0.00    -0.138 A  
HETATM   27  C   UNL     1      -5.395  16.661  70.243  1.00  0.00    -0.204 A  
BRANCH  24  28
HETATM   28  C   UNL     1      -6.545  17.023  66.614  1.00  0.00    -0.272 C  
BRANCH  28  29
HETATM   29  C   UNL     1      -8.014  17.310  66.369  1.00  0.00    -0.338 A  
HETATM   30  C   UNL     1      -8.581  18.589  66.479  1.00  0.00    -0.289 A  
HETATM   31  C   UNL     1      -9.925  18.797  66.168  1.00  0.00    -0.345 A  
HETATM   32  F   UNL     1     -10.434  20.032  66.262  1.00  0.00    -0.514 F  
HETATM   33  C   UNL     1     -10.738  17.754  65.753  1.00  0.00    -0.098 A  
HETATM   34  C   UNL     1     -10.190  16.484  65.669  1.00  0.00    -0.292 A  
HETATM   35  C   UNL     1      -8.849  16.253  65.971  1.00  0.00    -0.308 A  
HETATM   36  F   UNL     1     -10.959  15.460  65.278  1.00  0.00    -0.314 F  
ENDBRANCH  28  29
ENDBRANCH  24  28
ENDBRANCH  17  18
ENDBRANCH  11  14
BRANCH  12  37
HETATM   37  N   UNL     1      -9.810   9.792  69.598  1.00  0.00    -0.207 NA 
HETATM   38  H   UNL     1      -9.456  10.122  70.497  1.00  0.00     0.000 HD 
BRANCH  37  39
HETATM   39  C   UNL     1     -11.266   9.654  69.422  1.00  0.00    -0.077 C  
HETATM   40  C   UNL     1     -12.035  10.973  69.314  1.00  0.00    -0.410 C  
HETATM   41  O   UNL     1     -12.725  10.796  71.642  1.00  0.00    -0.411 OA 
HETATM   42  C   UNL     1     -11.893   9.658  71.858  1.00  0.00    -0.210 C  
HETATM   43  C   UNL     1     -11.820   8.832  70.583  1.00  0.00    -0.137 C  
HETATM   44  C   UNL     1     -12.185  11.674  70.656  1.00  0.00    -0.366 C  
ENDBRANCH  37  39
ENDBRANCH  12  37
ENDBRANCH   5   8
TORSDOF 7
ENDMDL
MODEL       92
REMARK 921   NORMALIZED FREE ENERGY PREDICTED BY IDOCK:   -4.97 KCAL/MOL
REMARK 922        TOTAL FREE ENERGY PREDICTED BY IDOCK:   -9.53 KCAL/MOL
REMARK 923 INTER-LIGAND FREE ENERGY PREDICTED BY IDOCK:   -7.91 KCAL/MOL
REMARK 924 INTRA-LIGAND FREE ENERGY PREDICTED BY IDOCK:   -1.62 KCAL/MOL
REMARK 927      BINDING AFFINITY PREDICTED BY RF-SCORE:    0.00 PKD
ROOT
HETATM    1  C   UNL     1      -9.228   1.504  65.326  1.00  0.00    -0.063 C  
HETATM    2  N   UNL     1      -7.943   2.053  65.752  1.00  0.00    -0.076 NA 
HETATM    3  C   UNL     1      -7.412   3.006  64.751  1.00  0.00    -0.075 C  
HETATM    4  C   UNL     1      -8.156   4.357  64.696  1.00  0.00    -0.099 C  
HETATM    5  N   UNL     1      -8.134   4.977  66.038  1.00  0.00    -0.107 NA 
HETATM    6  C   UNL     1      -8.749   4.123  67.064  1.00  0.00    -0.110 C  
HETATM    7  C   UNL     1      -8.051   2.736  67.065  1.00  0.00    -0.076 C  
ENDROOT
BRANCH   5   8
HETATM    8  C   UNL     1      -7.938   6.337  66.183  1.00  0.00    -0.112 A  
HETATM    9  C   UNL     1      -8.580   7.304  65.416  1.00  0.00    -0.047 A  
HETATM   10  C   UNL     1      -8.286   8.665  65.575  1.00  0.00    -0.157 A  
HETATM   11  C   UNL     1      -7.329   9.097  66.510  1.00  0.00    -0.089 A  
HETATM   12  C   UNL     1      -6.726   8.168  67.374  1.00  0.00    -0.066 A  
HETATM   13  C   UNL     1      -7.072   6.821  67.182  1.00  0.00    -0.079 A  
BRANCH  11  14
HETATM   14  C   UNL     1      -6.993  10.554  66.490  1.00  0.00    -0.115 C  
HETATM   15  H   UNL     1      -8.449  10.897  67.913  1.00  0.00     0.000 HD 
HETATM   16  O   UNL     1      -6.068  10.917  65.765  1.00  0.00    -0.129 OA 
HETATM   17  N   UNL     1      -7.747  11.353  67.330  1.00  0.00    -0.137 N  
BRANCH  17  18
HETATM   18  C   UNL     1      -7.619  12.727  67.436  1.00  0.00    -0.152 A  
HETATM   19  C   UNL     1      -8.681  13.646  67.729  1.00  0.00    -0.184 A  
HETATM   20  C   UNL     1     -10.056  13.584  68.017  1.00  0.00    -0.244 A  
HETATM   21  N   UNL     1      -6.469  13.378  67.255  1.00  0.00    -0.457 NA 
HETATM   22  N   UNL     1      -6.776  14.667  67.396  1.00  0.00    -0.283 NA 
HETATM   23  H   UNL     1      -5.554  12.976  67.052  1.00  0.00     0.000 HD 
HETATM   24  C   UNL     1     -10.813  14.766  68.161  1.00  0.00    -0.256 A  
HETATM   25  C   UNL     1     -10.178  16.008  68.032  1.00  0.00    -0.245 A  
HETATM   26  C   UNL     1      -8.100  14.906  67.637  1.00  0.00    -0.166 A  
HETATM   27  C   UNL     1      -8.806  16.102  67.777  1.00  0.00    -0.184 A  
BRANCH  24  28
HETATM   28  C   UNL     1     -12.285  14.692  68.508  1.00  0.00    -0.135 C  
BRANCH  28  29
HETATM   29  C   UNL     1     -12.623  14.406  69.958  1.00  0.00    -0.283 A  
HETATM   30  C   UNL     1     -13.032  15.394  70.867  1.00  0.00    -0.539 A  
HETATM   31  C   UNL     1     -13.399  15.051  72.168  1.00  0.00    -0.387 A  
HETATM   32  F   UNL     1     -13.806  16.012  73.008  1.00  0.00    -0.636 F  
HETATM   33  C   UNL     1     -13.362  13.736  72.604  1.00  0.00    -0.618 A  
HETATM   34  C   UNL     1     -12.933  12.760  71.719  1.00  0.00    -0.314 A  
HETATM   35  C   UNL     1     -12.565  13.078  70.413  1.00  0.00    -0.165 A  
HETATM   36  F   UNL     1     -12.881  11.483  72.121  1.00  0.00    -0.481 F  
ENDBRANCH  28  29
ENDBRANCH  24  28
ENDBRANCH  17  18
ENDBRANCH  11  14
BRANCH  12  37
HETATM   37  N   UNL     1      -5.767   8.540  68.325  1.00  0.00    -0.038 NA 
HETATM   38  H   UNL     1      -5.070   9.239  68.067  1.00  0.00     0.000 HD 
BRANCH  37  39
HETATM   39  C   UNL     1      -5.719   7.965  69.681  1.00  0.00    -0.023 C  
HETATM   40  C   UNL     1      -7.056   7.439  70.210  1.00  0.00    -0.064 C  
HETATM   41  O   UNL     1      -7.363   9.460  71.533  1.00  0.00    -0.334 OA 
HETATM   42  C   UNL     1      -6.218  10.079  70.949  1.00  0.00    -0.050 C  
HETATM   43  C   UNL     1      -5.171   9.022  70.637  1.00  0.00    -0.024 C  
HETATM   44  C   UNL     1      -7.999   8.556  70.632  1.00  0.00    -0.104 C  
ENDBRANCH  37  39
ENDBRANCH  12  37
ENDBRANCH   5   8
TORSDOF 7
ENDMDL
MODEL       93
REMARK 921   NORMALIZED FREE ENERGY PREDICTED BY IDOCK:   -4.96 KCAL/MOL
REMARK 922        TOTAL FREE ENERGY PREDICTED BY IDOCK:   -9.52 KCAL/MOL
REMARK 923 INTER-LIGAND FREE ENERGY PREDICTED BY IDOCK:   -7.65 KCAL/MOL
REMARK 924 INTRA-LIGAND FREE ENERGY PREDICTED BY IDOCK:   -1.87 KCAL/MOL
REMARK 927      BINDING AFFINITY PREDICTED BY RF-SCORE:    0.00 PKD
ROOT
HETATM    1  C   UNL     1      -6.408  19.690  68.123  1.00  0.00    -0.234 C  
HETATM    2  N   UNL     1      -6.862  18.930  66.961  1.00  0.00    -0.201 NA 
HETATM    3  C   UNL     1      -6.303  17.559  66.969  1.00  0.00    -0.161 C  
HETATM    4  C   UNL     1      -6.921  16.622  68.028  1.00  0.00    -0.147 C  
HETATM    5  N   UNL     1      -8.384  16.563  67.828  1.00  0.00    -0.169 NA 
HETATM    6  C   UNL     1      -9.019  17.886  67.919  1.00  0.00    -0.264 C  
HETATM    7  C   UNL     1      -8.344  18.851  66.906  1.00  0.00    -0.280 C  
ENDROOT
BRANCH   5   8
HETATM    8  C   UNL     1      -9.068  15.370  67.964  1.00  0.00    -0.175 A  
HETATM    9  C   UNL     1     -10.444  15.276  68.147  1.00  0.00    -0.246 A  
HETATM   10  C   UNL     1     -11.064  14.035  68.340  1.00  0.00    -0.275 A  
HETATM   11  C   UNL     1     -10.315  12.844  68.363  1.00  0.00    -0.249 A  
HETATM   12  C   UNL     1      -8.938  12.879  68.087  1.00  0.00    -0.202 A  
HETATM   13  C   UNL     1      -8.374  14.148  67.882  1.00  0.00    -0.162 A  
BRANCH  11  14
HETATM   14  C   UNL     1     -11.060  11.598  68.722  1.00  0.00    -0.230 C  
HETATM   15  H   UNL     1      -9.446  10.970  69.844  1.00  0.00     0.000 HD 
HETATM   16  O   UNL     1     -12.211  11.480  68.301  1.00  0.00    -0.561 OA 
HETATM   17  N   UNL     1     -10.381  10.707  69.531  1.00  0.00    -0.212 N  
BRANCH  17  18
HETATM   18  C   UNL     1     -10.878   9.485  69.948  1.00  0.00    -0.246 A  
HETATM   19  C   UNL     1     -10.341   8.201  69.599  1.00  0.00    -0.221 A  
HETATM   20  C   UNL     1      -9.263   7.696  68.850  1.00  0.00    -0.139 A  
HETATM   21  N   UNL     1     -11.952   9.350  70.727  1.00  0.00    -0.390 NA 
HETATM   22  N   UNL     1     -12.124   8.035  70.855  1.00  0.00    -0.215 NA 
HETATM   23  H   UNL     1     -12.520  10.094  71.135  1.00  0.00     0.000 HD 
HETATM   24  C   UNL     1      -9.114   6.307  68.654  1.00  0.00    -0.126 A  
HETATM   25  C   UNL     1     -10.043   5.428  69.226  1.00  0.00    -0.301 A  
HETATM   26  C   UNL     1     -11.218   7.280  70.165  1.00  0.00    -0.239 A  
HETATM   27  C   UNL     1     -11.108   5.898  70.002  1.00  0.00    -0.411 A  
BRANCH  24  28
HETATM   28  C   UNL     1      -7.930   5.768  67.878  1.00  0.00    -0.098 C  
BRANCH  28  29
HETATM   29  C   UNL     1      -8.248   4.998  66.611  1.00  0.00    -0.108 A  
HETATM   30  C   UNL     1      -8.428   5.607  65.359  1.00  0.00    -0.147 A  
HETATM   31  C   UNL     1      -8.646   4.833  64.220  1.00  0.00    -0.141 A  
HETATM   32  F   UNL     1      -8.794   5.440  63.035  1.00  0.00    -0.117 F  
HETATM   33  C   UNL     1      -8.700   3.450  64.287  1.00  0.00    -0.093 A  
HETATM   34  C   UNL     1      -8.550   2.844  65.525  1.00  0.00    -0.115 A  
HETATM   35  C   UNL     1      -8.327   3.597  66.677  1.00  0.00    -0.104 A  
HETATM   36  F   UNL     1      -8.607   1.509  65.616  1.00  0.00    -0.084 F  
ENDBRANCH  28  29
ENDBRANCH  24  28
ENDBRANCH  17  18
ENDBRANCH  11  14
BRANCH  12  37
HETATM   37  N   UNL     1      -8.141  11.726  68.095  1.00  0.00    -0.142 NA 
HETATM   38  H   UNL     1      -8.480  10.904  68.595  1.00  0.00     0.000 HD 
BRANCH  37  39
HETATM   39  C   UNL     1      -6.838  11.650  67.414  1.00  0.00    -0.114 C  
HETATM   40  C   UNL     1      -6.806  10.759  66.169  1.00  0.00    -0.126 C  
HETATM   41  O   UNL     1      -5.771   8.962  67.445  1.00  0.00    -0.038 OA 
HETATM   42  C   UNL     1      -5.927   9.672  68.672  1.00  0.00    -0.042 C  
HETATM   43  C   UNL     1      -5.793  11.165  68.417  1.00  0.00    -0.042 C  
HETATM   44  C   UNL     1      -6.802   9.276  66.511  1.00  0.00    -0.080 C  
ENDBRANCH  37  39
ENDBRANCH  12  37
ENDBRANCH   5   8
TORSDOF 7
ENDMDL
MODEL       94
REMARK 921   NORMALIZED FREE ENERGY PREDICTED BY IDOCK:   -4.94 KCAL/MOL
REMARK 922        TOTAL FREE ENERGY PREDICTED BY IDOCK:   -9.49 KCAL/MOL
REMARK 923 INTER-LIGAND FREE ENERGY PREDICTED BY IDOCK:   -7.94 KCAL/MOL
REMARK 924 INTRA-LIGAND FREE ENERGY PREDICTED BY IDOCK:   -1.55 KCAL/MOL
REMARK 927      BINDING AFFINITY PREDICTED BY RF-SCORE:    0.00 PKD
ROOT
HETATM    1  C   UNL     1      -9.639   1.663  68.293  1.00  0.00    -0.122 C  
HETATM    2  N   UNL     1      -8.314   2.275  68.238  1.00  0.00    -0.057 NA 
HETATM    3  C   UNL     1      -8.111   2.994  66.959  1.00  0.00    -0.079 C  
HETATM    4  C   UNL     1      -8.904   4.312  66.833  1.00  0.00    -0.116 C  
HETATM    5  N   UNL     1      -8.556   5.197  67.965  1.00  0.00    -0.103 NA 
HETATM    6  C   UNL     1      -8.839   4.581  69.269  1.00  0.00    -0.090 C  
HETATM    7  C   UNL     1      -8.102   3.219  69.365  1.00  0.00    -0.048 C  
ENDROOT
BRANCH   5   8
HETATM    8  C   UNL     1      -8.392   6.556  67.773  1.00  0.00    -0.119 A  
HETATM    9  C   UNL     1      -9.152   7.317  66.890  1.00  0.00    -0.162 A  
HETATM   10  C   UNL     1      -8.889   8.679  66.699  1.00  0.00    -0.155 A  
HETATM   11  C   UNL     1      -7.844   9.321  67.387  1.00  0.00    -0.099 A  
HETATM   12  C   UNL     1      -7.112   8.619  68.360  1.00  0.00    -0.077 A  
HETATM   13  C   UNL     1      -7.431   7.261  68.522  1.00  0.00    -0.105 A  
BRANCH  11  14
HETATM   14  C   UNL     1      -7.563  10.737  66.997  1.00  0.00    -0.114 C  
HETATM   15  H   UNL     1      -8.393  11.379  68.775  1.00  0.00     0.000 HD 
HETATM   16  O   UNL     1      -6.979  10.930  65.932  1.00  0.00    -0.114 OA 
HETATM   17  N   UNL     1      -7.965  11.698  67.905  1.00  0.00    -0.125 N  
BRANCH  17  18
HETATM   18  C   UNL     1      -7.829  13.063  67.721  1.00  0.00    -0.157 A  
HETATM   19  C   UNL     1      -8.856  14.042  67.931  1.00  0.00    -0.185 A  
HETATM   20  C   UNL     1     -10.194  14.065  68.364  1.00  0.00    -0.239 A  
HETATM   21  N   UNL     1      -6.706  13.643  67.296  1.00  0.00    -0.439 NA 
HETATM   22  N   UNL     1      -6.998  14.940  67.206  1.00  0.00    -0.244 NA 
HETATM   23  H   UNL     1      -5.815  13.191  67.085  1.00  0.00     0.000 HD 
HETATM   24  C   UNL     1     -10.934  15.267  68.346  1.00  0.00    -0.271 A  
HETATM   25  C   UNL     1     -10.318  16.445  67.906  1.00  0.00    -0.286 A  
HETATM   26  C   UNL     1      -8.290  15.248  67.529  1.00  0.00    -0.175 A  
HETATM   27  C   UNL     1      -8.980  16.461  67.498  1.00  0.00    -0.197 A  
BRANCH  24  28
HETATM   28  C   UNL     1     -12.362  15.292  68.849  1.00  0.00    -0.007 C  
BRANCH  28  29
HETATM   29  C   UNL     1     -12.555  15.092  70.340  1.00  0.00    -0.399 A  
HETATM   30  C   UNL     1     -13.142  13.946  70.898  1.00  0.00    -0.261 A  
HETATM   31  C   UNL     1     -13.222  13.792  72.281  1.00  0.00    -0.467 A  
HETATM   32  F   UNL     1     -13.769  12.679  72.786  1.00  0.00    -0.521 F  
HETATM   33  C   UNL     1     -12.736  14.763  73.143  1.00  0.00    -0.580 A  
HETATM   34  C   UNL     1     -12.180  15.909  72.598  1.00  0.00    -0.502 A  
HETATM   35  C   UNL     1     -12.086  16.083  71.218  1.00  0.00    -0.440 A  
HETATM   36  F   UNL     1     -11.712  16.865  73.412  1.00  0.00    -0.515 F  
ENDBRANCH  28  29
ENDBRANCH  24  28
ENDBRANCH  17  18
ENDBRANCH  11  14
BRANCH  12  37
HETATM   37  N   UNL     1      -6.061   9.205  69.077  1.00  0.00    -0.043 NA 
HETATM   38  H   UNL     1      -5.103   9.017  68.780  1.00  0.00     0.000 HD 
BRANCH  37  39
HETATM   39  C   UNL     1      -6.278  10.081  70.241  1.00  0.00    -0.094 C  
HETATM   40  C   UNL     1      -5.154  10.069  71.282  1.00  0.00    -0.067 C  
HETATM   41  O   UNL     1      -6.442   8.568  72.701  1.00  0.00    -0.091 OA 
HETATM   42  C   UNL     1      -7.447   8.400  71.703  1.00  0.00    -0.101 C  
HETATM   43  C   UNL     1      -7.595   9.687  70.907  1.00  0.00     0.067 C  
HETATM   44  C   UNL     1      -5.157   8.807  72.132  1.00  0.00    -0.042 C  
ENDBRANCH  37  39
ENDBRANCH  12  37
ENDBRANCH   5   8
TORSDOF 7
ENDMDL
MODEL       95
REMARK 921   NORMALIZED FREE ENERGY PREDICTED BY IDOCK:   -4.94 KCAL/MOL
REMARK 922        TOTAL FREE ENERGY PREDICTED BY IDOCK:   -9.48 KCAL/MOL
REMARK 923 INTER-LIGAND FREE ENERGY PREDICTED BY IDOCK:   -9.55 KCAL/MOL
REMARK 924 INTRA-LIGAND FREE ENERGY PREDICTED BY IDOCK:    0.07 KCAL/MOL
REMARK 927      BINDING AFFINITY PREDICTED BY RF-SCORE:    0.00 PKD
ROOT
HETATM    1  C   UNL     1      -7.973   3.588  63.292  1.00  0.00    -0.076 C  
HETATM    2  N   UNL     1      -7.496   3.673  64.671  1.00  0.00    -0.071 NA 
HETATM    3  C   UNL     1      -6.950   5.017  64.964  1.00  0.00    -0.061 C  
HETATM    4  C   UNL     1      -8.015   6.127  65.091  1.00  0.00    -0.117 C  
HETATM    5  N   UNL     1      -8.990   5.746  66.134  1.00  0.00    -0.147 NA 
HETATM    6  C   UNL     1      -9.653   4.466  65.845  1.00  0.00    -0.188 C  
HETATM    7  C   UNL     1      -8.578   3.365  65.640  1.00  0.00    -0.116 C  
ENDROOT
BRANCH   5   8
HETATM    8  C   UNL     1      -9.485   6.688  67.016  1.00  0.00    -0.144 A  
HETATM    9  C   UNL     1     -10.061   7.894  66.628  1.00  0.00    -0.310 A  
HETATM   10  C   UNL     1     -10.484   8.831  67.579  1.00  0.00    -0.340 A  
HETATM   11  C   UNL     1     -10.335   8.588  68.956  1.00  0.00    -0.229 A  
HETATM   12  C   UNL     1      -9.849   7.346  69.398  1.00  0.00    -0.168 A  
HETATM   13  C   UNL     1      -9.457   6.438  68.401  1.00  0.00    -0.119 A  
BRANCH  11  14
HETATM   14  C   UNL     1     -10.688   9.716  69.871  1.00  0.00    -0.252 C  
HETATM   15  H   UNL     1     -12.089  10.372  68.504  1.00  0.00     0.000 HD 
HETATM   16  O   UNL     1     -10.113   9.771  70.957  1.00  0.00    -0.216 OA 
HETATM   17  N   UNL     1     -11.665  10.578  69.409  1.00  0.00    -0.249 N  
BRANCH  17  18
HETATM   18  C   UNL     1     -12.110  11.700  70.085  1.00  0.00    -0.333 A  
HETATM   19  C   UNL     1     -11.894  13.060  69.682  1.00  0.00    -0.385 A  
HETATM   20  C   UNL     1     -11.283  13.741  68.614  1.00  0.00    -0.308 A  
HETATM   21  N   UNL     1     -12.792  11.652  71.230  1.00  0.00    -0.376 NA 
HETATM   22  N   UNL     1     -12.987  12.925  71.572  1.00  0.00    -0.347 NA 
HETATM   23  H   UNL     1     -13.098  10.819  71.735  1.00  0.00     0.000 HD 
HETATM   24  C   UNL     1     -11.189  15.149  68.620  1.00  0.00    -0.295 A  
HETATM   25  C   UNL     1     -11.726  15.869  69.694  1.00  0.00    -0.322 A  
HETATM   26  C   UNL     1     -12.432  13.829  70.710  1.00  0.00    -0.370 A  
HETATM   27  C   UNL     1     -12.368  15.223  70.756  1.00  0.00    -0.433 A  
BRANCH  24  28
HETATM   28  C   UNL     1     -10.563  15.877  67.449  1.00  0.00    -0.315 C  
BRANCH  28  29
HETATM   29  C   UNL     1      -9.854  17.180  67.766  1.00  0.00    -0.274 A  
HETATM   30  C   UNL     1     -10.474  18.436  67.696  1.00  0.00    -0.445 A  
HETATM   31  C   UNL     1      -9.786  19.589  68.072  1.00  0.00    -0.376 A  
HETATM   32  F   UNL     1     -10.410  20.772  68.015  1.00  0.00    -0.416 F  
HETATM   33  C   UNL     1      -8.474  19.532  68.516  1.00  0.00    -0.374 A  
HETATM   34  C   UNL     1      -7.847  18.297  68.561  1.00  0.00    -0.298 A  
HETATM   35  C   UNL     1      -8.517  17.131  68.193  1.00  0.00    -0.227 A  
HETATM   36  F   UNL     1      -6.576  18.218  68.978  1.00  0.00    -0.220 F  
ENDBRANCH  28  29
ENDBRANCH  24  28
ENDBRANCH  17  18
ENDBRANCH  11  14
BRANCH  12  37
HETATM   37  N   UNL     1      -9.680   7.046  70.756  1.00  0.00    -0.169 NA 
HETATM   38  H   UNL     1     -10.371   7.393  71.421  1.00  0.00     0.000 HD 
BRANCH  37  39
HETATM   39  C   UNL     1      -8.547   6.254  71.265  1.00  0.00    -0.124 C  
HETATM   40  C   UNL     1      -7.745   6.915  72.390  1.00  0.00    -0.095 C  
HETATM   41  O   UNL     1      -6.020   7.585  70.808  1.00  0.00    -0.034 OA 
HETATM   42  C   UNL     1      -6.794   7.142  69.694  1.00  0.00    -0.050 C  
HETATM   43  C   UNL     1      -7.618   5.929  70.097  1.00  0.00    -0.090 C  
HETATM   44  C   UNL     1      -6.840   8.029  71.886  1.00  0.00    -0.070 C  
ENDBRANCH  37  39
ENDBRANCH  12  37
ENDBRANCH   5   8
TORSDOF 7
ENDMDL
MODEL       96
REMARK 921   NORMALIZED FREE ENERGY PREDICTED BY IDOCK:   -4.92 KCAL/MOL
REMARK 922        TOTAL FREE ENERGY PREDICTED BY IDOCK:   -9.46 KCAL/MOL
REMARK 923 INTER-LIGAND FREE ENERGY PREDICTED BY IDOCK:   -8.11 KCAL/MOL
REMARK 924 INTRA-LIGAND FREE ENERGY PREDICTED BY IDOCK:   -1.35 KCAL/MOL
REMARK 927      BINDING AFFINITY PREDICTED BY RF-SCORE:    0.00 PKD
ROOT
HETATM    1  C   UNL     1     -10.190   3.592  72.035  1.00  0.00    -0.059 C  
HETATM    2  N   UNL     1      -9.148   4.592  71.817  1.00  0.00    -0.132 NA 
HETATM    3  C   UNL     1      -8.738   4.635  70.395  1.00  0.00    -0.089 C  
HETATM    4  C   UNL     1      -9.777   5.274  69.449  1.00  0.00    -0.174 C  
HETATM    5  N   UNL     1     -10.088   6.639  69.921  1.00  0.00    -0.174 NA 
HETATM    6  C   UNL     1     -10.607   6.656  71.296  1.00  0.00    -0.223 C  
HETATM    7  C   UNL     1      -9.596   5.945  72.236  1.00  0.00    -0.150 C  
ENDROOT
BRANCH   5   8
HETATM    8  C   UNL     1     -10.254   7.676  69.022  1.00  0.00    -0.206 A  
HETATM    9  C   UNL     1      -9.729   7.682  67.733  1.00  0.00    -0.180 A  
HETATM   10  C   UNL     1      -9.883   8.795  66.896  1.00  0.00    -0.295 A  
HETATM   11  C   UNL     1     -10.565   9.945  67.333  1.00  0.00    -0.338 A  
HETATM   12  C   UNL     1     -11.196   9.948  68.589  1.00  0.00    -0.068 A  
HETATM   13  C   UNL     1     -11.024   8.799  69.377  1.00  0.00    -0.046 A  
BRANCH  11  14
HETATM   14  C   UNL     1     -10.542  11.121  66.411  1.00  0.00    -0.261 C  
HETATM   15  H   UNL     1     -12.562  11.400  66.733  1.00  0.00     0.000 HD 
HETATM   16  O   UNL     1      -9.458  11.446  65.928  1.00  0.00    -0.216 OA 
HETATM   17  N   UNL     1     -11.755  11.756  66.220  1.00  0.00    -0.162 N  
BRANCH  17  18
HETATM   18  C   UNL     1     -11.954  12.839  65.383  1.00  0.00    -0.436 A  
HETATM   19  C   UNL     1     -11.345  14.131  65.527  1.00  0.00    -0.319 A  
HETATM   20  C   UNL     1     -10.428  14.755  66.391  1.00  0.00    -0.294 A  
HETATM   21  N   UNL     1     -12.770  12.819  64.328  1.00  0.00    -0.702 NA 
HETATM   22  N   UNL     1     -12.717  14.052  63.825  1.00  0.00    -0.656 NA 
HETATM   23  H   UNL     1     -13.317  12.030  63.982  1.00  0.00     0.000 HD 
HETATM   24  C   UNL     1     -10.138  16.129  66.259  1.00  0.00    -0.337 A  
HETATM   25  C   UNL     1     -10.761  16.868  65.246  1.00  0.00    -0.147 A  
HETATM   26  C   UNL     1     -11.914  14.909  64.523  1.00  0.00    -0.410 A  
HETATM   27  C   UNL     1     -11.654  16.270  64.351  1.00  0.00    -0.056 A  
BRANCH  24  28
HETATM   28  C   UNL     1      -9.121  16.786  67.169  1.00  0.00    -0.224 C  
BRANCH  28  29
HETATM   29  C   UNL     1      -8.208  15.854  67.943  1.00  0.00    -0.151 A  
HETATM   30  C   UNL     1      -7.336  16.288  68.953  1.00  0.00    -0.198 A  
HETATM   31  C   UNL     1      -6.577  15.368  69.677  1.00  0.00    -0.178 A  
HETATM   32  F   UNL     1      -5.768  15.809  70.649  1.00  0.00    -0.157 F  
HETATM   33  C   UNL     1      -6.654  14.009  69.418  1.00  0.00    -0.118 A  
HETATM   34  C   UNL     1      -7.494  13.577  68.404  1.00  0.00    -0.124 A  
HETATM   35  C   UNL     1      -8.264  14.478  67.670  1.00  0.00    -0.187 A  
HETATM   36  F   UNL     1      -7.577  12.268  68.131  1.00  0.00    -0.095 F  
ENDBRANCH  28  29
ENDBRANCH  24  28
ENDBRANCH  17  18
ENDBRANCH  11  14
BRANCH  12  37
HETATM   37  N   UNL     1     -11.890  11.063  69.077  1.00  0.00    -0.360 NA 
HETATM   38  H   UNL     1     -12.750  11.346  68.606  1.00  0.00     0.000 HD 
BRANCH  37  39
HETATM   39  C   UNL     1     -11.434  11.844  70.240  1.00  0.00     0.066 C  
HETATM   40  C   UNL     1     -12.442  11.950  71.387  1.00  0.00    -0.261 C  
HETATM   41  O   UNL     1     -13.074  14.187  70.664  1.00  0.00    -0.292 OA 
HETATM   42  C   UNL     1     -12.284  14.086  69.481  1.00  0.00    -0.308 C  
HETATM   43  C   UNL     1     -11.050  13.243  69.764  1.00  0.00     0.083 C  
HETATM   44  C   UNL     1     -13.574  12.919  71.082  1.00  0.00     0.527 C  
ENDBRANCH  37  39
ENDBRANCH  12  37
ENDBRANCH   5   8
TORSDOF 7
ENDMDL
MODEL       97
REMARK 921   NORMALIZED FREE ENERGY PREDICTED BY IDOCK:   -4.92 KCAL/MOL
REMARK 922        TOTAL FREE ENERGY PREDICTED BY IDOCK:   -9.46 KCAL/MOL
REMARK 923 INTER-LIGAND FREE ENERGY PREDICTED BY IDOCK:   -7.91 KCAL/MOL
REMARK 924 INTRA-LIGAND FREE ENERGY PREDICTED BY IDOCK:   -1.56 KCAL/MOL
REMARK 927      BINDING AFFINITY PREDICTED BY RF-SCORE:    0.00 PKD
ROOT
HETATM    1  C   UNL     1     -10.121  19.954  69.244  1.00  0.00    -0.177 C  
HETATM    2  N   UNL     1      -9.386  19.722  68.003  1.00  0.00    -0.347 NA 
HETATM    3  C   UNL     1      -8.384  18.645  68.170  1.00  0.00    -0.307 C  
HETATM    4  C   UNL     1      -8.980  17.225  68.274  1.00  0.00    -0.262 C  
HETATM    5  N   UNL     1      -9.805  16.958  67.078  1.00  0.00    -0.262 NA 
HETATM    6  C   UNL     1     -10.894  17.932  66.915  1.00  0.00    -0.052 C  
HETATM    7  C   UNL     1     -10.301  19.367  66.888  1.00  0.00    -0.437 C  
ENDROOT
BRANCH   5   8
HETATM    8  C   UNL     1      -9.784  15.718  66.468  1.00  0.00    -0.265 A  
HETATM    9  C   UNL     1     -10.271  15.469  65.189  1.00  0.00    -0.334 A  
HETATM   10  C   UNL     1     -10.275  14.173  64.657  1.00  0.00    -0.195 A  
HETATM   11  C   UNL     1      -9.793  13.081  65.400  1.00  0.00    -0.127 A  
HETATM   12  C   UNL     1      -9.202  13.296  66.657  1.00  0.00    -0.215 A  
HETATM   13  C   UNL     1      -9.210  14.617  67.132  1.00  0.00    -0.231 A  
BRANCH  11  14
HETATM   14  C   UNL     1      -9.980  11.729  64.790  1.00  0.00    -0.243 C  
HETATM   15  H   UNL     1      -7.965  11.352  65.036  1.00  0.00     0.000 HD 
HETATM   16  O   UNL     1     -11.122  11.399  64.472  1.00  0.00    -0.309 OA 
HETATM   17  N   UNL     1      -8.837  10.960  64.677  1.00  0.00    -0.136 N  
BRANCH  17  18
HETATM   18  C   UNL     1      -8.788   9.698  64.112  1.00  0.00    -0.226 A  
HETATM   19  C   UNL     1      -8.350   8.502  64.773  1.00  0.00    -0.163 A  
HETATM   20  C   UNL     1      -7.892   8.131  66.050  1.00  0.00    -0.093 A  
HETATM   21  N   UNL     1      -9.132   9.439  62.850  1.00  0.00    -0.448 NA 
HETATM   22  N   UNL     1      -8.900   8.136  62.688  1.00  0.00     0.197 NA 
HETATM   23  H   UNL     1      -9.493  10.096  62.158  1.00  0.00     0.000 HD 
HETATM   24  C   UNL     1      -7.447   6.815  66.298  1.00  0.00    -0.077 A  
HETATM   25  C   UNL     1      -7.481   5.872  65.264  1.00  0.00    -0.082 A  
HETATM   26  C   UNL     1      -8.384   7.517  63.791  1.00  0.00     0.166 A  
HETATM   27  C   UNL     1      -7.960   6.202  63.992  1.00  0.00    -0.110 A  
BRANCH  24  28
HETATM   28  C   UNL     1      -6.990   6.413  67.685  1.00  0.00    -0.078 C  
BRANCH  28  29
HETATM   29  C   UNL     1      -8.069   5.936  68.638  1.00  0.00    -0.103 A  
HETATM   30  C   UNL     1      -8.961   6.800  69.293  1.00  0.00    -0.137 A  
HETATM   31  C   UNL     1      -9.977   6.290  70.100  1.00  0.00    -0.172 A  
HETATM   32  F   UNL     1     -10.826   7.136  70.696  1.00  0.00    -0.234 F  
HETATM   33  C   UNL     1     -10.133   4.925  70.286  1.00  0.00    -0.322 A  
HETATM   34  C   UNL     1      -9.239   4.069  69.664  1.00  0.00    -0.147 A  
HETATM   35  C   UNL     1      -8.217   4.555  68.850  1.00  0.00    -0.082 A  
HETATM   36  F   UNL     1      -9.365   2.746  69.837  1.00  0.00    -0.174 F  
ENDBRANCH  28  29
ENDBRANCH  24  28
ENDBRANCH  17  18
ENDBRANCH  11  14
BRANCH  12  37
HETATM   37  N   UNL     1      -8.705  12.248  67.442  1.00  0.00    -0.171 NA 
HETATM   38  H   UNL     1      -7.859  11.768  67.135  1.00  0.00     0.000 HD 
BRANCH  37  39
HETATM   39  C   UNL     1      -9.349  11.809  68.692  1.00  0.00    -0.090 C  
HETATM   40  C   UNL     1      -9.695  10.319  68.756  1.00  0.00    -0.178 C  
HETATM   41  O   UNL     1     -12.020  10.805  68.221  1.00  0.00    -0.520 OA 
HETATM   42  C   UNL     1     -11.733  12.180  67.978  1.00  0.00    -0.344 C  
HETATM   43  C   UNL     1     -10.615  12.638  68.902  1.00  0.00    -0.157 C  
HETATM   44  C   UNL     1     -10.911   9.964  67.913  1.00  0.00    -0.258 C  
ENDBRANCH  37  39
ENDBRANCH  12  37
ENDBRANCH   5   8
TORSDOF 7
ENDMDL
MODEL       98
REMARK 921   NORMALIZED FREE ENERGY PREDICTED BY IDOCK:   -4.86 KCAL/MOL
REMARK 922        TOTAL FREE ENERGY PREDICTED BY IDOCK:   -9.37 KCAL/MOL
REMARK 923 INTER-LIGAND FREE ENERGY PREDICTED BY IDOCK:   -8.39 KCAL/MOL
REMARK 924 INTRA-LIGAND FREE ENERGY PREDICTED BY IDOCK:   -0.98 KCAL/MOL
REMARK 927      BINDING AFFINITY PREDICTED BY RF-SCORE:    0.00 PKD
ROOT
HETATM    1  C   UNL     1      -9.192   2.641  67.215  1.00  0.00    -0.146 C  
HETATM    2  N   UNL     1      -8.415   3.678  67.890  1.00  0.00    -0.092 NA 
HETATM    3  C   UNL     1      -7.623   4.468  66.920  1.00  0.00    -0.086 C  
HETATM    4  C   UNL     1      -8.456   5.431  66.047  1.00  0.00    -0.123 C  
HETATM    5  N   UNL     1      -9.222   6.340  66.925  1.00  0.00    -0.127 NA 
HETATM    6  C   UNL     1     -10.115   5.618  67.843  1.00  0.00    -0.168 C  
HETATM    7  C   UNL     1      -9.288   4.594  68.666  1.00  0.00    -0.139 C  
ENDROOT
BRANCH   5   8
HETATM    8  C   UNL     1      -9.363   7.677  66.605  1.00  0.00    -0.190 A  
HETATM    9  C   UNL     1     -10.538   8.402  66.782  1.00  0.00    -0.227 A  
HETATM   10  C   UNL     1     -10.629   9.739  66.376  1.00  0.00    -0.117 A  
HETATM   11  C   UNL     1      -9.540  10.392  65.771  1.00  0.00    -0.269 A  
HETATM   12  C   UNL     1      -8.304   9.732  65.660  1.00  0.00    -0.134 A  
HETATM   13  C   UNL     1      -8.266   8.399  66.100  1.00  0.00    -0.113 A  
BRANCH  11  14
HETATM   14  C   UNL     1      -9.798  11.768  65.249  1.00  0.00    -0.239 C  
HETATM   15  H   UNL     1      -9.473  12.534  67.138  1.00  0.00     0.000 HD 
HETATM   16  O   UNL     1     -10.023  11.889  64.045  1.00  0.00    -0.295 OA 
HETATM   17  N   UNL     1      -9.722  12.786  66.181  1.00  0.00    -0.260 N  
BRANCH  17  18
HETATM   18  C   UNL     1      -9.959  14.122  65.911  1.00  0.00    -0.311 A  
HETATM   19  C   UNL     1     -10.175  15.148  66.891  1.00  0.00    -0.259 A  
HETATM   20  C   UNL     1     -10.207  15.254  68.293  1.00  0.00    -0.226 A  
HETATM   21  N   UNL     1     -10.037  14.625  64.679  1.00  0.00    -0.557 NA 
HETATM   22  N   UNL     1     -10.319  15.916  64.848  1.00  0.00    -0.499 NA 
HETATM   23  H   UNL     1      -9.908  14.128  63.797  1.00  0.00     0.000 HD 
HETATM   24  C   UNL     1     -10.561  16.470  68.913  1.00  0.00    -0.326 A  
HETATM   25  C   UNL     1     -10.867  17.583  68.119  1.00  0.00    -0.246 A  
HETATM   26  C   UNL     1     -10.463  16.293  66.154  1.00  0.00    -0.322 A  
HETATM   27  C   UNL     1     -10.813  17.518  66.723  1.00  0.00     0.009 A  
BRANCH  24  28
HETATM   28  C   UNL     1     -10.557  16.587  70.423  1.00  0.00     0.165 C  
BRANCH  28  29
HETATM   29  C   UNL     1     -11.656  15.845  71.160  1.00  0.00    -0.481 A  
HETATM   30  C   UNL     1     -12.512  16.454  72.090  1.00  0.00    -0.085 A  
HETATM   31  C   UNL     1     -13.550  15.731  72.677  1.00  0.00    -0.548 A  
HETATM   32  F   UNL     1     -14.364  16.343  73.546  1.00  0.00    -0.339 F  
HETATM   33  C   UNL     1     -13.762  14.396  72.370  1.00  0.00    -0.590 A  
HETATM   34  C   UNL     1     -12.903  13.782  71.472  1.00  0.00    -0.362 A  
HETATM   35  C   UNL     1     -11.861  14.486  70.870  1.00  0.00    -0.362 A  
HETATM   36  F   UNL     1     -13.083  12.490  71.167  1.00  0.00    -0.370 F  
ENDBRANCH  28  29
ENDBRANCH  24  28
ENDBRANCH  17  18
ENDBRANCH  11  14
BRANCH  12  37
HETATM   37  N   UNL     1      -7.185  10.331  65.068  1.00  0.00    -0.198 NA 
HETATM   38  H   UNL     1      -7.325  10.922  64.248  1.00  0.00     0.000 HD 
BRANCH  37  39
HETATM   39  C   UNL     1      -5.815  10.144  65.576  1.00  0.00    -0.094 C  
HETATM   40  C   UNL     1      -5.716   9.442  66.933  1.00  0.00    -0.051 C  
HETATM   41  O   UNL     1      -5.388  11.581  68.050  1.00  0.00    -0.043 OA 
HETATM   42  C   UNL     1      -5.641  12.307  66.848  1.00  0.00     0.077 C  
HETATM   43  C   UNL     1      -5.136  11.510  65.656  1.00  0.00     0.397 C  
HETATM   44  C   UNL     1      -6.105  10.349  68.091  1.00  0.00    -0.044 C  
ENDBRANCH  37  39
ENDBRANCH  12  37
ENDBRANCH   5   8
TORSDOF 7
ENDMDL
MODEL       99
REMARK 921   NORMALIZED FREE ENERGY PREDICTED BY IDOCK:   -4.83 KCAL/MOL
REMARK 922        TOTAL FREE ENERGY PREDICTED BY IDOCK:   -9.33 KCAL/MOL
REMARK 923 INTER-LIGAND FREE ENERGY PREDICTED BY IDOCK:   -7.56 KCAL/MOL
REMARK 924 INTRA-LIGAND FREE ENERGY PREDICTED BY IDOCK:   -1.77 KCAL/MOL
REMARK 927      BINDING AFFINITY PREDICTED BY RF-SCORE:    0.00 PKD
ROOT
HETATM    1  C   UNL     1      -7.685  20.122  65.975  1.00  0.00    -0.242 C  
HETATM    2  N   UNL     1      -7.049  19.628  67.194  1.00  0.00    -0.203 NA 
HETATM    3  C   UNL     1      -8.038  18.987  68.090  1.00  0.00    -0.312 C  
HETATM    4  C   UNL     1      -8.546  17.613  67.603  1.00  0.00    -0.224 C  
HETATM    5  N   UNL     1      -7.392  16.712  67.407  1.00  0.00    -0.150 NA 
HETATM    6  C   UNL     1      -6.421  17.242  66.439  1.00  0.00    -0.232 C  
HETATM    7  C   UNL     1      -5.967  18.657  66.888  1.00  0.00    -0.154 C  
ENDROOT
BRANCH   5   8
HETATM    8  C   UNL     1      -7.464  15.382  67.776  1.00  0.00    -0.155 A  
HETATM    9  C   UNL     1      -6.847  14.851  68.905  1.00  0.00    -0.104 A  
HETATM   10  C   UNL     1      -6.910  13.480  69.184  1.00  0.00    -0.084 A  
HETATM   11  C   UNL     1      -7.592  12.594  68.331  1.00  0.00    -0.132 A  
HETATM   12  C   UNL     1      -8.312  13.096  67.233  1.00  0.00    -0.179 A  
HETATM   13  C   UNL     1      -8.228  14.480  67.012  1.00  0.00    -0.164 A  
BRANCH  11  14
HETATM   14  C   UNL     1      -7.470  11.139  68.650  1.00  0.00    -0.119 C  
HETATM   15  H   UNL     1      -8.778  11.387  70.228  1.00  0.00     0.000 HD 
HETATM   16  O   UNL     1      -6.769  10.449  67.911  1.00  0.00    -0.065 OA 
HETATM   17  N   UNL     1      -8.198  10.703  69.741  1.00  0.00     0.056 N  
BRANCH  17  18
HETATM   18  C   UNL     1      -8.197   9.405  70.222  1.00  0.00    -0.175 A  
HETATM   19  C   UNL     1      -8.843   8.283  69.604  1.00  0.00    -0.139 A  
HETATM   20  C   UNL     1      -9.597   8.030  68.444  1.00  0.00    -0.157 A  
HETATM   21  N   UNL     1      -7.597   9.037  71.354  1.00  0.00    -0.293 NA 
HETATM   22  N   UNL     1      -7.865   7.737  71.483  1.00  0.00    -0.084 NA 
HETATM   23  H   UNL     1      -7.050   9.623  71.986  1.00  0.00     0.000 HD 
HETATM   24  C   UNL     1     -10.166   6.759  68.221  1.00  0.00    -0.194 A  
HETATM   25  C   UNL     1      -9.961   5.740  69.159  1.00  0.00    -0.232 A  
HETATM   26  C   UNL     1      -8.651   7.227  70.489  1.00  0.00    -0.143 A  
HETATM   27  C   UNL     1      -9.190   5.951  70.307  1.00  0.00    -0.170 A  
BRANCH  24  28
HETATM   28  C   UNL     1     -10.945   6.483  66.951  1.00  0.00    -0.408 C  
BRANCH  28  29
HETATM   29  C   UNL     1     -10.306   5.526  65.963  1.00  0.00    -0.058 A  
HETATM   30  C   UNL     1     -11.030   4.576  65.226  1.00  0.00    -0.014 A  
HETATM   31  C   UNL     1     -10.391   3.777  64.279  1.00  0.00    -0.245 A  
HETATM   32  F   UNL     1     -11.111   2.893  63.576  1.00  0.00    -0.246 F  
HETATM   33  C   UNL     1      -9.030   3.887  64.044  1.00  0.00    -0.125 A  
HETATM   34  C   UNL     1      -8.305   4.805  64.787  1.00  0.00    -0.132 A  
HETATM   35  C   UNL     1      -8.923   5.617  65.737  1.00  0.00    -0.153 A  
HETATM   36  F   UNL     1      -6.986   4.923  64.583  1.00  0.00    -0.046 F  
ENDBRANCH  28  29
ENDBRANCH  24  28
ENDBRANCH  17  18
ENDBRANCH  11  14
BRANCH  12  37
HETATM   37  N   UNL     1      -9.011  12.263  66.350  1.00  0.00    -0.356 NA 
HETATM   38  H   UNL     1      -8.501  11.514  65.881  1.00  0.00     0.000 HD 
BRANCH  37  39
HETATM   39  C   UNL     1     -10.448  12.422  66.068  1.00  0.00    -0.254 C  
HETATM   40  C   UNL     1     -11.171  13.451  66.941  1.00  0.00    -0.330 C  
HETATM   41  O   UNL     1     -12.072  11.675  68.341  1.00  0.00    -0.522 OA 
HETATM   42  C   UNL     1     -11.291  10.683  67.677  1.00  0.00    -0.207 C  
HETATM   43  C   UNL     1     -11.125  11.061  66.214  1.00  0.00    -0.106 C  
HETATM   44  C   UNL     1     -11.424  12.945  68.353  1.00  0.00    -0.312 C  
ENDBRANCH  37  39
ENDBRANCH  12  37
ENDBRANCH   5   8
TORSDOF 7
ENDMDL
MODEL      100
REMARK 921   NORMALIZED FREE ENERGY PREDICTED BY IDOCK:   -4.82 KCAL/MOL
REMARK 922        TOTAL FREE ENERGY PREDICTED BY IDOCK:   -9.31 KCAL/MOL
REMARK 923 INTER-LIGAND FREE ENERGY PREDICTED BY IDOCK:   -6.25 KCAL/MOL
REMARK 924 INTRA-LIGAND FREE ENERGY PREDICTED BY IDOCK:   -3.05 KCAL/MOL
REMARK 927      BINDING AFFINITY PREDICTED BY RF-SCORE:    0.00 PKD
ROOT
HETATM    1  C   UNL     1      -6.436  16.774  67.581  1.00  0.00    -0.149 C  
HETATM    2  N   UNL     1      -7.086  16.026  68.654  1.00  0.00    -0.129 NA 
HETATM    3  C   UNL     1      -8.416  15.533  68.230  1.00  0.00    -0.156 C  
HETATM    4  C   UNL     1      -8.375  14.366  67.220  1.00  0.00    -0.209 C  
HETATM    5  N   UNL     1      -7.590  13.254  67.797  1.00  0.00    -0.144 NA 
HETATM    6  C   UNL     1      -6.217  13.651  68.139  1.00  0.00    -0.117 C  
HETATM    7  C   UNL     1      -6.258  14.874  69.094  1.00  0.00    -0.105 C  
ENDROOT
BRANCH   5   8
HETATM    8  C   UNL     1      -7.993  11.943  67.627  1.00  0.00    -0.146 A  
HETATM    9  C   UNL     1      -7.510  11.101  66.630  1.00  0.00    -0.146 A  
HETATM   10  C   UNL     1      -8.010   9.802  66.476  1.00  0.00    -0.112 A  
HETATM   11  C   UNL     1      -9.022   9.308  67.319  1.00  0.00    -0.136 A  
HETATM   12  C   UNL     1      -9.472  10.085  68.400  1.00  0.00    -0.141 A  
HETATM   13  C   UNL     1      -8.923  11.372  68.516  1.00  0.00    -0.158 A  
BRANCH  11  14
HETATM   14  C   UNL     1      -9.578   7.965  66.971  1.00  0.00    -0.192 C  
HETATM   15  H   UNL     1      -7.659   7.219  66.829  1.00  0.00     0.000 HD 
HETATM   16  O   UNL     1     -10.802   7.840  66.959  1.00  0.00    -0.316 OA 
HETATM   17  N   UNL     1      -8.644   6.975  66.729  1.00  0.00    -0.117 N  
BRANCH  17  18
HETATM   18  C   UNL     1      -8.950   5.676  66.360  1.00  0.00    -0.134 A  
HETATM   19  C   UNL     1      -8.599   4.494  67.094  1.00  0.00    -0.104 A  
HETATM   20  C   UNL     1      -7.944   4.176  68.297  1.00  0.00    -0.077 A  
HETATM   21  N   UNL     1      -9.605   5.360  65.243  1.00  0.00    -0.362 NA 
HETATM   22  N   UNL     1      -9.653   4.028  65.235  1.00  0.00    -0.173 NA 
HETATM   23  H   UNL     1      -9.986   5.999  64.545  1.00  0.00     0.000 HD 
HETATM   24  C   UNL     1      -7.699   2.831  68.647  1.00  0.00    -0.054 A  
HETATM   25  C   UNL     1      -8.129   1.810  67.792  1.00  0.00    -0.064 A  
HETATM   26  C   UNL     1      -9.026   3.437  66.296  1.00  0.00    -0.147 A  
HETATM   27  C   UNL     1      -8.811   2.093  66.604  1.00  0.00    -0.132 A  
BRANCH  24  28
HETATM   28  C   UNL     1      -7.027   2.495  69.962  1.00  0.00    -0.033 C  
BRANCH  28  29
HETATM   29  C   UNL     1      -7.700   3.018  71.216  1.00  0.00    -0.047 A  
HETATM   30  C   UNL     1      -7.081   3.899  72.117  1.00  0.00    -0.050 A  
HETATM   31  C   UNL     1      -7.783   4.400  73.213  1.00  0.00    -0.086 A  
HETATM   32  F   UNL     1      -7.174   5.255  74.045  1.00  0.00    -0.078 F  
HETATM   33  C   UNL     1      -9.100   4.040  73.451  1.00  0.00    -0.108 A  
HETATM   34  C   UNL     1      -9.708   3.150  72.580  1.00  0.00    -0.141 A  
HETATM   35  C   UNL     1      -9.027   2.639  71.476  1.00  0.00    -0.145 A  
HETATM   36  F   UNL     1     -10.977   2.781  72.795  1.00  0.00    -0.220 F  
ENDBRANCH  28  29
ENDBRANCH  24  28
ENDBRANCH  17  18
ENDBRANCH  11  14
BRANCH  12  37
HETATM   37  N   UNL     1     -10.476   9.646  69.273  1.00  0.00    -0.208 NA 
HETATM   38  H   UNL     1     -11.437   9.607  68.931  1.00  0.00     0.000 HD 
BRANCH  37  39
HETATM   39  C   UNL     1     -10.206   9.238  70.662  1.00  0.00    -0.272 C  
HETATM   40  C   UNL     1      -8.904   8.458  70.869  1.00  0.00    -0.185 C  
HETATM   41  O   UNL     1     -10.135   6.359  70.936  1.00  0.00    -0.184 OA 
HETATM   42  C   UNL     1     -11.356   7.002  70.576  1.00  0.00    -0.312 C  
HETATM   43  C   UNL     1     -11.385   8.405  71.162  1.00  0.00    -0.310 C  
HETATM   44  C   UNL     1      -9.000   7.020  70.383  1.00  0.00    -0.155 C  
ENDBRANCH  37  39
ENDBRANCH  12  37
ENDBRANCH   5   8
TORSDOF 7
ENDMDL
MODEL      101
REMARK 921   NORMALIZED FREE ENERGY PREDICTED BY IDOCK:   -4.80 KCAL/MOL
REMARK 922        TOTAL FREE ENERGY PREDICTED BY IDOCK:   -9.29 KCAL/MOL
REMARK 923 INTER-LIGAND FREE ENERGY PREDICTED BY IDOCK:   -8.87 KCAL/MOL
REMARK 924 INTRA-LIGAND FREE ENERGY PREDICTED BY IDOCK:   -0.42 KCAL/MOL
REMARK 927      BINDING AFFINITY PREDICTED BY RF-SCORE:    0.00 PKD
ROOT
HETATM    1  C   UNL     1      -7.958   2.705  65.178  1.00  0.00    -0.082 C  
HETATM    2  N   UNL     1      -9.227   3.399  65.387  1.00  0.00    -0.148 NA 
HETATM    3  C   UNL     1      -9.367   3.840  66.793  1.00  0.00    -0.190 C  
HETATM    4  C   UNL     1      -8.464   5.029  67.185  1.00  0.00    -0.106 C  
HETATM    5  N   UNL     1      -8.735   6.162  66.276  1.00  0.00    -0.138 NA 
HETATM    6  C   UNL     1      -8.507   5.821  64.865  1.00  0.00    -0.103 C  
HETATM    7  C   UNL     1      -9.357   4.577  64.492  1.00  0.00    -0.112 C  
ENDROOT
BRANCH   5   8
HETATM    8  C   UNL     1      -8.783   7.457  66.757  1.00  0.00    -0.133 A  
HETATM    9  C   UNL     1      -8.145   7.881  67.919  1.00  0.00    -0.129 A  
HETATM   10  C   UNL     1      -8.289   9.195  68.383  1.00  0.00    -0.120 A  
HETATM   11  C   UNL     1      -9.087  10.126  67.695  1.00  0.00    -0.144 A  
HETATM   12  C   UNL     1      -9.671   9.773  66.466  1.00  0.00    -0.209 A  
HETATM   13  C   UNL     1      -9.479   8.449  66.041  1.00  0.00    -0.224 A  
BRANCH  11  14
HETATM   14  C   UNL     1      -9.283  11.451  68.359  1.00  0.00    -0.183 C  
HETATM   15  H   UNL     1     -11.204  11.531  67.607  1.00  0.00     0.000 HD 
HETATM   16  O   UNL     1      -8.359  11.889  69.043  1.00  0.00     0.047 OA 
HETATM   17  N   UNL     1     -10.516  12.043  68.160  1.00  0.00    -0.196 N  
BRANCH  17  18
HETATM   18  C   UNL     1     -10.886  13.280  68.658  1.00  0.00    -0.259 A  
HETATM   19  C   UNL     1     -10.096  14.476  68.599  1.00  0.00    -0.244 A  
HETATM   20  C   UNL     1      -8.848  14.870  68.085  1.00  0.00    -0.174 A  
HETATM   21  N   UNL     1     -12.041  13.510  69.284  1.00  0.00    -0.316 NA 
HETATM   22  N   UNL     1     -11.992  14.793  69.642  1.00  0.00    -0.305 NA 
HETATM   23  H   UNL     1     -12.798  12.846  69.452  1.00  0.00     0.000 HD 
HETATM   24  C   UNL     1      -8.352  16.170  68.319  1.00  0.00    -0.171 A  
HETATM   25  C   UNL     1      -9.124  17.076  69.058  1.00  0.00    -0.146 A  
HETATM   26  C   UNL     1     -10.829  15.426  69.304  1.00  0.00    -0.253 A  
HETATM   27  C   UNL     1     -10.383  16.724  69.556  1.00  0.00    -0.217 A  
BRANCH  24  28
HETATM   28  C   UNL     1      -7.025  16.600  67.731  1.00  0.00    -0.153 C  
BRANCH  28  29
HETATM   29  C   UNL     1      -7.007  17.934  67.010  1.00  0.00    -0.209 A  
HETATM   30  C   UNL     1      -6.313  18.156  65.811  1.00  0.00    -0.297 A  
HETATM   31  C   UNL     1      -6.398  19.387  65.161  1.00  0.00    -0.274 A  
HETATM   32  F   UNL     1      -5.742  19.565  64.007  1.00  0.00    -0.235 F  
HETATM   33  C   UNL     1      -7.157  20.425  65.679  1.00  0.00    -0.229 A  
HETATM   34  C   UNL     1      -7.823  20.219  66.877  1.00  0.00    -0.309 A  
HETATM   35  C   UNL     1      -7.756  18.996  67.542  1.00  0.00    -0.262 A  
HETATM   36  F   UNL     1      -8.556  21.210  67.401  1.00  0.00    -0.370 F  
ENDBRANCH  28  29
ENDBRANCH  24  28
ENDBRANCH  17  18
ENDBRANCH  11  14
BRANCH  12  37
HETATM   37  N   UNL     1     -10.475  10.658  65.736  1.00  0.00    -0.205 NA 
HETATM   38  H   UNL     1     -11.473  10.693  65.942  1.00  0.00     0.000 HD 
BRANCH  37  39
HETATM   39  C   UNL     1      -9.942  11.539  64.683  1.00  0.00    -0.261 C  
HETATM   40  C   UNL     1      -9.966  13.034  65.014  1.00  0.00    -0.158 C  
HETATM   41  O   UNL     1     -11.969  13.332  63.663  1.00  0.00    -0.487 OA 
HETATM   42  C   UNL     1     -12.103  11.928  63.456  1.00  0.00    -0.470 C  
HETATM   43  C   UNL     1     -10.725  11.288  63.396  1.00  0.00    -0.349 C  
HETATM   44  C   UNL     1     -11.361  13.633  64.917  1.00  0.00    -0.344 C  
ENDBRANCH  37  39
ENDBRANCH  12  37
ENDBRANCH   5   8
TORSDOF 7
ENDMDL
MODEL      102
REMARK 921   NORMALIZED FREE ENERGY PREDICTED BY IDOCK:   -4.80 KCAL/MOL
REMARK 922        TOTAL FREE ENERGY PREDICTED BY IDOCK:   -9.28 KCAL/MOL
REMARK 923 INTER-LIGAND FREE ENERGY PREDICTED BY IDOCK:   -7.21 KCAL/MOL
REMARK 924 INTRA-LIGAND FREE ENERGY PREDICTED BY IDOCK:   -2.07 KCAL/MOL
REMARK 927      BINDING AFFINITY PREDICTED BY RF-SCORE:    0.00 PKD
ROOT
HETATM    1  C   UNL     1     -10.010  19.862  69.277  1.00  0.00    -0.184 C  
HETATM    2  N   UNL     1      -9.442  19.621  67.953  1.00  0.00    -0.336 NA 
HETATM    3  C   UNL     1      -8.331  18.645  68.019  1.00  0.00    -0.277 C  
HETATM    4  C   UNL     1      -8.774  17.188  68.273  1.00  0.00    -0.241 C  
HETATM    5  N   UNL     1      -9.734  16.783  67.225  1.00  0.00    -0.245 NA 
HETATM    6  C   UNL     1     -10.919  17.652  67.180  1.00  0.00     0.023 C  
HETATM    7  C   UNL     1     -10.469  19.127  67.002  1.00  0.00    -0.438 C  
ENDROOT
BRANCH   5   8
HETATM    8  C   UNL     1      -9.686  15.516  66.675  1.00  0.00    -0.247 A  
HETATM    9  C   UNL     1     -10.235  15.180  65.441  1.00  0.00    -0.402 A  
HETATM   10  C   UNL     1     -10.205  13.860  64.973  1.00  0.00    -0.383 A  
HETATM   11  C   UNL     1      -9.625  12.831  65.737  1.00  0.00    -0.102 A  
HETATM   12  C   UNL     1      -8.972  13.138  66.943  1.00  0.00    -0.209 A  
HETATM   13  C   UNL     1      -9.018  14.479  67.354  1.00  0.00    -0.207 A  
BRANCH  11  14
HETATM   14  C   UNL     1      -9.780  11.442  65.205  1.00  0.00    -0.244 C  
HETATM   15  H   UNL     1      -7.732  11.194  65.292  1.00  0.00     0.000 HD 
HETATM   16  O   UNL     1     -10.922  11.033  65.000  1.00  0.00    -0.184 OA 
HETATM   17  N   UNL     1      -8.605  10.736  65.027  1.00  0.00    -0.151 N  
BRANCH  17  18
HETATM   18  C   UNL     1      -8.526   9.452  64.516  1.00  0.00    -0.177 A  
HETATM   19  C   UNL     1      -8.176   8.276  65.259  1.00  0.00    -0.149 A  
HETATM   20  C   UNL     1      -7.848   7.947  66.586  1.00  0.00    -0.102 A  
HETATM   21  N   UNL     1      -8.753   9.151  63.237  1.00  0.00    -0.365 NA 
HETATM   22  N   UNL     1      -8.532   7.840  63.145  1.00  0.00     0.099 NA 
HETATM   23  H   UNL     1      -9.035   9.787  62.490  1.00  0.00     0.000 HD 
HETATM   24  C   UNL     1      -7.454   6.635  66.924  1.00  0.00    -0.087 A  
HETATM   25  C   UNL     1      -7.407   5.653  65.926  1.00  0.00    -0.073 A  
HETATM   26  C   UNL     1      -8.135   7.255  64.314  1.00  0.00    -0.049 A  
HETATM   27  C   UNL     1      -7.757   5.942  64.603  1.00  0.00    -0.100 A  
BRANCH  24  28
HETATM   28  C   UNL     1      -7.139   6.278  68.362  1.00  0.00    -0.083 C  
BRANCH  28  29
HETATM   29  C   UNL     1      -8.206   6.609  69.387  1.00  0.00    -0.124 A  
HETATM   30  C   UNL     1      -8.037   7.566  70.400  1.00  0.00    -0.111 A  
HETATM   31  C   UNL     1      -9.086   7.874  71.265  1.00  0.00    -0.139 A  
HETATM   32  F   UNL     1      -8.903   8.806  72.209  1.00  0.00    -0.271 F  
HETATM   33  C   UNL     1     -10.316   7.243  71.161  1.00  0.00    -0.207 A  
HETATM   34  C   UNL     1     -10.480   6.278  70.180  1.00  0.00    -0.222 A  
HETATM   35  C   UNL     1      -9.447   5.956  69.301  1.00  0.00    -0.154 A  
HETATM   36  F   UNL     1     -11.657   5.649  70.065  1.00  0.00    -0.290 F  
ENDBRANCH  28  29
ENDBRANCH  24  28
ENDBRANCH  17  18
ENDBRANCH  11  14
BRANCH  12  37
HETATM   37  N   UNL     1      -8.377  12.156  67.745  1.00  0.00    -0.149 NA 
HETATM   38  H   UNL     1      -8.958  11.660  68.421  1.00  0.00     0.000 HD 
BRANCH  37  39
HETATM   39  C   UNL     1      -6.948  11.807  67.655  1.00  0.00    -0.103 C  
HETATM   40  C   UNL     1      -6.461  10.792  68.693  1.00  0.00    -0.055 C  
HETATM   41  O   UNL     1      -5.507  12.582  70.040  1.00  0.00    -0.092 OA 
HETATM   42  C   UNL     1      -6.079  13.587  69.205  1.00  0.00    -0.097 C  
HETATM   43  C   UNL     1      -6.128  13.090  67.769  1.00  0.00    -0.151 C  
HETATM   44  C   UNL     1      -6.305  11.401  70.078  1.00  0.00    -0.132 C  
ENDBRANCH  37  39
ENDBRANCH  12  37
ENDBRANCH   5   8
TORSDOF 7
ENDMDL
MODEL      103
REMARK 921   NORMALIZED FREE ENERGY PREDICTED BY IDOCK:   -4.78 KCAL/MOL
REMARK 922        TOTAL FREE ENERGY PREDICTED BY IDOCK:   -9.26 KCAL/MOL
REMARK 923 INTER-LIGAND FREE ENERGY PREDICTED BY IDOCK:   -7.65 KCAL/MOL
REMARK 924 INTRA-LIGAND FREE ENERGY PREDICTED BY IDOCK:   -1.61 KCAL/MOL
REMARK 927      BINDING AFFINITY PREDICTED BY RF-SCORE:    0.00 PKD
ROOT
HETATM    1  C   UNL     1     -12.691  16.146  71.697  1.00  0.00    -0.029 C  
HETATM    2  N   UNL     1     -13.597  15.255  70.976  1.00  0.00    -0.451 NA 
HETATM    3  C   UNL     1     -12.866  14.456  69.966  1.00  0.00    -0.009 C  
HETATM    4  C   UNL     1     -11.973  13.342  70.553  1.00  0.00    -0.255 C  
HETATM    5  N   UNL     1     -12.801  12.450  71.392  1.00  0.00    -0.330 NA 
HETATM    6  C   UNL     1     -13.470  13.167  72.487  1.00  0.00    -0.475 C  
HETATM    7  C   UNL     1     -14.307  14.336  71.902  1.00  0.00    -0.513 C  
ENDROOT
BRANCH   5   8
HETATM    8  C   UNL     1     -12.607  11.082  71.371  1.00  0.00    -0.393 A  
HETATM    9  C   UNL     1     -13.381  10.174  72.087  1.00  0.00    -0.431 A  
HETATM   10  C   UNL     1     -13.089   8.804  72.069  1.00  0.00    -0.436 A  
HETATM   11  C   UNL     1     -12.000   8.302  71.333  1.00  0.00    -0.333 A  
HETATM   12  C   UNL     1     -11.249   9.167  70.518  1.00  0.00    -0.264 A  
HETATM   13  C   UNL     1     -11.598  10.526  70.562  1.00  0.00    -0.441 A  
BRANCH  11  14
HETATM   14  C   UNL     1     -11.696   6.849  71.504  1.00  0.00    -0.311 C  
HETATM   15  H   UNL     1      -9.925   7.109  70.476  1.00  0.00     0.000 HD 
HETATM   16  O   UNL     1     -12.495   6.171  72.150  1.00  0.00    -0.262 OA 
HETATM   17  N   UNL     1     -10.512   6.414  70.939  1.00  0.00    -0.221 N  
BRANCH  17  18
HETATM   18  C   UNL     1     -10.064   5.105  70.955  1.00  0.00    -0.227 A  
HETATM   19  C   UNL     1      -9.023   4.567  70.128  1.00  0.00    -0.141 A  
HETATM   20  C   UNL     1      -8.135   5.034  69.142  1.00  0.00    -0.083 A  
HETATM   21  N   UNL     1     -10.573   4.160  71.746  1.00  0.00     0.092 NA 
HETATM   22  N   UNL     1      -9.910   3.048  71.427  1.00  0.00    -0.150 NA 
HETATM   23  H   UNL     1     -11.310   4.265  72.444  1.00  0.00     0.000 HD 
HETATM   24  C   UNL     1      -7.283   4.139  68.461  1.00  0.00    -0.055 A  
HETATM   25  C   UNL     1      -7.316   2.778  68.787  1.00  0.00    -0.048 A  
HETATM   26  C   UNL     1      -8.994   3.208  70.427  1.00  0.00    -0.102 A  
HETATM   27  C   UNL     1      -8.165   2.287  69.784  1.00  0.00    -0.066 A  
BRANCH  24  28
HETATM   28  C   UNL     1      -6.303   4.655  67.428  1.00  0.00    -0.041 C  
BRANCH  28  29
HETATM   29  C   UNL     1      -6.892   5.102  66.104  1.00  0.00    -0.062 A  
HETATM   30  C   UNL     1      -7.979   4.464  65.486  1.00  0.00    -0.094 A  
HETATM   31  C   UNL     1      -8.520   4.971  64.305  1.00  0.00    -0.138 A  
HETATM   32  F   UNL     1      -9.570   4.355  63.748  1.00  0.00    -0.157 F  
HETATM   33  C   UNL     1      -7.999   6.107  63.703  1.00  0.00    -0.096 A  
HETATM   34  C   UNL     1      -6.909   6.725  64.295  1.00  0.00    -0.050 A  
HETATM   35  C   UNL     1      -6.355   6.238  65.478  1.00  0.00    -0.038 A  
HETATM   36  F   UNL     1      -6.384   7.818  63.727  1.00  0.00    -0.054 F  
ENDBRANCH  28  29
ENDBRANCH  24  28
ENDBRANCH  17  18
ENDBRANCH  11  14
BRANCH  12  37
HETATM   37  N   UNL     1     -10.154   8.725  69.764  1.00  0.00    -0.190 NA 
HETATM   38  H   UNL     1      -9.441   8.159  70.224  1.00  0.00     0.000 HD 
BRANCH  37  39
HETATM   39  C   UNL     1      -9.988   9.043  68.335  1.00  0.00    -0.180 C  
HETATM   40  C   UNL     1      -8.998   8.149  67.582  1.00  0.00    -0.135 C  
HETATM   41  O   UNL     1      -7.283   9.871  67.732  1.00  0.00    -0.086 OA 
HETATM   42  C   UNL     1      -8.094  10.680  68.582  1.00  0.00    -0.132 C  
HETATM   43  C   UNL     1      -9.558  10.502  68.208  1.00  0.00    -0.164 C  
HETATM   44  C   UNL     1      -7.549   8.481  67.905  1.00  0.00    -0.098 C  
ENDBRANCH  37  39
ENDBRANCH  12  37
ENDBRANCH   5   8
TORSDOF 7
ENDMDL
MODEL      104
REMARK 921   NORMALIZED FREE ENERGY PREDICTED BY IDOCK:   -4.73 KCAL/MOL
REMARK 922        TOTAL FREE ENERGY PREDICTED BY IDOCK:   -9.19 KCAL/MOL
REMARK 923 INTER-LIGAND FREE ENERGY PREDICTED BY IDOCK:   -6.75 KCAL/MOL
REMARK 924 INTRA-LIGAND FREE ENERGY PREDICTED BY IDOCK:   -2.44 KCAL/MOL
REMARK 927      BINDING AFFINITY PREDICTED BY RF-SCORE:    0.00 PKD
ROOT
HETATM    1  C   UNL     1     -10.064  20.402  66.710  1.00  0.00    -0.339 C  
HETATM    2  N   UNL     1      -9.468  19.936  67.960  1.00  0.00    -0.356 NA 
HETATM    3  C   UNL     1     -10.097  18.674  68.412  1.00  0.00    -0.383 C  
HETATM    4  C   UNL     1      -9.716  17.433  67.577  1.00  0.00    -0.266 C  
HETATM    5  N   UNL     1      -8.246  17.285  67.573  1.00  0.00    -0.193 NA 
HETATM    6  C   UNL     1      -7.562  18.467  67.028  1.00  0.00    -0.220 C  
HETATM    7  C   UNL     1      -8.004  19.727  67.820  1.00  0.00    -0.299 C  
ENDROOT
BRANCH   5   8
HETATM    8  C   UNL     1      -7.662  16.037  67.677  1.00  0.00    -0.145 A  
HETATM    9  C   UNL     1      -6.345  15.759  67.321  1.00  0.00    -0.105 A  
HETATM   10  C   UNL     1      -5.837  14.456  67.393  1.00  0.00     0.297 A  
HETATM   11  C   UNL     1      -6.642  13.384  67.820  1.00  0.00    -0.168 A  
HETATM   12  C   UNL     1      -7.947  13.630  68.281  1.00  0.00    -0.150 A  
HETATM   13  C   UNL     1      -8.397  14.957  68.203  1.00  0.00    -0.144 A  
BRANCH  11  14
HETATM   14  C   UNL     1      -6.040  12.020  67.718  1.00  0.00    -0.081 C  
HETATM   15  H   UNL     1      -7.158  11.665  66.019  1.00  0.00     0.000 HD 
HETATM   16  O   UNL     1      -5.189  11.708  68.550  1.00  0.00    -0.043 OA 
HETATM   17  N   UNL     1      -6.483  11.248  66.660  1.00  0.00    -0.130 N  
BRANCH  17  18
HETATM   18  C   UNL     1      -6.077   9.949  66.408  1.00  0.00    -0.065 A  
HETATM   19  C   UNL     1      -6.291   8.823  67.271  1.00  0.00    -0.057 A  
HETATM   20  C   UNL     1      -6.914   8.566  68.506  1.00  0.00    -0.065 A  
HETATM   21  N   UNL     1      -5.405   9.584  65.316  1.00  0.00    -0.043 NA 
HETATM   22  N   UNL     1      -5.167   8.281  65.475  1.00  0.00    -0.031 NA 
HETATM   23  H   UNL     1      -5.131  10.173  64.529  1.00  0.00     0.000 HD 
HETATM   24  C   UNL     1      -6.827   7.290  69.101  1.00  0.00    -0.061 A  
HETATM   25  C   UNL     1      -6.128   6.271  68.443  1.00  0.00    -0.027 A  
HETATM   26  C   UNL     1      -5.631   7.766  66.652  1.00  0.00    -0.028 A  
HETATM   27  C   UNL     1      -5.524   6.486  67.200  1.00  0.00    -0.012 A  
BRANCH  24  28
HETATM   28  C   UNL     1      -7.532   7.010  70.413  1.00  0.00    -0.085 C  
BRANCH  28  29
HETATM   29  C   UNL     1      -9.036   6.832  70.345  1.00  0.00    -0.153 A  
HETATM   30  C   UNL     1      -9.763   6.838  69.145  1.00  0.00    -0.147 A  
HETATM   31  C   UNL     1     -11.136   6.595  69.147  1.00  0.00    -0.275 A  
HETATM   32  F   UNL     1     -11.801   6.586  67.984  1.00  0.00    -0.066 F  
HETATM   33  C   UNL     1     -11.823   6.350  70.325  1.00  0.00    -0.283 A  
HETATM   34  C   UNL     1     -11.115   6.369  71.517  1.00  0.00    -0.273 A  
HETATM   35  C   UNL     1      -9.741   6.607  71.539  1.00  0.00    -0.172 A  
HETATM   36  F   UNL     1     -11.759   6.144  72.669  1.00  0.00    -0.308 F  
ENDBRANCH  28  29
ENDBRANCH  24  28
ENDBRANCH  17  18
ENDBRANCH  11  14
BRANCH  12  37
HETATM   37  N   UNL     1      -8.794  12.603  68.718  1.00  0.00    -0.383 NA 
HETATM   38  H   UNL     1      -8.674  12.242  69.664  1.00  0.00     0.000 HD 
BRANCH  37  39
HETATM   39  C   UNL     1      -9.851  12.024  67.871  1.00  0.00    -0.196 C  
HETATM   40  C   UNL     1     -11.238  12.649  68.045  1.00  0.00    -0.308 C  
HETATM   41  O   UNL     1     -11.933  10.790  69.455  1.00  0.00    -0.300 OA 
HETATM   42  C   UNL     1     -10.616  10.243  69.475  1.00  0.00    -0.245 C  
HETATM   43  C   UNL     1      -9.928  10.524  68.148  1.00  0.00    -0.172 C  
HETATM   44  C   UNL     1     -11.920  12.210  69.332  1.00  0.00    -0.270 C  
ENDBRANCH  37  39
ENDBRANCH  12  37
ENDBRANCH   5   8
TORSDOF 7
ENDMDL
MODEL      105
REMARK 921   NORMALIZED FREE ENERGY PREDICTED BY IDOCK:   -4.73 KCAL/MOL
REMARK 922        TOTAL FREE ENERGY PREDICTED BY IDOCK:   -9.19 KCAL/MOL
REMARK 923 INTER-LIGAND FREE ENERGY PREDICTED BY IDOCK:   -7.58 KCAL/MOL
REMARK 924 INTRA-LIGAND FREE ENERGY PREDICTED BY IDOCK:   -1.61 KCAL/MOL
REMARK 927      BINDING AFFINITY PREDICTED BY RF-SCORE:    0.00 PKD
ROOT
HETATM    1  C   UNL     1      -7.509   2.600  65.027  1.00  0.00    -0.071 C  
HETATM    2  N   UNL     1      -8.889   2.691  65.497  1.00  0.00    -0.129 NA 
HETATM    3  C   UNL     1      -8.958   2.576  66.972  1.00  0.00    -0.146 C  
HETATM    4  C   UNL     1      -8.443   3.815  67.735  1.00  0.00    -0.095 C  
HETATM    5  N   UNL     1      -9.197   5.006  67.291  1.00  0.00    -0.118 NA 
HETATM    6  C   UNL     1      -9.078   5.241  65.845  1.00  0.00    -0.155 C  
HETATM    7  C   UNL     1      -9.524   3.967  65.078  1.00  0.00    -0.172 C  
ENDROOT
BRANCH   5   8
HETATM    8  C   UNL     1      -9.592   5.970  68.199  1.00  0.00    -0.118 A  
HETATM    9  C   UNL     1     -10.567   5.773  69.172  1.00  0.00    -0.365 A  
HETATM   10  C   UNL     1     -10.963   6.816  70.019  1.00  0.00    -0.344 A  
HETATM   11  C   UNL     1     -10.393   8.097  69.911  1.00  0.00    -0.214 A  
HETATM   12  C   UNL     1      -9.337   8.319  69.011  1.00  0.00    -0.147 A  
HETATM   13  C   UNL     1      -8.970   7.233  68.200  1.00  0.00    -0.132 A  
BRANCH  11  14
HETATM   14  C   UNL     1     -10.994   9.165  70.767  1.00  0.00    -0.270 C  
HETATM   15  H   UNL     1     -11.747  10.080  69.076  1.00  0.00     0.000 HD 
HETATM   16  O   UNL     1     -10.862   9.062  71.985  1.00  0.00    -0.352 OA 
HETATM   17  N   UNL     1     -11.678  10.158  70.091  1.00  0.00    -0.265 N  
BRANCH  17  18
HETATM   18  C   UNL     1     -12.277  11.252  70.692  1.00  0.00    -0.393 A  
HETATM   19  C   UNL     1     -11.925  12.625  70.471  1.00  0.00    -0.279 A  
HETATM   20  C   UNL     1     -11.014  13.348  69.679  1.00  0.00     0.075 A  
HETATM   21  N   UNL     1     -13.264  11.157  71.584  1.00  0.00    -0.400 NA 
HETATM   22  N   UNL     1     -13.522  12.413  71.949  1.00  0.00    -0.368 NA 
HETATM   23  H   UNL     1     -13.721  10.307  71.915  1.00  0.00     0.000 HD 
HETATM   24  C   UNL     1     -10.896  14.747  69.817  1.00  0.00    -0.222 A  
HETATM   25  C   UNL     1     -11.708  15.417  70.741  1.00  0.00    -0.385 A  
HETATM   26  C   UNL     1     -12.722  13.346  71.354  1.00  0.00    -0.322 A  
HETATM   27  C   UNL     1     -12.644  14.730  71.521  1.00  0.00    -0.400 A  
BRANCH  24  28
HETATM   28  C   UNL     1      -9.941  15.523  68.935  1.00  0.00    -0.218 C  
BRANCH  28  29
HETATM   29  C   UNL     1     -10.280  15.577  67.457  1.00  0.00    -0.254 A  
HETATM   30  C   UNL     1     -10.220  14.461  66.609  1.00  0.00    -0.277 A  
HETATM   31  C   UNL     1     -10.617  14.563  65.276  1.00  0.00    -0.383 A  
HETATM   32  F   UNL     1     -10.569  13.477  64.494  1.00  0.00    -0.356 F  
HETATM   33  C   UNL     1     -11.070  15.762  64.748  1.00  0.00    -0.413 A  
HETATM   34  C   UNL     1     -11.105  16.874  65.575  1.00  0.00     0.134 A  
HETATM   35  C   UNL     1     -10.717  16.795  66.912  1.00  0.00    -0.139 A  
HETATM   36  F   UNL     1     -11.531  18.046  65.085  1.00  0.00     0.228 F  
ENDBRANCH  28  29
ENDBRANCH  24  28
ENDBRANCH  17  18
ENDBRANCH  11  14
BRANCH  12  37
HETATM   37  N   UNL     1      -8.730   9.572  68.859  1.00  0.00    -0.129 NA 
HETATM   38  H   UNL     1      -8.660   9.969  67.922  1.00  0.00     0.000 HD 
BRANCH  37  39
HETATM   39  C   UNL     1      -8.190  10.341  69.993  1.00  0.00     0.072 C  
HETATM   40  C   UNL     1      -7.266  11.500  69.610  1.00  0.00     0.153 C  
HETATM   41  O   UNL     1      -5.307  10.153  70.135  1.00  0.00    -0.036 OA 
HETATM   42  C   UNL     1      -6.100   8.985  70.342  1.00  0.00    -0.037 C  
HETATM   43  C   UNL     1      -7.448   9.382  70.922  1.00  0.00    -0.097 C  
HETATM   44  C   UNL     1      -5.887  11.030  69.172  1.00  0.00    -0.041 C  
ENDBRANCH  37  39
ENDBRANCH  12  37
ENDBRANCH   5   8
TORSDOF 7
ENDMDL
MODEL      106
REMARK 921   NORMALIZED FREE ENERGY PREDICTED BY IDOCK:   -4.54 KCAL/MOL
REMARK 922        TOTAL FREE ENERGY PREDICTED BY IDOCK:   -8.92 KCAL/MOL
REMARK 923 INTER-LIGAND FREE ENERGY PREDICTED BY IDOCK:   -6.97 KCAL/MOL
REMARK 924 INTRA-LIGAND FREE ENERGY PREDICTED BY IDOCK:   -1.95 KCAL/MOL
REMARK 927      BINDING AFFINITY PREDICTED BY RF-SCORE:    0.00 PKD
ROOT
HETATM    1  C   UNL     1     -10.219  15.629  65.044  1.00  0.00    -0.167 C  
HETATM    2  N   UNL     1     -11.096  14.514  64.695  1.00  0.00    -0.372 NA 
HETATM    3  C   UNL     1     -10.318  13.273  64.474  1.00  0.00    -0.374 C  
HETATM    4  C   UNL     1      -9.750  12.636  65.760  1.00  0.00    -0.175 C  
HETATM    5  N   UNL     1     -10.858  12.371  66.700  1.00  0.00    -0.239 NA 
HETATM    6  C   UNL     1     -11.606  13.588  67.049  1.00  0.00    -0.359 C  
HETATM    7  C   UNL     1     -12.112  14.270  65.749  1.00  0.00    -0.405 C  
ENDROOT
BRANCH   5   8
HETATM    8  C   UNL     1     -10.887  11.208  67.447  1.00  0.00    -0.266 A  
HETATM    9  C   UNL     1     -11.353  11.134  68.756  1.00  0.00    -0.342 A  
HETATM   10  C   UNL     1     -11.294   9.934  69.477  1.00  0.00    -0.172 A  
HETATM   11  C   UNL     1     -10.756   8.768  68.904  1.00  0.00    -0.114 A  
HETATM   12  C   UNL     1     -10.362   8.769  67.555  1.00  0.00    -0.268 A  
HETATM   13  C   UNL     1     -10.461   9.994  66.877  1.00  0.00    -0.284 A  
BRANCH  11  14
HETATM   14  C   UNL     1     -10.611   7.588  69.811  1.00  0.00    -0.241 C  
HETATM   15  H   UNL     1     -12.050   8.386  71.058  1.00  0.00     0.000 HD 
HETATM   16  O   UNL     1      -9.829   6.701  69.473  1.00  0.00    -0.152 OA 
HETATM   17  N   UNL     1     -11.409   7.600  70.940  1.00  0.00    -0.273 N  
BRANCH  17  18
HETATM   18  C   UNL     1     -11.403   6.624  71.920  1.00  0.00    -0.279 A  
HETATM   19  C   UNL     1     -10.269   6.239  72.710  1.00  0.00    -0.202 A  
HETATM   20  C   UNL     1      -8.922   6.620  72.846  1.00  0.00    -0.138 A  
HETATM   21  N   UNL     1     -12.471   5.893  72.243  1.00  0.00    -0.297 NA 
HETATM   22  N   UNL     1     -12.042   5.049  73.181  1.00  0.00     0.022 NA 
HETATM   23  H   UNL     1     -13.412   5.964  71.854  1.00  0.00     0.000 HD 
HETATM   24  C   UNL     1      -8.057   5.908  73.703  1.00  0.00    -0.110 A  
HETATM   25  C   UNL     1      -8.556   4.822  74.435  1.00  0.00    -0.109 A  
HETATM   26  C   UNL     1     -10.714   5.169  73.480  1.00  0.00    -0.286 A  
HETATM   27  C   UNL     1      -9.898   4.438  74.345  1.00  0.00    -0.184 A  
BRANCH  24  28
HETATM   28  C   UNL     1      -6.617   6.347  73.873  1.00  0.00    -0.070 C  
BRANCH  28  29
HETATM   29  C   UNL     1      -6.106   7.378  72.886  1.00  0.00    -0.055 A  
HETATM   30  C   UNL     1      -5.957   7.128  71.513  1.00  0.00    -0.037 A  
HETATM   31  C   UNL     1      -5.552   8.144  70.648  1.00  0.00    -0.029 A  
HETATM   32  F   UNL     1      -5.438   7.882  69.339  1.00  0.00    -0.024 F  
HETATM   33  C   UNL     1      -5.277   9.420  71.113  1.00  0.00    -0.043 A  
HETATM   34  C   UNL     1      -5.396   9.666  72.472  1.00  0.00     0.004 A  
HETATM   35  C   UNL     1      -5.804   8.667  73.355  1.00  0.00    -0.110 A  
HETATM   36  F   UNL     1      -5.127  10.890  72.946  1.00  0.00    -0.019 F  
ENDBRANCH  28  29
ENDBRANCH  24  28
ENDBRANCH  17  18
ENDBRANCH  11  14
BRANCH  12  37
HETATM   37  N   UNL     1      -9.820   7.638  66.930  1.00  0.00    -0.214 NA 
HETATM   38  H   UNL     1     -10.423   6.828  66.780  1.00  0.00     0.000 HD 
BRANCH  37  39
HETATM   39  C   UNL     1      -8.419   7.567  66.481  1.00  0.00    -0.131 C  
HETATM   40  C   UNL     1      -8.228   7.227  65.000  1.00  0.00    -0.100 C  
HETATM   41  O   UNL     1      -7.723   4.913  65.566  1.00  0.00    -0.084 OA 
HETATM   42  C   UNL     1      -8.053   5.121  66.938  1.00  0.00    -0.108 C  
HETATM   43  C   UNL     1      -7.685   6.540  67.340  1.00  0.00    -0.101 C  
HETATM   44  C   UNL     1      -8.480   5.757  64.701  1.00  0.00    -0.061 C  
ENDBRANCH  37  39
ENDBRANCH  12  37
ENDBRANCH   5   8
TORSDOF 7
ENDMDL
MODEL      107
REMARK 921   NORMALIZED FREE ENERGY PREDICTED BY IDOCK:   -4.43 KCAL/MOL
REMARK 922        TOTAL FREE ENERGY PREDICTED BY IDOCK:   -8.77 KCAL/MOL
REMARK 923 INTER-LIGAND FREE ENERGY PREDICTED BY IDOCK:   -6.38 KCAL/MOL
REMARK 924 INTRA-LIGAND FREE ENERGY PREDICTED BY IDOCK:   -2.39 KCAL/MOL
REMARK 927      BINDING AFFINITY PREDICTED BY RF-SCORE:    0.00 PKD
ROOT
HETATM    1  C   UNL     1      -8.033  20.117  66.283  1.00  0.00    -0.242 C  
HETATM    2  N   UNL     1      -7.091  19.773  67.345  1.00  0.00    -0.214 NA 
HETATM    3  C   UNL     1      -7.769  19.048  68.444  1.00  0.00    -0.319 C  
HETATM    4  C   UNL     1      -8.166  17.596  68.103  1.00  0.00    -0.257 C  
HETATM    5  N   UNL     1      -6.962  16.851  67.679  1.00  0.00    -0.132 NA 
HETATM    6  C   UNL     1      -6.302  17.461  66.517  1.00  0.00    -0.225 C  
HETATM    7  C   UNL     1      -5.971  18.944  66.833  1.00  0.00    -0.162 C  
ENDROOT
BRANCH   5   8
HETATM    8  C   UNL     1      -6.765  15.543  68.079  1.00  0.00    -0.140 A  
HETATM    9  C   UNL     1      -5.522  15.001  68.392  1.00  0.00    -0.109 A  
HETATM   10  C   UNL     1      -5.388  13.649  68.730  1.00  0.00    -0.073 A  
HETATM   11  C   UNL     1      -6.502  12.792  68.757  1.00  0.00    -0.085 A  
HETATM   12  C   UNL     1      -7.790  13.313  68.543  1.00  0.00    -0.110 A  
HETATM   13  C   UNL     1      -7.866  14.678  68.227  1.00  0.00    -0.128 A  
BRANCH  11  14
HETATM   14  C   UNL     1      -6.220  11.342  68.987  1.00  0.00    -0.056 C  
HETATM   15  H   UNL     1      -7.063  11.488  70.865  1.00  0.00     0.000 HD 
HETATM   16  O   UNL     1      -5.708  10.707  68.066  1.00  0.00    -0.043 OA 
HETATM   17  N   UNL     1      -6.600  10.847  70.220  1.00  0.00    -0.130 N  
BRANCH  17  18
HETATM   18  C   UNL     1      -6.398   9.545  70.643  1.00  0.00    -0.086 A  
HETATM   19  C   UNL     1      -7.026   8.379  70.091  1.00  0.00    -0.042 A  
HETATM   20  C   UNL     1      -7.928   8.079  69.055  1.00  0.00    -0.114 A  
HETATM   21  N   UNL     1      -5.592   9.212  71.652  1.00  0.00    -0.060 NA 
HETATM   22  N   UNL     1      -5.712   7.890  71.770  1.00  0.00    -0.035 NA 
HETATM   23  H   UNL     1      -5.010   9.835  72.213  1.00  0.00     0.000 HD 
HETATM   24  C   UNL     1      -8.402   6.762  68.874  1.00  0.00    -0.121 A  
HETATM   25  C   UNL     1      -7.953   5.747  69.728  1.00  0.00    -0.100 A  
HETATM   26  C   UNL     1      -6.595   7.326  70.892  1.00  0.00    -0.044 A  
HETATM   27  C   UNL     1      -7.031   6.008  70.748  1.00  0.00    -0.067 A  
BRANCH  24  28
HETATM   28  C   UNL     1      -9.344   6.440  67.733  1.00  0.00    -0.117 C  
BRANCH  28  29
HETATM   29  C   UNL     1      -8.840   6.745  66.336  1.00  0.00    -0.153 A  
HETATM   30  C   UNL     1      -8.831   8.033  65.780  1.00  0.00    -0.170 A  
HETATM   31  C   UNL     1      -8.285   8.256  64.517  1.00  0.00    -0.135 A  
HETATM   32  F   UNL     1      -8.271   9.500  64.020  1.00  0.00    -0.127 F  
HETATM   33  C   UNL     1      -7.746   7.220  63.771  1.00  0.00    -0.120 A  
HETATM   34  C   UNL     1      -7.777   5.940  64.303  1.00  0.00    -0.106 A  
HETATM   35  C   UNL     1      -8.314   5.694  65.566  1.00  0.00    -0.139 A  
HETATM   36  F   UNL     1      -7.270   4.921  63.597  1.00  0.00    -0.045 F  
ENDBRANCH  28  29
ENDBRANCH  24  28
ENDBRANCH  17  18
ENDBRANCH  11  14
BRANCH  12  37
HETATM   37  N   UNL     1      -8.937  12.508  68.558  1.00  0.00    -0.363 NA 
HETATM   38  H   UNL     1      -9.535  12.527  69.385  1.00  0.00     0.000 HD 
BRANCH  37  39
HETATM   39  C   UNL     1      -9.318  11.638  67.433  1.00  0.00    -0.168 C  
HETATM   40  C   UNL     1      -9.803  12.371  66.179  1.00  0.00    -0.263 C  
HETATM   41  O   UNL     1     -12.120  11.912  66.770  1.00  0.00    -0.593 OA 
HETATM   42  C   UNL     1     -11.746  11.369  68.035  1.00  0.00    -0.254 C  
HETATM   43  C   UNL     1     -10.400  10.672  67.911  1.00  0.00    -0.231 C  
HETATM   44  C   UNL     1     -11.213  12.922  66.333  1.00  0.00    -0.300 C  
ENDBRANCH  37  39
ENDBRANCH  12  37
ENDBRANCH   5   8
TORSDOF 7
ENDMDL
MODEL      108
REMARK 921   NORMALIZED FREE ENERGY PREDICTED BY IDOCK:   -4.41 KCAL/MOL
REMARK 922        TOTAL FREE ENERGY PREDICTED BY IDOCK:   -8.73 KCAL/MOL
REMARK 923 INTER-LIGAND FREE ENERGY PREDICTED BY IDOCK:   -6.41 KCAL/MOL
REMARK 924 INTRA-LIGAND FREE ENERGY PREDICTED BY IDOCK:   -2.32 KCAL/MOL
REMARK 927      BINDING AFFINITY PREDICTED BY RF-SCORE:    0.00 PKD
ROOT
HETATM    1  C   UNL     1     -12.359   5.369  72.335  1.00  0.00     0.492 C  
HETATM    2  N   UNL     1     -10.904   5.358  72.465  1.00  0.00    -0.239 NA 
HETATM    3  C   UNL     1     -10.251   5.236  71.141  1.00  0.00    -0.224 C  
HETATM    4  C   UNL     1     -10.328   6.507  70.269  1.00  0.00    -0.201 C  
HETATM    5  N   UNL     1      -9.739   7.640  71.013  1.00  0.00    -0.164 NA 
HETATM    6  C   UNL     1     -10.417   7.887  72.294  1.00  0.00    -0.262 C  
HETATM    7  C   UNL     1     -10.408   6.585  73.140  1.00  0.00    -0.231 C  
ENDROOT
BRANCH   5   8
HETATM    8  C   UNL     1      -8.946   8.571  70.369  1.00  0.00    -0.152 A  
HETATM    9  C   UNL     1      -8.182   9.532  71.025  1.00  0.00     0.135 A  
HETATM   10  C   UNL     1      -7.450  10.486  70.307  1.00  0.00     0.278 A  
HETATM   11  C   UNL     1      -7.468  10.509  68.901  1.00  0.00    -0.104 A  
HETATM   12  C   UNL     1      -8.145   9.501  68.194  1.00  0.00    -0.102 A  
HETATM   13  C   UNL     1      -8.847   8.561  68.965  1.00  0.00    -0.145 A  
BRANCH  11  14
HETATM   14  C   UNL     1      -6.769  11.657  68.247  1.00  0.00    -0.064 C  
HETATM   15  H   UNL     1      -7.647  12.947  69.598  1.00  0.00     0.000 HD 
HETATM   16  O   UNL     1      -6.007  11.405  67.315  1.00  0.00    -0.060 OA 
HETATM   17  N   UNL     1      -7.029  12.902  68.788  1.00  0.00    -0.101 N  
BRANCH  17  18
HETATM   18  C   UNL     1      -6.511  14.093  68.310  1.00  0.00    -0.116 A  
HETATM   19  C   UNL     1      -7.226  15.064  67.532  1.00  0.00    -0.228 A  
HETATM   20  C   UNL     1      -8.527  15.233  67.026  1.00  0.00    -0.258 A  
HETATM   21  N   UNL     1      -5.250  14.481  68.503  1.00  0.00    -0.097 NA 
HETATM   22  N   UNL     1      -5.141  15.641  67.855  1.00  0.00    -0.123 NA 
HETATM   23  H   UNL     1      -4.526  13.996  69.033  1.00  0.00     0.000 HD 
HETATM   24  C   UNL     1      -8.834  16.325  66.186  1.00  0.00    -0.362 A  
HETATM   25  C   UNL     1      -7.833  17.253  65.872  1.00  0.00    -0.054 A  
HETATM   26  C   UNL     1      -6.279  16.031  67.207  1.00  0.00    -0.120 A  
HETATM   27  C   UNL     1      -6.538  17.130  66.386  1.00  0.00    -0.251 A  
BRANCH  24  28
HETATM   28  C   UNL     1     -10.246  16.522  65.676  1.00  0.00    -0.316 C  
BRANCH  28  29
HETATM   29  C   UNL     1     -11.050  15.263  65.414  1.00  0.00    -0.351 A  
HETATM   30  C   UNL     1     -11.311  14.765  64.128  1.00  0.00     0.068 A  
HETATM   31  C   UNL     1     -11.994  13.561  63.960  1.00  0.00    -0.449 A  
HETATM   32  F   UNL     1     -12.211  13.099  62.722  1.00  0.00    -0.496 F  
HETATM   33  C   UNL     1     -12.442  12.828  65.048  1.00  0.00    -0.572 A  
HETATM   34  C   UNL     1     -12.210  13.329  66.319  1.00  0.00    -0.377 A  
HETATM   35  C   UNL     1     -11.526  14.528  66.512  1.00  0.00    -0.366 A  
HETATM   36  F   UNL     1     -12.641  12.642  67.386  1.00  0.00    -0.051 F  
ENDBRANCH  28  29
ENDBRANCH  24  28
ENDBRANCH  17  18
ENDBRANCH  11  14
BRANCH  12  37
HETATM   37  N   UNL     1      -8.198   9.471  66.794  1.00  0.00    -0.112 NA 
HETATM   38  H   UNL     1      -7.537  10.045  66.270  1.00  0.00     0.000 HD 
BRANCH  37  39
HETATM   39  C   UNL     1      -9.165   8.649  66.047  1.00  0.00    -0.216 C  
HETATM   40  C   UNL     1      -8.545   7.623  65.094  1.00  0.00     0.000 C  
HETATM   41  O   UNL     1      -8.963   9.088  63.196  1.00  0.00    -0.114 OA 
HETATM   42  C   UNL     1      -9.393  10.152  64.043  1.00  0.00    -0.287 C  
HETATM   43  C   UNL     1     -10.091   9.578  65.266  1.00  0.00     0.129 C  
HETATM   44  C   UNL     1      -7.991   8.260  63.829  1.00  0.00    -0.149 C  
ENDBRANCH  37  39
ENDBRANCH  12  37
ENDBRANCH   5   8
TORSDOF 7
ENDMDL
MODEL      109
REMARK 921   NORMALIZED FREE ENERGY PREDICTED BY IDOCK:   -4.40 KCAL/MOL
REMARK 922        TOTAL FREE ENERGY PREDICTED BY IDOCK:   -8.72 KCAL/MOL
REMARK 923 INTER-LIGAND FREE ENERGY PREDICTED BY IDOCK:   -7.23 KCAL/MOL
REMARK 924 INTRA-LIGAND FREE ENERGY PREDICTED BY IDOCK:   -1.49 KCAL/MOL
REMARK 927      BINDING AFFINITY PREDICTED BY RF-SCORE:    0.00 PKD
ROOT
HETATM    1  C   UNL     1      -6.417   3.131  68.117  1.00  0.00    -0.036 C  
HETATM    2  N   UNL     1      -7.223   4.037  67.303  1.00  0.00    -0.067 NA 
HETATM    3  C   UNL     1      -8.099   4.878  68.149  1.00  0.00    -0.086 C  
HETATM    4  C   UNL     1      -7.360   5.982  68.936  1.00  0.00    -0.085 C  
HETATM    5  N   UNL     1      -6.613   6.834  67.989  1.00  0.00    -0.056 NA 
HETATM    6  C   UNL     1      -5.642   6.072  67.190  1.00  0.00    -0.012 C  
HETATM    7  C   UNL     1      -6.373   4.914  66.459  1.00  0.00    -0.040 C  
ENDROOT
BRANCH   5   8
HETATM    8  C   UNL     1      -6.562   8.205  68.160  1.00  0.00    -0.057 A  
HETATM    9  C   UNL     1      -5.508   8.876  68.772  1.00  0.00    -0.040 A  
HETATM   10  C   UNL     1      -5.552  10.262  68.969  1.00  0.00    -0.037 A  
HETATM   11  C   UNL     1      -6.665  11.020  68.563  1.00  0.00    -0.061 A  
HETATM   12  C   UNL     1      -7.711  10.402  67.856  1.00  0.00    -0.089 A  
HETATM   13  C   UNL     1      -7.604   9.014  67.671  1.00  0.00    -0.093 A  
BRANCH  11  14
HETATM   14  C   UNL     1      -6.665  12.462  68.955  1.00  0.00    -0.100 C  
HETATM   15  H   UNL     1      -7.065  12.982  66.998  1.00  0.00     0.000 HD 
HETATM   16  O   UNL     1      -6.498  12.731  70.144  1.00  0.00    -0.010 OA 
HETATM   17  N   UNL     1      -6.891  13.361  67.929  1.00  0.00    -0.126 N  
BRANCH  17  18
HETATM   18  C   UNL     1      -6.897  14.737  68.074  1.00  0.00    -0.140 A  
HETATM   19  C   UNL     1      -8.036  15.536  68.427  1.00  0.00    -0.127 A  
HETATM   20  C   UNL     1      -9.388  15.328  68.753  1.00  0.00    -0.210 A  
HETATM   21  N   UNL     1      -5.825  15.506  67.879  1.00  0.00    -0.137 NA 
HETATM   22  N   UNL     1      -6.255  16.753  68.068  1.00  0.00    -0.132 NA 
HETATM   23  H   UNL     1      -4.881  15.204  67.637  1.00  0.00     0.000 HD 
HETATM   24  C   UNL     1     -10.254  16.423  68.956  1.00  0.00    -0.269 A  
HETATM   25  C   UNL     1      -9.752  17.725  68.846  1.00  0.00    -0.262 A  
HETATM   26  C   UNL     1      -7.587  16.851  68.355  1.00  0.00    -0.209 A  
HETATM   27  C   UNL     1      -8.405  17.965  68.553  1.00  0.00    -0.305 A  
BRANCH  24  28
HETATM   28  C   UNL     1     -11.700  16.191  69.343  1.00  0.00    -0.213 C  
BRANCH  28  29
HETATM   29  C   UNL     1     -12.015  14.866  70.010  1.00  0.00    -0.377 A  
HETATM   30  C   UNL     1     -12.620  14.759  71.272  1.00  0.00    -0.403 A  
HETATM   31  C   UNL     1     -12.950  13.509  71.795  1.00  0.00    -0.348 A  
HETATM   32  F   UNL     1     -13.546  13.438  72.993  1.00  0.00    -0.516 F  
HETATM   33  C   UNL     1     -12.684  12.342  71.097  1.00  0.00    -0.336 A  
HETATM   34  C   UNL     1     -12.062  12.440  69.862  1.00  0.00    -0.247 A  
HETATM   35  C   UNL     1     -11.727  13.679  69.317  1.00  0.00    -0.376 A  
HETATM   36  F   UNL     1     -11.787  11.325  69.173  1.00  0.00    -0.295 F  
ENDBRANCH  28  29
ENDBRANCH  24  28
ENDBRANCH  17  18
ENDBRANCH  11  14
BRANCH  12  37
HETATM   37  N   UNL     1      -8.844  11.104  67.426  1.00  0.00    -0.138 NA 
HETATM   38  H   UNL     1      -9.682  11.080  68.007  1.00  0.00     0.000 HD 
BRANCH  37  39
HETATM   39  C   UNL     1      -8.878  11.877  66.172  1.00  0.00    -0.063 C  
HETATM   40  C   UNL     1      -9.952  12.967  66.110  1.00  0.00    -0.274 C  
HETATM   41  O   UNL     1     -11.381  11.524  64.767  1.00  0.00    -0.243 OA 
HETATM   42  C   UNL     1     -10.502  10.413  64.930  1.00  0.00    -0.046 C  
HETATM   43  C   UNL     1      -9.066  10.907  65.009  1.00  0.00    -0.209 C  
HETATM   44  C   UNL     1     -11.347  12.401  65.891  1.00  0.00    -0.356 C  
ENDBRANCH  37  39
ENDBRANCH  12  37
ENDBRANCH   5   8
TORSDOF 7
ENDMDL
MODEL      110
REMARK 921   NORMALIZED FREE ENERGY PREDICTED BY IDOCK:   -4.38 KCAL/MOL
REMARK 922        TOTAL FREE ENERGY PREDICTED BY IDOCK:   -8.70 KCAL/MOL
REMARK 923 INTER-LIGAND FREE ENERGY PREDICTED BY IDOCK:   -7.06 KCAL/MOL
REMARK 924 INTRA-LIGAND FREE ENERGY PREDICTED BY IDOCK:   -1.64 KCAL/MOL
REMARK 927      BINDING AFFINITY PREDICTED BY RF-SCORE:    0.00 PKD
ROOT
HETATM    1  C   UNL     1     -10.845  15.797  67.640  1.00  0.00    -0.310 C  
HETATM    2  N   UNL     1     -11.863  14.759  67.492  1.00  0.00    -0.356 NA 
HETATM    3  C   UNL     1     -11.489  13.793  66.435  1.00  0.00    -0.336 C  
HETATM    4  C   UNL     1     -10.337  12.839  66.818  1.00  0.00    -0.240 C  
HETATM    5  N   UNL     1     -10.701  12.113  68.053  1.00  0.00    -0.206 NA 
HETATM    6  C   UNL     1     -10.978  13.017  69.178  1.00  0.00    -0.140 C  
HETATM    7  C   UNL     1     -12.083  14.027  68.765  1.00  0.00    -0.303 C  
ENDROOT
BRANCH   5   8
HETATM    8  C   UNL     1     -10.397  10.773  68.199  1.00  0.00    -0.171 A  
HETATM    9  C   UNL     1     -10.339   9.866  67.144  1.00  0.00    -0.304 A  
HETATM   10  C   UNL     1     -10.087   8.508  67.373  1.00  0.00    -0.298 A  
HETATM   11  C   UNL     1      -9.890   8.013  68.675  1.00  0.00    -0.182 A  
HETATM   12  C   UNL     1      -9.842   8.904  69.761  1.00  0.00    -0.180 A  
HETATM   13  C   UNL     1     -10.084  10.256  69.470  1.00  0.00    -0.260 A  
BRANCH  11  14
HETATM   14  C   UNL     1      -9.774   6.529  68.811  1.00  0.00    -0.129 C  
HETATM   15  H   UNL     1      -7.924   6.767  69.696  1.00  0.00     0.000 HD 
HETATM   16  O   UNL     1     -10.726   5.845  68.436  1.00  0.00    -0.242 OA 
HETATM   17  N   UNL     1      -8.603   6.071  69.385  1.00  0.00    -0.121 N  
BRANCH  17  18
HETATM   18  C   UNL     1      -8.286   4.737  69.571  1.00  0.00    -0.076 A  
HETATM   19  C   UNL     1      -7.662   3.883  68.601  1.00  0.00    -0.060 A  
HETATM   20  C   UNL     1      -7.159   3.994  67.292  1.00  0.00    -0.063 A  
HETATM   21  N   UNL     1      -8.545   4.064  70.692  1.00  0.00    -0.070 NA 
HETATM   22  N   UNL     1      -8.134   2.819  70.452  1.00  0.00    -0.042 NA 
HETATM   23  H   UNL     1      -8.967   4.424  71.549  1.00  0.00     0.000 HD 
HETATM   24  C   UNL     1      -6.687   2.855  66.606  1.00  0.00    -0.041 A  
HETATM   25  C   UNL     1      -6.707   1.610  67.246  1.00  0.00    -0.031 A  
HETATM   26  C   UNL     1      -7.634   2.625  69.196  1.00  0.00    -0.043 A  
HETATM   27  C   UNL     1      -7.171   1.473  68.558  1.00  0.00    -0.039 A  
BRANCH  24  28
HETATM   28  C   UNL     1      -6.112   2.988  65.211  1.00  0.00    -0.019 C  
BRANCH  28  29
HETATM   29  C   UNL     1      -6.828   3.943  64.275  1.00  0.00    -0.045 A  
HETATM   30  C   UNL     1      -8.086   3.678  63.712  1.00  0.00    -0.089 A  
HETATM   31  C   UNL     1      -8.722   4.631  62.918  1.00  0.00    -0.123 A  
HETATM   32  F   UNL     1      -9.931   4.359  62.410  1.00  0.00    -0.147 F  
HETATM   33  C   UNL     1      -8.133   5.858  62.653  1.00  0.00    -0.107 A  
HETATM   34  C   UNL     1      -6.879   6.115  63.185  1.00  0.00    -0.044 A  
HETATM   35  C   UNL     1      -6.226   5.178  63.985  1.00  0.00    -0.022 A  
HETATM   36  F   UNL     1      -6.286   7.290  62.936  1.00  0.00    -0.049 F  
ENDBRANCH  28  29
ENDBRANCH  24  28
ENDBRANCH  17  18
ENDBRANCH  11  14
BRANCH  12  37
HETATM   37  N   UNL     1      -9.650   8.470  71.079  1.00  0.00    -0.178 NA 
HETATM   38  H   UNL     1      -8.750   8.059  71.330  1.00  0.00     0.000 HD 
BRANCH  37  39
HETATM   39  C   UNL     1     -10.688   8.583  72.118  1.00  0.00    -0.356 C  
HETATM   40  C   UNL     1     -10.532   7.620  73.298  1.00  0.00    -0.414 C  
HETATM   41  O   UNL     1     -12.227   6.146  72.358  1.00  0.00    -0.247 OA 
HETATM   42  C   UNL     1     -12.297   6.907  71.154  1.00  0.00    -0.370 C  
HETATM   43  C   UNL     1     -12.053   8.375  71.465  1.00  0.00    -0.342 C  
HETATM   44  C   UNL     1     -10.929   6.194  72.946  1.00  0.00    -0.262 C  
ENDBRANCH  37  39
ENDBRANCH  12  37
ENDBRANCH   5   8
TORSDOF 7
ENDMDL
MODEL      111
REMARK 921   NORMALIZED FREE ENERGY PREDICTED BY IDOCK:   -4.35 KCAL/MOL
REMARK 922        TOTAL FREE ENERGY PREDICTED BY IDOCK:   -8.65 KCAL/MOL
REMARK 923 INTER-LIGAND FREE ENERGY PREDICTED BY IDOCK:   -7.00 KCAL/MOL
REMARK 924 INTRA-LIGAND FREE ENERGY PREDICTED BY IDOCK:   -1.65 KCAL/MOL
REMARK 927      BINDING AFFINITY PREDICTED BY RF-SCORE:    0.00 PKD
ROOT
HETATM    1  C   UNL     1     -10.928  16.318  67.858  1.00  0.00    -0.310 C  
HETATM    2  N   UNL     1     -11.852  15.240  67.515  1.00  0.00    -0.149 NA 
HETATM    3  C   UNL     1     -11.485  14.614  66.224  1.00  0.00    -0.351 C  
HETATM    4  C   UNL     1     -10.219  13.733  66.278  1.00  0.00    -0.297 C  
HETATM    5  N   UNL     1     -10.399  12.688  67.306  1.00  0.00    -0.224 NA 
HETATM    6  C   UNL     1     -10.658  13.248  68.640  1.00  0.00    -0.246 C  
HETATM    7  C   UNL     1     -11.886  14.195  68.570  1.00  0.00    -0.355 C  
ENDROOT
BRANCH   5   8
HETATM    8  C   UNL     1      -9.957  11.397  67.086  1.00  0.00    -0.192 A  
HETATM    9  C   UNL     1      -9.218  11.004  65.974  1.00  0.00    -0.213 A  
HETATM   10  C   UNL     1      -8.857   9.665  65.783  1.00  0.00    -0.186 A  
HETATM   11  C   UNL     1      -9.236   8.671  66.703  1.00  0.00    -0.227 A  
HETATM   12  C   UNL     1      -9.899   9.032  67.889  1.00  0.00    -0.171 A  
HETATM   13  C   UNL     1     -10.218  10.391  68.036  1.00  0.00    -0.199 A  
BRANCH  11  14
HETATM   14  C   UNL     1      -8.922   7.260  66.323  1.00  0.00    -0.156 C  
HETATM   15  H   UNL     1     -10.913   6.766  66.556  1.00  0.00     0.000 HD 
HETATM   16  O   UNL     1      -7.761   6.997  66.013  1.00  0.00    -0.092 OA 
HETATM   17  N   UNL     1      -9.994   6.387  66.326  1.00  0.00    -0.023 N  
BRANCH  17  18
HETATM   18  C   UNL     1      -9.912   5.036  66.038  1.00  0.00    -0.199 A  
HETATM   19  C   UNL     1      -9.202   4.058  66.811  1.00  0.00    -0.178 A  
HETATM   20  C   UNL     1      -8.445   4.022  67.996  1.00  0.00    -0.104 A  
HETATM   21  N   UNL     1     -10.478   4.471  64.971  1.00  0.00    -0.467 NA 
HETATM   22  N   UNL     1     -10.129   3.186  65.032  1.00  0.00     0.093 NA 
HETATM   23  H   UNL     1     -11.054   4.925  64.261  1.00  0.00     0.000 HD 
HETATM   24  C   UNL     1      -7.800   2.834  68.401  1.00  0.00    -0.057 A  
HETATM   25  C   UNL     1      -7.935   1.680  67.619  1.00  0.00    -0.059 A  
HETATM   26  C   UNL     1      -9.321   2.874  66.089  1.00  0.00    -0.042 A  
HETATM   27  C   UNL     1      -8.707   1.675  66.453  1.00  0.00    -0.120 A  
BRANCH  24  28
HETATM   28  C   UNL     1      -7.017   2.793  69.696  1.00  0.00    -0.034 C  
BRANCH  28  29
HETATM   29  C   UNL     1      -7.830   2.817  70.976  1.00  0.00    -0.046 A  
HETATM   30  C   UNL     1      -7.462   3.553  72.113  1.00  0.00    -0.057 A  
HETATM   31  C   UNL     1      -8.293   3.590  73.232  1.00  0.00    -0.079 A  
HETATM   32  F   UNL     1      -7.927   4.317  74.296  1.00  0.00    -0.086 F  
HETATM   33  C   UNL     1      -9.495   2.900  73.261  1.00  0.00    -0.120 A  
HETATM   34  C   UNL     1      -9.851   2.150  72.151  1.00  0.00    -0.146 A  
HETATM   35  C   UNL     1      -9.038   2.101  71.020  1.00  0.00    -0.164 A  
HETATM   36  F   UNL     1     -11.004   1.468  72.159  1.00  0.00    -0.223 F  
ENDBRANCH  28  29
ENDBRANCH  24  28
ENDBRANCH  17  18
ENDBRANCH  11  14
BRANCH  12  37
HETATM   37  N   UNL     1     -10.300   8.088  68.842  1.00  0.00    -0.211 NA 
HETATM   38  H   UNL     1     -11.053   7.442  68.601  1.00  0.00     0.000 HD 
BRANCH  37  39
HETATM   39  C   UNL     1      -9.683   7.985  70.176  1.00  0.00    -0.176 C  
HETATM   40  C   UNL     1      -8.823   6.739  70.400  1.00  0.00    -0.152 C  
HETATM   41  O   UNL     1     -10.638   5.668  71.619  1.00  0.00    -0.227 OA 
HETATM   42  C   UNL     1     -11.545   6.721  71.300  1.00  0.00    -0.320 C  
HETATM   43  C   UNL     1     -10.789   8.039  71.227  1.00  0.00    -0.267 C  
HETATM   44  C   UNL     1      -9.656   5.482  70.602  1.00  0.00    -0.170 C  
ENDBRANCH  37  39
ENDBRANCH  12  37
ENDBRANCH   5   8
TORSDOF 7
ENDMDL
MODEL      112
REMARK 921   NORMALIZED FREE ENERGY PREDICTED BY IDOCK:   -4.18 KCAL/MOL
REMARK 922        TOTAL FREE ENERGY PREDICTED BY IDOCK:   -8.42 KCAL/MOL
REMARK 923 INTER-LIGAND FREE ENERGY PREDICTED BY IDOCK:   -6.22 KCAL/MOL
REMARK 924 INTRA-LIGAND FREE ENERGY PREDICTED BY IDOCK:   -2.20 KCAL/MOL
REMARK 927      BINDING AFFINITY PREDICTED BY RF-SCORE:    0.00 PKD
ROOT
HETATM    1  C   UNL     1      -8.603   5.147  74.225  1.00  0.00    -0.113 C  
HETATM    2  N   UNL     1      -7.784   6.313  74.547  1.00  0.00    -0.102 NA 
HETATM    3  C   UNL     1      -6.601   6.394  73.660  1.00  0.00    -0.070 C  
HETATM    4  C   UNL     1      -6.916   6.813  72.208  1.00  0.00    -0.067 C  
HETATM    5  N   UNL     1      -7.621   8.111  72.221  1.00  0.00    -0.110 NA 
HETATM    6  C   UNL     1      -8.868   8.068  72.997  1.00  0.00    -0.239 C  
HETATM    7  C   UNL     1      -8.562   7.573  74.436  1.00  0.00    -0.198 C  
ENDROOT
BRANCH   5   8
HETATM    8  C   UNL     1      -7.334   9.079  71.277  1.00  0.00    -0.069 A  
HETATM    9  C   UNL     1      -6.510  10.177  71.511  1.00  0.00     0.576 A  
HETATM   10  C   UNL     1      -6.313  11.154  70.527  1.00  0.00     0.065 A  
HETATM   11  C   UNL     1      -6.945  11.063  69.274  1.00  0.00    -0.116 A  
HETATM   12  C   UNL     1      -7.707   9.925  68.957  1.00  0.00    -0.089 A  
HETATM   13  C   UNL     1      -7.856   8.969  69.975  1.00  0.00    -0.088 A  
BRANCH  11  14
HETATM   14  C   UNL     1      -6.778  12.233  68.359  1.00  0.00    -0.064 C  
HETATM   15  H   UNL     1      -6.339  13.426  69.985  1.00  0.00     0.000 HD 
HETATM   16  O   UNL     1      -6.902  12.035  67.151  1.00  0.00    -0.139 OA 
HETATM   17  N   UNL     1      -6.461  13.431  68.972  1.00  0.00    -0.099 N  
BRANCH  17  18
HETATM   18  C   UNL     1      -6.296  14.635  68.311  1.00  0.00    -0.123 A  
HETATM   19  C   UNL     1      -7.296  15.302  67.526  1.00  0.00    -0.223 A  
HETATM   20  C   UNL     1      -8.639  15.095  67.165  1.00  0.00    -0.247 A  
HETATM   21  N   UNL     1      -5.157  15.328  68.308  1.00  0.00    -0.101 NA 
HETATM   22  N   UNL     1      -5.395  16.384  67.532  1.00  0.00    -0.137 NA 
HETATM   23  H   UNL     1      -4.290  15.098  68.795  1.00  0.00     0.000 HD 
HETATM   24  C   UNL     1      -9.281  15.965  66.258  1.00  0.00    -0.372 A  
HETATM   25  C   UNL     1      -8.571  17.050  65.728  1.00  0.00     0.189 A  
HETATM   26  C   UNL     1      -6.649  16.410  66.988  1.00  0.00    -0.190 A  
HETATM   27  C   UNL     1      -7.243  17.300  66.092  1.00  0.00    -0.304 A  
BRANCH  24  28
HETATM   28  C   UNL     1     -10.738  15.759  65.903  1.00  0.00    -0.320 C  
BRANCH  28  29
HETATM   29  C   UNL     1     -11.177  14.328  65.659  1.00  0.00    -0.314 A  
HETATM   30  C   UNL     1     -11.036  13.303  66.607  1.00  0.00    -0.311 A  
HETATM   31  C   UNL     1     -11.528  12.024  66.346  1.00  0.00    -0.353 A  
HETATM   32  F   UNL     1     -11.398  11.070  67.277  1.00  0.00    -0.341 F  
HETATM   33  C   UNL     1     -12.158  11.725  65.148  1.00  0.00     0.138 A  
HETATM   34  C   UNL     1     -12.276  12.727  64.197  1.00  0.00    -0.429 A  
HETATM   35  C   UNL     1     -11.795  14.013  64.438  1.00  0.00    -0.453 A  
HETATM   36  F   UNL     1     -12.874  12.459  63.029  1.00  0.00    -0.486 F  
ENDBRANCH  28  29
ENDBRANCH  24  28
ENDBRANCH  17  18
ENDBRANCH  11  14
BRANCH  12  37
HETATM   37  N   UNL     1      -8.359   9.778  67.726  1.00  0.00    -0.114 NA 
HETATM   38  H   UNL     1      -8.948  10.542  67.392  1.00  0.00     0.000 HD 
BRANCH  37  39
HETATM   39  C   UNL     1      -8.233   8.570  66.893  1.00  0.00    -0.106 C  
HETATM   40  C   UNL     1      -6.853   8.355  66.265  1.00  0.00    -0.073 C  
HETATM   41  O   UNL     1      -7.650   9.228  64.137  1.00  0.00    -0.106 OA 
HETATM   42  C   UNL     1      -8.902   9.611  64.703  1.00  0.00    -0.219 C  
HETATM   43  C   UNL     1      -9.291   8.625  65.793  1.00  0.00    -0.227 C  
HETATM   44  C   UNL     1      -6.592   9.287  65.091  1.00  0.00    -0.074 C  
ENDBRANCH  37  39
ENDBRANCH  12  37
ENDBRANCH   5   8
TORSDOF 7
ENDMDL
MODEL      113
REMARK 921   NORMALIZED FREE ENERGY PREDICTED BY IDOCK:   -4.13 KCAL/MOL
REMARK 922        TOTAL FREE ENERGY PREDICTED BY IDOCK:   -8.34 KCAL/MOL
REMARK 923 INTER-LIGAND FREE ENERGY PREDICTED BY IDOCK:   -6.54 KCAL/MOL
REMARK 924 INTRA-LIGAND FREE ENERGY PREDICTED BY IDOCK:   -1.81 KCAL/MOL
REMARK 927      BINDING AFFINITY PREDICTED BY RF-SCORE:    0.00 PKD
ROOT
HETATM    1  C   UNL     1      -9.452   1.685  64.306  1.00  0.00    -0.134 C  
HETATM    2  N   UNL     1      -9.482   2.953  63.581  1.00  0.00    -0.102 NA 
HETATM    3  C   UNL     1     -10.585   3.815  64.061  1.00  0.00    -0.262 C  
HETATM    4  C   UNL     1     -10.355   4.432  65.457  1.00  0.00    -0.224 C  
HETATM    5  N   UNL     1      -9.091   5.197  65.446  1.00  0.00    -0.158 NA 
HETATM    6  C   UNL     1      -7.933   4.368  65.083  1.00  0.00    -0.097 C  
HETATM    7  C   UNL     1      -8.197   3.686  63.713  1.00  0.00    -0.090 C  
ENDROOT
BRANCH   5   8
HETATM    8  C   UNL     1      -8.994   6.411  66.101  1.00  0.00    -0.150 A  
HETATM    9  C   UNL     1      -8.522   7.580  65.512  1.00  0.00    -0.129 A  
HETATM   10  C   UNL     1      -8.392   8.761  66.254  1.00  0.00    -0.120 A  
HETATM   11  C   UNL     1      -8.727   8.802  67.619  1.00  0.00    -0.135 A  
HETATM   12  C   UNL     1      -9.299   7.675  68.233  1.00  0.00    -0.145 A  
HETATM   13  C   UNL     1      -9.423   6.525  67.437  1.00  0.00    -0.135 A  
BRANCH  11  14
HETATM   14  C   UNL     1      -8.411  10.072  68.342  1.00  0.00    -0.112 C  
HETATM   15  H   UNL     1      -6.554  10.109  67.441  1.00  0.00     0.000 HD 
HETATM   16  O   UNL     1      -9.289  10.556  69.055  1.00  0.00    -0.183 OA 
HETATM   17  N   UNL     1      -7.156  10.599  68.103  1.00  0.00    -0.080 N  
BRANCH  17  18
HETATM   18  C   UNL     1      -6.656  11.746  68.697  1.00  0.00    -0.065 A  
HETATM   19  C   UNL     1      -7.146  13.078  68.487  1.00  0.00    -0.105 A  
HETATM   20  C   UNL     1      -8.171  13.703  67.754  1.00  0.00    -0.179 A  
HETATM   21  N   UNL     1      -5.623  11.751  69.540  1.00  0.00    -0.065 NA 
HETATM   22  N   UNL     1      -5.431  13.035  69.843  1.00  0.00    -0.095 NA 
HETATM   23  H   UNL     1      -5.095  10.947  69.879  1.00  0.00     0.000 HD 
HETATM   24  C   UNL     1      -8.280  15.109  67.728  1.00  0.00    -0.159 A  
HETATM   25  C   UNL     1      -7.365  15.882  68.453  1.00  0.00    -0.125 A  
HETATM   26  C   UNL     1      -6.282  13.895  69.208  1.00  0.00    -0.107 A  
HETATM   27  C   UNL     1      -6.354  15.290  69.217  1.00  0.00    -0.126 A  
BRANCH  24  28
HETATM   28  C   UNL     1      -9.409  15.774  66.968  1.00  0.00    -0.235 C  
BRANCH  28  29
HETATM   29  C   UNL     1     -10.170  14.899  65.990  1.00  0.00    -0.317 A  
HETATM   30  C   UNL     1      -9.562  13.913  65.198  1.00  0.00     0.207 A  
HETATM   31  C   UNL     1     -10.331  13.093  64.374  1.00  0.00    -0.368 A  
HETATM   32  F   UNL     1      -9.727  12.147  63.644  1.00  0.00    -0.318 F  
HETATM   33  C   UNL     1     -11.709  13.230  64.303  1.00  0.00    -0.454 A  
HETATM   34  C   UNL     1     -12.312  14.220  65.063  1.00  0.00    -0.428 A  
HETATM   35  C   UNL     1     -11.563  15.049  65.897  1.00  0.00    -0.165 A  
HETATM   36  F   UNL     1     -13.641  14.378  65.005  1.00  0.00     0.046 F  
ENDBRANCH  28  29
ENDBRANCH  24  28
ENDBRANCH  17  18
ENDBRANCH  11  14
BRANCH  12  37
HETATM   37  N   UNL     1      -9.654   7.657  69.588  1.00  0.00    -0.160 NA 
HETATM   38  H   UNL     1     -10.437   8.235  69.895  1.00  0.00     0.000 HD 
BRANCH  37  39
HETATM   39  C   UNL     1      -8.946   6.842  70.590  1.00  0.00    -0.151 C  
HETATM   40  C   UNL     1      -9.556   6.863  71.994  1.00  0.00    -0.150 C  
HETATM   41  O   UNL     1      -7.880   8.467  72.731  1.00  0.00    -0.309 OA 
HETATM   42  C   UNL     1      -7.371   8.624  71.408  1.00  0.00    -0.102 C  
HETATM   43  C   UNL     1      -7.493   7.308  70.657  1.00  0.00    -0.079 C  
HETATM   44  C   UNL     1      -9.272   8.161  72.736  1.00  0.00    -0.271 C  
ENDBRANCH  37  39
ENDBRANCH  12  37
ENDBRANCH   5   8
TORSDOF 7
ENDMDL
MODEL      114
REMARK 921   NORMALIZED FREE ENERGY PREDICTED BY IDOCK:   -4.08 KCAL/MOL
REMARK 922        TOTAL FREE ENERGY PREDICTED BY IDOCK:   -8.28 KCAL/MOL
REMARK 923 INTER-LIGAND FREE ENERGY PREDICTED BY IDOCK:   -7.10 KCAL/MOL
REMARK 924 INTRA-LIGAND FREE ENERGY PREDICTED BY IDOCK:   -1.17 KCAL/MOL
REMARK 927      BINDING AFFINITY PREDICTED BY RF-SCORE:    0.00 PKD
ROOT
HETATM    1  C   UNL     1     -13.173  16.942  73.897  1.00  0.00     1.023 C  
HETATM    2  N   UNL     1     -13.760  15.625  73.666  1.00  0.00    -0.087 NA 
HETATM    3  C   UNL     1     -14.394  15.551  72.330  1.00  0.00    -0.462 C  
HETATM    4  C   UNL     1     -13.399  15.495  71.151  1.00  0.00    -0.480 C  
HETATM    5  N   UNL     1     -12.491  14.344  71.338  1.00  0.00    -0.341 NA 
HETATM    6  C   UNL     1     -11.745  14.414  72.602  1.00  0.00     0.556 C  
HETATM    7  C   UNL     1     -12.745  14.548  73.783  1.00  0.00     0.137 C  
ENDROOT
BRANCH   5   8
HETATM    8  C   UNL     1     -12.115  13.561  70.263  1.00  0.00    -0.355 A  
HETATM    9  C   UNL     1     -12.365  12.195  70.168  1.00  0.00    -0.219 A  
HETATM   10  C   UNL     1     -11.899  11.450  69.078  1.00  0.00    -0.415 A  
HETATM   11  C   UNL     1     -11.158  12.055  68.047  1.00  0.00    -0.292 A  
HETATM   12  C   UNL     1     -10.964  13.447  68.050  1.00  0.00    -0.244 A  
HETATM   13  C   UNL     1     -11.468  14.145  69.158  1.00  0.00    -0.338 A  
BRANCH  11  14
HETATM   14  C   UNL     1     -10.590  11.138  67.012  1.00  0.00    -0.252 C  
HETATM   15  H   UNL     1      -8.705  11.884  67.402  1.00  0.00     0.000 HD 
HETATM   16  O   UNL     1     -11.363  10.366  66.446  1.00  0.00     0.125 OA 
HETATM   17  N   UNL     1      -9.224  11.229  66.817  1.00  0.00    -0.171 N  
BRANCH  17  18
HETATM   18  C   UNL     1      -8.510  10.495  65.886  1.00  0.00    -0.162 A  
HETATM   19  C   UNL     1      -8.628   9.083  65.666  1.00  0.00    -0.187 A  
HETATM   20  C   UNL     1      -9.391   8.014  66.170  1.00  0.00    -0.212 A  
HETATM   21  N   UNL     1      -7.591  11.023  65.076  1.00  0.00    -0.281 NA 
HETATM   22  N   UNL     1      -7.111   9.993  64.379  1.00  0.00    -0.135 NA 
HETATM   23  H   UNL     1      -7.315  12.003  65.006  1.00  0.00     0.000 HD 
HETATM   24  C   UNL     1      -9.140   6.691  65.749  1.00  0.00     0.004 A  
HETATM   25  C   UNL     1      -8.131   6.450  64.808  1.00  0.00    -0.114 A  
HETATM   26  C   UNL     1      -7.656   8.786  64.715  1.00  0.00    -0.107 A  
HETATM   27  C   UNL     1      -7.376   7.494  64.264  1.00  0.00    -0.090 A  
BRANCH  24  28
HETATM   28  C   UNL     1      -9.990   5.550  66.268  1.00  0.00    -0.174 C  
BRANCH  28  29
HETATM   29  C   UNL     1     -10.210   5.501  67.768  1.00  0.00    -0.237 A  
HETATM   30  C   UNL     1     -11.117   6.332  68.444  1.00  0.00    -0.371 A  
HETATM   31  C   UNL     1     -11.325   6.185  69.815  1.00  0.00    -0.382 A  
HETATM   32  F   UNL     1     -12.211   6.977  70.431  1.00  0.00    -0.337 F  
HETATM   33  C   UNL     1     -10.642   5.228  70.549  1.00  0.00    -0.272 A  
HETATM   34  C   UNL     1      -9.725   4.423  69.891  1.00  0.00    -0.221 A  
HETATM   35  C   UNL     1      -9.503   4.549  68.521  1.00  0.00    -0.213 A  
HETATM   36  F   UNL     1      -9.047   3.497  70.582  1.00  0.00    -0.128 F  
ENDBRANCH  28  29
ENDBRANCH  24  28
ENDBRANCH  17  18
ENDBRANCH  11  14
BRANCH  12  37
HETATM   37  N   UNL     1     -10.235  14.105  67.051  1.00  0.00    -0.258 NA 
HETATM   38  H   UNL     1      -9.218  14.017  67.051  1.00  0.00     0.000 HD 
BRANCH  37  39
HETATM   39  C   UNL     1     -10.872  14.919  66.001  1.00  0.00    -0.328 C  
HETATM   40  C   UNL     1     -12.366  14.658  65.794  1.00  0.00    -0.135 C  
HETATM   41  O   UNL     1     -11.888  13.278  63.846  1.00  0.00    -0.430 OA 
HETATM   42  C   UNL     1     -10.483  13.339  64.082  1.00  0.00    -0.260 C  
HETATM   43  C   UNL     1     -10.126  14.687  64.688  1.00  0.00     0.146 C  
HETATM   44  C   UNL     1     -12.637  13.355  65.057  1.00  0.00    -0.403 C  
ENDBRANCH  37  39
ENDBRANCH  12  37
ENDBRANCH   5   8
TORSDOF 7
ENDMDL
MODEL      115
REMARK 921   NORMALIZED FREE ENERGY PREDICTED BY IDOCK:   -3.89 KCAL/MOL
REMARK 922        TOTAL FREE ENERGY PREDICTED BY IDOCK:   -8.01 KCAL/MOL
REMARK 923 INTER-LIGAND FREE ENERGY PREDICTED BY IDOCK:   -7.07 KCAL/MOL
REMARK 924 INTRA-LIGAND FREE ENERGY PREDICTED BY IDOCK:   -0.94 KCAL/MOL
REMARK 927      BINDING AFFINITY PREDICTED BY RF-SCORE:    0.00 PKD
ROOT
HETATM    1  C   UNL     1      -7.131   4.865  67.982  1.00  0.00    -0.062 C  
HETATM    2  N   UNL     1      -8.229   5.667  67.447  1.00  0.00    -0.102 NA 
HETATM    3  C   UNL     1      -8.741   6.614  68.464  1.00  0.00    -0.123 C  
HETATM    4  C   UNL     1      -7.802   7.802  68.762  1.00  0.00    -0.123 C  
HETATM    5  N   UNL     1      -7.519   8.524  67.504  1.00  0.00    -0.092 NA 
HETATM    6  C   UNL     1      -6.904   7.662  66.486  1.00  0.00    -0.062 C  
HETATM    7  C   UNL     1      -7.812   6.426  66.241  1.00  0.00    -0.101 C  
ENDROOT
BRANCH   5   8
HETATM    8  C   UNL     1      -7.464   9.905  67.480  1.00  0.00    -0.091 A  
HETATM    9  C   UNL     1      -6.442  10.655  68.054  1.00  0.00    -0.062 A  
HETATM   10  C   UNL     1      -6.483  12.056  68.047  1.00  0.00    -0.061 A  
HETATM   11  C   UNL     1      -7.560  12.749  67.466  1.00  0.00    -0.162 A  
HETATM   12  C   UNL     1      -8.567  12.038  66.790  1.00  0.00    -0.177 A  
HETATM   13  C   UNL     1      -8.465  10.637  66.814  1.00  0.00    -0.134 A  
BRANCH  11  14
HETATM   14  C   UNL     1      -7.569  14.233  67.646  1.00  0.00    -0.176 C  
HETATM   15  H   UNL     1      -8.631  14.428  65.887  1.00  0.00     0.000 HD 
HETATM   16  O   UNL     1      -7.050  14.688  68.664  1.00  0.00    -0.103 OA 
HETATM   17  N   UNL     1      -8.200  14.952  66.648  1.00  0.00    -0.050 N  
BRANCH  17  18
HETATM   18  C   UNL     1      -8.288  16.333  66.608  1.00  0.00    -0.280 A  
HETATM   19  C   UNL     1      -8.864  17.164  67.625  1.00  0.00    -0.218 A  
HETATM   20  C   UNL     1      -9.456  16.997  68.890  1.00  0.00    -0.235 A  
HETATM   21  N   UNL     1      -7.856  17.071  65.585  1.00  0.00    -0.092 NA 
HETATM   22  N   UNL     1      -8.164  18.327  65.910  1.00  0.00    -0.508 NA 
HETATM   23  H   UNL     1      -7.391  16.746  64.737  1.00  0.00     0.000 HD 
HETATM   24  C   UNL     1     -10.012  18.098  69.574  1.00  0.00     0.203 A  
HETATM   25  C   UNL     1      -9.956  19.369  68.989  1.00  0.00    -0.477 A  
HETATM   26  C   UNL     1      -8.815  18.454  67.105  1.00  0.00    -0.264 A  
HETATM   27  C   UNL     1      -9.347  19.574  67.747  1.00  0.00    -0.405 A  
BRANCH  24  28
HETATM   28  C   UNL     1     -10.613  17.917  70.952  1.00  0.00     2.242 C  
BRANCH  28  29
HETATM   29  C   UNL     1     -11.398  16.640  71.182  1.00  0.00     0.115 A  
HETATM   30  C   UNL     1     -11.791  15.775  70.149  1.00  0.00    -0.369 A  
HETATM   31  C   UNL     1     -12.447  14.579  70.437  1.00  0.00    -0.347 A  
HETATM   32  F   UNL     1     -12.791  13.764  69.432  1.00  0.00    -0.178 F  
HETATM   33  C   UNL     1     -12.739  14.213  71.741  1.00  0.00    -0.420 A  
HETATM   34  C   UNL     1     -12.377  15.075  72.764  1.00  0.00    -0.360 A  
HETATM   35  C   UNL     1     -11.717  16.275  72.501  1.00  0.00    -0.493 A  
HETATM   36  F   UNL     1     -12.657  14.747  74.032  1.00  0.00    -0.608 F  
ENDBRANCH  28  29
ENDBRANCH  24  28
ENDBRANCH  17  18
ENDBRANCH  11  14
BRANCH  12  37
HETATM   37  N   UNL     1      -9.663  12.673  66.193  1.00  0.00    -0.259 NA 
HETATM   38  H   UNL     1      -9.652  13.690  66.112  1.00  0.00     0.000 HD 
BRANCH  37  39
HETATM   39  C   UNL     1     -10.830  11.938  65.676  1.00  0.00    -0.286 C  
HETATM   40  C   UNL     1     -11.012  11.993  64.157  1.00  0.00    -0.418 C  
HETATM   41  O   UNL     1     -12.725  13.706  64.394  1.00  0.00    -0.642 OA 
HETATM   42  C   UNL     1     -12.486  13.827  65.794  1.00  0.00    -0.485 C  
HETATM   43  C   UNL     1     -12.084  12.475  66.361  1.00  0.00    -0.279 C  
HETATM   44  C   UNL     1     -11.548  13.334  63.680  1.00  0.00    -0.325 C  
ENDBRANCH  37  39
ENDBRANCH  12  37
ENDBRANCH   5   8
TORSDOF 7
ENDMDL
MODEL      116
REMARK 921   NORMALIZED FREE ENERGY PREDICTED BY IDOCK:   -3.74 KCAL/MOL
REMARK 922        TOTAL FREE ENERGY PREDICTED BY IDOCK:   -7.79 KCAL/MOL
REMARK 923 INTER-LIGAND FREE ENERGY PREDICTED BY IDOCK:   -6.71 KCAL/MOL
REMARK 924 INTRA-LIGAND FREE ENERGY PREDICTED BY IDOCK:   -1.08 KCAL/MOL
REMARK 927      BINDING AFFINITY PREDICTED BY RF-SCORE:    0.00 PKD
ROOT
HETATM    1  C   UNL     1      -9.653   1.973  69.513  1.00  0.00     0.025 C  
HETATM    2  N   UNL     1      -8.761   2.986  70.072  1.00  0.00    -0.065 NA 
HETATM    3  C   UNL     1      -7.925   3.600  69.015  1.00  0.00    -0.058 C  
HETATM    4  C   UNL     1      -8.685   4.556  68.072  1.00  0.00    -0.104 C  
HETATM    5  N   UNL     1      -9.334   5.614  68.874  1.00  0.00    -0.118 NA 
HETATM    6  C   UNL     1     -10.266   5.072  69.873  1.00  0.00    -0.270 C  
HETATM    7  C   UNL     1      -9.519   4.053  70.774  1.00  0.00    -0.170 C  
ENDROOT
BRANCH   5   8
HETATM    8  C   UNL     1      -9.354   6.923  68.431  1.00  0.00    -0.129 A  
HETATM    9  C   UNL     1     -10.034   7.352  67.294  1.00  0.00    -0.259 A  
HETATM   10  C   UNL     1      -9.959   8.684  66.868  1.00  0.00    -0.330 A  
HETATM   11  C   UNL     1      -9.191   9.630  67.569  1.00  0.00    -0.149 A  
HETATM   12  C   UNL     1      -8.566   9.268  68.775  1.00  0.00    -0.131 A  
HETATM   13  C   UNL     1      -8.690   7.925  69.163  1.00  0.00    -0.138 A  
BRANCH  11  14
HETATM   14  C   UNL     1      -9.068  10.982  66.942  1.00  0.00    -0.156 C  
HETATM   15  H   UNL     1      -9.208  11.848  68.810  1.00  0.00     0.000 HD 
HETATM   16  O   UNL     1      -8.903  11.033  65.724  1.00  0.00    -0.190 OA 
HETATM   17  N   UNL     1      -9.119  12.052  67.815  1.00  0.00    -0.179 N  
BRANCH  17  18
HETATM   18  C   UNL     1      -9.058  13.382  67.435  1.00  0.00    -0.216 A  
HETATM   19  C   UNL     1     -10.004  14.399  67.795  1.00  0.00    -0.226 A  
HETATM   20  C   UNL     1     -11.175  14.500  68.568  1.00  0.00    -0.285 A  
HETATM   21  N   UNL     1      -8.101  13.885  66.655  1.00  0.00    -0.257 NA 
HETATM   22  N   UNL     1      -8.425  15.167  66.491  1.00  0.00    -0.198 NA 
HETATM   23  H   UNL     1      -7.294  13.394  66.268  1.00  0.00     0.000 HD 
HETATM   24  C   UNL     1     -11.909  15.704  68.605  1.00  0.00    -0.306 A  
HETATM   25  C   UNL     1     -11.453  16.809  67.875  1.00  0.00     0.213 A  
HETATM   26  C   UNL     1      -9.586  15.536  67.111  1.00  0.00    -0.222 A  
HETATM   27  C   UNL     1     -10.276  16.749  67.122  1.00  0.00    -0.295 A  
BRANCH  24  28
HETATM   28  C   UNL     1     -13.148  15.817  69.469  1.00  0.00     1.058 C  
BRANCH  28  29
HETATM   29  C   UNL     1     -13.047  15.244  70.870  1.00  0.00    -0.523 A  
HETATM   30  C   UNL     1     -12.851  16.031  72.015  1.00  0.00    -0.375 A  
HETATM   31  C   UNL     1     -12.841  15.448  73.282  1.00  0.00    -0.518 A  
HETATM   32  F   UNL     1     -12.672  16.225  74.359  1.00  0.00    -0.551 F  
HETATM   33  C   UNL     1     -13.014  14.083  73.448  1.00  0.00     0.329 A  
HETATM   34  C   UNL     1     -13.181  13.297  72.319  1.00  0.00    -0.467 A  
HETATM   35  C   UNL     1     -13.198  13.859  71.043  1.00  0.00    -0.260 A  
HETATM   36  F   UNL     1     -13.341  11.974  72.454  1.00  0.00    -0.620 F  
ENDBRANCH  28  29
ENDBRANCH  24  28
ENDBRANCH  17  18
ENDBRANCH  11  14
BRANCH  12  37
HETATM   37  N   UNL     1      -7.789  10.167  69.517  1.00  0.00    -0.147 NA 
HETATM   38  H   UNL     1      -8.264  10.878  70.073  1.00  0.00     0.000 HD 
BRANCH  37  39
HETATM   39  C   UNL     1      -6.317  10.130  69.529  1.00  0.00    -0.051 C  
HETATM   40  C   UNL     1      -5.642  11.351  70.160  1.00  0.00    -0.118 C  
HETATM   41  O   UNL     1      -5.182  12.276  67.956  1.00  0.00    -0.056 OA 
HETATM   42  C   UNL     1      -5.944  11.257  67.311  1.00  0.00    -0.072 C  
HETATM   43  C   UNL     1      -5.824   9.959  68.093  1.00  0.00    -0.042 C  
HETATM   44  C   UNL     1      -5.682  12.575  69.257  1.00  0.00    -0.080 C  
ENDBRANCH  37  39
ENDBRANCH  12  37
ENDBRANCH   5   8
TORSDOF 7
ENDMDL
MODEL      117
REMARK 921   NORMALIZED FREE ENERGY PREDICTED BY IDOCK:   -3.73 KCAL/MOL
REMARK 922        TOTAL FREE ENERGY PREDICTED BY IDOCK:   -7.77 KCAL/MOL
REMARK 923 INTER-LIGAND FREE ENERGY PREDICTED BY IDOCK:   -6.65 KCAL/MOL
REMARK 924 INTRA-LIGAND FREE ENERGY PREDICTED BY IDOCK:   -1.12 KCAL/MOL
REMARK 927      BINDING AFFINITY PREDICTED BY RF-SCORE:    0.00 PKD
ROOT
HETATM    1  C   UNL     1     -10.654  17.971  66.201  1.00  0.00    -0.261 C  
HETATM    2  N   UNL     1     -10.054  16.882  65.433  1.00  0.00    -0.590 NA 
HETATM    3  C   UNL     1      -8.839  16.364  66.102  1.00  0.00    -0.314 C  
HETATM    4  C   UNL     1      -9.113  15.535  67.375  1.00  0.00    -0.199 C  
HETATM    5  N   UNL     1     -10.014  14.413  67.036  1.00  0.00    -0.253 NA 
HETATM    6  C   UNL     1     -11.290  14.867  66.467  1.00  0.00    -0.319 C  
HETATM    7  C   UNL     1     -11.012  15.765  65.232  1.00  0.00    -0.344 C  
ENDROOT
BRANCH   5   8
HETATM    8  C   UNL     1      -9.817  13.160  67.586  1.00  0.00    -0.219 A  
HETATM    9  C   UNL     1     -10.690  12.089  67.418  1.00  0.00    -0.266 A  
HETATM   10  C   UNL     1     -10.460  10.864  68.056  1.00  0.00    -0.222 A  
HETATM   11  C   UNL     1      -9.345  10.677  68.893  1.00  0.00    -0.191 A  
HETATM   12  C   UNL     1      -8.385  11.696  69.016  1.00  0.00     0.143 A  
HETATM   13  C   UNL     1      -8.658  12.896  68.339  1.00  0.00    -0.120 A  
BRANCH  11  14
HETATM   14  C   UNL     1      -9.281   9.380  69.634  1.00  0.00    -0.185 C  
HETATM   15  H   UNL     1     -10.882   9.976  70.792  1.00  0.00     0.000 HD 
HETATM   16  O   UNL     1      -8.440   8.558  69.273  1.00  0.00    -0.124 OA 
HETATM   17  N   UNL     1     -10.211   9.221  70.643  1.00  0.00    -0.250 N  
BRANCH  17  18
HETATM   18  C   UNL     1     -10.299   8.113  71.468  1.00  0.00    -0.209 A  
HETATM   19  C   UNL     1     -10.215   6.746  71.042  1.00  0.00    -0.217 A  
HETATM   20  C   UNL     1     -10.014   6.044  69.840  1.00  0.00    -0.225 A  
HETATM   21  N   UNL     1     -10.496   8.185  72.784  1.00  0.00    -0.334 NA 
HETATM   22  N   UNL     1     -10.566   6.919  73.194  1.00  0.00    -0.274 NA 
HETATM   23  H   UNL     1     -10.576   9.028  73.355  1.00  0.00     0.000 HD 
HETATM   24  C   UNL     1     -10.095   4.635  69.809  1.00  0.00    -0.243 A  
HETATM   25  C   UNL     1     -10.362   3.937  70.993  1.00  0.00     0.307 A  
HETATM   26  C   UNL     1     -10.452   5.998  72.191  1.00  0.00    -0.206 A  
HETATM   27  C   UNL     1     -10.535   4.604  72.210  1.00  0.00    -0.238 A  
BRANCH  24  28
HETATM   28  C   UNL     1      -9.841   3.884  68.519  1.00  0.00    -0.005 C  
BRANCH  28  29
HETATM   29  C   UNL     1      -8.750   4.435  67.622  1.00  0.00    -0.113 A  
HETATM   30  C   UNL     1      -7.393   4.460  67.978  1.00  0.00    -0.065 A  
HETATM   31  C   UNL     1      -6.431   4.913  67.076  1.00  0.00    -0.045 A  
HETATM   32  F   UNL     1      -5.141   4.906  67.436  1.00  0.00    -0.006 F  
HETATM   33  C   UNL     1      -6.783   5.359  65.812  1.00  0.00    -0.053 A  
HETATM   34  C   UNL     1      -8.124   5.363  65.464  1.00  0.00    -0.118 A  
HETATM   35  C   UNL     1      -9.103   4.911  66.348  1.00  0.00    -0.127 A  
HETATM   36  F   UNL     1      -8.489   5.798  64.250  1.00  0.00    -0.136 F  
ENDBRANCH  28  29
ENDBRANCH  24  28
ENDBRANCH  17  18
ENDBRANCH  11  14
BRANCH  12  37
HETATM   37  N   UNL     1      -7.255  11.568  69.833  1.00  0.00    -0.349 NA 
HETATM   38  H   UNL     1      -7.390  11.458  70.838  1.00  0.00     0.000 HD 
BRANCH  37  39
HETATM   39  C   UNL     1      -5.880  11.584  69.305  1.00  0.00    -0.059 C  
HETATM   40  C   UNL     1      -5.769  11.722  67.784  1.00  0.00    -0.057 C  
HETATM   41  O   UNL     1      -5.376   9.330  67.565  1.00  0.00    -0.037 OA 
HETATM   42  C   UNL     1      -5.636   9.106  68.949  1.00  0.00    -0.037 C  
HETATM   43  C   UNL     1      -5.171  10.309  69.755  1.00  0.00    -0.038 C  
HETATM   44  C   UNL     1      -6.118  10.434  67.053  1.00  0.00    -0.052 C  
ENDBRANCH  37  39
ENDBRANCH  12  37
ENDBRANCH   5   8
TORSDOF 7
ENDMDL
MODEL      118
REMARK 921   NORMALIZED FREE ENERGY PREDICTED BY IDOCK:   -3.59 KCAL/MOL
REMARK 922        TOTAL FREE ENERGY PREDICTED BY IDOCK:   -7.58 KCAL/MOL
REMARK 923 INTER-LIGAND FREE ENERGY PREDICTED BY IDOCK:   -6.65 KCAL/MOL
REMARK 924 INTRA-LIGAND FREE ENERGY PREDICTED BY IDOCK:   -0.93 KCAL/MOL
REMARK 927      BINDING AFFINITY PREDICTED BY RF-SCORE:    0.00 PKD
ROOT
HETATM    1  C   UNL     1      -7.468   2.850  67.878  1.00  0.00    -0.057 C  
HETATM    2  N   UNL     1      -6.237   3.592  68.141  1.00  0.00    -0.032 NA 
HETATM    3  C   UNL     1      -5.985   4.599  67.086  1.00  0.00    -0.023 C  
HETATM    4  C   UNL     1      -6.925   5.823  67.131  1.00  0.00    -0.065 C  
HETATM    5  N   UNL     1      -6.828   6.458  68.462  1.00  0.00    -0.068 NA 
HETATM    6  C   UNL     1      -7.175   5.537  69.553  1.00  0.00    -0.065 C  
HETATM    7  C   UNL     1      -6.281   4.271  69.461  1.00  0.00    -0.027 C  
ENDROOT
BRANCH   5   8
HETATM    8  C   UNL     1      -6.822   7.834  68.587  1.00  0.00    -0.062 A  
HETATM    9  C   UNL     1      -5.674   8.618  68.532  1.00  0.00    -0.038 A  
HETATM   10  C   UNL     1      -5.734  10.004  68.730  1.00  0.00    -0.034 A  
HETATM   11  C   UNL     1      -6.956  10.647  69.000  1.00  0.00    -0.080 A  
HETATM   12  C   UNL     1      -8.154   9.913  68.970  1.00  0.00    -0.111 A  
HETATM   13  C   UNL     1      -8.034   8.532  68.748  1.00  0.00    -0.119 A  
BRANCH  11  14
HETATM   14  C   UNL     1      -6.879  12.101  69.338  1.00  0.00    -0.010 C  
HETATM   15  H   UNL     1      -5.315  11.708  70.626  1.00  0.00     0.000 HD 
HETATM   16  O   UNL     1      -7.646  12.864  68.752  1.00  0.00    -0.107 OA 
HETATM   17  N   UNL     1      -5.915  12.450  70.264  1.00  0.00    -0.158 N  
BRANCH  17  18
HETATM   18  C   UNL     1      -5.703  13.733  70.737  1.00  0.00    -0.199 A  
HETATM   19  C   UNL     1      -5.889  14.942  69.987  1.00  0.00    -0.134 A  
HETATM   20  C   UNL     1      -6.315  15.308  68.697  1.00  0.00    -0.087 A  
HETATM   21  N   UNL     1      -5.273  14.005  71.969  1.00  0.00    -0.185 NA 
HETATM   22  N   UNL     1      -5.156  15.333  72.010  1.00  0.00    -0.128 NA 
HETATM   23  H   UNL     1      -5.076  13.341  72.718  1.00  0.00     0.000 HD 
HETATM   24  C   UNL     1      -6.268  16.655  68.281  1.00  0.00    -0.125 A  
HETATM   25  C   UNL     1      -5.808  17.633  69.171  1.00  0.00    -0.208 A  
HETATM   26  C   UNL     1      -5.465  15.960  70.836  1.00  0.00    -0.024 A  
HETATM   27  C   UNL     1      -5.407  17.306  70.471  1.00  0.00    -0.253 A  
BRANCH  24  28
HETATM   28  C   UNL     1      -6.764  17.047  66.904  1.00  0.00    -0.252 C  
BRANCH  28  29
HETATM   29  C   UNL     1      -8.265  17.003  66.691  1.00  0.00    -0.295 A  
HETATM   30  C   UNL     1      -9.145  17.981  67.178  1.00  0.00    -0.256 A  
HETATM   31  C   UNL     1     -10.506  17.920  66.882  1.00  0.00    -0.329 A  
HETATM   32  F   UNL     1     -11.320  18.879  67.343  1.00  0.00    -0.407 F  
HETATM   33  C   UNL     1     -11.031  16.894  66.112  1.00  0.00     0.157 A  
HETATM   34  C   UNL     1     -10.171  15.910  65.651  1.00  0.00    -0.379 A  
HETATM   35  C   UNL     1      -8.805  15.953  65.930  1.00  0.00    -0.168 A  
HETATM   36  F   UNL     1     -10.657  14.904  64.912  1.00  0.00    -0.373 F  
ENDBRANCH  28  29
ENDBRANCH  24  28
ENDBRANCH  17  18
ENDBRANCH  11  14
BRANCH  12  37
HETATM   37  N   UNL     1      -9.399  10.499  69.229  1.00  0.00    -0.313 NA 
HETATM   38  H   UNL     1      -9.468  11.183  69.983  1.00  0.00     0.000 HD 
BRANCH  37  39
HETATM   39  C   UNL     1     -10.613  10.170  68.463  1.00  0.00    -0.216 C  
HETATM   40  C   UNL     1     -10.365   9.506  67.105  1.00  0.00    -0.320 C  
HETATM   41  O   UNL     1     -10.729  11.627  65.967  1.00  0.00    -0.264 OA 
HETATM   42  C   UNL     1     -10.801  12.338  67.201  1.00  0.00    -0.244 C  
HETATM   43  C   UNL     1     -11.424  11.449  68.265  1.00  0.00    -0.369 C  
HETATM   44  C   UNL     1      -9.873  10.490  66.054  1.00  0.00    -0.222 C  
ENDBRANCH  37  39
ENDBRANCH  12  37
ENDBRANCH   5   8
TORSDOF 7
ENDMDL
MODEL      119
REMARK 921   NORMALIZED FREE ENERGY PREDICTED BY IDOCK:   -3.43 KCAL/MOL
REMARK 922        TOTAL FREE ENERGY PREDICTED BY IDOCK:   -7.36 KCAL/MOL
REMARK 923 INTER-LIGAND FREE ENERGY PREDICTED BY IDOCK:   -5.22 KCAL/MOL
REMARK 924 INTRA-LIGAND FREE ENERGY PREDICTED BY IDOCK:   -2.13 KCAL/MOL
REMARK 927      BINDING AFFINITY PREDICTED BY RF-SCORE:    0.00 PKD
ROOT
HETATM    1  C   UNL     1     -12.773   5.419  72.348  1.00  0.00     0.916 C  
HETATM    2  N   UNL     1     -11.327   5.309  72.523  1.00  0.00    -0.218 NA 
HETATM    3  C   UNL     1     -10.644   5.134  71.220  1.00  0.00    -0.133 C  
HETATM    4  C   UNL     1     -10.606   6.404  70.343  1.00  0.00    -0.241 C  
HETATM    5  N   UNL     1      -9.963   7.497  71.101  1.00  0.00    -0.181 NA 
HETATM    6  C   UNL     1     -10.662   7.796  72.360  1.00  0.00    -0.290 C  
HETATM    7  C   UNL     1     -10.769   6.501  73.209  1.00  0.00    -0.274 C  
ENDROOT
BRANCH   5   8
HETATM    8  C   UNL     1      -9.088   8.368  70.480  1.00  0.00    -0.150 A  
HETATM    9  C   UNL     1      -8.142   9.135  71.153  1.00  0.00    -0.136 A  
HETATM   10  C   UNL     1      -7.329  10.045  70.465  1.00  0.00    -0.007 A  
HETATM   11  C   UNL     1      -7.447  10.219  69.074  1.00  0.00    -0.097 A  
HETATM   12  C   UNL     1      -8.319   9.398  68.338  1.00  0.00    -0.119 A  
HETATM   13  C   UNL     1      -9.096   8.491  69.078  1.00  0.00    -0.146 A  
BRANCH  11  14
HETATM   14  C   UNL     1      -6.633  11.318  68.471  1.00  0.00    -0.060 C  
HETATM   15  H   UNL     1      -7.970  12.702  69.216  1.00  0.00     0.000 HD 
HETATM   16  O   UNL     1      -5.595  11.006  67.888  1.00  0.00    -0.043 OA 
HETATM   17  N   UNL     1      -7.119  12.597  68.663  1.00  0.00    -0.093 N  
BRANCH  17  18
HETATM   18  C   UNL     1      -6.536  13.746  68.159  1.00  0.00    -0.124 A  
HETATM   19  C   UNL     1      -7.167  15.031  68.059  1.00  0.00    -0.140 A  
HETATM   20  C   UNL     1      -8.409  15.605  68.388  1.00  0.00    -0.162 A  
HETATM   21  N   UNL     1      -5.293  13.794  67.677  1.00  0.00    -0.324 NA 
HETATM   22  N   UNL     1      -5.133  15.049  67.255  1.00  0.00    -0.233 NA 
HETATM   23  H   UNL     1      -4.613  13.035  67.640  1.00  0.00     0.000 HD 
HETATM   24  C   UNL     1      -8.701  16.938  68.030  1.00  0.00    -0.215 A  
HETATM   25  C   UNL     1      -7.735  17.695  67.355  1.00  0.00    -0.214 A  
HETATM   26  C   UNL     1      -6.238  15.838  67.411  1.00  0.00    -0.109 A  
HETATM   27  C   UNL     1      -6.480  17.163  67.042  1.00  0.00    -0.225 A  
BRANCH  24  28
HETATM   28  C   UNL     1     -10.024  17.561  68.421  1.00  0.00    -0.335 C  
BRANCH  28  29
HETATM   29  C   UNL     1     -10.888  16.763  69.379  1.00  0.00    -0.250 A  
HETATM   30  C   UNL     1     -11.679  15.674  68.984  1.00  0.00    -0.408 A  
HETATM   31  C   UNL     1     -12.393  14.937  69.928  1.00  0.00    -0.280 A  
HETATM   32  F   UNL     1     -13.123  13.889  69.525  1.00  0.00     0.027 F  
HETATM   33  C   UNL     1     -12.352  15.260  71.275  1.00  0.00    -0.424 A  
HETATM   34  C   UNL     1     -11.594  16.352  71.668  1.00  0.00    -0.265 A  
HETATM   35  C   UNL     1     -10.869  17.101  70.742  1.00  0.00     0.973 A  
HETATM   36  F   UNL     1     -11.546  16.689  72.964  1.00  0.00    -0.528 F  
ENDBRANCH  28  29
ENDBRANCH  24  28
ENDBRANCH  17  18
ENDBRANCH  11  14
BRANCH  12  37
HETATM   37  N   UNL     1      -8.478   9.524  66.952  1.00  0.00    -0.127 NA 
HETATM   38  H   UNL     1      -9.007  10.319  66.593  1.00  0.00     0.000 HD 
BRANCH  37  39
HETATM   39  C   UNL     1      -7.916   8.559  65.992  1.00  0.00    -0.107 C  
HETATM   40  C   UNL     1      -6.469   8.828  65.572  1.00  0.00    -0.063 C  
HETATM   41  O   UNL     1      -7.226   9.825  63.485  1.00  0.00    -0.109 OA 
HETATM   42  C   UNL     1      -8.593   9.760  63.888  1.00  0.00    -0.199 C  
HETATM   43  C   UNL     1      -8.810   8.530  64.754  1.00  0.00     0.017 C  
HETATM   44  C   UNL     1      -6.348   9.989  64.596  1.00  0.00    -0.125 C  
ENDBRANCH  37  39
ENDBRANCH  12  37
ENDBRANCH   5   8
TORSDOF 7
ENDMDL
MODEL      120
REMARK 921   NORMALIZED FREE ENERGY PREDICTED BY IDOCK:   -3.42 KCAL/MOL
REMARK 922        TOTAL FREE ENERGY PREDICTED BY IDOCK:   -7.34 KCAL/MOL
REMARK 923 INTER-LIGAND FREE ENERGY PREDICTED BY IDOCK:   -7.72 KCAL/MOL
REMARK 924 INTRA-LIGAND FREE ENERGY PREDICTED BY IDOCK:    0.38 KCAL/MOL
REMARK 927      BINDING AFFINITY PREDICTED BY RF-SCORE:    0.00 PKD
ROOT
HETATM    1  C   UNL     1      -9.853  20.400  66.514  1.00  0.00    -0.317 C  
HETATM    2  N   UNL     1     -10.480  19.565  67.536  1.00  0.00    -0.447 NA 
HETATM    3  C   UNL     1     -10.789  18.217  67.006  1.00  0.00    -0.164 C  
HETATM    4  C   UNL     1      -9.555  17.315  66.793  1.00  0.00    -0.272 C  
HETATM    5  N   UNL     1      -8.817  17.194  68.068  1.00  0.00    -0.224 NA 
HETATM    6  C   UNL     1      -8.383  18.496  68.593  1.00  0.00    -0.304 C  
HETATM    7  C   UNL     1      -9.614  19.430  68.735  1.00  0.00    -0.432 C  
ENDROOT
BRANCH   5   8
HETATM    8  C   UNL     1      -8.270  15.985  68.454  1.00  0.00    -0.165 A  
HETATM    9  C   UNL     1      -6.916  15.789  68.710  1.00  0.00    -0.124 A  
HETATM   10  C   UNL     1      -6.419  14.520  69.037  1.00  0.00    -0.099 A  
HETATM   11  C   UNL     1      -7.270  13.403  69.109  1.00  0.00     0.041 A  
HETATM   12  C   UNL     1      -8.657  13.569  68.954  1.00  0.00     0.212 A  
HETATM   13  C   UNL     1      -9.100  14.865  68.646  1.00  0.00    -0.185 A  
BRANCH  11  14
HETATM   14  C   UNL     1      -6.610  12.078  69.322  1.00  0.00    -0.109 C  
HETATM   15  H   UNL     1      -8.363  11.131  68.781  1.00  0.00     0.000 HD 
HETATM   16  O   UNL     1      -5.423  12.078  69.644  1.00  0.00    -0.068 OA 
HETATM   17  N   UNL     1      -7.406  10.971  69.097  1.00  0.00    -0.116 N  
BRANCH  17  18
HETATM   18  C   UNL     1      -6.998   9.659  69.269  1.00  0.00    -0.055 A  
HETATM   19  C   UNL     1      -7.576   8.717  70.183  1.00  0.00    -0.069 A  
HETATM   20  C   UNL     1      -8.630   8.687  71.114  1.00  0.00    -0.224 A  
HETATM   21  N   UNL     1      -5.983   9.108  68.604  1.00  0.00    -0.044 NA 
HETATM   22  N   UNL     1      -5.886   7.868  69.086  1.00  0.00    -0.030 NA 
HETATM   23  H   UNL     1      -5.405   9.541  67.883  1.00  0.00     0.000 HD 
HETATM   24  C   UNL     1      -8.837   7.554  71.929  1.00  0.00    -0.134 A  
HETATM   25  C   UNL     1      -7.991   6.446  71.792  1.00  0.00    -0.105 A  
HETATM   26  C   UNL     1      -6.784   7.578  70.074  1.00  0.00    -0.046 A  
HETATM   27  C   UNL     1      -6.954   6.433  70.853  1.00  0.00    -0.068 A  
BRANCH  24  28
HETATM   28  C   UNL     1      -9.996   7.514  72.903  1.00  0.00    -0.303 C  
BRANCH  28  29
HETATM   29  C   UNL     1     -11.345   7.952  72.363  1.00  0.00    -0.427 A  
HETATM   30  C   UNL     1     -12.249   7.079  71.739  1.00  0.00    -0.387 A  
HETATM   31  C   UNL     1     -13.503   7.531  71.331  1.00  0.00    -0.317 A  
HETATM   32  F   UNL     1     -14.354   6.671  70.756  1.00  0.00     0.005 F  
HETATM   33  C   UNL     1     -13.891   8.848  71.521  1.00  0.00    -0.388 A  
HETATM   34  C   UNL     1     -12.992   9.721  72.113  1.00  0.00    -0.394 A  
HETATM   35  C   UNL     1     -11.734   9.291  72.531  1.00  0.00     0.335 A  
HETATM   36  F   UNL     1     -13.342  11.001  72.298  1.00  0.00    -0.575 F  
ENDBRANCH  28  29
ENDBRANCH  24  28
ENDBRANCH  17  18
ENDBRANCH  11  14
BRANCH  12  37
HETATM   37  N   UNL     1      -9.553  12.494  69.016  1.00  0.00    -0.338 NA 
HETATM   38  H   UNL     1      -9.315  11.694  69.603  1.00  0.00     0.000 HD 
BRANCH  37  39
HETATM   39  C   UNL     1     -10.824  12.468  68.272  1.00  0.00    -0.234 C  
HETATM   40  C   UNL     1     -11.281  13.821  67.720  1.00  0.00    -0.312 C  
HETATM   41  O   UNL     1     -12.851  14.079  69.563  1.00  0.00     0.051 OA 
HETATM   42  C   UNL     1     -12.352  12.915  70.220  1.00  0.00    -0.223 C  
HETATM   43  C   UNL     1     -11.909  11.896  69.183  1.00  0.00    -0.371 C  
HETATM   44  C   UNL     1     -11.841  14.735  68.799  1.00  0.00    -0.296 C  
ENDBRANCH  37  39
ENDBRANCH  12  37
ENDBRANCH   5   8
TORSDOF 7
ENDMDL
MODEL      121
REMARK 921   NORMALIZED FREE ENERGY PREDICTED BY IDOCK:   -3.09 KCAL/MOL
REMARK 922        TOTAL FREE ENERGY PREDICTED BY IDOCK:   -6.88 KCAL/MOL
REMARK 923 INTER-LIGAND FREE ENERGY PREDICTED BY IDOCK:   -6.23 KCAL/MOL
REMARK 924 INTRA-LIGAND FREE ENERGY PREDICTED BY IDOCK:   -0.65 KCAL/MOL
REMARK 927      BINDING AFFINITY PREDICTED BY RF-SCORE:    0.00 PKD
ROOT
HETATM    1  C   UNL     1      -9.328   2.471  63.678  1.00  0.00    -0.103 C  
HETATM    2  N   UNL     1      -8.551   2.715  64.890  1.00  0.00    -0.095 NA 
HETATM    3  C   UNL     1      -7.992   4.086  64.898  1.00  0.00    -0.093 C  
HETATM    4  C   UNL     1      -9.031   5.200  65.144  1.00  0.00    -0.126 C  
HETATM    5  N   UNL     1      -9.729   4.938  66.420  1.00  0.00    -0.168 NA 
HETATM    6  C   UNL     1     -10.402   3.632  66.436  1.00  0.00     0.912 C  
HETATM    7  C   UNL     1      -9.371   2.517  66.112  1.00  0.00     0.048 C  
ENDROOT
BRANCH   5   8
HETATM    8  C   UNL     1     -10.035   5.974  67.282  1.00  0.00    -0.150 A  
HETATM    9  C   UNL     1     -11.303   6.534  67.410  1.00  0.00    -0.116 A  
HETATM   10  C   UNL     1     -11.528   7.625  68.259  1.00  0.00     0.917 A  
HETATM   11  C   UNL     1     -10.481   8.195  69.005  1.00  0.00    -0.211 A  
HETATM   12  C   UNL     1      -9.206   7.604  68.984  1.00  0.00    -0.140 A  
HETATM   13  C   UNL     1      -9.043   6.502  68.129  1.00  0.00    -0.114 A  
BRANCH  11  14
HETATM   14  C   UNL     1     -10.807   9.442  69.762  1.00  0.00    -0.232 C  
HETATM   15  H   UNL     1     -12.660   8.660  70.229  1.00  0.00     0.000 HD 
HETATM   16  O   UNL     1      -9.936  10.307  69.839  1.00  0.00    -0.222 OA 
HETATM   17  N   UNL     1     -12.064   9.481  70.336  1.00  0.00    -0.086 N  
BRANCH  17  18
HETATM   18  C   UNL     1     -12.572  10.553  71.048  1.00  0.00    -0.400 A  
HETATM   19  C   UNL     1     -12.408  11.937  70.706  1.00  0.00    -0.416 A  
HETATM   20  C   UNL     1     -11.805  12.688  69.681  1.00  0.00    -0.379 A  
HETATM   21  N   UNL     1     -13.275  10.427  72.174  1.00  0.00    -0.562 NA 
HETATM   22  N   UNL     1     -13.533  11.676  72.564  1.00  0.00     0.069 NA 
HETATM   23  H   UNL     1     -13.554   9.562  72.637  1.00  0.00     0.000 HD 
HETATM   24  C   UNL     1     -11.773  14.097  69.747  1.00  0.00    -0.370 A  
HETATM   25  C   UNL     1     -12.364  14.747  70.838  1.00  0.00    -0.388 A  
HETATM   26  C   UNL     1     -13.001  12.638  71.752  1.00  0.00    -0.313 A  
HETATM   27  C   UNL     1     -12.999  14.030  71.857  1.00  0.00    -0.444 A  
BRANCH  24  28
HETATM   28  C   UNL     1     -11.155  14.901  68.621  1.00  0.00    -0.272 C  
BRANCH  28  29
HETATM   29  C   UNL     1     -11.096  14.225  67.265  1.00  0.00    -0.315 A  
HETATM   30  C   UNL     1     -11.635  14.786  66.097  1.00  0.00    -0.292 A  
HETATM   31  C   UNL     1     -11.482  14.146  64.868  1.00  0.00    -0.366 A  
HETATM   32  F   UNL     1     -11.989  14.715  63.766  1.00  0.00    -0.331 F  
HETATM   33  C   UNL     1     -10.805  12.941  64.762  1.00  0.00    -0.350 A  
HETATM   34  C   UNL     1     -10.294  12.369  65.916  1.00  0.00    -0.257 A  
HETATM   35  C   UNL     1     -10.432  12.992  67.156  1.00  0.00    -0.243 A  
HETATM   36  F   UNL     1      -9.644  11.200  65.840  1.00  0.00    -0.206 F  
ENDBRANCH  28  29
ENDBRANCH  24  28
ENDBRANCH  17  18
ENDBRANCH  11  14
BRANCH  12  37
HETATM   37  N   UNL     1      -8.125   8.126  69.706  1.00  0.00    -0.114 NA 
HETATM   38  H   UNL     1      -7.906   7.721  70.617  1.00  0.00     0.000 HD 
BRANCH  37  39
HETATM   39  C   UNL     1      -7.290   9.233  69.208  1.00  0.00    -0.070 C  
HETATM   40  C   UNL     1      -7.301   9.422  67.688  1.00  0.00    -0.084 C  
HETATM   41  O   UNL     1      -5.160   8.280  67.500  1.00  0.00    -0.031 OA 
HETATM   42  C   UNL     1      -5.169   7.921  68.880  1.00  0.00    -0.023 C  
HETATM   43  C   UNL     1      -5.857   9.012  69.685  1.00  0.00    -0.033 C  
HETATM   44  C   UNL     1      -6.477   8.370  66.962  1.00  0.00    -0.057 C  
ENDBRANCH  37  39
ENDBRANCH  12  37
ENDBRANCH   5   8
TORSDOF 7
ENDMDL
MODEL      122
REMARK 921   NORMALIZED FREE ENERGY PREDICTED BY IDOCK:   -3.08 KCAL/MOL
REMARK 922        TOTAL FREE ENERGY PREDICTED BY IDOCK:   -6.86 KCAL/MOL
REMARK 923 INTER-LIGAND FREE ENERGY PREDICTED BY IDOCK:   -5.89 KCAL/MOL
REMARK 924 INTRA-LIGAND FREE ENERGY PREDICTED BY IDOCK:   -0.97 KCAL/MOL
REMARK 927      BINDING AFFINITY PREDICTED BY RF-SCORE:    0.00 PKD
ROOT
HETATM    1  C   UNL     1      -9.420  16.454  67.090  1.00  0.00    -0.231 C  
HETATM    2  N   UNL     1     -10.253  15.426  67.710  1.00  0.00    -0.238 NA 
HETATM    3  C   UNL     1     -10.843  14.530  66.690  1.00  0.00    -0.311 C  
HETATM    4  C   UNL     1      -9.840  13.555  66.037  1.00  0.00    -0.265 C  
HETATM    5  N   UNL     1      -9.190  12.751  67.093  1.00  0.00    -0.212 NA 
HETATM    6  C   UNL     1      -8.488  13.580  68.083  1.00  0.00    -0.172 C  
HETATM    7  C   UNL     1      -9.480  14.613  68.683  1.00  0.00    -0.211 C  
ENDROOT
BRANCH   5   8
HETATM    8  C   UNL     1      -8.943  11.404  66.903  1.00  0.00    -0.171 A  
HETATM    9  C   UNL     1      -7.875  10.903  66.165  1.00  0.00    -0.144 A  
HETATM   10  C   UNL     1      -7.721   9.526  65.960  1.00  0.00    -0.100 A  
HETATM   11  C   UNL     1      -8.645   8.605  66.486  1.00  0.00    -0.124 A  
HETATM   12  C   UNL     1      -9.684   9.055  67.319  1.00  0.00    -0.179 A  
HETATM   13  C   UNL     1      -9.779  10.444  67.504  1.00  0.00    -0.195 A  
BRANCH  11  14
HETATM   14  C   UNL     1      -8.462   7.177  66.083  1.00  0.00    -0.142 C  
HETATM   15  H   UNL     1     -10.506   6.987  65.871  1.00  0.00     0.000 HD 
HETATM   16  O   UNL     1      -7.311   6.751  65.999  1.00  0.00    -0.072 OA 
HETATM   17  N   UNL     1      -9.623   6.480  65.807  1.00  0.00     0.210 N  
BRANCH  17  18
HETATM   18  C   UNL     1      -9.675   5.144  65.450  1.00  0.00     0.048 A  
HETATM   19  C   UNL     1      -9.270   4.042  66.275  1.00  0.00    -0.160 A  
HETATM   20  C   UNL     1      -8.765   3.849  67.574  1.00  0.00    -0.120 A  
HETATM   21  N   UNL     1     -10.098   4.712  64.262  1.00  0.00    -0.371 NA 
HETATM   22  N   UNL     1      -9.949   3.388  64.302  1.00  0.00    -0.174 NA 
HETATM   23  H   UNL     1     -10.459   5.274  63.490  1.00  0.00     0.000 HD 
HETATM   24  C   UNL     1      -8.382   2.563  68.011  1.00  0.00    -0.088 A  
HETATM   25  C   UNL     1      -8.523   1.472  67.143  1.00  0.00    -0.093 A  
HETATM   26  C   UNL     1      -9.410   2.918  65.467  1.00  0.00    -0.084 A  
HETATM   27  C   UNL     1      -9.050   1.628  65.857  1.00  0.00    -0.049 A  
BRANCH  24  28
HETATM   28  C   UNL     1      -7.875   2.356  69.423  1.00  0.00    -0.050 C  
BRANCH  28  29
HETATM   29  C   UNL     1      -8.509   3.216  70.499  1.00  0.00    -0.099 A  
HETATM   30  C   UNL     1      -9.787   2.979  71.027  1.00  0.00    -0.083 A  
HETATM   31  C   UNL     1     -10.281   3.765  72.068  1.00  0.00    -0.086 A  
HETATM   32  F   UNL     1     -11.496   3.503  72.566  1.00  0.00     0.167 F  
HETATM   33  C   UNL     1      -9.535   4.803  72.604  1.00  0.00    -0.159 A  
HETATM   34  C   UNL     1      -8.282   5.059  72.068  1.00  0.00    -0.116 A  
HETATM   35  C   UNL     1      -7.767   4.284  71.030  1.00  0.00    -0.066 A  
HETATM   36  F   UNL     1      -7.546   6.062  72.564  1.00  0.00    -0.093 F  
ENDBRANCH  28  29
ENDBRANCH  24  28
ENDBRANCH  17  18
ENDBRANCH  11  14
BRANCH  12  37
HETATM   37  N   UNL     1     -10.633   8.185  67.872  1.00  0.00    -0.407 NA 
HETATM   38  H   UNL     1     -11.505   8.029  67.365  1.00  0.00     0.000 HD 
BRANCH  37  39
HETATM   39  C   UNL     1     -10.427   7.487  69.152  1.00  0.00    -0.215 C  
HETATM   40  C   UNL     1     -11.111   8.131  70.361  1.00  0.00    -0.239 C  
HETATM   41  O   UNL     1      -9.006   9.138  71.054  1.00  0.00    -0.221 OA 
HETATM   42  C   UNL     1      -8.348   8.712  69.863  1.00  0.00    -0.123 C  
HETATM   43  C   UNL     1      -8.926   7.380  69.411  1.00  0.00    -0.139 C  
HETATM   44  C   UNL     1     -10.394   9.384  70.840  1.00  0.00    -0.310 C  
ENDBRANCH  37  39
ENDBRANCH  12  37
ENDBRANCH   5   8
TORSDOF 7
ENDMDL
MODEL      123
REMARK 921   NORMALIZED FREE ENERGY PREDICTED BY IDOCK:   -2.75 KCAL/MOL
REMARK 922        TOTAL FREE ENERGY PREDICTED BY IDOCK:   -6.39 KCAL/MOL
REMARK 923 INTER-LIGAND FREE ENERGY PREDICTED BY IDOCK:   -5.50 KCAL/MOL
REMARK 924 INTRA-LIGAND FREE ENERGY PREDICTED BY IDOCK:   -0.89 KCAL/MOL
REMARK 927      BINDING AFFINITY PREDICTED BY RF-SCORE:    0.00 PKD
ROOT
HETATM    1  C   UNL     1      -9.896  18.361  69.724  1.00  0.00     0.647 C  
HETATM    2  N   UNL     1      -9.737  17.620  68.475  1.00  0.00    -0.313 NA 
HETATM    3  C   UNL     1      -8.678  16.592  68.597  1.00  0.00    -0.250 C  
HETATM    4  C   UNL     1      -9.065  15.373  69.461  1.00  0.00    -0.231 C  
HETATM    5  N   UNL     1     -10.295  14.762  68.914  1.00  0.00    -0.238 NA 
HETATM    6  C   UNL     1     -11.421  15.706  68.870  1.00  0.00    -0.361 C  
HETATM    7  C   UNL     1     -11.006  16.966  68.065  1.00  0.00    -0.271 C  
ENDROOT
BRANCH   5   8
HETATM    8  C   UNL     1     -10.437  13.389  68.862  1.00  0.00    -0.113 A  
HETATM    9  C   UNL     1     -11.305  12.663  69.673  1.00  0.00    -0.174 A  
HETATM   10  C   UNL     1     -11.353  11.265  69.611  1.00  0.00    -0.359 A  
HETATM   11  C   UNL     1     -10.520  10.548  68.733  1.00  0.00    -0.216 A  
HETATM   12  C   UNL     1      -9.698  11.239  67.827  1.00  0.00    -0.173 A  
HETATM   13  C   UNL     1      -9.704  12.640  67.922  1.00  0.00    -0.216 A  
BRANCH  11  14
HETATM   14  C   UNL     1     -10.553   9.058  68.856  1.00  0.00    -0.180 C  
HETATM   15  H   UNL     1      -9.684   9.205  70.723  1.00  0.00     0.000 HD 
HETATM   16  O   UNL     1     -11.064   8.420  67.937  1.00  0.00     0.083 OA 
HETATM   17  N   UNL     1     -10.027   8.543  70.026  1.00  0.00    -0.185 N  
BRANCH  17  18
HETATM   18  C   UNL     1      -9.932   7.194  70.321  1.00  0.00    -0.187 A  
HETATM   19  C   UNL     1      -9.853   6.132  69.360  1.00  0.00    -0.191 A  
HETATM   20  C   UNL     1      -9.813   5.999  67.961  1.00  0.00    -0.137 A  
HETATM   21  N   UNL     1      -9.921   6.708  71.563  1.00  0.00    -0.176 NA 
HETATM   22  N   UNL     1      -9.867   5.384  71.416  1.00  0.00    -0.161 NA 
HETATM   23  H   UNL     1      -9.948   7.236  72.436  1.00  0.00     0.000 HD 
HETATM   24  C   UNL     1      -9.833   4.723  67.359  1.00  0.00    -0.214 A  
HETATM   25  C   UNL     1      -9.877   3.582  68.171  1.00  0.00     0.072 A  
HETATM   26  C   UNL     1      -9.871   4.963  70.116  1.00  0.00    -0.239 A  
HETATM   27  C   UNL     1      -9.886   3.680  69.566  1.00  0.00     0.040 A  
BRANCH  24  28
HETATM   28  C   UNL     1      -9.752   4.587  65.853  1.00  0.00    -0.210 C  
BRANCH  28  29
HETATM   29  C   UNL     1      -8.371   4.708  65.239  1.00  0.00    -0.124 A  
HETATM   30  C   UNL     1      -7.812   5.926  64.824  1.00  0.00    -0.113 A  
HETATM   31  C   UNL     1      -6.507   5.977  64.335  1.00  0.00    -0.033 A  
HETATM   32  F   UNL     1      -5.992   7.157  63.966  1.00  0.00    -0.034 F  
HETATM   33  C   UNL     1      -5.730   4.834  64.235  1.00  0.00    -0.017 A  
HETATM   34  C   UNL     1      -6.286   3.624  64.618  1.00  0.00    -0.027 A  
HETATM   35  C   UNL     1      -7.587   3.549  65.114  1.00  0.00    -0.077 A  
HETATM   36  F   UNL     1      -5.557   2.504  64.522  1.00  0.00    -0.008 F  
ENDBRANCH  28  29
ENDBRANCH  24  28
ENDBRANCH  17  18
ENDBRANCH  11  14
BRANCH  12  37
HETATM   37  N   UNL     1      -8.848  10.579  66.930  1.00  0.00    -0.136 NA 
HETATM   38  H   UNL     1      -8.565   9.622  67.141  1.00  0.00     0.000 HD 
BRANCH  37  39
HETATM   39  C   UNL     1      -8.347  11.206  65.695  1.00  0.00     0.002 C  
HETATM   40  C   UNL     1      -9.411  11.899  64.840  1.00  0.00    -0.002 C  
HETATM   41  O   UNL     1      -9.494   9.987  63.336  1.00  0.00    -0.294 OA 
HETATM   42  C   UNL     1      -8.637   9.220  64.179  1.00  0.00    -0.188 C  
HETATM   43  C   UNL     1      -7.638  10.140  64.862  1.00  0.00    -0.138 C  
HETATM   44  C   UNL     1     -10.284  10.913  64.078  1.00  0.00    -0.357 C  
ENDBRANCH  37  39
ENDBRANCH  12  37
ENDBRANCH   5   8
TORSDOF 7
ENDMDL
MODEL      124
REMARK 921   NORMALIZED FREE ENERGY PREDICTED BY IDOCK:   -2.46 KCAL/MOL
REMARK 922        TOTAL FREE ENERGY PREDICTED BY IDOCK:   -5.99 KCAL/MOL
REMARK 923 INTER-LIGAND FREE ENERGY PREDICTED BY IDOCK:   -4.48 KCAL/MOL
REMARK 924 INTRA-LIGAND FREE ENERGY PREDICTED BY IDOCK:   -1.51 KCAL/MOL
REMARK 927      BINDING AFFINITY PREDICTED BY RF-SCORE:    0.00 PKD
ROOT
HETATM    1  C   UNL     1     -13.183  15.754  71.161  1.00  0.00    -0.229 C  
HETATM    2  N   UNL     1     -13.892  14.610  70.592  1.00  0.00     0.103 NA 
HETATM    3  C   UNL     1     -13.020  13.846  69.672  1.00  0.00     0.700 C  
HETATM    4  C   UNL     1     -11.918  13.022  70.371  1.00  0.00    -0.258 C  
HETATM    5  N   UNL     1     -12.544  12.103  71.344  1.00  0.00    -0.274 NA 
HETATM    6  C   UNL     1     -13.339  12.812  72.357  1.00  0.00    -0.373 C  
HETATM    7  C   UNL     1     -14.398  13.700  71.651  1.00  0.00     0.239 C  
ENDROOT
BRANCH   5   8
HETATM    8  C   UNL     1     -12.077  10.811  71.496  1.00  0.00    -0.102 A  
HETATM    9  C   UNL     1     -12.748   9.818  72.203  1.00  0.00    -0.410 A  
HETATM   10  C   UNL     1     -12.186   8.546  72.370  1.00  0.00    -0.432 A  
HETATM   11  C   UNL     1     -10.923   8.233  71.836  1.00  0.00    -0.354 A  
HETATM   12  C   UNL     1     -10.251   9.171  71.033  1.00  0.00    -0.302 A  
HETATM   13  C   UNL     1     -10.870  10.423  70.885  1.00  0.00     0.196 A  
BRANCH  11  14
HETATM   14  C   UNL     1     -10.361   6.896  72.199  1.00  0.00    -0.199 C  
HETATM   15  H   UNL     1      -9.275   6.888  70.444  1.00  0.00     0.000 HD 
HETATM   16  O   UNL     1     -10.687   6.416  73.284  1.00  0.00    -0.248 OA 
HETATM   17  N   UNL     1      -9.490   6.343  71.279  1.00  0.00    -0.166 N  
BRANCH  17  18
HETATM   18  C   UNL     1      -8.889   5.103  71.409  1.00  0.00    -0.133 A  
HETATM   19  C   UNL     1      -8.828   4.093  70.393  1.00  0.00    -0.137 A  
HETATM   20  C   UNL     1      -9.240   3.939  69.057  1.00  0.00    -0.217 A  
HETATM   21  N   UNL     1      -8.298   4.682  72.527  1.00  0.00    -0.113 NA 
HETATM   22  N   UNL     1      -7.895   3.440  72.260  1.00  0.00    -0.058 NA 
HETATM   23  H   UNL     1      -8.180   5.199  73.400  1.00  0.00     0.000 HD 
HETATM   24  C   UNL     1      -9.076   2.705  68.392  1.00  0.00    -0.224 A  
HETATM   25  C   UNL     1      -8.481   1.633  69.071  1.00  0.00    -0.081 A  
HETATM   26  C   UNL     1      -8.222   3.002  71.008  1.00  0.00    -0.057 A  
HETATM   27  C   UNL     1      -8.033   1.764  70.389  1.00  0.00    -0.050 A  
BRANCH  24  28
HETATM   28  C   UNL     1      -9.487   2.558  66.942  1.00  0.00     0.059 C  
BRANCH  28  29
HETATM   29  C   UNL     1      -8.619   3.267  65.920  1.00  0.00    -0.120 A  
HETATM   30  C   UNL     1      -7.369   3.827  66.222  1.00  0.00    -0.075 A  
HETATM   31  C   UNL     1      -6.588   4.400  65.218  1.00  0.00    -0.047 A  
HETATM   32  F   UNL     1      -5.390   4.909  65.531  1.00  0.00    -0.011 F  
HETATM   33  C   UNL     1      -7.024   4.444  63.903  1.00  0.00    -0.045 A  
HETATM   34  C   UNL     1      -8.270   3.916  63.604  1.00  0.00    -0.090 A  
HETATM   35  C   UNL     1      -9.065   3.334  64.590  1.00  0.00    -0.135 A  
HETATM   36  F   UNL     1      -8.715   3.954  62.341  1.00  0.00    -0.081 F  
ENDBRANCH  28  29
ENDBRANCH  24  28
ENDBRANCH  17  18
ENDBRANCH  11  14
BRANCH  12  37
HETATM   37  N   UNL     1      -8.992   8.916  70.474  1.00  0.00    -0.174 NA 
HETATM   38  H   UNL     1      -8.455   8.122  70.824  1.00  0.00     0.000 HD 
BRANCH  37  39
HETATM   39  C   UNL     1      -8.410   9.743  69.403  1.00  0.00    -0.152 C  
HETATM   40  C   UNL     1      -9.005   9.516  68.011  1.00  0.00    -0.123 C  
HETATM   41  O   UNL     1      -7.105   8.124  67.392  1.00  0.00    -0.079 OA 
HETATM   42  C   UNL     1      -6.584   8.155  68.720  1.00  0.00    -0.053 C  
HETATM   43  C   UNL     1      -6.904   9.495  69.362  1.00  0.00    -0.049 C  
HETATM   44  C   UNL     1      -8.528   8.218  67.375  1.00  0.00    -0.125 C  
ENDBRANCH  37  39
ENDBRANCH  12  37
ENDBRANCH   5   8
TORSDOF 7
ENDMDL
MODEL      125
REMARK 921   NORMALIZED FREE ENERGY PREDICTED BY IDOCK:   -2.27 KCAL/MOL
REMARK 922        TOTAL FREE ENERGY PREDICTED BY IDOCK:   -5.72 KCAL/MOL
REMARK 923 INTER-LIGAND FREE ENERGY PREDICTED BY IDOCK:   -5.48 KCAL/MOL
REMARK 924 INTRA-LIGAND FREE ENERGY PREDICTED BY IDOCK:   -0.24 KCAL/MOL
REMARK 927      BINDING AFFINITY PREDICTED BY RF-SCORE:    0.00 PKD
ROOT
HETATM    1  C   UNL     1     -10.254  18.813  68.378  1.00  0.00    -0.361 C  
HETATM    2  N   UNL     1     -10.609  17.968  67.241  1.00  0.00    -0.373 NA 
HETATM    3  C   UNL     1      -9.417  17.281  66.695  1.00  0.00    -0.265 C  
HETATM    4  C   UNL     1      -8.872  16.141  67.582  1.00  0.00    -0.186 C  
HETATM    5  N   UNL     1      -9.949  15.158  67.822  1.00  0.00    -0.224 NA 
HETATM    6  C   UNL     1     -11.126  15.757  68.468  1.00  0.00    -0.335 C  
HETATM    7  C   UNL     1     -11.627  16.953  67.615  1.00  0.00     0.598 C  
ENDROOT
BRANCH   5   8
HETATM    8  C   UNL     1      -9.681  13.802  67.815  1.00  0.00    -0.230 A  
HETATM    9  C   UNL     1      -9.840  12.969  68.918  1.00  0.00     0.132 A  
HETATM   10  C   UNL     1      -9.488  11.614  68.857  1.00  0.00     0.014 A  
HETATM   11  C   UNL     1      -8.957  11.053  67.682  1.00  0.00    -0.142 A  
HETATM   12  C   UNL     1      -8.869  11.830  66.514  1.00  0.00    -0.183 A  
HETATM   13  C   UNL     1      -9.252  13.176  66.629  1.00  0.00    -0.220 A  
BRANCH  11  14
HETATM   14  C   UNL     1      -8.484   9.638  67.778  1.00  0.00    -0.125 C  
HETATM   15  H   UNL     1      -7.389  10.130  69.457  1.00  0.00     0.000 HD 
HETATM   16  O   UNL     1      -8.919   8.834  66.954  1.00  0.00    -0.127 OA 
HETATM   17  N   UNL     1      -7.619   9.366  68.820  1.00  0.00    -0.078 N  
BRANCH  17  18
HETATM   18  C   UNL     1      -7.041   8.132  69.064  1.00  0.00    -0.062 A  
HETATM   19  C   UNL     1      -7.446   7.206  70.083  1.00  0.00    -0.089 A  
HETATM   20  C   UNL     1      -8.434   7.128  71.080  1.00  0.00    -0.121 A  
HETATM   21  N   UNL     1      -6.003   7.653  68.378  1.00  0.00    -0.031 NA 
HETATM   22  N   UNL     1      -5.726   6.479  68.944  1.00  0.00    -0.016 NA 
HETATM   23  H   UNL     1      -5.525   8.091  67.590  1.00  0.00     0.000 HD 
HETATM   24  C   UNL     1      -8.452   6.049  71.990  1.00  0.00    -0.121 A  
HETATM   25  C   UNL     1      -7.483   5.044  71.882  1.00  0.00    -0.090 A  
HETATM   26  C   UNL     1      -6.524   6.166  70.008  1.00  0.00    -0.039 A  
HETATM   27  C   UNL     1      -6.506   5.077  70.881  1.00  0.00    -0.027 A  
BRANCH  24  28
HETATM   28  C   UNL     1      -9.541   5.952  73.038  1.00  0.00    -0.158 C  
BRANCH  28  29
HETATM   29  C   UNL     1     -10.866   6.605  72.695  1.00  0.00    -0.279 A  
HETATM   30  C   UNL     1     -12.040   5.883  72.433  1.00  0.00    -0.135 A  
HETATM   31  C   UNL     1     -13.243   6.548  72.196  1.00  0.00     0.183 A  
HETATM   32  F   UNL     1     -14.353   5.834  71.969  1.00  0.00     0.095 F  
HETATM   33  C   UNL     1     -13.315   7.933  72.204  1.00  0.00    -0.165 A  
HETATM   34  C   UNL     1     -12.153   8.651  72.436  1.00  0.00    -0.345 A  
HETATM   35  C   UNL     1     -10.939   8.008  72.678  1.00  0.00    -0.448 A  
HETATM   36  F   UNL     1     -12.196   9.990  72.440  1.00  0.00    -0.265 F  
ENDBRANCH  28  29
ENDBRANCH  24  28
ENDBRANCH  17  18
ENDBRANCH  11  14
BRANCH  12  37
HETATM   37  N   UNL     1      -8.350  11.326  65.315  1.00  0.00    -0.371 NA 
HETATM   38  H   UNL     1      -7.338  11.325  65.185  1.00  0.00     0.000 HD 
BRANCH  37  39
HETATM   39  C   UNL     1      -9.200  10.797  64.235  1.00  0.00    -0.218 C  
HETATM   40  C   UNL     1      -9.537  11.797  63.125  1.00  0.00    -0.265 C  
HETATM   41  O   UNL     1     -11.736  12.180  64.097  1.00  0.00    -0.357 OA 
HETATM   42  C   UNL     1     -11.424  11.395  65.246  1.00  0.00     0.083 C  
HETATM   43  C   UNL     1     -10.491  10.262  64.850  1.00  0.00     0.007 C  
HETATM   44  C   UNL     1     -10.581  12.817  63.554  1.00  0.00    -0.136 C  
ENDBRANCH  37  39
ENDBRANCH  12  37
ENDBRANCH   5   8
TORSDOF 7
ENDMDL
MODEL      126
REMARK 921   NORMALIZED FREE ENERGY PREDICTED BY IDOCK:   -2.19 KCAL/MOL
REMARK 922        TOTAL FREE ENERGY PREDICTED BY IDOCK:   -5.60 KCAL/MOL
REMARK 923 INTER-LIGAND FREE ENERGY PREDICTED BY IDOCK:   -5.90 KCAL/MOL
REMARK 924 INTRA-LIGAND FREE ENERGY PREDICTED BY IDOCK:    0.29 KCAL/MOL
REMARK 927      BINDING AFFINITY PREDICTED BY RF-SCORE:    0.00 PKD
ROOT
HETATM    1  C   UNL     1     -10.498  18.257  66.385  1.00  0.00    -0.366 C  
HETATM    2  N   UNL     1     -10.229  17.190  65.424  1.00  0.00    -0.612 NA 
HETATM    3  C   UNL     1      -8.873  16.628  65.618  1.00  0.00     0.364 C  
HETATM    4  C   UNL     1      -8.718  15.752  66.879  1.00  0.00    -0.244 C  
HETATM    5  N   UNL     1      -9.711  14.659  66.836  1.00  0.00    -0.234 NA 
HETATM    6  C   UNL     1     -11.092  15.155  66.755  1.00  0.00    -0.307 C  
HETATM    7  C   UNL     1     -11.229  16.097  65.529  1.00  0.00     0.053 C  
ENDROOT
BRANCH   5   8
HETATM    8  C   UNL     1      -9.373  13.382  67.244  1.00  0.00    -0.233 A  
HETATM    9  C   UNL     1      -9.894  12.220  66.682  1.00  0.00    -0.230 A  
HETATM   10  C   UNL     1      -9.555  10.959  67.187  1.00  0.00    -0.187 A  
HETATM   11  C   UNL     1      -8.684  10.825  68.283  1.00  0.00    -0.136 A  
HETATM   12  C   UNL     1      -8.057  11.962  68.822  1.00  0.00    -0.021 A  
HETATM   13  C   UNL     1      -8.421  13.198  68.264  1.00  0.00    -0.161 A  
BRANCH  11  14
HETATM   14  C   UNL     1      -8.509   9.443  68.828  1.00  0.00    -0.122 C  
HETATM   15  H   UNL     1      -9.417  10.034  70.585  1.00  0.00     0.000 HD 
HETATM   16  O   UNL     1      -8.005   8.599  68.089  1.00  0.00    -0.105 OA 
HETATM   17  N   UNL     1      -8.972   9.245  70.115  1.00  0.00    -0.194 N  
BRANCH  17  18
HETATM   18  C   UNL     1      -8.876   8.053  70.812  1.00  0.00    -0.139 A  
HETATM   19  C   UNL     1      -9.168   6.751  70.286  1.00  0.00    -0.156 A  
HETATM   20  C   UNL     1      -9.574   6.194  69.060  1.00  0.00    -0.144 A  
HETATM   21  N   UNL     1      -8.510   7.973  72.092  1.00  0.00    -0.132 NA 
HETATM   22  N   UNL     1      -8.589   6.677  72.394  1.00  0.00    -0.125 NA 
HETATM   23  H   UNL     1      -8.231   8.739  72.707  1.00  0.00     0.000 HD 
HETATM   24  C   UNL     1      -9.861   4.816  68.957  1.00  0.00    -0.239 A  
HETATM   25  C   UNL     1      -9.723   4.000  70.087  1.00  0.00    -0.265 A  
HETATM   26  C   UNL     1      -9.024   5.887  71.368  1.00  0.00    -0.140 A  
HETATM   27  C   UNL     1      -9.291   4.518  71.312  1.00  0.00    -0.209 A  
BRANCH  24  28
HETATM   28  C   UNL     1     -10.261   4.217  67.625  1.00  0.00     0.135 C  
BRANCH  28  29
HETATM   29  C   UNL     1      -9.277   4.393  66.484  1.00  0.00    -0.145 A  
HETATM   30  C   UNL     1      -9.664   4.682  65.167  1.00  0.00    -0.120 A  
HETATM   31  C   UNL     1      -8.704   4.905  64.180  1.00  0.00    -0.124 A  
HETATM   32  F   UNL     1      -9.102   5.199  62.935  1.00  0.00    -0.117 F  
HETATM   33  C   UNL     1      -7.349   4.839  64.464  1.00  0.00    -0.067 A  
HETATM   34  C   UNL     1      -6.962   4.527  65.757  1.00  0.00    -0.063 A  
HETATM   35  C   UNL     1      -7.903   4.305  66.762  1.00  0.00    -0.097 A  
HETATM   36  F   UNL     1      -5.658   4.450  66.054  1.00  0.00    -0.015 F  
ENDBRANCH  28  29
ENDBRANCH  24  28
ENDBRANCH  17  18
ENDBRANCH  11  14
BRANCH  12  37
HETATM   37  N   UNL     1      -7.181  11.891  69.912  1.00  0.00    -0.179 NA 
HETATM   38  H   UNL     1      -7.522  11.488  70.786  1.00  0.00     0.000 HD 
BRANCH  37  39
HETATM   39  C   UNL     1      -5.790  12.371  69.853  1.00  0.00    -0.139 C  
HETATM   40  C   UNL     1      -5.180  12.762  71.202  1.00  0.00    -0.170 C  
HETATM   41  O   UNL     1      -5.571  15.119  70.731  1.00  0.00    -0.138 OA 
HETATM   42  C   UNL     1      -6.301  14.815  69.545  1.00  0.00    -0.127 C  
HETATM   43  C   UNL     1      -5.728  13.563  68.900  1.00  0.00    -0.074 C  
HETATM   44  C   UNL     1      -5.701  14.096  71.716  1.00  0.00    -0.173 C  
ENDBRANCH  37  39
ENDBRANCH  12  37
ENDBRANCH   5   8
TORSDOF 7
ENDMDL
MODEL      127
REMARK 921   NORMALIZED FREE ENERGY PREDICTED BY IDOCK:   -2.09 KCAL/MOL
REMARK 922        TOTAL FREE ENERGY PREDICTED BY IDOCK:   -5.47 KCAL/MOL
REMARK 923 INTER-LIGAND FREE ENERGY PREDICTED BY IDOCK:   -4.35 KCAL/MOL
REMARK 924 INTRA-LIGAND FREE ENERGY PREDICTED BY IDOCK:   -1.11 KCAL/MOL
REMARK 927      BINDING AFFINITY PREDICTED BY RF-SCORE:    0.00 PKD
ROOT
HETATM    1  C   UNL     1      -6.969  16.968  67.183  1.00  0.00    -0.179 C  
HETATM    2  N   UNL     1      -7.363  16.084  68.277  1.00  0.00    -0.125 NA 
HETATM    3  C   UNL     1      -8.547  15.275  67.910  1.00  0.00    -0.152 C  
HETATM    4  C   UNL     1      -8.264  14.153  66.889  1.00  0.00     0.036 C  
HETATM    5  N   UNL     1      -7.202  13.272  67.419  1.00  0.00    -0.146 NA 
HETATM    6  C   UNL     1      -5.956  13.999  67.702  1.00  0.00    -0.033 C  
HETATM    7  C   UNL     1      -6.255  15.176  68.669  1.00  0.00    -0.089 C  
ENDROOT
BRANCH   5   8
HETATM    8  C   UNL     1      -7.275  11.902  67.255  1.00  0.00    -0.147 A  
HETATM    9  C   UNL     1      -6.632  11.202  66.238  1.00  0.00    -0.069 A  
HETATM   10  C   UNL     1      -6.801   9.819  66.094  1.00  0.00    -0.090 A  
HETATM   11  C   UNL     1      -7.630   9.093  66.968  1.00  0.00    -0.091 A  
HETATM   12  C   UNL     1      -8.222   9.738  68.068  1.00  0.00    -0.109 A  
HETATM   13  C   UNL     1      -8.004  11.121  68.172  1.00  0.00    -0.125 A  
BRANCH  11  14
HETATM   14  C   UNL     1      -7.849   7.653  66.632  1.00  0.00    -0.106 C  
HETATM   15  H   UNL     1      -7.152   7.123  68.501  1.00  0.00     0.000 HD 
HETATM   16  O   UNL     1      -8.341   7.392  65.535  1.00  0.00    -0.134 OA 
HETATM   17  N   UNL     1      -7.502   6.749  67.618  1.00  0.00    -0.096 N  
BRANCH  17  18
HETATM   18  C   UNL     1      -7.594   5.374  67.495  1.00  0.00    -0.088 A  
HETATM   19  C   UNL     1      -7.567   4.433  68.578  1.00  0.00    -0.064 A  
HETATM   20  C   UNL     1      -7.481   4.470  69.981  1.00  0.00    -0.054 A  
HETATM   21  N   UNL     1      -7.703   4.742  66.326  1.00  0.00    -0.091 NA 
HETATM   22  N   UNL     1      -7.717   3.445  66.633  1.00  0.00    -0.080 NA 
HETATM   23  H   UNL     1      -7.763   5.161  65.397  1.00  0.00     0.000 HD 
HETATM   24  C   UNL     1      -7.383   3.275  70.726  1.00  0.00    -0.037 A  
HETATM   25  C   UNL     1      -7.386   2.046  70.055  1.00  0.00    -0.036 A  
HETATM   26  C   UNL     1      -7.591   3.183  67.968  1.00  0.00    -0.057 A  
HETATM   27  C   UNL     1      -7.501   1.975  68.663  1.00  0.00    -0.043 A  
BRANCH  24  28
HETATM   28  C   UNL     1      -7.329   3.320  72.239  1.00  0.00    -0.051 C  
BRANCH  28  29
HETATM   29  C   UNL     1      -7.349   4.697  72.873  1.00  0.00    -0.084 A  
HETATM   30  C   UNL     1      -6.193   5.455  73.115  1.00  0.00    -0.055 A  
HETATM   31  C   UNL     1      -6.287   6.746  73.634  1.00  0.00    -0.064 A  
HETATM   32  F   UNL     1      -5.169   7.454  73.835  1.00  0.00    -0.044 F  
HETATM   33  C   UNL     1      -7.516   7.314  73.934  1.00  0.00    -0.122 A  
HETATM   34  C   UNL     1      -8.659   6.560  73.722  1.00  0.00    -0.123 A  
HETATM   35  C   UNL     1      -8.589   5.269  73.201  1.00  0.00    -0.117 A  
HETATM   36  F   UNL     1      -9.857   7.085  74.013  1.00  0.00    -0.245 F  
ENDBRANCH  28  29
ENDBRANCH  24  28
ENDBRANCH  17  18
ENDBRANCH  11  14
BRANCH  12  37
HETATM   37  N   UNL     1      -9.056   9.067  68.971  1.00  0.00    -0.142 NA 
HETATM   38  H   UNL     1      -8.653   8.721  69.842  1.00  0.00     0.000 HD 
BRANCH  37  39
HETATM   39  C   UNL     1     -10.489   8.839  68.718  1.00  0.00    -0.191 C  
HETATM   40  C   UNL     1     -10.917   8.953  67.252  1.00  0.00     0.093 C  
HETATM   41  O   UNL     1     -11.773  11.198  67.643  1.00  0.00    -0.573 OA 
HETATM   42  C   UNL     1     -11.249  11.224  68.970  1.00  0.00    -0.258 C  
HETATM   43  C   UNL     1     -11.294   9.825  69.563  1.00  0.00    -0.127 C  
HETATM   44  C   UNL     1     -10.981  10.394  66.771  1.00  0.00    -0.046 C  
ENDBRANCH  37  39
ENDBRANCH  12  37
ENDBRANCH   5   8
TORSDOF 7
ENDMDL
MODEL      128
REMARK 921   NORMALIZED FREE ENERGY PREDICTED BY IDOCK:   -1.93 KCAL/MOL
REMARK 922        TOTAL FREE ENERGY PREDICTED BY IDOCK:   -5.24 KCAL/MOL
REMARK 923 INTER-LIGAND FREE ENERGY PREDICTED BY IDOCK:   -3.80 KCAL/MOL
REMARK 924 INTRA-LIGAND FREE ENERGY PREDICTED BY IDOCK:   -1.45 KCAL/MOL
REMARK 927      BINDING AFFINITY PREDICTED BY RF-SCORE:    0.00 PKD
ROOT
HETATM    1  C   UNL     1     -11.636  17.551  74.420  1.00  0.00     0.566 C  
HETATM    2  N   UNL     1     -12.777  16.693  74.110  1.00  0.00    -0.607 NA 
HETATM    3  C   UNL     1     -13.146  16.791  72.680  1.00  0.00     1.548 C  
HETATM    4  C   UNL     1     -12.157  16.102  71.715  1.00  0.00    -0.451 C  
HETATM    5  N   UNL     1     -12.017  14.682  72.098  1.00  0.00    -0.260 NA 
HETATM    6  C   UNL     1     -11.545  14.515  73.480  1.00  0.00     0.602 C  
HETATM    7  C   UNL     1     -12.497  15.273  74.444  1.00  0.00    -0.490 C  
ENDROOT
BRANCH   5   8
HETATM    8  C   UNL     1     -11.943  13.695  71.134  1.00  0.00     0.036 A  
HETATM    9  C   UNL     1     -12.215  12.350  71.370  1.00  0.00     0.170 A  
HETATM   10  C   UNL     1     -12.058  11.393  70.360  1.00  0.00    -0.473 A  
HETATM   11  C   UNL     1     -11.613  11.757  69.076  1.00  0.00    -0.372 A  
HETATM   12  C   UNL     1     -11.420  13.113  68.761  1.00  0.00    -0.307 A  
HETATM   13  C   UNL     1     -11.609  14.030  69.808  1.00  0.00    -0.344 A  
BRANCH  11  14
HETATM   14  C   UNL     1     -11.344  10.636  68.124  1.00  0.00    -0.284 C  
HETATM   15  H   UNL     1      -9.455  11.396  67.782  1.00  0.00     0.000 HD 
HETATM   16  O   UNL     1     -12.222   9.787  67.979  1.00  0.00     1.508 OA 
HETATM   17  N   UNL     1     -10.100  10.650  67.521  1.00  0.00    -0.178 N  
BRANCH  17  18
HETATM   18  C   UNL     1      -9.667   9.725  66.587  1.00  0.00    -0.201 A  
HETATM   19  C   UNL     1      -9.626   8.303  66.774  1.00  0.00    -0.288 A  
HETATM   20  C   UNL     1      -9.967   7.379  67.778  1.00  0.00    -0.208 A  
HETATM   21  N   UNL     1      -9.207  10.054  65.379  1.00  0.00    -0.192 NA 
HETATM   22  N   UNL     1      -8.854   8.898  64.816  1.00  0.00    -0.139 NA 
HETATM   23  H   UNL     1      -9.139  10.989  64.975  1.00  0.00     0.000 HD 
HETATM   24  C   UNL     1      -9.676   6.007  67.620  1.00  0.00    -0.120 A  
HETATM   25  C   UNL     1      -9.056   5.568  66.443  1.00  0.00    -0.145 A  
HETATM   26  C   UNL     1      -9.035   7.806  65.617  1.00  0.00    -0.005 A  
HETATM   27  C   UNL     1      -8.733   6.458  65.413  1.00  0.00    -0.033 A  
BRANCH  24  28
HETATM   28  C   UNL     1     -10.080   5.013  68.688  1.00  0.00    -0.191 C  
BRANCH  28  29
HETATM   29  C   UNL     1      -8.988   4.566  69.640  1.00  0.00    -0.146 A  
HETATM   30  C   UNL     1      -8.003   5.427  70.148  1.00  0.00    -0.085 A  
HETATM   31  C   UNL     1      -7.071   4.967  71.078  1.00  0.00    -0.055 A  
HETATM   32  F   UNL     1      -6.155   5.816  71.562  1.00  0.00    -0.029 F  
HETATM   33  C   UNL     1      -7.082   3.653  71.520  1.00  0.00    -0.032 A  
HETATM   34  C   UNL     1      -8.035   2.792  71.002  1.00  0.00    -0.050 A  
HETATM   35  C   UNL     1      -8.979   3.230  70.074  1.00  0.00    -0.172 A  
HETATM   36  F   UNL     1      -8.060   1.515  71.408  1.00  0.00    -0.041 F  
ENDBRANCH  28  29
ENDBRANCH  24  28
ENDBRANCH  17  18
ENDBRANCH  11  14
BRANCH  12  37
HETATM   37  N   UNL     1     -10.979  13.535  67.501  1.00  0.00    -0.264 NA 
HETATM   38  H   UNL     1     -10.054  13.242  67.184  1.00  0.00     0.000 HD 
BRANCH  37  39
HETATM   39  C   UNL     1     -11.791  14.385  66.613  1.00  0.00    -0.398 C  
HETATM   40  C   UNL     1     -12.993  13.689  65.968  1.00  0.00    -0.064 C  
HETATM   41  O   UNL     1     -11.759  13.418  63.887  1.00  0.00    -0.416 OA 
HETATM   42  C   UNL     1     -10.554  13.901  64.476  1.00  0.00    -0.354 C  
HETATM   43  C   UNL     1     -10.885  14.954  65.523  1.00  0.00    -0.365 C  
HETATM   44  C   UNL     1     -12.591  12.755  64.837  1.00  0.00    -0.470 C  
ENDBRANCH  37  39
ENDBRANCH  12  37
ENDBRANCH   5   8
TORSDOF 7
ENDMDL
MODEL      129
REMARK 921   NORMALIZED FREE ENERGY PREDICTED BY IDOCK:   -1.74 KCAL/MOL
REMARK 922        TOTAL FREE ENERGY PREDICTED BY IDOCK:   -4.98 KCAL/MOL
REMARK 923 INTER-LIGAND FREE ENERGY PREDICTED BY IDOCK:   -4.85 KCAL/MOL
REMARK 924 INTRA-LIGAND FREE ENERGY PREDICTED BY IDOCK:   -0.12 KCAL/MOL
REMARK 927      BINDING AFFINITY PREDICTED BY RF-SCORE:    0.00 PKD
ROOT
HETATM    1  C   UNL     1      -8.939   1.535  63.970  1.00  0.00    -0.093 C  
HETATM    2  N   UNL     1      -9.713   1.901  65.154  1.00  0.00     0.162 NA 
HETATM    3  C   UNL     1      -8.850   1.967  66.355  1.00  0.00    -0.121 C  
HETATM    4  C   UNL     1      -7.903   3.185  66.397  1.00  0.00    -0.077 C  
HETATM    5  N   UNL     1      -8.702   4.424  66.286  1.00  0.00    -0.112 NA 
HETATM    6  C   UNL     1      -9.501   4.471  65.054  1.00  0.00    -0.152 C  
HETATM    7  C   UNL     1     -10.398   3.206  64.974  1.00  0.00     0.418 C  
ENDROOT
BRANCH   5   8
HETATM    8  C   UNL     1      -8.387   5.536  67.044  1.00  0.00    -0.107 A  
HETATM    9  C   UNL     1      -7.545   5.514  68.151  1.00  0.00    -0.081 A  
HETATM   10  C   UNL     1      -7.320   6.668  68.911  1.00  0.00    -0.094 A  
HETATM   11  C   UNL     1      -7.943   7.886  68.585  1.00  0.00    -0.124 A  
HETATM   12  C   UNL     1      -8.724   7.983  67.421  1.00  0.00    -0.124 A  
HETATM   13  C   UNL     1      -8.900   6.798  66.688  1.00  0.00    -0.142 A  
BRANCH  11  14
HETATM   14  C   UNL     1      -7.745   9.012  69.548  1.00  0.00    -0.082 C  
HETATM   15  H   UNL     1      -6.176   9.705  68.398  1.00  0.00     0.000 HD 
HETATM   16  O   UNL     1      -8.525   9.098  70.495  1.00  0.00    -0.166 OA 
HETATM   17  N   UNL     1      -6.707   9.877  69.253  1.00  0.00    -0.052 N  
BRANCH  17  18
HETATM   18  C   UNL     1      -6.337  10.959  70.031  1.00  0.00    -0.142 A  
HETATM   19  C   UNL     1      -6.443  12.339  69.651  1.00  0.00    -0.073 A  
HETATM   20  C   UNL     1      -6.907  13.078  68.548  1.00  0.00    -0.095 A  
HETATM   21  N   UNL     1      -5.806  10.846  71.249  1.00  0.00    -0.350 NA 
HETATM   22  N   UNL     1      -5.551  12.097  71.633  1.00  0.00    -0.334 NA 
HETATM   23  H   UNL     1      -5.633   9.988  71.773  1.00  0.00     0.000 HD 
HETATM   24  C   UNL     1      -6.748  14.479  68.505  1.00  0.00    -0.096 A  
HETATM   25  C   UNL     1      -6.136  15.134  69.581  1.00  0.00    -0.127 A  
HETATM   26  C   UNL     1      -5.866  13.046  70.701  1.00  0.00    -0.123 A  
HETATM   27  C   UNL     1      -5.693  14.431  70.706  1.00  0.00    -0.184 A  
BRANCH  24  28
HETATM   28  C   UNL     1      -7.284  15.273  67.332  1.00  0.00    -0.235 C  
BRANCH  28  29
HETATM   29  C   UNL     1      -8.433  16.218  67.626  1.00  0.00    -0.178 A  
HETATM   30  C   UNL     1      -8.908  16.480  68.920  1.00  0.00    -0.244 A  
HETATM   31  C   UNL     1      -9.920  17.417  69.127  1.00  0.00    -0.200 A  
HETATM   32  F   UNL     1     -10.339  17.663  70.375  1.00  0.00     0.340 F  
HETATM   33  C   UNL     1     -10.492  18.106  68.069  1.00  0.00    -0.387 A  
HETATM   34  C   UNL     1     -10.046  17.831  66.786  1.00  0.00    -0.349 A  
HETATM   35  C   UNL     1      -9.032  16.902  66.555  1.00  0.00    -0.303 A  
HETATM   36  F   UNL     1     -10.589  18.478  65.747  1.00  0.00    -0.447 F  
ENDBRANCH  28  29
ENDBRANCH  24  28
ENDBRANCH  17  18
ENDBRANCH  11  14
BRANCH  12  37
HETATM   37  N   UNL     1      -9.368   9.168  67.045  1.00  0.00    -0.143 NA 
HETATM   38  H   UNL     1      -9.699   9.797  67.777  1.00  0.00     0.000 HD 
BRANCH  37  39
HETATM   39  C   UNL     1      -9.589   9.547  65.639  1.00  0.00    -0.277 C  
HETATM   40  C   UNL     1      -9.214   8.476  64.611  1.00  0.00     0.546 C  
HETATM   41  O   UNL     1      -7.112   9.613  64.148  1.00  0.00    -0.108 OA 
HETATM   42  C   UNL     1      -7.320  10.544  65.208  1.00  0.00    -0.059 C  
HETATM   43  C   UNL     1      -8.807  10.827  65.352  1.00  0.00    -0.202 C  
HETATM   44  C   UNL     1      -7.710   8.348  64.421  1.00  0.00    -0.133 C  
ENDBRANCH  37  39
ENDBRANCH  12  37
ENDBRANCH   5   8
TORSDOF 7
ENDMDL
MODEL      130
REMARK 921   NORMALIZED FREE ENERGY PREDICTED BY IDOCK:   -0.59 KCAL/MOL
REMARK 922        TOTAL FREE ENERGY PREDICTED BY IDOCK:   -3.35 KCAL/MOL
REMARK 923 INTER-LIGAND FREE ENERGY PREDICTED BY IDOCK:   -3.51 KCAL/MOL
REMARK 924 INTRA-LIGAND FREE ENERGY PREDICTED BY IDOCK:    0.16 KCAL/MOL
REMARK 927      BINDING AFFINITY PREDICTED BY RF-SCORE:    0.00 PKD
ROOT
HETATM    1  C   UNL     1      -5.352   1.571  69.037  1.00  0.00    -0.012 C  
HETATM    2  N   UNL     1      -6.064   2.002  70.238  1.00  0.00    -0.022 NA 
HETATM    3  C   UNL     1      -5.600   3.336  70.682  1.00  0.00    -0.013 C  
HETATM    4  C   UNL     1      -6.065   4.506  69.788  1.00  0.00    -0.019 C  
HETATM    5  N   UNL     1      -7.540   4.493  69.702  1.00  0.00    -0.054 NA 
HETATM    6  C   UNL     1      -8.062   3.230  69.161  1.00  0.00    -0.059 C  
HETATM    7  C   UNL     1      -7.531   2.047  70.015  1.00  0.00    -0.042 C  
ENDROOT
BRANCH   5   8
HETATM    8  C   UNL     1      -8.259   5.673  69.735  1.00  0.00    -0.106 A  
HETATM    9  C   UNL     1      -9.516   5.804  70.317  1.00  0.00    -0.196 A  
HETATM   10  C   UNL     1     -10.216   7.016  70.258  1.00  0.00    -0.206 A  
HETATM   11  C   UNL     1      -9.675   8.137  69.604  1.00  0.00    -0.170 A  
HETATM   12  C   UNL     1      -8.370   8.082  69.087  1.00  0.00    -0.132 A  
HETATM   13  C   UNL     1      -7.709   6.848  69.190  1.00  0.00    -0.106 A  
BRANCH  11  14
HETATM   14  C   UNL     1     -10.570   9.328  69.478  1.00  0.00    -0.224 C  
HETATM   15  H   UNL     1     -10.966   9.230  71.502  1.00  0.00     0.000 HD 
HETATM   16  O   UNL     1     -10.664   9.857  68.372  1.00  0.00    -0.218 OA 
HETATM   17  N   UNL     1     -11.184   9.741  70.646  1.00  0.00    -0.306 N  
BRANCH  17  18
HETATM   18  C   UNL     1     -12.072  10.798  70.739  1.00  0.00    -0.372 A  
HETATM   19  C   UNL     1     -12.141  11.914  69.840  1.00  0.00    -0.344 A  
HETATM   20  C   UNL     1     -11.490  12.346  68.670  1.00  0.00    -0.348 A  
HETATM   21  N   UNL     1     -12.980  10.918  71.709  1.00  0.00    -0.473 NA 
HETATM   22  N   UNL     1     -13.593  12.077  71.468  1.00  0.00     0.180 NA 
HETATM   23  H   UNL     1     -13.164  10.264  72.470  1.00  0.00     0.000 HD 
HETATM   24  C   UNL     1     -11.788  13.604  68.106  1.00  0.00    -0.407 A  
HETATM   25  C   UNL     1     -12.753  14.418  68.713  1.00  0.00     0.652 A  
HETATM   26  C   UNL     1     -13.108  12.754  70.385  1.00  0.00     0.572 A  
HETATM   27  C   UNL     1     -13.439  14.004  69.859  1.00  0.00     1.451 A  
BRANCH  24  28
HETATM   28  C   UNL     1     -11.111  14.046  66.825  1.00  0.00    -0.311 C  
BRANCH  28  29
HETATM   29  C   UNL     1     -10.436  12.960  66.010  1.00  0.00    -0.290 A  
HETATM   30  C   UNL     1      -9.203  12.385  66.356  1.00  0.00    -0.192 A  
HETATM   31  C   UNL     1      -8.674  11.338  65.603  1.00  0.00    -0.076 A  
HETATM   32  F   UNL     1      -7.505  10.795  65.968  1.00  0.00    -0.137 F  
HETATM   33  C   UNL     1      -9.337  10.842  64.492  1.00  0.00    -0.273 A  
HETATM   34  C   UNL     1     -10.542  11.424  64.130  1.00  0.00    -0.369 A  
HETATM   35  C   UNL     1     -11.093  12.469  64.870  1.00  0.00    -0.336 A  
HETATM   36  F   UNL     1     -11.197  10.966  63.055  1.00  0.00    -0.127 F  
ENDBRANCH  28  29
ENDBRANCH  24  28
ENDBRANCH  17  18
ENDBRANCH  11  14
BRANCH  12  37
HETATM   37  N   UNL     1      -7.778   9.167  68.426  1.00  0.00    -0.093 NA 
HETATM   38  H   UNL     1      -8.384   9.891  68.039  1.00  0.00     0.000 HD 
BRANCH  37  39
HETATM   39  C   UNL     1      -6.321   9.307  68.265  1.00  0.00    -0.054 C  
HETATM   40  C   UNL     1      -5.483   8.745  69.417  1.00  0.00    -0.035 C  
HETATM   41  O   UNL     1      -5.175  10.982  70.326  1.00  0.00    -0.056 OA 
HETATM   42  C   UNL     1      -6.083  11.548  69.383  1.00  0.00    -0.085 C  
HETATM   43  C   UNL     1      -5.994  10.786  68.070  1.00  0.00    -0.050 C  
HETATM   44  C   UNL     1      -5.511   9.635  70.650  1.00  0.00    -0.049 C  
ENDBRANCH  37  39
ENDBRANCH  12  37
ENDBRANCH   5   8
TORSDOF 7
ENDMDL
MODEL      131
REMARK 921   NORMALIZED FREE ENERGY PREDICTED BY IDOCK:    0.13 KCAL/MOL
REMARK 922        TOTAL FREE ENERGY PREDICTED BY IDOCK:   -2.34 KCAL/MOL
REMARK 923 INTER-LIGAND FREE ENERGY PREDICTED BY IDOCK:   -1.91 KCAL/MOL
REMARK 924 INTRA-LIGAND FREE ENERGY PREDICTED BY IDOCK:   -0.42 KCAL/MOL
REMARK 927      BINDING AFFINITY PREDICTED BY RF-SCORE:    0.00 PKD
ROOT
HETATM    1  C   UNL     1      -9.393   3.118  65.773  1.00  0.00    -0.105 C  
HETATM    2  N   UNL     1      -8.895   4.028  66.801  1.00  0.00    -0.117 NA 
HETATM    3  C   UNL     1      -7.861   4.936  66.254  1.00  0.00    -0.096 C  
HETATM    4  C   UNL     1      -8.404   6.034  65.315  1.00  0.00    -0.148 C  
HETATM    5  N   UNL     1      -9.431   6.819  66.032  1.00  0.00    -0.004 NA 
HETATM    6  C   UNL     1     -10.546   5.989  66.507  1.00  0.00    -0.172 C  
HETATM    7  C   UNL     1      -9.991   4.839  67.390  1.00  0.00    -0.159 C  
ENDROOT
BRANCH   5   8
HETATM    8  C   UNL     1      -9.501   8.191  65.882  1.00  0.00    -0.012 A  
HETATM    9  C   UNL     1     -10.436   8.842  65.083  1.00  0.00     2.617 A  
HETATM   10  C   UNL     1     -10.409  10.234  64.928  1.00  0.00    -0.140 A  
HETATM   11  C   UNL     1      -9.433  11.019  65.568  1.00  0.00    -0.250 A  
HETATM   12  C   UNL     1      -8.529  10.419  66.462  1.00  0.00    -0.132 A  
HETATM   13  C   UNL     1      -8.614   9.023  66.592  1.00  0.00    -0.134 A  
BRANCH  11  14
HETATM   14  C   UNL     1      -9.412  12.471  65.215  1.00  0.00     0.161 C  
HETATM   15  H   UNL     1     -10.086  12.930  67.112  1.00  0.00     0.000 HD 
HETATM   16  O   UNL     1      -9.006  12.781  64.096  1.00  0.00     1.069 OA 
HETATM   17  N   UNL     1      -9.826  13.335  66.212  1.00  0.00    -0.282 N  
BRANCH  17  18
HETATM   18  C   UNL     1      -9.913  14.710  66.078  1.00  0.00    -0.316 A  
HETATM   19  C   UNL     1     -10.087  15.645  67.152  1.00  0.00    -0.256 A  
HETATM   20  C   UNL     1     -10.197  15.607  68.553  1.00  0.00    -0.211 A  
HETATM   21  N   UNL     1      -9.863  15.343  64.906  1.00  0.00    -0.280 NA 
HETATM   22  N   UNL     1     -10.027  16.632  65.201  1.00  0.00    -0.294 NA 
HETATM   23  H   UNL     1      -9.729  14.929  63.982  1.00  0.00     0.000 HD 
HETATM   24  C   UNL     1     -10.468  16.783  69.285  1.00  0.00    -0.331 A  
HETATM   25  C   UNL     1     -10.612  17.998  68.602  1.00  0.00    -0.114 A  
HETATM   26  C   UNL     1     -10.215  16.884  66.531  1.00  0.00    -0.318 A  
HETATM   27  C   UNL     1     -10.478  18.074  67.212  1.00  0.00    -0.390 A  
BRANCH  24  28
HETATM   28  C   UNL     1     -10.547  16.741  70.796  1.00  0.00     0.850 C  
BRANCH  28  29
HETATM   29  C   UNL     1     -11.522  15.745  71.393  1.00  0.00    -0.496 A  
HETATM   30  C   UNL     1     -11.432  14.359  71.192  1.00  0.00     0.008 A  
HETATM   31  C   UNL     1     -12.318  13.492  71.831  1.00  0.00     0.154 A  
HETATM   32  F   UNL     1     -12.196  12.172  71.637  1.00  0.00    -0.202 F  
HETATM   33  C   UNL     1     -13.314  13.967  72.669  1.00  0.00    -0.643 A  
HETATM   34  C   UNL     1     -13.424  15.337  72.850  1.00  0.00    -0.512 A  
HETATM   35  C   UNL     1     -12.547  16.223  72.226  1.00  0.00    -0.277 A  
HETATM   36  F   UNL     1     -14.384  15.820  73.650  1.00  0.00     0.297 F  
ENDBRANCH  28  29
ENDBRANCH  24  28
ENDBRANCH  17  18
ENDBRANCH  11  14
BRANCH  12  37
HETATM   37  N   UNL     1      -7.537  11.148  67.129  1.00  0.00    -0.118 NA 
HETATM   38  H   UNL     1      -6.725  11.465  66.598  1.00  0.00     0.000 HD 
BRANCH  37  39
HETATM   39  C   UNL     1      -7.613  11.478  68.562  1.00  0.00    -0.130 C  
HETATM   40  C   UNL     1      -6.349  11.166  69.369  1.00  0.00    -0.088 C  
HETATM   41  O   UNL     1      -7.357   9.118  70.216  1.00  0.00    -0.067 OA 
HETATM   42  C   UNL     1      -8.490   9.259  69.361  1.00  0.00    -0.137 C  
HETATM   43  C   UNL     1      -8.802  10.735  69.168  1.00  0.00    -0.098 C  
HETATM   44  C   UNL     1      -6.180   9.679  69.640  1.00  0.00    -0.044 C  
ENDBRANCH  37  39
ENDBRANCH  12  37
ENDBRANCH   5   8
TORSDOF 7
ENDMDL
MODEL      132
REMARK 921   NORMALIZED FREE ENERGY PREDICTED BY IDOCK:    0.57 KCAL/MOL
REMARK 922        TOTAL FREE ENERGY PREDICTED BY IDOCK:   -1.72 KCAL/MOL
REMARK 923 INTER-LIGAND FREE ENERGY PREDICTED BY IDOCK:   -2.12 KCAL/MOL
REMARK 924 INTRA-LIGAND FREE ENERGY PREDICTED BY IDOCK:    0.40 KCAL/MOL
REMARK 927      BINDING AFFINITY PREDICTED BY RF-SCORE:    0.00 PKD
ROOT
HETATM    1  C   UNL     1     -11.388   2.400  72.884  1.00  0.00     0.193 C  
HETATM    2  N   UNL     1     -10.669   3.472  73.569  1.00  0.00    -0.197 NA 
HETATM    3  C   UNL     1      -9.343   3.703  72.952  1.00  0.00    -0.103 C  
HETATM    4  C   UNL     1      -9.389   4.393  71.573  1.00  0.00    -0.143 C  
HETATM    5  N   UNL     1     -10.112   5.676  71.698  1.00  0.00    -0.188 NA 
HETATM    6  C   UNL     1     -11.482   5.505  72.203  1.00  0.00    -0.106 C  
HETATM    7  C   UNL     1     -11.440   4.741  73.554  1.00  0.00    -0.164 C  
ENDROOT
BRANCH   5   8
HETATM    8  C   UNL     1      -9.674   6.801  71.025  1.00  0.00    -0.174 A  
HETATM    9  C   UNL     1      -8.370   7.284  71.079  1.00  0.00    -0.119 A  
HETATM   10  C   UNL     1      -8.010   8.468  70.422  1.00  0.00    -0.099 A  
HETATM   11  C   UNL     1      -8.955   9.210  69.692  1.00  0.00    -0.158 A  
HETATM   12  C   UNL     1     -10.260   8.713  69.528  1.00  0.00    -0.209 A  
HETATM   13  C   UNL     1     -10.559   7.514  70.194  1.00  0.00    -0.241 A  
BRANCH  11  14
HETATM   14  C   UNL     1      -8.494  10.528  69.157  1.00  0.00    -0.147 C  
HETATM   15  H   UNL     1      -6.692  10.280  70.132  1.00  0.00     0.000 HD 
HETATM   16  O   UNL     1      -9.254  11.135  68.403  1.00  0.00    -0.162 OA 
HETATM   17  N   UNL     1      -7.226  10.919  69.542  1.00  0.00    -0.130 N  
BRANCH  17  18
HETATM   18  C   UNL     1      -6.627  12.114  69.184  1.00  0.00    -0.106 A  
HETATM   19  C   UNL     1      -7.298  13.373  69.029  1.00  0.00     0.023 A  
HETATM   20  C   UNL     1      -8.604  13.876  69.171  1.00  0.00     0.343 A  
HETATM   21  N   UNL     1      -5.327  12.238  68.916  1.00  0.00    -0.054 NA 
HETATM   22  N   UNL     1      -5.164  13.516  68.573  1.00  0.00    -0.078 NA 
HETATM   23  H   UNL     1      -4.611  11.512  68.963  1.00  0.00     0.000 HD 
HETATM   24  C   UNL     1      -8.901  15.210  68.819  1.00  0.00    -0.196 A  
HETATM   25  C   UNL     1      -7.878  16.038  68.341  1.00  0.00    -0.149 A  
HETATM   26  C   UNL     1      -6.318  14.248  68.573  1.00  0.00    -0.092 A  
HETATM   27  C   UNL     1      -6.563  15.576  68.219  1.00  0.00    -0.127 A  
BRANCH  24  28
HETATM   28  C   UNL     1     -10.301  15.756  69.010  1.00  0.00    -0.223 C  
BRANCH  28  29
HETATM   29  C   UNL     1     -10.522  17.200  68.602  1.00  0.00    -0.366 A  
HETATM   30  C   UNL     1     -10.454  18.277  69.498  1.00  0.00     0.570 A  
HETATM   31  C   UNL     1     -10.595  19.588  69.044  1.00  0.00     0.354 A  
HETATM   32  F   UNL     1     -10.505  20.597  69.918  1.00  0.00    -0.250 F  
HETATM   33  C   UNL     1     -10.815  19.866  67.704  1.00  0.00    -0.291 A  
HETATM   34  C   UNL     1     -10.910  18.804  66.818  1.00  0.00    -0.180 A  
HETATM   35  C   UNL     1     -10.769  17.486  67.249  1.00  0.00    -0.222 A  
HETATM   36  F   UNL     1     -11.131  19.048  65.519  1.00  0.00    -0.408 F  
ENDBRANCH  28  29
ENDBRANCH  24  28
ENDBRANCH  17  18
ENDBRANCH  11  14
BRANCH  12  37
HETATM   37  N   UNL     1     -11.243   9.408  68.813  1.00  0.00    -0.457 NA 
HETATM   38  H   UNL     1     -11.509   9.063  67.890  1.00  0.00     0.000 HD 
BRANCH  37  39
HETATM   39  C   UNL     1     -11.910  10.613  69.334  1.00  0.00    -0.253 C  
HETATM   40  C   UNL     1     -11.363  11.134  70.666  1.00  0.00     0.142 C  
HETATM   41  O   UNL     1     -13.214  10.103  71.865  1.00  0.00    -0.427 OA 
HETATM   42  C   UNL     1     -13.681   9.448  70.688  1.00  0.00     0.377 C  
HETATM   43  C   UNL     1     -13.402  10.320  69.475  1.00  0.00     1.733 C  
HETATM   44  C   UNL     1     -11.799  10.285  71.850  1.00  0.00     0.367 C  
ENDBRANCH  37  39
ENDBRANCH  12  37
ENDBRANCH   5   8
TORSDOF 7
ENDMDL
MODEL      133
REMARK 921   NORMALIZED FREE ENERGY PREDICTED BY IDOCK:    2.50 KCAL/MOL
REMARK 922        TOTAL FREE ENERGY PREDICTED BY IDOCK:    0.99 KCAL/MOL
REMARK 923 INTER-LIGAND FREE ENERGY PREDICTED BY IDOCK:    1.01 KCAL/MOL
REMARK 924 INTRA-LIGAND FREE ENERGY PREDICTED BY IDOCK:   -0.01 KCAL/MOL
REMARK 927      BINDING AFFINITY PREDICTED BY RF-SCORE:    0.00 PKD
ROOT
HETATM    1  C   UNL     1      -6.296  16.107  66.539  1.00  0.00     0.714 C  
HETATM    2  N   UNL     1      -6.920  15.255  67.548  1.00  0.00    -0.186 NA 
HETATM    3  C   UNL     1      -7.881  14.313  66.930  1.00  0.00     0.249 C  
HETATM    4  C   UNL     1      -7.228  13.166  66.129  1.00  0.00     3.016 C  
HETATM    5  N   UNL     1      -6.300  12.427  67.010  1.00  0.00    -0.180 NA 
HETATM    6  C   UNL     1      -5.249  13.289  67.572  1.00  0.00     0.054 C  
HETATM    7  C   UNL     1      -5.906  14.485  68.312  1.00  0.00    -0.117 C  
ENDROOT
BRANCH   5   8
HETATM    8  C   UNL     1      -6.215  11.049  66.949  1.00  0.00    -0.093 A  
HETATM    9  C   UNL     1      -5.808  10.342  65.822  1.00  0.00    -0.092 A  
HETATM   10  C   UNL     1      -5.807   8.941  65.810  1.00  0.00    -0.051 A  
HETATM   11  C   UNL     1      -6.222   8.204  66.933  1.00  0.00    -0.055 A  
HETATM   12  C   UNL     1      -6.548   8.871  68.126  1.00  0.00    -0.061 A  
HETATM   13  C   UNL     1      -6.515  10.274  68.085  1.00  0.00    -0.057 A  
BRANCH  11  14
HETATM   14  C   UNL     1      -6.317   6.722  66.756  1.00  0.00    -0.042 C  
HETATM   15  H   UNL     1      -6.716   6.519  68.771  1.00  0.00     0.000 HD 
HETATM   16  O   UNL     1      -6.186   6.274  65.618  1.00  0.00    -0.035 OA 
HETATM   17  N   UNL     1      -6.580   5.999  67.904  1.00  0.00    -0.053 N  
BRANCH  17  18
HETATM   18  C   UNL     1      -6.673   4.619  67.963  1.00  0.00    -0.054 A  
HETATM   19  C   UNL     1      -7.558   3.876  68.813  1.00  0.00    -0.054 A  
HETATM   20  C   UNL     1      -8.558   4.151  69.763  1.00  0.00    -0.099 A  
HETATM   21  N   UNL     1      -5.920   3.796  67.233  1.00  0.00    -0.023 NA 
HETATM   22  N   UNL     1      -6.279   2.570  67.613  1.00  0.00    -0.027 NA 
HETATM   23  H   UNL     1      -5.220   4.050  66.535  1.00  0.00     0.000 HD 
HETATM   24  C   UNL     1      -9.165   3.105  70.490  1.00  0.00    -0.210 A  
HETATM   25  C   UNL     1      -8.773   1.782  70.246  1.00  0.00    -0.109 A  
HETATM   26  C   UNL     1      -7.228   2.542  68.595  1.00  0.00    -0.047 A  
HETATM   27  C   UNL     1      -7.804   1.474  69.286  1.00  0.00    -0.047 A  
BRANCH  24  28
HETATM   28  C   UNL     1     -10.267   3.405  71.484  1.00  0.00     0.077 C  
BRANCH  28  29
HETATM   29  C   UNL     1     -10.045   4.594  72.398  1.00  0.00    -0.239 A  
HETATM   30  C   UNL     1      -8.842   4.832  73.081  1.00  0.00    -0.111 A  
HETATM   31  C   UNL     1      -8.679   5.985  73.848  1.00  0.00    -0.123 A  
HETATM   32  F   UNL     1      -7.513   6.196  74.472  1.00  0.00    -0.093 F  
HETATM   33  C   UNL     1      -9.695   6.921  73.967  1.00  0.00    -0.326 A  
HETATM   34  C   UNL     1     -10.894   6.678  73.317  1.00  0.00    -0.261 A  
HETATM   35  C   UNL     1     -11.079   5.534  72.541  1.00  0.00    -0.324 A  
HETATM   36  F   UNL     1     -11.893   7.565  73.424  1.00  0.00    -0.092 F  
ENDBRANCH  28  29
ENDBRANCH  24  28
ENDBRANCH  17  18
ENDBRANCH  11  14
BRANCH  12  37
HETATM   37  N   UNL     1      -6.968   8.190  69.276  1.00  0.00    -0.054 NA 
HETATM   38  H   UNL     1      -6.750   7.197  69.361  1.00  0.00     0.000 HD 
BRANCH  37  39
HETATM   39  C   UNL     1      -7.710   8.845  70.367  1.00  0.00    -0.098 C  
HETATM   40  C   UNL     1      -7.464  10.350  70.508  1.00  0.00     0.507 C  
HETATM   41  O   UNL     1      -5.928   9.956  72.355  1.00  0.00    -0.277 OA 
HETATM   42  C   UNL     1      -5.979   8.543  72.167  1.00  0.00    -0.062 C  
HETATM   43  C   UNL     1      -7.363   8.145  71.679  1.00  0.00    -0.088 C  
HETATM   44  C   UNL     1      -6.113  10.666  71.133  1.00  0.00     0.233 C  
ENDBRANCH  37  39
ENDBRANCH  12  37
ENDBRANCH   5   8
TORSDOF 7
ENDMDL
MODEL      134
REMARK 921   NORMALIZED FREE ENERGY PREDICTED BY IDOCK:    2.50 KCAL/MOL
REMARK 922        TOTAL FREE ENERGY PREDICTED BY IDOCK:    1.00 KCAL/MOL
REMARK 923 INTER-LIGAND FREE ENERGY PREDICTED BY IDOCK:    1.49 KCAL/MOL
REMARK 924 INTRA-LIGAND FREE ENERGY PREDICTED BY IDOCK:   -0.49 KCAL/MOL
REMARK 927      BINDING AFFINITY PREDICTED BY RF-SCORE:    0.00 PKD
ROOT
HETATM    1  C   UNL     1      -6.617   3.041  67.447  1.00  0.00    -0.037 C  
HETATM    2  N   UNL     1      -5.489   3.957  67.601  1.00  0.00    -0.016 NA 
HETATM    3  C   UNL     1      -5.432   4.925  66.482  1.00  0.00    -0.013 C  
HETATM    4  C   UNL     1      -6.529   6.011  66.518  1.00  0.00    -0.046 C  
HETATM    5  N   UNL     1      -6.455   6.731  67.806  1.00  0.00    -0.047 NA 
HETATM    6  C   UNL     1      -6.617   5.837  68.962  1.00  0.00    -0.051 C  
HETATM    7  C   UNL     1      -5.562   4.700  68.884  1.00  0.00    -0.012 C  
ENDROOT
BRANCH   5   8
HETATM    8  C   UNL     1      -6.634   8.100  67.861  1.00  0.00    -0.061 A  
HETATM    9  C   UNL     1      -5.604   9.027  67.731  1.00  0.00    -0.035 A  
HETATM   10  C   UNL     1      -5.849  10.400  67.860  1.00  0.00    -0.044 A  
HETATM   11  C   UNL     1      -7.140  10.887  68.130  1.00  0.00    -0.077 A  
HETATM   12  C   UNL     1      -8.228   9.998  68.172  1.00  0.00    -0.109 A  
HETATM   13  C   UNL     1      -7.926   8.635  68.019  1.00  0.00    -0.107 A  
BRANCH  11  14
HETATM   14  C   UNL     1      -7.255  12.355  68.390  1.00  0.00    -0.110 C  
HETATM   15  H   UNL     1      -5.598  12.256  69.617  1.00  0.00     0.000 HD 
HETATM   16  O   UNL     1      -8.146  12.970  67.806  1.00  0.00    -0.140 OA 
HETATM   17  N   UNL     1      -6.311  12.886  69.249  1.00  0.00    -0.103 N  
BRANCH  17  18
HETATM   18  C   UNL     1      -6.263  14.211  69.645  1.00  0.00    -0.126 A  
HETATM   19  C   UNL     1      -7.326  15.164  69.508  1.00  0.00    -0.210 A  
HETATM   20  C   UNL     1      -8.650  15.181  69.033  1.00  0.00    -0.219 A  
HETATM   21  N   UNL     1      -5.190  14.779  70.197  1.00  0.00    -0.096 NA 
HETATM   22  N   UNL     1      -5.531  16.054  70.385  1.00  0.00    -0.169 NA 
HETATM   23  H   UNL     1      -4.301  14.333  70.426  1.00  0.00     0.000 HD 
HETATM   24  C   UNL     1      -9.377  16.389  68.974  1.00  0.00    -0.248 A  
HETATM   25  C   UNL     1      -8.773  17.575  69.409  1.00  0.00     0.441 A  
HETATM   26  C   UNL     1      -6.787  16.369  69.950  1.00  0.00     0.150 A  
HETATM   27  C   UNL     1      -7.469  17.586  69.915  1.00  0.00     1.079 A  
BRANCH  24  28
HETATM   28  C   UNL     1     -10.814  16.393  68.497  1.00  0.00    -0.339 C  
BRANCH  28  29
HETATM   29  C   UNL     1     -11.029  16.573  67.007  1.00  0.00    -0.012 A  
HETATM   30  C   UNL     1     -11.527  15.563  66.168  1.00  0.00     0.094 A  
HETATM   31  C   UNL     1     -11.771  15.818  64.820  1.00  0.00    -0.081 A  
HETATM   32  F   UNL     1     -12.265  14.842  64.048  1.00  0.00    -0.486 F  
HETATM   33  C   UNL     1     -11.523  17.065  64.266  1.00  0.00     1.206 A  
HETATM   34  C   UNL     1     -11.007  18.058  65.082  1.00  0.00     0.749 A  
HETATM   35  C   UNL     1     -10.758  17.827  66.435  1.00  0.00    -0.097 A  
HETATM   36  F   UNL     1     -10.751  19.268  64.567  1.00  0.00     1.029 F  
ENDBRANCH  28  29
ENDBRANCH  24  28
ENDBRANCH  17  18
ENDBRANCH  11  14
BRANCH  12  37
HETATM   37  N   UNL     1      -9.536  10.424  68.437  1.00  0.00    -0.145 NA 
HETATM   38  H   UNL     1     -10.234  10.343  67.697  1.00  0.00     0.000 HD 
BRANCH  37  39
HETATM   39  C   UNL     1      -9.947  10.984  69.736  1.00  0.00     0.413 C  
HETATM   40  C   UNL     1      -9.882  10.008  70.914  1.00  0.00     0.432 C  
HETATM   41  O   UNL     1     -12.286   9.643  70.785  1.00  0.00    -0.284 OA 
HETATM   42  C   UNL     1     -12.390  10.404  69.583  1.00  0.00     0.009 C  
HETATM   43  C   UNL     1     -11.368  11.529  69.602  1.00  0.00    -0.329 C  
HETATM   44  C   UNL     1     -11.019   8.998  70.900  1.00  0.00    -0.268 C  
ENDBRANCH  37  39
ENDBRANCH  12  37
ENDBRANCH   5   8
TORSDOF 7
ENDMDL
MODEL      135
REMARK 921   NORMALIZED FREE ENERGY PREDICTED BY IDOCK:    2.54 KCAL/MOL
REMARK 922        TOTAL FREE ENERGY PREDICTED BY IDOCK:    1.05 KCAL/MOL
REMARK 923 INTER-LIGAND FREE ENERGY PREDICTED BY IDOCK:    1.19 KCAL/MOL
REMARK 924 INTRA-LIGAND FREE ENERGY PREDICTED BY IDOCK:   -0.13 KCAL/MOL
REMARK 927      BINDING AFFINITY PREDICTED BY RF-SCORE:    0.00 PKD
ROOT
HETATM    1  C   UNL     1      -7.265   2.796  67.962  1.00  0.00    -0.049 C  
HETATM    2  N   UNL     1      -6.087   3.649  68.097  1.00  0.00    -0.031 NA 
HETATM    3  C   UNL     1      -5.974   4.587  66.957  1.00  0.00    -0.023 C  
HETATM    4  C   UNL     1      -7.006   5.734  66.968  1.00  0.00    -0.065 C  
HETATM    5  N   UNL     1      -6.891   6.477  68.241  1.00  0.00    -0.068 NA 
HETATM    6  C   UNL     1      -7.104   5.620  69.415  1.00  0.00    -0.065 C  
HETATM    7  C   UNL     1      -6.117   4.423  69.364  1.00  0.00    -0.026 C  
ENDROOT
BRANCH   5   8
HETATM    8  C   UNL     1      -6.991   7.855  68.264  1.00  0.00    -0.073 A  
HETATM    9  C   UNL     1      -5.910   8.719  68.113  1.00  0.00    -0.042 A  
HETATM   10  C   UNL     1      -6.075  10.106  68.211  1.00  0.00    -0.045 A  
HETATM   11  C   UNL     1      -7.335  10.672  68.473  1.00  0.00    -0.090 A  
HETATM   12  C   UNL     1      -8.472   9.848  68.537  1.00  0.00    -0.112 A  
HETATM   13  C   UNL     1      -8.250   8.468  68.413  1.00  0.00    -0.123 A  
BRANCH  11  14
HETATM   14  C   UNL     1      -7.365  12.150  68.700  1.00  0.00    -0.109 C  
HETATM   15  H   UNL     1      -5.712  11.983  69.925  1.00  0.00     0.000 HD 
HETATM   16  O   UNL     1      -8.221  12.802  68.104  1.00  0.00    -0.152 OA 
HETATM   17  N   UNL     1      -6.389  12.645  69.544  1.00  0.00    -0.122 N  
BRANCH  17  18
HETATM   18  C   UNL     1      -6.263  13.973  69.911  1.00  0.00    -0.142 A  
HETATM   19  C   UNL     1      -7.270  14.983  69.753  1.00  0.00    -0.149 A  
HETATM   20  C   UNL     1      -8.591  15.066  69.278  1.00  0.00    -0.167 A  
HETATM   21  N   UNL     1      -5.158  14.490  70.449  1.00  0.00    -0.098 NA 
HETATM   22  N   UNL     1      -5.424  15.787  70.608  1.00  0.00    -0.146 NA 
HETATM   23  H   UNL     1      -4.296  13.999  70.687  1.00  0.00     0.000 HD 
HETATM   24  C   UNL     1      -9.247  16.312  69.192  1.00  0.00    -0.235 A  
HETATM   25  C   UNL     1      -8.574  17.471  69.600  1.00  0.00     0.987 A  
HETATM   26  C   UNL     1      -6.661  16.164  70.167  1.00  0.00     0.292 A  
HETATM   27  C   UNL     1      -7.271  17.418  70.105  1.00  0.00     1.436 A  
BRANCH  24  28
HETATM   28  C   UNL     1     -10.682  16.389  68.716  1.00  0.00    -0.321 C  
BRANCH  28  29
HETATM   29  C   UNL     1     -11.729  15.786  69.631  1.00  0.00    -0.363 A  
HETATM   30  C   UNL     1     -12.300  16.473  70.714  1.00  0.00     1.150 A  
HETATM   31  C   UNL     1     -13.312  15.886  71.472  1.00  0.00    -0.062 A  
HETATM   32  F   UNL     1     -13.852  16.573  72.487  1.00  0.00    -0.055 F  
HETATM   33  C   UNL     1     -13.777  14.611  71.189  1.00  0.00    -0.374 A  
HETATM   34  C   UNL     1     -13.199  13.917  70.138  1.00  0.00     0.550 A  
HETATM   35  C   UNL     1     -12.188  14.485  69.364  1.00  0.00    -0.285 A  
HETATM   36  F   UNL     1     -13.626  12.680  69.851  1.00  0.00     1.257 F  
ENDBRANCH  28  29
ENDBRANCH  24  28
ENDBRANCH  17  18
ENDBRANCH  11  14
BRANCH  12  37
HETATM   37  N   UNL     1      -9.753  10.355  68.794  1.00  0.00    -0.174 NA 
HETATM   38  H   UNL     1      -9.850  11.111  69.471  1.00  0.00     0.000 HD 
BRANCH  37  39
HETATM   39  C   UNL     1     -10.963   9.843  68.129  1.00  0.00    -0.207 C  
HETATM   40  C   UNL     1     -10.709   8.864  66.980  1.00  0.00    -0.180 C  
HETATM   41  O   UNL     1     -11.072  10.635  65.349  1.00  0.00     0.099 OA 
HETATM   42  C   UNL     1     -11.150  11.630  66.368  1.00  0.00    -0.291 C  
HETATM   43  C   UNL     1     -11.776  11.031  67.618  1.00  0.00    -0.102 C  
HETATM   44  C   UNL     1     -10.215   9.557  65.719  1.00  0.00    -0.037 C  
ENDBRANCH  37  39
ENDBRANCH  12  37
ENDBRANCH   5   8
TORSDOF 7
ENDMDL
MODEL      136
REMARK 921   NORMALIZED FREE ENERGY PREDICTED BY IDOCK:    2.56 KCAL/MOL
REMARK 922        TOTAL FREE ENERGY PREDICTED BY IDOCK:    1.08 KCAL/MOL
REMARK 923 INTER-LIGAND FREE ENERGY PREDICTED BY IDOCK:    0.97 KCAL/MOL
REMARK 924 INTRA-LIGAND FREE ENERGY PREDICTED BY IDOCK:    0.11 KCAL/MOL
REMARK 927      BINDING AFFINITY PREDICTED BY RF-SCORE:    0.00 PKD
ROOT
HETATM    1  C   UNL     1      -6.048  16.226  66.583  1.00  0.00     0.412 C  
HETATM    2  N   UNL     1      -6.763  15.396  67.550  1.00  0.00    -0.178 NA 
HETATM    3  C   UNL     1      -7.709  14.482  66.870  1.00  0.00     0.258 C  
HETATM    4  C   UNL     1      -7.040  13.313  66.116  1.00  0.00     3.452 C  
HETATM    5  N   UNL     1      -6.195  12.549  67.057  1.00  0.00    -0.227 NA 
HETATM    6  C   UNL     1      -5.159  13.380  67.686  1.00  0.00     0.011 C  
HETATM    7  C   UNL     1      -5.826  14.598  68.380  1.00  0.00    -0.105 C  
ENDROOT
BRANCH   5   8
HETATM    8  C   UNL     1      -6.149  11.169  67.003  1.00  0.00    -0.092 A  
HETATM    9  C   UNL     1      -5.732  10.445  65.890  1.00  0.00    -0.097 A  
HETATM   10  C   UNL     1      -5.770   9.045  65.883  1.00  0.00    -0.050 A  
HETATM   11  C   UNL     1      -6.238   8.325  66.996  1.00  0.00    -0.055 A  
HETATM   12  C   UNL     1      -6.578   9.006  68.178  1.00  0.00    -0.060 A  
HETATM   13  C   UNL     1      -6.503  10.408  68.133  1.00  0.00    -0.056 A  
BRANCH  11  14
HETATM   14  C   UNL     1      -6.371   6.846  66.822  1.00  0.00    -0.045 C  
HETATM   15  H   UNL     1      -6.855   6.666  68.821  1.00  0.00     0.000 HD 
HETATM   16  O   UNL     1      -6.209   6.388  65.692  1.00  0.00    -0.035 OA 
HETATM   17  N   UNL     1      -6.701   6.137  67.962  1.00  0.00    -0.062 N  
BRANCH  17  18
HETATM   18  C   UNL     1      -6.838   4.761  68.022  1.00  0.00    -0.056 A  
HETATM   19  C   UNL     1      -7.774   4.049  68.844  1.00  0.00    -0.054 A  
HETATM   20  C   UNL     1      -8.797   4.359  69.758  1.00  0.00    -0.129 A  
HETATM   21  N   UNL     1      -6.086   3.912  67.322  1.00  0.00    -0.024 NA 
HETATM   22  N   UNL     1      -6.495   2.699  67.694  1.00  0.00    -0.035 NA 
HETATM   23  H   UNL     1      -5.354   4.141  66.648  1.00  0.00     0.000 HD 
HETATM   24  C   UNL     1      -9.460   3.335  70.468  1.00  0.00    -0.242 A  
HETATM   25  C   UNL     1      -9.101   2.000  70.242  1.00  0.00    -0.161 A  
HETATM   26  C   UNL     1      -7.478   2.705  68.643  1.00  0.00    -0.048 A  
HETATM   27  C   UNL     1      -8.110   1.658  69.317  1.00  0.00    -0.059 A  
BRANCH  24  28
HETATM   28  C   UNL     1     -10.587   3.674  71.422  1.00  0.00     0.688 C  
BRANCH  28  29
HETATM   29  C   UNL     1     -10.371   4.877  72.319  1.00  0.00    -0.267 A  
HETATM   30  C   UNL     1     -11.354   5.850  72.558  1.00  0.00    -0.352 A  
HETATM   31  C   UNL     1     -11.115   6.893  73.453  1.00  0.00    -0.084 A  
HETATM   32  F   UNL     1     -12.078   7.796  73.677  1.00  0.00     0.477 F  
HETATM   33  C   UNL     1      -9.907   7.005  74.123  1.00  0.00    -0.306 A  
HETATM   34  C   UNL     1      -8.924   6.062  73.871  1.00  0.00    -0.127 A  
HETATM   35  C   UNL     1      -9.141   5.009  72.983  1.00  0.00    -0.128 A  
HETATM   36  F   UNL     1      -7.744   6.155  74.500  1.00  0.00    -0.099 F  
ENDBRANCH  28  29
ENDBRANCH  24  28
ENDBRANCH  17  18
ENDBRANCH  11  14
BRANCH  12  37
HETATM   37  N   UNL     1      -7.049   8.343  69.318  1.00  0.00    -0.061 NA 
HETATM   38  H   UNL     1      -6.639   7.441  69.561  1.00  0.00     0.000 HD 
BRANCH  37  39
HETATM   39  C   UNL     1      -8.109   8.891  70.181  1.00  0.00    -0.122 C  
HETATM   40  C   UNL     1      -8.957   7.846  70.912  1.00  0.00    -0.147 C  
HETATM   41  O   UNL     1     -10.740   8.102  69.275  1.00  0.00    -0.211 OA 
HETATM   42  C   UNL     1      -9.938   8.950  68.455  1.00  0.00    -0.177 C  
HETATM   43  C   UNL     1      -9.015   9.781  69.333  1.00  0.00    -0.197 C  
HETATM   44  C   UNL     1      -9.953   7.155  69.994  1.00  0.00    -0.179 C  
ENDBRANCH  37  39
ENDBRANCH  12  37
ENDBRANCH   5   8
TORSDOF 7
ENDMDL
MODEL      137
REMARK 921   NORMALIZED FREE ENERGY PREDICTED BY IDOCK:    5.10 KCAL/MOL
REMARK 922        TOTAL FREE ENERGY PREDICTED BY IDOCK:    4.67 KCAL/MOL
REMARK 923 INTER-LIGAND FREE ENERGY PREDICTED BY IDOCK:    4.15 KCAL/MOL
REMARK 924 INTRA-LIGAND FREE ENERGY PREDICTED BY IDOCK:    0.52 KCAL/MOL
REMARK 927      BINDING AFFINITY PREDICTED BY RF-SCORE:    0.00 PKD
ROOT
HETATM    1  C   UNL     1      -6.156   4.163  68.782  1.00  0.00    -0.031 C  
HETATM    2  N   UNL     1      -7.045   4.712  69.801  1.00  0.00    -0.052 NA 
HETATM    3  C   UNL     1      -6.460   5.921  70.425  1.00  0.00    -0.036 C  
HETATM    4  C   UNL     1      -6.458   7.171  69.520  1.00  0.00    -0.040 C  
HETATM    5  N   UNL     1      -7.840   7.455  69.083  1.00  0.00    -0.114 NA 
HETATM    6  C   UNL     1      -8.444   6.329  68.356  1.00  0.00    -0.115 C  
HETATM    7  C   UNL     1      -8.376   5.053  69.237  1.00  0.00    -0.082 C  
ENDROOT
BRANCH   5   8
HETATM    8  C   UNL     1      -8.307   8.754  69.015  1.00  0.00    -0.129 A  
HETATM    9  C   UNL     1      -9.650   9.107  69.105  1.00  0.00    -0.161 A  
HETATM   10  C   UNL     1     -10.058  10.439  68.965  1.00  0.00    -0.227 A  
HETATM   11  C   UNL     1      -9.125  11.464  68.722  1.00  0.00    -0.096 A  
HETATM   12  C   UNL     1      -7.750  11.171  68.721  1.00  0.00    -0.136 A  
HETATM   13  C   UNL     1      -7.399   9.822  68.884  1.00  0.00    -0.073 A  
BRANCH  11  14
HETATM   14  C   UNL     1      -9.687  12.821  68.446  1.00  0.00    -0.186 C  
HETATM   15  H   UNL     1     -11.182  12.471  69.826  1.00  0.00     0.000 HD 
HETATM   16  O   UNL     1      -9.085  13.536  67.646  1.00  0.00    -0.186 OA 
HETATM   17  N   UNL     1     -10.826  13.153  69.155  1.00  0.00    -0.155 N  
BRANCH  17  18
HETATM   18  C   UNL     1     -11.519  14.343  69.022  1.00  0.00    -0.283 A  
HETATM   19  C   UNL     1     -11.157  15.430  68.159  1.00  0.00    -0.309 A  
HETATM   20  C   UNL     1     -10.152  15.716  67.217  1.00  0.00    -0.255 A  
HETATM   21  N   UNL     1     -12.622  14.638  69.712  1.00  0.00    -0.561 NA 
HETATM   22  N   UNL     1     -12.946  15.874  69.334  1.00  0.00     0.508 NA 
HETATM   23  H   UNL     1     -13.110  14.045  70.383  1.00  0.00     0.000 HD 
HETATM   24  C   UNL     1     -10.073  16.990  66.616  1.00  0.00    -0.308 A  
HETATM   25  C   UNL     1     -11.017  17.968  66.953  1.00  0.00     0.085 A  
HETATM   26  C   UNL     1     -12.082  16.432  68.436  1.00  0.00     0.665 A  
HETATM   27  C   UNL     1     -12.047  17.704  67.862  1.00  0.00     2.594 A  
BRANCH  24  28
HETATM   28  C   UNL     1      -9.012  17.279  65.575  1.00  0.00     0.789 C  
BRANCH  28  29
HETATM   29  C   UNL     1      -7.653  17.706  66.097  1.00  0.00    -0.315 A  
HETATM   30  C   UNL     1      -7.056  18.936  65.785  1.00  0.00    -0.274 A  
HETATM   31  C   UNL     1      -5.837  19.298  66.359  1.00  0.00    -0.164 A  
HETATM   32  F   UNL     1      -5.300  20.487  66.059  1.00  0.00    -0.186 F  
HETATM   33  C   UNL     1      -5.178  18.456  67.241  1.00  0.00    -0.140 A  
HETATM   34  C   UNL     1      -5.751  17.228  67.532  1.00  0.00    -0.134 A  
HETATM   35  C   UNL     1      -6.970  16.847  66.974  1.00  0.00    -0.235 A  
HETATM   36  F   UNL     1      -5.128  16.395  68.376  1.00  0.00    -0.092 F  
ENDBRANCH  28  29
ENDBRANCH  24  28
ENDBRANCH  17  18
ENDBRANCH  11  14
BRANCH  12  37
HETATM   37  N   UNL     1      -6.775  12.149  68.486  1.00  0.00    -0.066 NA 
HETATM   38  H   UNL     1      -6.816  12.678  67.614  1.00  0.00     0.000 HD 
BRANCH  37  39
HETATM   39  C   UNL     1      -5.695  12.447  69.441  1.00  0.00    -0.085 C  
HETATM   40  C   UNL     1      -6.003  12.099  70.900  1.00  0.00     0.273 C  
HETATM   41  O   UNL     1      -6.503  14.433  71.383  1.00  0.00     0.127 OA 
HETATM   42  C   UNL     1      -6.398  14.795  70.008  1.00  0.00    -0.164 C  
HETATM   43  C   UNL     1      -5.346  13.930  69.332  1.00  0.00    -0.083 C  
HETATM   44  C   UNL     1      -6.957  13.091  71.549  1.00  0.00     4.578 C  
ENDBRANCH  37  39
ENDBRANCH  12  37
ENDBRANCH   5   8
TORSDOF 7
ENDMDL
MODEL      138
REMARK 921   NORMALIZED FREE ENERGY PREDICTED BY IDOCK:    6.16 KCAL/MOL
REMARK 922        TOTAL FREE ENERGY PREDICTED BY IDOCK:    6.16 KCAL/MOL
REMARK 923 INTER-LIGAND FREE ENERGY PREDICTED BY IDOCK:    5.39 KCAL/MOL
REMARK 924 INTRA-LIGAND FREE ENERGY PREDICTED BY IDOCK:    0.77 KCAL/MOL
REMARK 927      BINDING AFFINITY PREDICTED BY RF-SCORE:    0.00 PKD
ROOT
HETATM    1  C   UNL     1     -10.778   3.942  63.819  1.00  0.00    -0.175 C  
HETATM    2  N   UNL     1     -11.030   5.381  63.837  1.00  0.00     2.846 NA 
HETATM    3  C   UNL     1     -11.783   5.775  65.050  1.00  0.00     4.315 C  
HETATM    4  C   UNL     1     -10.960   5.737  66.355  1.00  0.00     0.015 C  
HETATM    5  N   UNL     1      -9.771   6.601  66.203  1.00  0.00     0.007 NA 
HETATM    6  C   UNL     1      -8.918   6.193  65.077  1.00  0.00     0.260 C  
HETATM    7  C   UNL     1      -9.765   6.157  63.777  1.00  0.00     2.737 C  
ENDROOT
BRANCH   5   8
HETATM    8  C   UNL     1      -9.341   7.400  67.245  1.00  0.00    -0.133 A  
HETATM    9  C   UNL     1     -10.065   8.473  67.756  1.00  0.00    -0.266 A  
HETATM   10  C   UNL     1      -9.539   9.280  68.773  1.00  0.00    -0.157 A  
HETATM   11  C   UNL     1      -8.261   9.037  69.307  1.00  0.00    -0.117 A  
HETATM   12  C   UNL     1      -7.534   7.908  68.893  1.00  0.00    -0.094 A  
HETATM   13  C   UNL     1      -8.117   7.125  67.884  1.00  0.00    -0.119 A  
BRANCH  11  14
HETATM   14  C   UNL     1      -7.747  10.047  70.282  1.00  0.00    -0.073 C  
HETATM   15  H   UNL     1      -6.758  11.009  68.746  1.00  0.00     0.000 HD 
HETATM   16  O   UNL     1      -8.110   9.947  71.453  1.00  0.00     0.319 OA 
HETATM   17  N   UNL     1      -6.928  11.027  69.752  1.00  0.00    -0.126 N  
BRANCH  17  18
HETATM   18  C   UNL     1      -6.323  12.031  70.488  1.00  0.00     0.406 A  
HETATM   19  C   UNL     1      -6.396  13.435  70.204  1.00  0.00     0.011 A  
HETATM   20  C   UNL     1      -7.016  14.272  69.258  1.00  0.00    -0.116 A  
HETATM   21  N   UNL     1      -5.566  11.807  71.562  1.00  0.00    -0.351 NA 
HETATM   22  N   UNL     1      -5.141  13.011  71.944  1.00  0.00    -0.293 NA 
HETATM   23  H   UNL     1      -5.357  10.908  71.997  1.00  0.00     0.000 HD 
HETATM   24  C   UNL     1      -6.761  15.660  69.250  1.00  0.00    -0.158 A  
HETATM   25  C   UNL     1      -5.893  16.203  70.205  1.00  0.00    -0.117 A  
HETATM   26  C   UNL     1      -5.564  14.035  71.144  1.00  0.00    -0.212 A  
HETATM   27  C   UNL     1      -5.286  15.403  71.178  1.00  0.00    -0.112 A  
BRANCH  24  28
HETATM   28  C   UNL     1      -7.461  16.559  68.253  1.00  0.00    -0.171 C  
BRANCH  28  29
HETATM   29  C   UNL     1      -8.503  15.902  67.369  1.00  0.00    -0.194 A  
HETATM   30  C   UNL     1      -9.346  16.617  66.503  1.00  0.00    -0.290 A  
HETATM   31  C   UNL     1     -10.232  15.945  65.663  1.00  0.00    -0.379 A  
HETATM   32  F   UNL     1     -11.010  16.652  64.832  1.00  0.00    -0.418 F  
HETATM   33  C   UNL     1     -10.316  14.562  65.661  1.00  0.00    -0.367 A  
HETATM   34  C   UNL     1      -9.506  13.852  66.533  1.00  0.00    -0.274 A  
HETATM   35  C   UNL     1      -8.609  14.502  67.380  1.00  0.00    -0.213 A  
HETATM   36  F   UNL     1      -9.576  12.514  66.556  1.00  0.00    -0.217 F  
ENDBRANCH  28  29
ENDBRANCH  24  28
ENDBRANCH  17  18
ENDBRANCH  11  14
BRANCH  12  37
HETATM   37  N   UNL     1      -6.257   7.615  69.390  1.00  0.00    -0.034 NA 
HETATM   38  H   UNL     1      -5.446   7.834  68.810  1.00  0.00     0.000 HD 
BRANCH  37  39
HETATM   39  C   UNL     1      -6.034   7.004  70.711  1.00  0.00    -0.028 C  
HETATM   40  C   UNL     1      -5.513   5.565  70.682  1.00  0.00    -0.009 C  
HETATM   41  O   UNL     1      -7.748   4.714  71.134  1.00  0.00    -0.076 OA 
HETATM   42  C   UNL     1      -8.326   6.011  71.004  1.00  0.00    -0.124 C  
HETATM   43  C   UNL     1      -7.341   7.059  71.498  1.00  0.00    -0.080 C  
HETATM   44  C   UNL     1      -6.593   4.559  70.313  1.00  0.00    -0.035 C  
ENDBRANCH  37  39
ENDBRANCH  12  37
ENDBRANCH   5   8
TORSDOF 7
ENDMDL
MODEL      139
REMARK 921   NORMALIZED FREE ENERGY PREDICTED BY IDOCK:    7.51 KCAL/MOL
REMARK 922        TOTAL FREE ENERGY PREDICTED BY IDOCK:    8.06 KCAL/MOL
REMARK 923 INTER-LIGAND FREE ENERGY PREDICTED BY IDOCK:    9.17 KCAL/MOL
REMARK 924 INTRA-LIGAND FREE ENERGY PREDICTED BY IDOCK:   -1.10 KCAL/MOL
REMARK 927      BINDING AFFINITY PREDICTED BY RF-SCORE:    0.00 PKD
ROOT
HETATM    1  C   UNL     1     -13.650  16.645  70.795  1.00  0.00     5.265 C  
HETATM    2  N   UNL     1     -14.174  15.394  70.253  1.00  0.00     0.665 NA 
HETATM    3  C   UNL     1     -13.323  14.891  69.151  1.00  0.00     2.166 C  
HETATM    4  C   UNL     1     -11.964  14.315  69.604  1.00  0.00    -0.336 C  
HETATM    5  N   UNL     1     -12.198  13.237  70.587  1.00  0.00    -0.366 NA 
HETATM    6  C   UNL     1     -12.948  13.699  71.763  1.00  0.00    -0.353 C  
HETATM    7  C   UNL     1     -14.280  14.348  71.302  1.00  0.00    -0.172 C  
ENDROOT
BRANCH   5   8
HETATM    8  C   UNL     1     -11.439  12.082  70.561  1.00  0.00     0.478 A  
HETATM    9  C   UNL     1     -11.828  10.880  71.144  1.00  0.00    -0.189 A  
HETATM   10  C   UNL     1     -10.980   9.765  71.135  1.00  0.00    -0.386 A  
HETATM   11  C   UNL     1      -9.705   9.826  70.543  1.00  0.00    -0.195 A  
HETATM   12  C   UNL     1      -9.307  10.986  69.858  1.00  0.00     0.989 A  
HETATM   13  C   UNL     1     -10.205  12.066  69.884  1.00  0.00     1.413 A  
BRANCH  11  14
HETATM   14  C   UNL     1      -8.833   8.625  70.721  1.00  0.00    -0.175 C  
HETATM   15  H   UNL     1      -8.571   8.527  68.676  1.00  0.00     0.000 HD 
HETATM   16  O   UNL     1      -8.606   8.249  71.870  1.00  0.00    -0.136 OA 
HETATM   17  N   UNL     1      -8.335   8.070  69.557  1.00  0.00    -0.125 N  
BRANCH  17  18
HETATM   18  C   UNL     1      -7.538   6.940  69.500  1.00  0.00    -0.099 A  
HETATM   19  C   UNL     1      -7.892   5.698  68.874  1.00  0.00    -0.096 A  
HETATM   20  C   UNL     1      -8.977   5.174  68.150  1.00  0.00    -0.118 A  
HETATM   21  N   UNL     1      -6.326   6.861  70.051  1.00  0.00    -0.035 NA 
HETATM   22  N   UNL     1      -5.921   5.613  69.818  1.00  0.00    -0.020 NA 
HETATM   23  H   UNL     1      -5.820   7.597  70.544  1.00  0.00     0.000 HD 
HETATM   24  C   UNL     1      -8.995   3.816  67.765  1.00  0.00    -0.161 A  
HETATM   25  C   UNL     1      -7.911   2.994  68.098  1.00  0.00    -0.065 A  
HETATM   26  C   UNL     1      -6.832   4.841  69.155  1.00  0.00    -0.050 A  
HETATM   27  C   UNL     1      -6.803   3.494  68.790  1.00  0.00    -0.046 A  
BRANCH  24  28
HETATM   28  C   UNL     1     -10.149   3.268  66.952  1.00  0.00     0.865 C  
BRANCH  28  29
HETATM   29  C   UNL     1     -10.043   3.415  65.447  1.00  0.00     0.198 A  
HETATM   30  C   UNL     1     -11.000   2.913  64.551  1.00  0.00     0.810 A  
HETATM   31  C   UNL     1     -10.879   3.147  63.182  1.00  0.00    -0.196 A  
HETATM   32  F   UNL     1     -11.818   2.674  62.352  1.00  0.00    -0.007 F  
HETATM   33  C   UNL     1      -9.815   3.869  62.665  1.00  0.00    -0.141 A  
HETATM   34  C   UNL     1      -8.853   4.344  63.542  1.00  0.00    -0.131 A  
HETATM   35  C   UNL     1      -8.955   4.125  64.915  1.00  0.00    -0.138 A  
HETATM   36  F   UNL     1      -7.811   5.037  63.064  1.00  0.00    -0.058 F  
ENDBRANCH  28  29
ENDBRANCH  24  28
ENDBRANCH  17  18
ENDBRANCH  11  14
BRANCH  12  37
HETATM   37  N   UNL     1      -8.051  11.105  69.249  1.00  0.00    -0.371 NA 
HETATM   38  H   UNL     1      -7.430  10.295  69.251  1.00  0.00     0.000 HD 
BRANCH  37  39
HETATM   39  C   UNL     1      -7.588  12.347  68.607  1.00  0.00    -0.082 C  
HETATM   40  C   UNL     1      -8.499  12.885  67.500  1.00  0.00    -0.186 C  
HETATM   41  O   UNL     1      -7.032  11.953  65.796  1.00  0.00     0.804 OA 
HETATM   42  C   UNL     1      -6.238  11.281  66.771  1.00  0.00    -0.134 C  
HETATM   43  C   UNL     1      -6.188  12.110  68.045  1.00  0.00    -0.065 C  
HETATM   44  C   UNL     1      -8.390  12.085  66.211  1.00  0.00     0.145 C  
ENDBRANCH  37  39
ENDBRANCH  12  37
ENDBRANCH   5   8
TORSDOF 7
ENDMDL
MODEL      140
REMARK 921   NORMALIZED FREE ENERGY PREDICTED BY IDOCK:    7.74 KCAL/MOL
REMARK 922        TOTAL FREE ENERGY PREDICTED BY IDOCK:    8.38 KCAL/MOL
REMARK 923 INTER-LIGAND FREE ENERGY PREDICTED BY IDOCK:    8.53 KCAL/MOL
REMARK 924 INTRA-LIGAND FREE ENERGY PREDICTED BY IDOCK:   -0.15 KCAL/MOL
REMARK 927      BINDING AFFINITY PREDICTED BY RF-SCORE:    0.00 PKD
ROOT
HETATM    1  C   UNL     1     -10.090  20.701  71.754  1.00  0.00     3.547 C  
HETATM    2  N   UNL     1      -9.136  20.443  70.679  1.00  0.00     1.431 NA 
HETATM    3  C   UNL     1      -8.484  19.125  70.850  1.00  0.00     3.639 C  
HETATM    4  C   UNL     1      -9.396  17.916  70.552  1.00  0.00     3.547 C  
HETATM    5  N   UNL     1      -9.926  18.037  69.177  1.00  0.00    -0.261 NA 
HETATM    6  C   UNL     1     -10.683  19.280  68.973  1.00  0.00     0.713 C  
HETATM    7  C   UNL     1      -9.790  20.494  69.347  1.00  0.00     0.574 C  
ENDROOT
BRANCH   5   8
HETATM    8  C   UNL     1     -10.034  16.926  68.362  1.00  0.00    -0.275 A  
HETATM    9  C   UNL     1     -11.236  16.291  68.064  1.00  0.00    -0.260 A  
HETATM   10  C   UNL     1     -11.265  15.130  67.281  1.00  0.00    -0.324 A  
HETATM   11  C   UNL     1     -10.080  14.564  66.776  1.00  0.00    -0.264 A  
HETATM   12  C   UNL     1      -8.853  15.223  66.968  1.00  0.00    -0.237 A  
HETATM   13  C   UNL     1      -8.887  16.391  67.746  1.00  0.00    -0.189 A  
BRANCH  11  14
HETATM   14  C   UNL     1     -10.218  13.250  66.078  1.00  0.00    -0.291 C  
HETATM   15  H   UNL     1      -9.015  12.377  67.510  1.00  0.00     0.000 HD 
HETATM   16  O   UNL     1     -10.941  13.204  65.084  1.00  0.00    -0.287 OA 
HETATM   17  N   UNL     1      -9.534  12.194  66.651  1.00  0.00    -0.218 N  
BRANCH  17  18
HETATM   18  C   UNL     1      -9.503  10.907  66.144  1.00  0.00    -0.200 A  
HETATM   19  C   UNL     1      -8.871   9.778  66.765  1.00  0.00    -0.151 A  
HETATM   20  C   UNL     1      -8.163   9.507  67.950  1.00  0.00    -0.114 A  
HETATM   21  N   UNL     1     -10.053  10.557  64.981  1.00  0.00    -0.316 NA 
HETATM   22  N   UNL     1      -9.766   9.263  64.837  1.00  0.00     0.107 NA 
HETATM   23  H   UNL     1     -10.578  11.152  64.339  1.00  0.00     0.000 HD 
HETATM   24  C   UNL     1      -7.592   8.236  68.170  1.00  0.00    -0.098 A  
HETATM   25  C   UNL     1      -7.749   7.236  67.203  1.00  0.00    -0.112 A  
HETATM   26  C   UNL     1      -9.017   8.738  65.852  1.00  0.00    -0.195 A  
HETATM   27  C   UNL     1      -8.474   7.464  66.029  1.00  0.00    -0.152 A  
BRANCH  24  28
HETATM   28  C   UNL     1      -6.863   7.941  69.465  1.00  0.00    -0.047 C  
BRANCH  28  29
HETATM   29  C   UNL     1      -7.313   6.709  70.225  1.00  0.00    -0.085 A  
HETATM   30  C   UNL     1      -8.414   6.696  71.096  1.00  0.00    -0.126 A  
HETATM   31  C   UNL     1      -8.819   5.510  71.707  1.00  0.00    -0.136 A  
HETATM   32  F   UNL     1      -9.886   5.523  72.517  1.00  0.00    -0.170 F  
HETATM   33  C   UNL     1      -8.148   4.318  71.485  1.00  0.00    -0.087 A  
HETATM   34  C   UNL     1      -7.044   4.330  70.648  1.00  0.00    -0.041 A  
HETATM   35  C   UNL     1      -6.622   5.503  70.022  1.00  0.00    -0.043 A  
HETATM   36  F   UNL     1      -6.374   3.192  70.424  1.00  0.00    -0.024 F  
ENDBRANCH  28  29
ENDBRANCH  24  28
ENDBRANCH  17  18
ENDBRANCH  11  14
BRANCH  12  37
HETATM   37  N   UNL     1      -7.642  14.708  66.489  1.00  0.00     0.036 NA 
HETATM   38  H   UNL     1      -7.481  14.701  65.481  1.00  0.00     0.000 HD 
BRANCH  37  39
HETATM   39  C   UNL     1      -6.592  14.177  67.375  1.00  0.00     0.083 C  
HETATM   40  C   UNL     1      -7.081  13.689  68.741  1.00  0.00    -0.103 C  
HETATM   41  O   UNL     1      -6.327  15.756  69.784  1.00  0.00    -0.167 OA 
HETATM   42  C   UNL     1      -6.008  16.339  68.521  1.00  0.00    -0.112 C  
HETATM   43  C   UNL     1      -5.529  15.256  67.568  1.00  0.00     0.052 C  
HETATM   44  C   UNL     1      -7.410  14.833  69.688  1.00  0.00    -0.114 C  
ENDBRANCH  37  39
ENDBRANCH  12  37
ENDBRANCH   5   8
TORSDOF 7
ENDMDL
MODEL      141
REMARK 921   NORMALIZED FREE ENERGY PREDICTED BY IDOCK:    7.89 KCAL/MOL
REMARK 922        TOTAL FREE ENERGY PREDICTED BY IDOCK:    8.60 KCAL/MOL
REMARK 923 INTER-LIGAND FREE ENERGY PREDICTED BY IDOCK:    9.26 KCAL/MOL
REMARK 924 INTRA-LIGAND FREE ENERGY PREDICTED BY IDOCK:   -0.66 KCAL/MOL
REMARK 927      BINDING AFFINITY PREDICTED BY RF-SCORE:    0.00 PKD
ROOT
HETATM    1  C   UNL     1     -10.633  19.100  74.380  1.00  0.00     4.417 C  
HETATM    2  N   UNL     1     -11.940  18.562  74.015  1.00  0.00     2.116 NA 
HETATM    3  C   UNL     1     -12.110  18.527  72.544  1.00  0.00     7.553 C  
HETATM    4  C   UNL     1     -11.281  17.439  71.829  1.00  0.00     1.696 C  
HETATM    5  N   UNL     1     -11.617  16.119  72.403  1.00  0.00    -0.396 NA 
HETATM    6  C   UNL     1     -11.365  16.052  73.849  1.00  0.00     1.338 C  
HETATM    7  C   UNL     1     -12.139  17.195  74.560  1.00  0.00     0.115 C  
ENDROOT
BRANCH   5   8
HETATM    8  C   UNL     1     -11.743  15.008  71.590  1.00  0.00    -0.377 A  
HETATM    9  C   UNL     1     -12.459  13.866  71.936  1.00  0.00    -0.249 A  
HETATM   10  C   UNL     1     -12.492  12.750  71.089  1.00  0.00    -0.335 A  
HETATM   11  C   UNL     1     -11.799  12.746  69.866  1.00  0.00    -0.371 A  
HETATM   12  C   UNL     1     -11.143  13.910  69.429  1.00  0.00    -0.180 A  
HETATM   13  C   UNL     1     -11.158  15.002  70.310  1.00  0.00    -0.261 A  
BRANCH  11  14
HETATM   14  C   UNL     1     -11.786  11.453  69.115  1.00  0.00    -0.345 C  
HETATM   15  H   UNL     1      -9.794  11.748  68.662  1.00  0.00     0.000 HD 
HETATM   16  O   UNL     1     -12.821  10.787  69.108  1.00  0.00    -0.103 OA 
HETATM   17  N   UNL     1     -10.583  11.116  68.524  1.00  0.00    -0.181 N  
BRANCH  17  18
HETATM   18  C   UNL     1     -10.370   9.982  67.759  1.00  0.00    -0.215 A  
HETATM   19  C   UNL     1     -10.493   8.629  68.218  1.00  0.00    -0.234 A  
HETATM   20  C   UNL     1     -10.844   7.964  69.407  1.00  0.00    -0.114 A  
HETATM   21  N   UNL     1      -9.999  10.014  66.479  1.00  0.00    -0.214 NA 
HETATM   22  N   UNL     1      -9.857   8.735  66.128  1.00  0.00    -0.261 NA 
HETATM   23  H   UNL     1      -9.854  10.838  65.895  1.00  0.00     0.000 HD 
HETATM   24  C   UNL     1     -10.749   6.559  69.499  1.00  0.00    -0.322 A  
HETATM   25  C   UNL     1     -10.316   5.826  68.387  1.00  0.00    -0.269 A  
HETATM   26  C   UNL     1     -10.093   7.847  67.139  1.00  0.00    -0.258 A  
HETATM   27  C   UNL     1      -9.989   6.455  67.181  1.00  0.00    -0.197 A  
BRANCH  24  28
HETATM   28  C   UNL     1     -11.165   5.847  70.769  1.00  0.00    -0.281 C  
BRANCH  28  29
HETATM   29  C   UNL     1     -10.045   5.388  71.682  1.00  0.00    -0.259 A  
HETATM   30  C   UNL     1      -8.761   5.954  71.677  1.00  0.00    -0.136 A  
HETATM   31  C   UNL     1      -7.798   5.535  72.594  1.00  0.00    -0.102 A  
HETATM   32  F   UNL     1      -6.587   6.107  72.580  1.00  0.00    -0.058 F  
HETATM   33  C   UNL     1      -8.073   4.547  73.527  1.00  0.00    -0.095 A  
HETATM   34  C   UNL     1      -9.331   3.965  73.519  1.00  0.00    -0.103 A  
HETATM   35  C   UNL     1     -10.310   4.371  72.614  1.00  0.00    -0.248 A  
HETATM   36  F   UNL     1      -9.617   3.002  74.405  1.00  0.00    -0.102 F  
ENDBRANCH  28  29
ENDBRANCH  24  28
ENDBRANCH  17  18
ENDBRANCH  11  14
BRANCH  12  37
HETATM   37  N   UNL     1     -10.438  13.965  68.220  1.00  0.00    -0.243 NA 
HETATM   38  H   UNL     1      -9.628  13.355  68.100  1.00  0.00     0.000 HD 
BRANCH  37  39
HETATM   39  C   UNL     1     -10.812  14.864  67.115  1.00  0.00    -0.311 C  
HETATM   40  C   UNL     1      -9.879  14.826  65.902  1.00  0.00    -0.363 C  
HETATM   41  O   UNL     1      -8.787  16.873  66.639  1.00  0.00    -0.215 OA 
HETATM   42  C   UNL     1      -9.504  16.875  67.872  1.00  0.00    -0.239 C  
HETATM   43  C   UNL     1     -10.891  16.290  67.655  1.00  0.00    -0.293 C  
HETATM   44  C   UNL     1      -8.566  15.552  66.151  1.00  0.00    -0.043 C  
ENDBRANCH  37  39
ENDBRANCH  12  37
ENDBRANCH   5   8
TORSDOF 7
ENDMDL
MODEL      142
REMARK 921   NORMALIZED FREE ENERGY PREDICTED BY IDOCK:    8.11 KCAL/MOL
REMARK 922        TOTAL FREE ENERGY PREDICTED BY IDOCK:    8.91 KCAL/MOL
REMARK 923 INTER-LIGAND FREE ENERGY PREDICTED BY IDOCK:   10.61 KCAL/MOL
REMARK 924 INTRA-LIGAND FREE ENERGY PREDICTED BY IDOCK:   -1.70 KCAL/MOL
REMARK 927      BINDING AFFINITY PREDICTED BY RF-SCORE:    0.00 PKD
ROOT
HETATM    1  C   UNL     1     -10.271   2.612  65.403  1.00  0.00     0.941 C  
HETATM    2  N   UNL     1     -11.019   3.157  66.533  1.00  0.00     3.876 NA 
HETATM    3  C   UNL     1     -10.213   3.118  67.775  1.00  0.00     1.475 C  
HETATM    4  C   UNL     1      -9.066   4.149  67.826  1.00  0.00    -0.136 C  
HETATM    5  N   UNL     1      -9.624   5.504  67.635  1.00  0.00    -0.118 NA 
HETATM    6  C   UNL     1     -10.347   5.642  66.363  1.00  0.00    -0.187 C  
HETATM    7  C   UNL     1     -11.451   4.555  66.278  1.00  0.00     2.591 C  
ENDROOT
BRANCH   5   8
HETATM    8  C   UNL     1      -9.150   6.573  68.372  1.00  0.00    -0.123 A  
HETATM    9  C   UNL     1      -8.312   6.449  69.477  1.00  0.00    -0.126 A  
HETATM   10  C   UNL     1      -7.921   7.572  70.216  1.00  0.00    -0.103 A  
HETATM   11  C   UNL     1      -8.366   8.861  69.871  1.00  0.00    -0.128 A  
HETATM   12  C   UNL     1      -9.132   9.048  68.708  1.00  0.00    -0.137 A  
HETATM   13  C   UNL     1      -9.480   7.889  67.996  1.00  0.00    -0.159 A  
BRANCH  11  14
HETATM   14  C   UNL     1      -8.003   9.963  70.814  1.00  0.00     0.436 C  
HETATM   15  H   UNL     1      -6.297  10.330  69.710  1.00  0.00     0.000 HD 
HETATM   16  O   UNL     1      -8.789  10.215  71.726  1.00  0.00     2.129 OA 
HETATM   17  N   UNL     1      -6.818  10.620  70.539  1.00  0.00     0.055 N  
BRANCH  17  18
HETATM   18  C   UNL     1      -6.287  11.643  71.305  1.00  0.00     1.671 A  
HETATM   19  C   UNL     1      -6.411  13.045  71.029  1.00  0.00     0.990 A  
HETATM   20  C   UNL     1      -7.029  13.862  70.065  1.00  0.00     0.271 A  
HETATM   21  N   UNL     1      -5.564  11.442  72.407  1.00  0.00     0.272 NA 
HETATM   22  N   UNL     1      -5.208  12.660  72.814  1.00  0.00    -0.332 NA 
HETATM   23  H   UNL     1      -5.333  10.549  72.843  1.00  0.00     0.000 HD 
HETATM   24  C   UNL     1      -6.834  15.260  70.077  1.00  0.00    -0.080 A  
HETATM   25  C   UNL     1      -6.029  15.832  71.071  1.00  0.00     0.422 A  
HETATM   26  C   UNL     1      -5.643  13.672  72.006  1.00  0.00    -0.061 A  
HETATM   27  C   UNL     1      -5.427  15.050  72.061  1.00  0.00     0.146 A  
BRANCH  24  28
HETATM   28  C   UNL     1      -7.533  16.137  69.060  1.00  0.00    -0.210 C  
BRANCH  28  29
HETATM   29  C   UNL     1      -9.048  16.086  69.053  1.00  0.00    -0.242 A  
HETATM   30  C   UNL     1      -9.801  15.315  69.952  1.00  0.00    -0.137 A  
HETATM   31  C   UNL     1     -11.194  15.371  69.940  1.00  0.00    -0.299 A  
HETATM   32  F   UNL     1     -11.886  14.640  70.823  1.00  0.00    -0.303 F  
HETATM   33  C   UNL     1     -11.875  16.176  69.041  1.00  0.00    -0.181 A  
HETATM   34  C   UNL     1     -11.138  16.920  68.133  1.00  0.00    -0.205 A  
HETATM   35  C   UNL     1      -9.744  16.883  68.129  1.00  0.00    -0.254 A  
HETATM   36  F   UNL     1     -11.774  17.699  67.249  1.00  0.00     0.423 F  
ENDBRANCH  28  29
ENDBRANCH  24  28
ENDBRANCH  17  18
ENDBRANCH  11  14
BRANCH  12  37
HETATM   37  N   UNL     1      -9.603  10.307  68.314  1.00  0.00    -0.140 NA 
HETATM   38  H   UNL     1     -10.335  10.750  68.871  1.00  0.00     0.000 HD 
BRANCH  37  39
HETATM   39  C   UNL     1      -9.090  11.019  67.131  1.00  0.00    -0.146 C  
HETATM   40  C   UNL     1      -8.773  12.501  67.352  1.00  0.00    -0.189 C  
HETATM   41  O   UNL     1     -10.874  13.138  66.301  1.00  0.00    -0.277 OA 
HETATM   42  C   UNL     1     -11.307  11.782  66.220  1.00  0.00    -0.287 C  
HETATM   43  C   UNL     1     -10.105  10.877  65.999  1.00  0.00    -0.303 C  
HETATM   44  C   UNL     1     -10.024  13.362  67.424  1.00  0.00    -0.230 C  
ENDBRANCH  37  39
ENDBRANCH  12  37
ENDBRANCH   5   8
TORSDOF 7
ENDMDL
MODEL      143
REMARK 921   NORMALIZED FREE ENERGY PREDICTED BY IDOCK:    8.65 KCAL/MOL
REMARK 922        TOTAL FREE ENERGY PREDICTED BY IDOCK:    9.66 KCAL/MOL
REMARK 923 INTER-LIGAND FREE ENERGY PREDICTED BY IDOCK:    9.89 KCAL/MOL
REMARK 924 INTRA-LIGAND FREE ENERGY PREDICTED BY IDOCK:   -0.22 KCAL/MOL
REMARK 927      BINDING AFFINITY PREDICTED BY RF-SCORE:    0.00 PKD
ROOT
HETATM    1  C   UNL     1     -11.279   3.095  66.293  1.00  0.00     5.440 C  
HETATM    2  N   UNL     1     -11.433   3.875  67.518  1.00  0.00     6.194 NA 
HETATM    3  C   UNL     1     -10.148   3.982  68.247  1.00  0.00     0.290 C  
HETATM    4  C   UNL     1      -9.114   4.918  67.586  1.00  0.00    -0.115 C  
HETATM    5  N   UNL     1      -9.709   6.261  67.424  1.00  0.00    -0.117 NA 
HETATM    6  C   UNL     1     -10.935   6.239  66.612  1.00  0.00    -0.142 C  
HETATM    7  C   UNL     1     -11.946   5.239  67.234  1.00  0.00     4.976 C  
ENDROOT
BRANCH   5   8
HETATM    8  C   UNL     1      -8.961   7.398  67.659  1.00  0.00    -0.126 A  
HETATM    9  C   UNL     1      -8.488   7.776  68.912  1.00  0.00    -0.129 A  
HETATM   10  C   UNL     1      -7.788   8.977  69.088  1.00  0.00    -0.093 A  
HETATM   11  C   UNL     1      -7.545   9.842  68.007  1.00  0.00    -0.085 A  
HETATM   12  C   UNL     1      -7.917   9.458  66.707  1.00  0.00    -0.108 A  
HETATM   13  C   UNL     1      -8.599   8.237  66.588  1.00  0.00    -0.135 A  
BRANCH  11  14
HETATM   14  C   UNL     1      -6.918  11.158  68.338  1.00  0.00    -0.072 C  
HETATM   15  H   UNL     1      -8.636  12.120  67.714  1.00  0.00     0.000 HD 
HETATM   16  O   UNL     1      -5.793  11.146  68.833  1.00  0.00    -0.040 OA 
HETATM   17  N   UNL     1      -7.695  12.272  68.080  1.00  0.00    -0.128 N  
BRANCH  17  18
HETATM   18  C   UNL     1      -7.290  13.580  68.283  1.00  0.00    -0.116 A  
HETATM   19  C   UNL     1      -8.141  14.668  68.671  1.00  0.00    -0.150 A  
HETATM   20  C   UNL     1      -9.497  14.862  68.991  1.00  0.00    -0.196 A  
HETATM   21  N   UNL     1      -6.035  13.999  68.119  1.00  0.00    -0.114 NA 
HETATM   22  N   UNL     1      -6.073  15.309  68.362  1.00  0.00    -0.098 NA 
HETATM   23  H   UNL     1      -5.222  13.438  67.862  1.00  0.00     0.000 HD 
HETATM   24  C   UNL     1      -9.997  16.158  69.242  1.00  0.00    -0.253 A  
HETATM   25  C   UNL     1      -9.126  17.253  69.186  1.00  0.00     0.008 A  
HETATM   26  C   UNL     1      -7.318  15.790  68.655  1.00  0.00    -0.137 A  
HETATM   27  C   UNL     1      -7.766  17.089  68.902  1.00  0.00    -0.231 A  
BRANCH  24  28
HETATM   28  C   UNL     1     -11.450  16.355  69.622  1.00  0.00    -0.112 C  
BRANCH  28  29
HETATM   29  C   UNL     1     -11.838  15.952  71.031  1.00  0.00    -0.468 A  
HETATM   30  C   UNL     1     -11.683  16.789  72.147  1.00  0.00     0.054 A  
HETATM   31  C   UNL     1     -12.129  16.384  73.404  1.00  0.00    -0.438 A  
HETATM   32  F   UNL     1     -11.986  17.212  74.447  1.00  0.00    -0.530 F  
HETATM   33  C   UNL     1     -12.727  15.148  73.593  1.00  0.00    -0.683 A  
HETATM   34  C   UNL     1     -12.859  14.306  72.501  1.00  0.00    -0.357 A  
HETATM   35  C   UNL     1     -12.424  14.691  71.233  1.00  0.00    -0.408 A  
HETATM   36  F   UNL     1     -13.426  13.103  72.661  1.00  0.00    -0.606 F  
ENDBRANCH  28  29
ENDBRANCH  24  28
ENDBRANCH  17  18
ENDBRANCH  11  14
BRANCH  12  37
HETATM   37  N   UNL     1      -7.700  10.277  65.591  1.00  0.00    -0.143 NA 
HETATM   38  H   UNL     1      -8.210  11.159  65.528  1.00  0.00     0.000 HD 
BRANCH  37  39
HETATM   39  C   UNL     1      -6.770   9.922  64.506  1.00  0.00    -0.124 C  
HETATM   40  C   UNL     1      -7.230  10.318  63.100  1.00  0.00    -0.112 C  
HETATM   41  O   UNL     1      -7.952   8.035  62.660  1.00  0.00    -0.139 OA 
HETATM   42  C   UNL     1      -7.705   7.640  64.008  1.00  0.00    -0.126 C  
HETATM   43  C   UNL     1      -6.518   8.416  64.556  1.00  0.00    -0.066 C  
HETATM   44  C   UNL     1      -8.325   9.408  62.565  1.00  0.00    -0.174 C  
ENDBRANCH  37  39
ENDBRANCH  12  37
ENDBRANCH   5   8
TORSDOF 7
ENDMDL
MODEL      144
REMARK 921   NORMALIZED FREE ENERGY PREDICTED BY IDOCK:   11.89 KCAL/MOL
REMARK 922        TOTAL FREE ENERGY PREDICTED BY IDOCK:   14.24 KCAL/MOL
REMARK 923 INTER-LIGAND FREE ENERGY PREDICTED BY IDOCK:   14.69 KCAL/MOL
REMARK 924 INTRA-LIGAND FREE ENERGY PREDICTED BY IDOCK:   -0.45 KCAL/MOL
REMARK 927      BINDING AFFINITY PREDICTED BY RF-SCORE:    0.00 PKD
ROOT
HETATM    1  C   UNL     1     -10.945   6.725  69.817  1.00  0.00    -0.297 C  
HETATM    2  N   UNL     1     -11.366   8.102  70.060  1.00  0.00    -0.084 NA 
HETATM    3  C   UNL     1     -10.367   8.829  70.876  1.00  0.00    -0.223 C  
HETATM    4  C   UNL     1      -9.066   9.187  70.126  1.00  0.00    -0.206 C  
HETATM    5  N   UNL     1      -9.403   9.979  68.924  1.00  0.00    -0.164 NA 
HETATM    6  C   UNL     1     -10.309   9.265  68.014  1.00  0.00    -0.221 C  
HETATM    7  C   UNL     1     -11.584   8.837  68.788  1.00  0.00     1.144 C  
ENDROOT
BRANCH   5   8
HETATM    8  C   UNL     1      -8.621  11.054  68.547  1.00  0.00    -0.158 A  
HETATM    9  C   UNL     1      -7.321  11.269  68.994  1.00  0.00    -0.115 A  
HETATM   10  C   UNL     1      -6.609  12.416  68.620  1.00  0.00    -0.079 A  
HETATM   11  C   UNL     1      -7.185  13.390  67.785  1.00  0.00    -0.156 A  
HETATM   12  C   UNL     1      -8.458  13.171  67.230  1.00  0.00    -0.198 A  
HETATM   13  C   UNL     1      -9.117  11.996  67.626  1.00  0.00    -0.179 A  
BRANCH  11  14
HETATM   14  C   UNL     1      -6.388  14.636  67.571  1.00  0.00    -0.016 C  
HETATM   15  H   UNL     1      -7.681  15.190  66.060  1.00  0.00     0.000 HD 
HETATM   16  O   UNL     1      -5.431  14.837  68.317  1.00  0.00    -0.101 OA 
HETATM   17  N   UNL     1      -6.837  15.467  66.562  1.00  0.00     0.889 N  
BRANCH  17  18
HETATM   18  C   UNL     1      -6.223  16.648  66.182  1.00  0.00     0.818 A  
HETATM   19  C   UNL     1      -6.058  17.809  67.009  1.00  0.00    -0.177 A  
HETATM   20  C   UNL     1      -6.355  18.193  68.329  1.00  0.00    -0.193 A  
HETATM   21  N   UNL     1      -5.718  16.861  64.966  1.00  0.00     2.167 NA 
HETATM   22  N   UNL     1      -5.269  18.116  64.992  1.00  0.00    -0.114 NA 
HETATM   23  H   UNL     1      -5.683  16.205  64.185  1.00  0.00     0.000 HD 
HETATM   24  C   UNL     1      -6.112  19.512  68.765  1.00  0.00    -0.279 A  
HETATM   25  C   UNL     1      -5.554  20.438  67.874  1.00  0.00    -0.246 A  
HETATM   26  C   UNL     1      -5.483  18.764  66.176  1.00  0.00    -0.155 A  
HETATM   27  C   UNL     1      -5.219  20.078  66.564  1.00  0.00    -0.173 A  
BRANCH  24  28
HETATM   28  C   UNL     1      -6.399  19.908  70.198  1.00  0.00    -0.360 C  
BRANCH  28  29
HETATM   29  C   UNL     1      -7.806  19.648  70.701  1.00  0.00     1.515 A  
HETATM   30  C   UNL     1      -8.385  20.341  71.774  1.00  0.00     2.204 A  
HETATM   31  C   UNL     1      -9.710  20.104  72.138  1.00  0.00     2.911 A  
HETATM   32  F   UNL     1     -10.244  20.796  73.153  1.00  0.00     2.664 F  
HETATM   33  C   UNL     1     -10.488  19.177  71.463  1.00  0.00     3.118 A  
HETATM   34  C   UNL     1      -9.913  18.469  70.419  1.00  0.00     1.821 A  
HETATM   35  C   UNL     1      -8.591  18.692  70.035  1.00  0.00     1.643 A  
HETATM   36  F   UNL     1     -10.643  17.561  69.758  1.00  0.00    -0.249 F  
ENDBRANCH  28  29
ENDBRANCH  24  28
ENDBRANCH  17  18
ENDBRANCH  11  14
BRANCH  12  37
HETATM   37  N   UNL     1      -9.082  14.104  66.393  1.00  0.00    -0.473 NA 
HETATM   38  H   UNL     1      -8.929  14.035  65.386  1.00  0.00     0.000 HD 
BRANCH  37  39
HETATM   39  C   UNL     1      -9.949  15.181  66.902  1.00  0.00    -0.239 C  
HETATM   40  C   UNL     1     -10.983  14.744  67.943  1.00  0.00    -0.282 C  
HETATM   41  O   UNL     1     -12.727  14.716  66.244  1.00  0.00    -0.073 OA 
HETATM   42  C   UNL     1     -11.786  14.953  65.198  1.00  0.00    -0.258 C  
HETATM   43  C   UNL     1     -10.659  15.833  65.717  1.00  0.00    -0.369 C  
HETATM   44  C   UNL     1     -12.151  13.989  67.326  1.00  0.00    -0.370 C  
ENDBRANCH  37  39
ENDBRANCH  12  37
ENDBRANCH   5   8
TORSDOF 7
ENDMDL
MODEL      145
REMARK 921   NORMALIZED FREE ENERGY PREDICTED BY IDOCK:   12.10 KCAL/MOL
REMARK 922        TOTAL FREE ENERGY PREDICTED BY IDOCK:   14.53 KCAL/MOL
REMARK 923 INTER-LIGAND FREE ENERGY PREDICTED BY IDOCK:   14.55 KCAL/MOL
REMARK 924 INTRA-LIGAND FREE ENERGY PREDICTED BY IDOCK:   -0.02 KCAL/MOL
REMARK 927      BINDING AFFINITY PREDICTED BY RF-SCORE:    0.00 PKD
ROOT
HETATM    1  C   UNL     1      -9.637   3.402  65.841  1.00  0.00    -0.059 C  
HETATM    2  N   UNL     1      -9.181   4.426  66.777  1.00  0.00    -0.129 NA 
HETATM    3  C   UNL     1      -8.293   5.404  66.107  1.00  0.00    -0.117 C  
HETATM    4  C   UNL     1      -9.017   6.372  65.147  1.00  0.00     0.274 C  
HETATM    5  N   UNL     1     -10.078   7.086  65.888  1.00  0.00     0.556 NA 
HETATM    6  C   UNL     1     -11.060   6.171  66.488  1.00  0.00     0.097 C  
HETATM    7  C   UNL     1     -10.323   5.148  67.394  1.00  0.00    -0.149 C  
ENDROOT
BRANCH   5   8
HETATM    8  C   UNL     1     -10.313   8.430  65.665  1.00  0.00     1.638 A  
HETATM    9  C   UNL     1     -11.415   8.925  64.974  1.00  0.00     8.910 A  
HETATM   10  C   UNL     1     -11.557  10.297  64.730  1.00  0.00     3.192 A  
HETATM   11  C   UNL     1     -10.589  11.218  65.168  1.00  0.00    -0.343 A  
HETATM   12  C   UNL     1      -9.509  10.777  65.953  1.00  0.00    -0.197 A  
HETATM   13  C   UNL     1      -9.427   9.394  66.181  1.00  0.00    -0.287 A  
BRANCH  11  14
HETATM   14  C   UNL     1     -10.771  12.634  64.726  1.00  0.00    -0.308 C  
HETATM   15  H   UNL     1     -10.684  13.248  66.695  1.00  0.00     0.000 HD 
HETATM   16  O   UNL     1     -10.841  12.850  63.517  1.00  0.00    -0.340 OA 
HETATM   17  N   UNL     1     -10.808  13.576  65.737  1.00  0.00    -0.273 N  
BRANCH  17  18
HETATM   18  C   UNL     1     -11.002  14.933  65.543  1.00  0.00    -0.350 A  
HETATM   19  C   UNL     1     -10.752  15.960  66.513  1.00  0.00    -0.258 A  
HETATM   20  C   UNL     1     -10.264  16.048  67.829  1.00  0.00    -0.260 A  
HETATM   21  N   UNL     1     -11.475  15.458  64.413  1.00  0.00    -0.697 NA 
HETATM   22  N   UNL     1     -11.556  16.768  64.646  1.00  0.00    -0.518 NA 
HETATM   23  H   UNL     1     -11.721  14.964  63.554  1.00  0.00     0.000 HD 
HETATM   24  C   UNL     1     -10.255  17.283  68.511  1.00  0.00    -0.358 A  
HETATM   25  C   UNL     1     -10.723  18.431  67.859  1.00  0.00    -0.334 A  
HETATM   26  C   UNL     1     -11.181  17.137  65.907  1.00  0.00     0.599 A  
HETATM   27  C   UNL     1     -11.186  18.382  66.540  1.00  0.00     0.678 A  
BRANCH  24  28
HETATM   28  C   UNL     1      -9.693  17.377  69.914  1.00  0.00     0.888 C  
BRANCH  28  29
HETATM   29  C   UNL     1      -8.187  17.255  70.047  1.00  0.00     1.986 A  
HETATM   30  C   UNL     1      -7.327  18.360  70.142  1.00  0.00     1.279 A  
HETATM   31  C   UNL     1      -5.958  18.177  70.336  1.00  0.00     0.014 A  
HETATM   32  F   UNL     1      -5.163  19.249  70.444  1.00  0.00    -0.180 F  
HETATM   33  C   UNL     1      -5.407  16.908  70.432  1.00  0.00    -0.223 A  
HETATM   34  C   UNL     1      -6.248  15.814  70.311  1.00  0.00    -0.003 A  
HETATM   35  C   UNL     1      -7.620  15.972  70.121  1.00  0.00     0.874 A  
HETATM   36  F   UNL     1      -5.737  14.578  70.392  1.00  0.00    -0.105 F  
ENDBRANCH  28  29
ENDBRANCH  24  28
ENDBRANCH  17  18
ENDBRANCH  11  14
BRANCH  12  37
HETATM   37  N   UNL     1      -8.515  11.647  66.418  1.00  0.00    -0.305 NA 
HETATM   38  H   UNL     1      -7.928  12.127  65.734  1.00  0.00     0.000 HD 
BRANCH  37  39
HETATM   39  C   UNL     1      -8.279  11.900  67.850  1.00  0.00    -0.150 C  
HETATM   40  C   UNL     1      -6.825  11.746  68.306  1.00  0.00    -0.068 C  
HETATM   41  O   UNL     1      -7.310   9.537  69.207  1.00  0.00    -0.067 OA 
HETATM   42  C   UNL     1      -8.627   9.544  68.660  1.00  0.00    -0.119 C  
HETATM   43  C   UNL     1      -9.171  10.964  68.662  1.00  0.00    -0.187 C  
HETATM   44  C   UNL     1      -6.396  10.290  68.412  1.00  0.00    -0.048 C  
ENDBRANCH  37  39
ENDBRANCH  12  37
ENDBRANCH   5   8
TORSDOF 7
ENDMDL
MODEL      146
REMARK 921   NORMALIZED FREE ENERGY PREDICTED BY IDOCK:   12.20 KCAL/MOL
REMARK 922        TOTAL FREE ENERGY PREDICTED BY IDOCK:   14.67 KCAL/MOL
REMARK 923 INTER-LIGAND FREE ENERGY PREDICTED BY IDOCK:   15.49 KCAL/MOL
REMARK 924 INTRA-LIGAND FREE ENERGY PREDICTED BY IDOCK:   -0.81 KCAL/MOL
REMARK 927      BINDING AFFINITY PREDICTED BY RF-SCORE:    0.00 PKD
ROOT
HETATM    1  C   UNL     1      -8.664  17.675  71.215  1.00  0.00     8.818 C  
HETATM    2  N   UNL     1      -8.190  17.135  69.944  1.00  0.00     1.195 NA 
HETATM    3  C   UNL     1      -7.467  15.858  70.143  1.00  0.00     0.661 C  
HETATM    4  C   UNL     1      -8.372  14.660  70.500  1.00  0.00     1.782 C  
HETATM    5  N   UNL     1      -9.397  14.496  69.448  1.00  0.00     0.098 NA 
HETATM    6  C   UNL     1     -10.226  15.698  69.276  1.00  0.00    -0.250 C  
HETATM    7  C   UNL     1      -9.309  16.918  68.992  1.00  0.00    -0.188 C  
ENDROOT
BRANCH   5   8
HETATM    8  C   UNL     1      -9.764  13.237  69.011  1.00  0.00     0.305 A  
HETATM    9  C   UNL     1     -10.468  12.318  69.784  1.00  0.00     0.896 A  
HETATM   10  C   UNL     1     -10.753  11.035  69.299  1.00  0.00    -0.263 A  
HETATM   11  C   UNL     1     -10.331  10.631  68.019  1.00  0.00    -0.208 A  
HETATM   12  C   UNL     1      -9.703  11.555  67.166  1.00  0.00    -0.183 A  
HETATM   13  C   UNL     1      -9.460  12.831  67.698  1.00  0.00    -0.190 A  
BRANCH  11  14
HETATM   14  C   UNL     1     -10.563   9.197  67.666  1.00  0.00    -0.242 C  
HETATM   15  H   UNL     1      -9.905   8.641  69.542  1.00  0.00     0.000 HD 
HETATM   16  O   UNL     1     -11.040   8.952  66.559  1.00  0.00     0.386 OA 
HETATM   17  N   UNL     1     -10.244   8.280  68.650  1.00  0.00    -0.201 N  
BRANCH  17  18
HETATM   18  C   UNL     1     -10.352   6.907  68.512  1.00  0.00    -0.186 A  
HETATM   19  C   UNL     1     -10.164   6.171  67.296  1.00  0.00    -0.236 A  
HETATM   20  C   UNL     1      -9.820   6.445  65.960  1.00  0.00     0.153 A  
HETATM   21  N   UNL     1     -10.672   6.087  69.514  1.00  0.00    -0.299 NA 
HETATM   22  N   UNL     1     -10.717   4.872  68.966  1.00  0.00     0.274 NA 
HETATM   23  H   UNL     1     -10.845   6.335  70.488  1.00  0.00     0.000 HD 
HETATM   24  C   UNL     1      -9.830   5.419  64.991  1.00  0.00     0.520 A  
HETATM   25  C   UNL     1     -10.169   4.116  65.374  1.00  0.00    -0.190 A  
HETATM   26  C   UNL     1     -10.468   4.853  67.623  1.00  0.00     0.054 A  
HETATM   27  C   UNL     1     -10.485   3.805  66.701  1.00  0.00     1.135 A  
BRANCH  24  28
HETATM   28  C   UNL     1      -9.422   5.715  63.562  1.00  0.00     1.145 C  
BRANCH  28  29
HETATM   29  C   UNL     1      -7.933   5.733  63.276  1.00  0.00    -0.105 A  
HETATM   30  C   UNL     1      -7.181   4.578  63.013  1.00  0.00    -0.044 A  
HETATM   31  C   UNL     1      -5.829   4.673  62.684  1.00  0.00    -0.014 A  
HETATM   32  F   UNL     1      -5.141   3.555  62.417  1.00  0.00    -0.004 F  
HETATM   33  C   UNL     1      -5.188   5.900  62.616  1.00  0.00    -0.014 A  
HETATM   34  C   UNL     1      -5.919   7.042  62.901  1.00  0.00    -0.041 A  
HETATM   35  C   UNL     1      -7.273   6.972  63.229  1.00  0.00    -0.074 A  
HETATM   36  F   UNL     1      -5.319   8.238  62.851  1.00  0.00    -0.061 F  
ENDBRANCH  28  29
ENDBRANCH  24  28
ENDBRANCH  17  18
ENDBRANCH  11  14
BRANCH  12  37
HETATM   37  N   UNL     1      -9.262  11.211  65.882  1.00  0.00    -0.202 NA 
HETATM   38  H   UNL     1      -9.225  10.223  65.628  1.00  0.00     0.000 HD 
BRANCH  37  39
HETATM   39  C   UNL     1      -8.850  12.211  64.883  1.00  0.00     0.930 C  
HETATM   40  C   UNL     1      -9.756  13.442  64.784  1.00  0.00     0.151 C  
HETATM   41  O   UNL     1     -10.836  12.526  62.803  1.00  0.00     0.361 OA 
HETATM   42  C   UNL     1     -10.147  11.284  62.937  1.00  0.00    -0.199 C  
HETATM   43  C   UNL     1      -8.764  11.529  63.519  1.00  0.00     0.375 C  
HETATM   44  C   UNL     1     -11.064  13.149  64.066  1.00  0.00    -0.361 C  
ENDBRANCH  37  39
ENDBRANCH  12  37
ENDBRANCH   5   8
TORSDOF 7
ENDMDL
MODEL      147
REMARK 921   NORMALIZED FREE ENERGY PREDICTED BY IDOCK:   13.83 KCAL/MOL
REMARK 922        TOTAL FREE ENERGY PREDICTED BY IDOCK:   16.97 KCAL/MOL
REMARK 923 INTER-LIGAND FREE ENERGY PREDICTED BY IDOCK:   17.01 KCAL/MOL
REMARK 924 INTRA-LIGAND FREE ENERGY PREDICTED BY IDOCK:   -0.04 KCAL/MOL
REMARK 927      BINDING AFFINITY PREDICTED BY RF-SCORE:    0.00 PKD
ROOT
HETATM    1  C   UNL     1     -10.096  20.691  71.827  1.00  0.00     3.547 C  
HETATM    2  N   UNL     1      -9.062  20.621  70.798  1.00  0.00     1.737 NA 
HETATM    3  C   UNL     1      -8.489  19.259  70.709  1.00  0.00     2.926 C  
HETATM    4  C   UNL     1      -9.425  18.211  70.071  1.00  0.00     1.521 C  
HETATM    5  N   UNL     1      -9.824  18.673  68.726  1.00  0.00    -0.383 NA 
HETATM    6  C   UNL     1     -10.502  19.977  68.756  1.00  0.00    -0.056 C  
HETATM    7  C   UNL     1      -9.591  21.014  69.467  1.00  0.00     1.959 C  
ENDROOT
BRANCH   5   8
HETATM    8  C   UNL     1      -9.909  17.785  67.670  1.00  0.00    -0.299 A  
HETATM    9  C   UNL     1     -11.105  17.267  67.181  1.00  0.00     0.192 A  
HETATM   10  C   UNL     1     -11.113  16.321  66.148  1.00  0.00     0.142 A  
HETATM   11  C   UNL     1      -9.914  15.857  65.577  1.00  0.00    -0.313 A  
HETATM   12  C   UNL     1      -8.688  16.421  65.971  1.00  0.00    -0.239 A  
HETATM   13  C   UNL     1      -8.742  17.378  66.997  1.00  0.00    -0.249 A  
BRANCH  11  14
HETATM   14  C   UNL     1     -10.038  14.744  64.587  1.00  0.00     0.218 C  
HETATM   15  H   UNL     1      -8.771  13.593  65.741  1.00  0.00     0.000 HD 
HETATM   16  O   UNL     1     -10.788  14.914  63.627  1.00  0.00     1.194 OA 
HETATM   17  N   UNL     1      -9.310  13.604  64.875  1.00  0.00     0.721 N  
BRANCH  17  18
HETATM   18  C   UNL     1      -9.261  12.477  64.073  1.00  0.00     0.944 A  
HETATM   19  C   UNL     1      -8.847  11.169  64.493  1.00  0.00     0.081 A  
HETATM   20  C   UNL     1      -8.418  10.548  65.680  1.00  0.00    -0.179 A  
HETATM   21  N   UNL     1      -9.580  12.477  62.778  1.00  0.00     0.196 NA 
HETATM   22  N   UNL     1      -9.356  11.229  62.367  1.00  0.00    -0.190 NA 
HETATM   23  H   UNL     1      -9.921  13.262  62.223  1.00  0.00     0.000 HD 
HETATM   24  C   UNL     1      -7.990   9.204  65.672  1.00  0.00    -0.107 A  
HETATM   25  C   UNL     1      -8.009   8.484  64.471  1.00  0.00    -0.145 A  
HETATM   26  C   UNL     1      -8.869  10.397  63.336  1.00  0.00    -0.213 A  
HETATM   27  C   UNL     1      -8.460   9.064  63.281  1.00  0.00    -0.180 A  
BRANCH  24  28
HETATM   28  C   UNL     1      -7.565   8.531  66.961  1.00  0.00    -0.092 C  
BRANCH  28  29
HETATM   29  C   UNL     1      -8.236   7.209  67.283  1.00  0.00    -0.119 A  
HETATM   30  C   UNL     1      -9.488   7.109  67.909  1.00  0.00    -0.135 A  
HETATM   31  C   UNL     1     -10.082   5.863  68.110  1.00  0.00    -0.166 A  
HETATM   32  F   UNL     1     -11.287   5.799  68.691  1.00  0.00    -0.317 F  
HETATM   33  C   UNL     1      -9.455   4.693  67.711  1.00  0.00    -0.190 A  
HETATM   34  C   UNL     1      -8.206   4.784  67.117  1.00  0.00    -0.106 A  
HETATM   35  C   UNL     1      -7.595   6.019  66.902  1.00  0.00    -0.096 A  
HETATM   36  F   UNL     1      -7.577   3.666  66.731  1.00  0.00    -0.075 F  
ENDBRANCH  28  29
ENDBRANCH  24  28
ENDBRANCH  17  18
ENDBRANCH  11  14
BRANCH  12  37
HETATM   37  N   UNL     1      -7.463  16.000  65.438  1.00  0.00     2.300 NA 
HETATM   38  H   UNL     1      -7.252  16.224  64.465  1.00  0.00     0.000 HD 
BRANCH  37  39
HETATM   39  C   UNL     1      -6.467  15.248  66.220  1.00  0.00     3.335 C  
HETATM   40  C   UNL     1      -7.035  14.434  67.385  1.00  0.00    -0.091 C  
HETATM   41  O   UNL     1      -6.354  16.158  68.963  1.00  0.00    -0.133 OA 
HETATM   42  C   UNL     1      -5.961  17.039  67.913  1.00  0.00    -0.134 C  
HETATM   43  C   UNL     1      -5.421  16.230  66.745  1.00  0.00     0.321 C  
HETATM   44  C   UNL     1      -7.426  15.303  68.571  1.00  0.00    -0.121 C  
ENDBRANCH  37  39
ENDBRANCH  12  37
ENDBRANCH   5   8
TORSDOF 7
ENDMDL
MODEL      148
REMARK 921   NORMALIZED FREE ENERGY PREDICTED BY IDOCK:   18.45 KCAL/MOL
REMARK 922        TOTAL FREE ENERGY PREDICTED BY IDOCK:   23.48 KCAL/MOL
REMARK 923 INTER-LIGAND FREE ENERGY PREDICTED BY IDOCK:   23.04 KCAL/MOL
REMARK 924 INTRA-LIGAND FREE ENERGY PREDICTED BY IDOCK:    0.44 KCAL/MOL
REMARK 927      BINDING AFFINITY PREDICTED BY RF-SCORE:    0.00 PKD
ROOT
HETATM    1  C   UNL     1      -5.838  15.751  67.467  1.00  0.00    -0.097 C  
HETATM    2  N   UNL     1      -6.664  14.984  68.396  1.00  0.00    -0.104 NA 
HETATM    3  C   UNL     1      -7.690  14.199  67.674  1.00  0.00    -0.174 C  
HETATM    4  C   UNL     1      -7.139  12.981  66.903  1.00  0.00     0.505 C  
HETATM    5  N   UNL     1      -6.408  12.104  67.841  1.00  0.00    -0.069 NA 
HETATM    6  C   UNL     1      -5.300  12.797  68.513  1.00  0.00    -0.060 C  
HETATM    7  C   UNL     1      -5.842  14.065  69.225  1.00  0.00    -0.087 C  
ENDROOT
BRANCH   5   8
HETATM    8  C   UNL     1      -6.516  10.729  67.751  1.00  0.00    -0.059 A  
HETATM    9  C   UNL     1      -6.222   9.997  66.605  1.00  0.00    -0.069 A  
HETATM   10  C   UNL     1      -6.415   8.610  66.565  1.00  0.00    -0.059 A  
HETATM   11  C   UNL     1      -6.918   7.913  67.678  1.00  0.00    -0.074 A  
HETATM   12  C   UNL     1      -7.138   8.594  68.888  1.00  0.00    -0.066 A  
HETATM   13  C   UNL     1      -6.911   9.979  68.875  1.00  0.00    -0.054 A  
BRANCH  11  14
HETATM   14  C   UNL     1      -7.219   6.463  67.473  1.00  0.00    -0.086 C  
HETATM   15  H   UNL     1      -7.717   6.296  69.470  1.00  0.00     0.000 HD 
HETATM   16  O   UNL     1      -7.113   6.014  66.333  1.00  0.00    -0.065 OA 
HETATM   17  N   UNL     1      -7.626   5.772  68.599  1.00  0.00    -0.088 N  
BRANCH  17  18
HETATM   18  C   UNL     1      -7.919   4.420  68.631  1.00  0.00    -0.077 A  
HETATM   19  C   UNL     1      -9.011   3.817  69.341  1.00  0.00    -0.175 A  
HETATM   20  C   UNL     1     -10.086   4.240  70.143  1.00  0.00    -0.078 A  
HETATM   21  N   UNL     1      -7.194   3.491  68.007  1.00  0.00    -0.051 NA 
HETATM   22  N   UNL     1      -7.772   2.332  68.321  1.00  0.00    -0.054 NA 
HETATM   23  H   UNL     1      -6.374   3.637  67.417  1.00  0.00     0.000 HD 
HETATM   24  C   UNL     1     -10.930   3.297  70.768  1.00  0.00     3.178 A  
HETATM   25  C   UNL     1     -10.698   1.930  70.569  1.00  0.00     2.066 A  
HETATM   26  C   UNL     1      -8.844   2.448  69.159  1.00  0.00    -0.096 A  
HETATM   27  C   UNL     1      -9.656   1.479  69.752  1.00  0.00    -0.081 A  
BRANCH  24  28
HETATM   28  C   UNL     1     -12.108   3.759  71.599  1.00  0.00     5.298 C  
BRANCH  28  29
HETATM   29  C   UNL     1     -11.869   4.955  72.501  1.00  0.00     0.236 A  
HETATM   30  C   UNL     1     -12.897   5.781  72.980  1.00  0.00     1.144 A  
HETATM   31  C   UNL     1     -12.616   6.821  73.866  1.00  0.00     5.395 A  
HETATM   32  F   UNL     1     -13.619   7.581  74.323  1.00  0.00     5.132 F  
HETATM   33  C   UNL     1     -11.321   7.075  74.291  1.00  0.00     2.714 A  
HETATM   34  C   UNL     1     -10.298   6.280  73.800  1.00  0.00    -0.290 A  
HETATM   35  C   UNL     1     -10.556   5.232  72.916  1.00  0.00    -0.273 A  
HETATM   36  F   UNL     1      -9.038   6.512  74.189  1.00  0.00    -0.138 F  
ENDBRANCH  28  29
ENDBRANCH  24  28
ENDBRANCH  17  18
ENDBRANCH  11  14
BRANCH  12  37
HETATM   37  N   UNL     1      -7.637   7.953  70.030  1.00  0.00    -0.082 NA 
HETATM   38  H   UNL     1      -8.648   7.850  70.127  1.00  0.00     0.000 HD 
BRANCH  37  39
HETATM   39  C   UNL     1      -6.768   7.423  71.094  1.00  0.00    -0.047 C  
HETATM   40  C   UNL     1      -7.312   7.583  72.517  1.00  0.00    -0.081 C  
HETATM   41  O   UNL     1      -5.873   9.513  72.882  1.00  0.00    -0.301 OA 
HETATM   42  C   UNL     1      -5.453   9.525  71.519  1.00  0.00    -0.072 C  
HETATM   43  C   UNL     1      -5.403   8.100  70.989  1.00  0.00    -0.029 C  
HETATM   44  C   UNL     1      -7.199   9.011  73.028  1.00  0.00     0.506 C  
ENDBRANCH  37  39
ENDBRANCH  12  37
ENDBRANCH   5   8
TORSDOF 7
ENDMDL
MODEL      149
REMARK 921   NORMALIZED FREE ENERGY PREDICTED BY IDOCK:   19.14 KCAL/MOL
REMARK 922        TOTAL FREE ENERGY PREDICTED BY IDOCK:   24.45 KCAL/MOL
REMARK 923 INTER-LIGAND FREE ENERGY PREDICTED BY IDOCK:   25.83 KCAL/MOL
REMARK 924 INTRA-LIGAND FREE ENERGY PREDICTED BY IDOCK:   -1.38 KCAL/MOL
REMARK 927      BINDING AFFINITY PREDICTED BY RF-SCORE:    0.00 PKD
ROOT
HETATM    1  C   UNL     1     -11.688   2.907  66.300  1.00  0.00    10.063 C  
HETATM    2  N   UNL     1     -11.846   3.652  67.546  1.00  0.00    10.530 NA 
HETATM    3  C   UNL     1     -10.625   3.565  68.378  1.00  0.00     2.550 C  
HETATM    4  C   UNL     1      -9.429   4.386  67.849  1.00  0.00    -0.161 C  
HETATM    5  N   UNL     1      -9.837   5.799  67.706  1.00  0.00    -0.120 NA 
HETATM    6  C   UNL     1     -10.983   5.967  66.800  1.00  0.00    -0.197 C  
HETATM    7  C   UNL     1     -12.160   5.081  67.290  1.00  0.00     7.014 C  
ENDROOT
BRANCH   5   8
HETATM    8  C   UNL     1      -8.975   6.821  68.055  1.00  0.00    -0.117 A  
HETATM    9  C   UNL     1      -8.478   7.018  69.340  1.00  0.00    -0.133 A  
HETATM   10  C   UNL     1      -7.657   8.113  69.637  1.00  0.00    -0.099 A  
HETATM   11  C   UNL     1      -7.313   9.053  68.649  1.00  0.00    -0.077 A  
HETATM   12  C   UNL     1      -7.710   8.844  67.317  1.00  0.00    -0.092 A  
HETATM   13  C   UNL     1      -8.516   7.720  67.075  1.00  0.00    -0.124 A  
BRANCH  11  14
HETATM   14  C   UNL     1      -6.554  10.255  69.112  1.00  0.00    -0.055 C  
HETATM   15  H   UNL     1      -8.026  11.472  68.326  1.00  0.00     0.000 HD 
HETATM   16  O   UNL     1      -5.514  10.066  69.740  1.00  0.00    -0.037 OA 
HETATM   17  N   UNL     1      -7.127  11.476  68.811  1.00  0.00    -0.100 N  
BRANCH  17  18
HETATM   18  C   UNL     1      -6.571  12.705  69.119  1.00  0.00    -0.099 A  
HETATM   19  C   UNL     1      -7.267  13.960  69.128  1.00  0.00    -0.038 A  
HETATM   20  C   UNL     1      -8.577  14.421  68.904  1.00  0.00    -0.064 A  
HETATM   21  N   UNL     1      -5.287  12.878  69.433  1.00  0.00    -0.075 NA 
HETATM   22  N   UNL     1      -5.147  14.192  69.611  1.00  0.00    -0.091 NA 
HETATM   23  H   UNL     1      -4.567  12.159  69.518  1.00  0.00     0.000 HD 
HETATM   24  C   UNL     1      -8.863  15.803  68.913  1.00  0.00    -0.220 A  
HETATM   25  C   UNL     1      -7.831  16.716  69.165  1.00  0.00    -0.170 A  
HETATM   26  C   UNL     1      -6.288  14.911  69.397  1.00  0.00    -0.124 A  
HETATM   27  C   UNL     1      -6.525  16.287  69.422  1.00  0.00    -0.197 A  
BRANCH  24  28
HETATM   28  C   UNL     1     -10.282  16.290  68.709  1.00  0.00    -0.249 C  
BRANCH  28  29
HETATM   29  C   UNL     1     -11.031  15.708  67.525  1.00  0.00    -0.309 A  
HETATM   30  C   UNL     1     -11.213  16.391  66.313  1.00  0.00     0.349 A  
HETATM   31  C   UNL     1     -11.847  15.770  65.238  1.00  0.00     0.424 A  
HETATM   32  F   UNL     1     -11.989  16.438  64.086  1.00  0.00    -0.400 F  
HETATM   33  C   UNL     1     -12.323  14.471  65.335  1.00  0.00    -0.286 A  
HETATM   34  C   UNL     1     -12.170  13.802  66.538  1.00  0.00    -0.430 A  
HETATM   35  C   UNL     1     -11.535  14.402  67.625  1.00  0.00    -0.369 A  
HETATM   36  F   UNL     1     -12.630  12.549  66.658  1.00  0.00    -0.128 F  
ENDBRANCH  28  29
ENDBRANCH  24  28
ENDBRANCH  17  18
ENDBRANCH  11  14
BRANCH  12  37
HETATM   37  N   UNL     1      -7.397   9.745  66.291  1.00  0.00    -0.097 NA 
HETATM   38  H   UNL     1      -8.001  10.555  66.153  1.00  0.00     0.000 HD 
BRANCH  37  39
HETATM   39  C   UNL     1      -6.235   9.572  65.402  1.00  0.00    -0.067 C  
HETATM   40  C   UNL     1      -6.140  10.580  64.253  1.00  0.00    -0.019 C  
HETATM   41  O   UNL     1      -7.042   8.939  62.698  1.00  0.00    -0.097 OA 
HETATM   42  C   UNL     1      -7.315   8.014  63.749  1.00  0.00    -0.102 C  
HETATM   43  C   UNL     1      -6.262   8.154  64.837  1.00  0.00    -0.049 C  
HETATM   44  C   UNL     1      -7.134  10.292  63.138  1.00  0.00    -0.110 C  
ENDBRANCH  37  39
ENDBRANCH  12  37
ENDBRANCH   5   8
TORSDOF 7
ENDMDL
MODEL      150
REMARK 921   NORMALIZED FREE ENERGY PREDICTED BY IDOCK:   20.23 KCAL/MOL
REMARK 922        TOTAL FREE ENERGY PREDICTED BY IDOCK:   25.98 KCAL/MOL
REMARK 923 INTER-LIGAND FREE ENERGY PREDICTED BY IDOCK:   26.82 KCAL/MOL
REMARK 924 INTRA-LIGAND FREE ENERGY PREDICTED BY IDOCK:   -0.83 KCAL/MOL
REMARK 927      BINDING AFFINITY PREDICTED BY RF-SCORE:    0.00 PKD
ROOT
HETATM    1  C   UNL     1     -11.701   2.902  66.302  1.00  0.00    10.063 C  
HETATM    2  N   UNL     1     -11.891   3.642  67.547  1.00  0.00    10.530 NA 
HETATM    3  C   UNL     1     -10.693   3.546  68.412  1.00  0.00     3.266 C  
HETATM    4  C   UNL     1      -9.481   4.365  67.920  1.00  0.00    -0.161 C  
HETATM    5  N   UNL     1      -9.880   5.780  67.774  1.00  0.00    -0.120 NA 
HETATM    6  C   UNL     1     -10.999   5.956  66.837  1.00  0.00    -0.217 C  
HETATM    7  C   UNL     1     -12.193   5.073  67.290  1.00  0.00     8.079 C  
ENDROOT
BRANCH   5   8
HETATM    8  C   UNL     1      -9.024   6.797  68.151  1.00  0.00    -0.118 A  
HETATM    9  C   UNL     1      -8.630   7.038  69.464  1.00  0.00    -0.134 A  
HETATM   10  C   UNL     1      -7.809   8.126  69.784  1.00  0.00    -0.105 A  
HETATM   11  C   UNL     1      -7.361   9.016  68.790  1.00  0.00    -0.076 A  
HETATM   12  C   UNL     1      -7.651   8.759  67.439  1.00  0.00    -0.090 A  
HETATM   13  C   UNL     1      -8.463   7.644  67.177  1.00  0.00    -0.121 A  
BRANCH  11  14
HETATM   14  C   UNL     1      -6.613  10.220  69.266  1.00  0.00    -0.055 C  
HETATM   15  H   UNL     1      -7.964  11.432  68.283  1.00  0.00     0.000 HD 
HETATM   16  O   UNL     1      -5.643  10.036  70.000  1.00  0.00    -0.040 OA 
HETATM   17  N   UNL     1      -7.116  11.438  68.852  1.00  0.00    -0.102 N  
BRANCH  17  18
HETATM   18  C   UNL     1      -6.554  12.667  69.152  1.00  0.00    -0.099 A  
HETATM   19  C   UNL     1      -7.203  13.939  69.018  1.00  0.00    -0.078 A  
HETATM   20  C   UNL     1      -8.465  14.424  68.627  1.00  0.00    -0.156 A  
HETATM   21  N   UNL     1      -5.306  12.820  69.595  1.00  0.00    -0.076 NA 
HETATM   22  N   UNL     1      -5.140  14.137  69.716  1.00  0.00    -0.091 NA 
HETATM   23  H   UNL     1      -4.625  12.087  69.797  1.00  0.00     0.000 HD 
HETATM   24  C   UNL     1      -8.702  15.812  68.531  1.00  0.00    -0.184 A  
HETATM   25  C   UNL     1      -7.672  16.708  68.844  1.00  0.00    -0.239 A  
HETATM   26  C   UNL     1      -6.227  14.876  69.341  1.00  0.00    -0.114 A  
HETATM   27  C   UNL     1      -6.417  16.257  69.266  1.00  0.00    -0.188 A  
BRANCH  24  28
HETATM   28  C   UNL     1     -10.073  16.327  68.146  1.00  0.00    -0.244 C  
BRANCH  28  29
HETATM   29  C   UNL     1     -10.153  17.782  67.725  1.00  0.00    -0.345 A  
HETATM   30  C   UNL     1     -10.226  18.197  66.386  1.00  0.00    -0.405 A  
HETATM   31  C   UNL     1     -10.372  19.547  66.071  1.00  0.00    -0.511 A  
HETATM   32  F   UNL     1     -10.459  19.913  64.785  1.00  0.00     0.183 F  
HETATM   33  C   UNL     1     -10.440  20.515  67.060  1.00  0.00    -0.024 A  
HETATM   34  C   UNL     1     -10.341  20.114  68.383  1.00  0.00    -0.261 A  
HETATM   35  C   UNL     1     -10.199  18.769  68.722  1.00  0.00    -0.318 A  
HETATM   36  F   UNL     1     -10.396  21.033  69.356  1.00  0.00     0.063 F  
ENDBRANCH  28  29
ENDBRANCH  24  28
ENDBRANCH  17  18
ENDBRANCH  11  14
BRANCH  12  37
HETATM   37  N   UNL     1      -7.232   9.608  66.407  1.00  0.00    -0.092 NA 
HETATM   38  H   UNL     1      -7.668  10.527  66.325  1.00  0.00     0.000 HD 
BRANCH  37  39
HETATM   39  C   UNL     1      -6.191   9.232  65.436  1.00  0.00    -0.064 C  
HETATM   40  C   UNL     1      -5.963  10.240  64.305  1.00  0.00    -0.133 C  
HETATM   41  O   UNL     1      -7.283   8.875  62.782  1.00  0.00    -0.097 OA 
HETATM   42  C   UNL     1      -7.675   7.990  63.829  1.00  0.00    -0.135 C  
HETATM   43  C   UNL     1      -6.548   7.871  64.843  1.00  0.00    -0.051 C  
HETATM   44  C   UNL     1      -7.064  10.201  63.257  1.00  0.00    -0.127 C  
ENDBRANCH  37  39
ENDBRANCH  12  37
ENDBRANCH   5   8
TORSDOF 7
ENDMDL
MODEL      151
REMARK 921   NORMALIZED FREE ENERGY PREDICTED BY IDOCK:   20.60 KCAL/MOL
REMARK 922        TOTAL FREE ENERGY PREDICTED BY IDOCK:   26.51 KCAL/MOL
REMARK 923 INTER-LIGAND FREE ENERGY PREDICTED BY IDOCK:   26.39 KCAL/MOL
REMARK 924 INTRA-LIGAND FREE ENERGY PREDICTED BY IDOCK:    0.12 KCAL/MOL
REMARK 927      BINDING AFFINITY PREDICTED BY RF-SCORE:    0.00 PKD
ROOT
HETATM    1  C   UNL     1      -6.478  16.704  72.231  1.00  0.00     4.586 C  
HETATM    2  N   UNL     1      -6.235  15.575  73.125  1.00  0.00     2.014 NA 
HETATM    3  C   UNL     1      -7.456  14.755  73.294  1.00  0.00     6.041 C  
HETATM    4  C   UNL     1      -7.833  13.907  72.060  1.00  0.00     7.513 C  
HETATM    5  N   UNL     1      -6.693  13.038  71.704  1.00  0.00     2.507 NA 
HETATM    6  C   UNL     1      -5.470  13.801  71.415  1.00  0.00    -0.219 C  
HETATM    7  C   UNL     1      -5.134  14.712  72.626  1.00  0.00    -0.195 C  
ENDROOT
BRANCH   5   8
HETATM    8  C   UNL     1      -6.900  11.733  71.299  1.00  0.00     3.637 A  
HETATM    9  C   UNL     1      -6.343  10.623  71.927  1.00  0.00     1.569 A  
HETATM   10  C   UNL     1      -6.545   9.331  71.423  1.00  0.00    -0.027 A  
HETATM   11  C   UNL     1      -7.311   9.114  70.264  1.00  0.00    -0.090 A  
HETATM   12  C   UNL     1      -7.973  10.191  69.652  1.00  0.00    -0.173 A  
HETATM   13  C   UNL     1      -7.749  11.460  70.210  1.00  0.00     1.961 A  
BRANCH  11  14
HETATM   14  C   UNL     1      -7.337   7.714  69.739  1.00  0.00    -0.081 C  
HETATM   15  H   UNL     1      -5.523   7.349  70.654  1.00  0.00     0.000 HD 
HETATM   16  O   UNL     1      -8.325   7.365  69.095  1.00  0.00    -0.129 OA 
HETATM   17  N   UNL     1      -6.245   6.932  70.066  1.00  0.00    -0.030 N  
BRANCH  17  18
HETATM   18  C   UNL     1      -6.060   5.625  69.652  1.00  0.00    -0.025 A  
HETATM   19  C   UNL     1      -6.794   4.965  68.610  1.00  0.00    -0.051 A  
HETATM   20  C   UNL     1      -7.812   5.287  67.695  1.00  0.00    -0.096 A  
HETATM   21  N   UNL     1      -5.170   4.796  70.197  1.00  0.00     0.000 NA 
HETATM   22  N   UNL     1      -5.337   3.638  69.558  1.00  0.00    -0.011 NA 
HETATM   23  H   UNL     1      -4.505   5.003  70.943  1.00  0.00     0.000 HD 
HETATM   24  C   UNL     1      -8.362   4.296  66.854  1.00  0.00    -0.101 A  
HETATM   25  C   UNL     1      -7.873   2.986  66.927  1.00  0.00    -0.076 A  
HETATM   26  C   UNL     1      -6.331   3.653  68.621  1.00  0.00    -0.033 A  
HETATM   27  C   UNL     1      -6.840   2.641  67.805  1.00  0.00    -0.044 A  
BRANCH  24  28
HETATM   28  C   UNL     1      -9.431   4.658  65.844  1.00  0.00    -0.174 C  
BRANCH  28  29
HETATM   29  C   UNL     1      -9.579   3.726  64.657  1.00  0.00    -0.173 A  
HETATM   30  C   UNL     1     -10.815   3.409  64.072  1.00  0.00    -0.104 A  
HETATM   31  C   UNL     1     -10.874   2.604  62.935  1.00  0.00    -0.206 A  
HETATM   32  F   UNL     1     -12.065   2.334  62.386  1.00  0.00    -0.003 F  
HETATM   33  C   UNL     1      -9.725   2.087  62.357  1.00  0.00    -0.088 A  
HETATM   34  C   UNL     1      -8.504   2.376  62.946  1.00  0.00    -0.077 A  
HETATM   35  C   UNL     1      -8.420   3.182  64.080  1.00  0.00    -0.089 A  
HETATM   36  F   UNL     1      -7.381   1.880  62.409  1.00  0.00    -0.031 F  
ENDBRANCH  28  29
ENDBRANCH  24  28
ENDBRANCH  17  18
ENDBRANCH  11  14
BRANCH  12  37
HETATM   37  N   UNL     1      -8.750  10.036  68.496  1.00  0.00    -0.120 NA 
HETATM   38  H   UNL     1      -9.652   9.566  68.575  1.00  0.00     0.000 HD 
BRANCH  37  39
HETATM   39  C   UNL     1      -8.321  10.521  67.173  1.00  0.00    -0.127 C  
HETATM   40  C   UNL     1      -8.905  11.874  66.757  1.00  0.00    -0.193 C  
HETATM   41  O   UNL     1     -10.553  10.765  65.350  1.00  0.00    -0.242 OA 
HETATM   42  C   UNL     1     -10.171   9.476  65.827  1.00  0.00    -0.037 C  
HETATM   43  C   UNL     1      -8.681   9.466  66.130  1.00  0.00    -0.165 C  
HETATM   44  C   UNL     1     -10.363  11.777  66.335  1.00  0.00    -0.222 C  
ENDBRANCH  37  39
ENDBRANCH  12  37
ENDBRANCH   5   8
TORSDOF 7
ENDMDL
MODEL      152
REMARK 921   NORMALIZED FREE ENERGY PREDICTED BY IDOCK:   23.74 KCAL/MOL
REMARK 922        TOTAL FREE ENERGY PREDICTED BY IDOCK:   30.93 KCAL/MOL
REMARK 923 INTER-LIGAND FREE ENERGY PREDICTED BY IDOCK:   30.44 KCAL/MOL
REMARK 924 INTRA-LIGAND FREE ENERGY PREDICTED BY IDOCK:    0.49 KCAL/MOL
REMARK 927      BINDING AFFINITY PREDICTED BY RF-SCORE:    0.00 PKD
ROOT
HETATM    1  C   UNL     1      -6.578  16.716  72.284  1.00  0.00     5.282 C  
HETATM    2  N   UNL     1      -6.246  15.644  73.218  1.00  0.00     2.312 NA 
HETATM    3  C   UNL     1      -7.424  14.787  73.486  1.00  0.00     6.252 C  
HETATM    4  C   UNL     1      -7.825  13.865  72.315  1.00  0.00     7.998 C  
HETATM    5  N   UNL     1      -6.668  13.023  71.944  1.00  0.00     3.014 NA 
HETATM    6  C   UNL     1      -5.493  13.817  71.558  1.00  0.00    -0.222 C  
HETATM    7  C   UNL     1      -5.137  14.800  72.706  1.00  0.00    -0.161 C  
ENDROOT
BRANCH   5   8
HETATM    8  C   UNL     1      -6.842  11.692  71.613  1.00  0.00     4.757 A  
HETATM    9  C   UNL     1      -6.265  10.634  72.308  1.00  0.00     1.776 A  
HETATM   10  C   UNL     1      -6.432   9.311  71.878  1.00  0.00     0.112 A  
HETATM   11  C   UNL     1      -7.181   9.010  70.727  1.00  0.00    -0.098 A  
HETATM   12  C   UNL     1      -7.862  10.035  70.048  1.00  0.00    -0.158 A  
HETATM   13  C   UNL     1      -7.673  11.338  70.534  1.00  0.00     2.602 A  
BRANCH  11  14
HETATM   14  C   UNL     1      -7.170   7.582  70.282  1.00  0.00    -0.064 C  
HETATM   15  H   UNL     1      -5.611   7.202  71.581  1.00  0.00     0.000 HD 
HETATM   16  O   UNL     1      -8.018   7.233  69.462  1.00  0.00    -0.122 OA 
HETATM   17  N   UNL     1      -6.214   6.779  70.874  1.00  0.00    -0.039 N  
BRANCH  17  18
HETATM   18  C   UNL     1      -6.015   5.442  70.579  1.00  0.00    -0.021 A  
HETATM   19  C   UNL     1      -6.538   4.751  69.436  1.00  0.00    -0.040 A  
HETATM   20  C   UNL     1      -7.311   5.059  68.302  1.00  0.00    -0.074 A  
HETATM   21  N   UNL     1      -5.313   4.611  71.350  1.00  0.00    -0.004 NA 
HETATM   22  N   UNL     1      -5.399   3.424  70.750  1.00  0.00    -0.007 NA 
HETATM   23  H   UNL     1      -4.817   4.835  72.214  1.00  0.00     0.000 HD 
HETATM   24  C   UNL     1      -7.717   4.042  67.411  1.00  0.00    -0.080 A  
HETATM   25  C   UNL     1      -7.328   2.719  67.658  1.00  0.00    -0.053 A  
HETATM   26  C   UNL     1      -6.161   3.424  69.615  1.00  0.00    -0.028 A  
HETATM   27  C   UNL     1      -6.534   2.385  68.760  1.00  0.00    -0.029 A  
BRANCH  24  28
HETATM   28  C   UNL     1      -8.517   4.386  66.172  1.00  0.00    -0.113 C  
BRANCH  28  29
HETATM   29  C   UNL     1      -8.278   3.517  64.953  1.00  0.00    -0.090 A  
HETATM   30  C   UNL     1      -7.001   3.144  64.506  1.00  0.00    -0.052 A  
HETATM   31  C   UNL     1      -6.854   2.281  63.420  1.00  0.00    -0.031 A  
HETATM   32  F   UNL     1      -5.624   1.926  63.029  1.00  0.00    -0.006 F  
HETATM   33  C   UNL     1      -7.955   1.776  62.747  1.00  0.00    -0.056 A  
HETATM   34  C   UNL     1      -9.218   2.163  63.167  1.00  0.00    -0.091 A  
HETATM   35  C   UNL     1      -9.389   3.021  64.252  1.00  0.00    -0.138 A  
HETATM   36  F   UNL     1     -10.297   1.694  62.526  1.00  0.00    -0.092 F  
ENDBRANCH  28  29
ENDBRANCH  24  28
ENDBRANCH  17  18
ENDBRANCH  11  14
BRANCH  12  37
HETATM   37  N   UNL     1      -8.623   9.795  68.896  1.00  0.00    -0.128 NA 
HETATM   38  H   UNL     1      -8.163   9.852  67.987  1.00  0.00     0.000 HD 
BRANCH  37  39
HETATM   39  C   UNL     1     -10.058   9.466  68.940  1.00  0.00    -0.190 C  
HETATM   40  C   UNL     1     -10.764   9.456  67.582  1.00  0.00    -0.295 C  
HETATM   41  O   UNL     1     -11.689  11.666  68.011  1.00  0.00    -0.433 OA 
HETATM   42  C   UNL     1     -10.925  11.812  69.207  1.00  0.00    -0.175 C  
HETATM   43  C   UNL     1     -10.755  10.455  69.871  1.00  0.00    -0.331 C  
HETATM   44  C   UNL     1     -11.022  10.856  67.046  1.00  0.00    -0.247 C  
ENDBRANCH  37  39
ENDBRANCH  12  37
ENDBRANCH   5   8
TORSDOF 7
ENDMDL
MODEL      153
REMARK 921   NORMALIZED FREE ENERGY PREDICTED BY IDOCK:   26.92 KCAL/MOL
REMARK 922        TOTAL FREE ENERGY PREDICTED BY IDOCK:   35.41 KCAL/MOL
REMARK 923 INTER-LIGAND FREE ENERGY PREDICTED BY IDOCK:   35.69 KCAL/MOL
REMARK 924 INTRA-LIGAND FREE ENERGY PREDICTED BY IDOCK:   -0.28 KCAL/MOL
REMARK 927      BINDING AFFINITY PREDICTED BY RF-SCORE:    0.00 PKD
ROOT
HETATM    1  C   UNL     1     -11.731   2.890  66.309  1.00  0.00    10.063 C  
HETATM    2  N   UNL     1     -11.937   3.581  67.579  1.00  0.00    12.349 NA 
HETATM    3  C   UNL     1     -10.749   3.454  68.454  1.00  0.00     3.520 C  
HETATM    4  C   UNL     1      -9.533   4.293  68.008  1.00  0.00    -0.159 C  
HETATM    5  N   UNL     1      -9.933   5.712  67.911  1.00  0.00    -0.134 NA 
HETATM    6  C   UNL     1     -11.041   5.922  66.968  1.00  0.00    -0.069 C  
HETATM    7  C   UNL     1     -12.238   5.021  67.373  1.00  0.00     8.332 C  
ENDROOT
BRANCH   5   8
HETATM    8  C   UNL     1      -9.083   6.716  68.337  1.00  0.00    -0.124 A  
HETATM    9  C   UNL     1      -8.716   6.915  69.664  1.00  0.00    -0.141 A  
HETATM   10  C   UNL     1      -7.900   7.992  70.034  1.00  0.00    -0.104 A  
HETATM   11  C   UNL     1      -7.431   8.911  69.078  1.00  0.00    -0.074 A  
HETATM   12  C   UNL     1      -7.694   8.696  67.714  1.00  0.00    -0.102 A  
HETATM   13  C   UNL     1      -8.502   7.591  67.401  1.00  0.00    -0.115 A  
BRANCH  11  14
HETATM   14  C   UNL     1      -6.691  10.098  69.605  1.00  0.00    -0.076 C  
HETATM   15  H   UNL     1      -7.956  11.341  68.547  1.00  0.00     0.000 HD 
HETATM   16  O   UNL     1      -5.773   9.893  70.397  1.00  0.00    -0.047 OA 
HETATM   17  N   UNL     1      -7.145  11.328  69.167  1.00  0.00    -0.116 N  
BRANCH  17  18
HETATM   18  C   UNL     1      -6.580  12.544  69.509  1.00  0.00    -0.039 A  
HETATM   19  C   UNL     1      -7.300  13.754  69.781  1.00  0.00     0.475 A  
HETATM   20  C   UNL     1      -8.642  14.171  69.845  1.00  0.00     1.272 A  
HETATM   21  N   UNL     1      -5.266  12.747  69.608  1.00  0.00    -0.073 NA 
HETATM   22  N   UNL     1      -5.136  14.040  69.905  1.00  0.00    -0.092 NA 
HETATM   23  H   UNL     1      -4.521  12.060  69.484  1.00  0.00     0.000 HD 
HETATM   24  C   UNL     1      -8.964  15.528  70.061  1.00  0.00     0.326 A  
HETATM   25  C   UNL     1      -7.931  16.460  70.227  1.00  0.00     1.919 A  
HETATM   26  C   UNL     1      -6.318  14.720  69.979  1.00  0.00    -0.164 A  
HETATM   27  C   UNL     1      -6.588  16.072  70.200  1.00  0.00     0.141 A  
BRANCH  24  28
HETATM   28  C   UNL     1     -10.411  15.962  70.166  1.00  0.00    -0.182 C  
BRANCH  28  29
HETATM   29  C   UNL     1     -11.431  14.862  70.385  1.00  0.00    -0.312 A  
HETATM   30  C   UNL     1     -11.779  13.922  69.403  1.00  0.00    -0.367 A  
HETATM   31  C   UNL     1     -12.670  12.890  69.694  1.00  0.00     0.554 A  
HETATM   32  F   UNL     1     -12.968  11.995  68.744  1.00  0.00     0.671 F  
HETATM   33  C   UNL     1     -13.244  12.766  70.950  1.00  0.00     0.188 A  
HETATM   34  C   UNL     1     -12.925  13.708  71.916  1.00  0.00    -0.341 A  
HETATM   35  C   UNL     1     -12.033  14.746  71.649  1.00  0.00    -0.411 A  
HETATM   36  F   UNL     1     -13.474  13.614  73.134  1.00  0.00    -0.496 F  
ENDBRANCH  28  29
ENDBRANCH  24  28
ENDBRANCH  17  18
ENDBRANCH  11  14
BRANCH  12  37
HETATM   37  N   UNL     1      -7.253   9.576  66.717  1.00  0.00    -0.086 NA 
HETATM   38  H   UNL     1      -7.771  10.442  66.567  1.00  0.00     0.000 HD 
BRANCH  37  39
HETATM   39  C   UNL     1      -6.075   9.304  65.875  1.00  0.00    -0.055 C  
HETATM   40  C   UNL     1      -6.363   9.182  64.376  1.00  0.00    -0.075 C  
HETATM   41  O   UNL     1      -6.288   6.754  64.528  1.00  0.00    -0.037 OA 
HETATM   42  C   UNL     1      -6.190   6.793  65.951  1.00  0.00    -0.038 C  
HETATM   43  C   UNL     1      -5.406   8.025  66.373  1.00  0.00    -0.025 C  
HETATM   44  C   UNL     1      -7.024   7.861  64.013  1.00  0.00    -0.063 C  
ENDBRANCH  37  39
ENDBRANCH  12  37
ENDBRANCH   5   8
TORSDOF 7
ENDMDL
MODEL      154
REMARK 921   NORMALIZED FREE ENERGY PREDICTED BY IDOCK:   38.92 KCAL/MOL
REMARK 922        TOTAL FREE ENERGY PREDICTED BY IDOCK:   52.32 KCAL/MOL
REMARK 923 INTER-LIGAND FREE ENERGY PREDICTED BY IDOCK:   53.33 KCAL/MOL
REMARK 924 INTRA-LIGAND FREE ENERGY PREDICTED BY IDOCK:   -1.01 KCAL/MOL
REMARK 927      BINDING AFFINITY PREDICTED BY RF-SCORE:    0.00 PKD
ROOT
HETATM    1  C   UNL     1      -8.221  16.857  71.840  1.00  0.00    11.905 C  
HETATM    2  N   UNL     1      -7.894  16.047  70.670  1.00  0.00     2.053 NA 
HETATM    3  C   UNL     1      -7.041  14.895  71.041  1.00  0.00     1.149 C  
HETATM    4  C   UNL     1      -7.774  13.777  71.812  1.00  0.00     6.831 C  
HETATM    5  N   UNL     1      -8.924  13.310  71.011  1.00  0.00     8.105 NA 
HETATM    6  C   UNL     1      -9.872  14.390  70.701  1.00  0.00     2.013 C  
HETATM    7  C   UNL     1      -9.118  15.548  69.993  1.00  0.00     0.290 C  
ENDROOT
BRANCH   5   8
HETATM    8  C   UNL     1      -9.240  11.966  70.947  1.00  0.00     8.585 A  
HETATM    9  C   UNL     1      -9.663  11.211  72.038  1.00  0.00    11.656 A  
HETATM   10  C   UNL     1      -9.906   9.837  71.914  1.00  0.00     1.749 A  
HETATM   11  C   UNL     1      -9.724   9.174  70.688  1.00  0.00    -0.314 A  
HETATM   12  C   UNL     1      -9.393   9.910  69.537  1.00  0.00    -0.220 A  
HETATM   13  C   UNL     1      -9.179  11.286  69.717  1.00  0.00     1.091 A  
BRANCH  11  14
HETATM   14  C   UNL     1      -9.872   7.686  70.709  1.00  0.00    -0.177 C  
HETATM   15  H   UNL     1      -8.711   7.607  72.415  1.00  0.00     0.000 HD 
HETATM   16  O   UNL     1     -10.577   7.170  69.844  1.00  0.00    -0.217 OA 
HETATM   17  N   UNL     1      -9.218   7.035  71.738  1.00  0.00    -0.142 N  
BRANCH  17  18
HETATM   18  C   UNL     1      -9.200   5.663  71.918  1.00  0.00    -0.145 A  
HETATM   19  C   UNL     1      -9.358   4.682  70.883  1.00  0.00    -0.214 A  
HETATM   20  C   UNL     1      -9.535   4.665  69.488  1.00  0.00    -0.236 A  
HETATM   21  N   UNL     1      -9.051   5.075  73.105  1.00  0.00    -0.123 NA 
HETATM   22  N   UNL     1      -9.137   3.768  72.858  1.00  0.00    -0.099 NA 
HETATM   23  H   UNL     1      -8.904   5.528  74.008  1.00  0.00     0.000 HD 
HETATM   24  C   UNL     1      -9.756   3.449  68.807  1.00  0.00     0.003 A  
HETATM   25  C   UNL     1      -9.782   2.251  69.532  1.00  0.00     0.091 A  
HETATM   26  C   UNL     1      -9.368   3.459  71.547  1.00  0.00    -0.140 A  
HETATM   27  C   UNL     1      -9.577   2.232  70.916  1.00  0.00    -0.185 A  
BRANCH  24  28
HETATM   28  C   UNL     1      -9.909   3.434  67.300  1.00  0.00     0.185 C  
BRANCH  28  29
HETATM   29  C   UNL     1      -8.629   3.532  66.492  1.00  0.00    -0.116 A  
HETATM   30  C   UNL     1      -8.500   3.040  65.184  1.00  0.00    -0.098 A  
HETATM   31  C   UNL     1      -7.318   3.228  64.470  1.00  0.00    -0.070 A  
HETATM   32  F   UNL     1      -7.230   2.767  63.216  1.00  0.00    -0.042 F  
HETATM   33  C   UNL     1      -6.237   3.893  65.028  1.00  0.00    -0.024 A  
HETATM   34  C   UNL     1      -6.349   4.357  66.329  1.00  0.00    -0.033 A  
HETATM   35  C   UNL     1      -7.523   4.184  67.061  1.00  0.00    -0.077 A  
HETATM   36  F   UNL     1      -5.314   4.995  66.892  1.00  0.00    -0.010 F  
ENDBRANCH  28  29
ENDBRANCH  24  28
ENDBRANCH  17  18
ENDBRANCH  11  14
BRANCH  12  37
HETATM   37  N   UNL     1      -9.199   9.304  68.289  1.00  0.00    -0.132 NA 
HETATM   38  H   UNL     1      -8.349   8.759  68.138  1.00  0.00     0.000 HD 
BRANCH  37  39
HETATM   39  C   UNL     1     -10.168   9.419  67.185  1.00  0.00    -0.254 C  
HETATM   40  C   UNL     1     -10.728   8.090  66.672  1.00  0.00     0.105 C  
HETATM   41  O   UNL     1      -9.201   8.141  64.777  1.00  0.00     0.418 OA 
HETATM   42  C   UNL     1      -8.520   9.286  65.289  1.00  0.00    -0.154 C  
HETATM   43  C   UNL     1      -9.505  10.173  66.034  1.00  0.00    -0.248 C  
HETATM   44  C   UNL     1      -9.729   7.324  65.819  1.00  0.00     0.575 C  
ENDBRANCH  37  39
ENDBRANCH  12  37
ENDBRANCH   5   8
TORSDOF 7
ENDMDL
MODEL      155
REMARK 921   NORMALIZED FREE ENERGY PREDICTED BY IDOCK:   51.43 KCAL/MOL
REMARK 922        TOTAL FREE ENERGY PREDICTED BY IDOCK:   69.96 KCAL/MOL
REMARK 923 INTER-LIGAND FREE ENERGY PREDICTED BY IDOCK:   54.36 KCAL/MOL
REMARK 924 INTRA-LIGAND FREE ENERGY PREDICTED BY IDOCK:   15.60 KCAL/MOL
REMARK 927      BINDING AFFINITY PREDICTED BY RF-SCORE:    0.00 PKD
ROOT
HETATM    1  C   UNL     1     -10.894   3.993  63.657  1.00  0.00    -0.013 C  
HETATM    2  N   UNL     1     -10.940   5.443  63.490  1.00  0.00     2.941 NA 
HETATM    3  C   UNL     1     -11.960   6.050  64.374  1.00  0.00     8.171 C  
HETATM    4  C   UNL     1     -11.580   6.071  65.870  1.00  0.00     2.291 C  
HETATM    5  N   UNL     1     -10.293   6.779  66.033  1.00  0.00     0.505 NA 
HETATM    6  C   UNL     1      -9.206   6.156  65.263  1.00  0.00     0.328 C  
HETATM    7  C   UNL     1      -9.621   6.065  63.770  1.00  0.00     2.101 C  
ENDROOT
BRANCH   5   8
HETATM    8  C   UNL     1     -10.089   7.639  67.095  1.00  0.00    -0.253 A  
HETATM    9  C   UNL     1     -10.863   8.768  67.344  1.00  0.00    -0.087 A  
HETATM   10  C   UNL     1     -10.561   9.632  68.405  1.00  0.00    -0.264 A  
HETATM   11  C   UNL     1      -9.463   9.390  69.249  1.00  0.00    -0.164 A  
HETATM   12  C   UNL     1      -8.711   8.212  69.098  1.00  0.00    -0.140 A  
HETATM   13  C   UNL     1      -9.070   7.375  68.029  1.00  0.00    -0.130 A  
BRANCH  11  14
HETATM   14  C   UNL     1      -9.151  10.452  70.253  1.00  0.00     0.681 C  
HETATM   15  H   UNL     1      -7.935  11.386  68.871  1.00  0.00     0.000 HD 
HETATM   16  O   UNL     1      -9.710  10.385  71.347  1.00  0.00     1.639 OA 
HETATM   17  N   UNL     1      -8.278  11.437  69.830  1.00  0.00     1.092 N  
BRANCH  17  18
HETATM   18  C   UNL     1      -7.836  12.488  70.615  1.00  0.00     5.370 A  
HETATM   19  C   UNL     1      -7.953  13.881  70.291  1.00  0.00     2.003 A  
HETATM   20  C   UNL     1      -8.491  14.663  69.252  1.00  0.00     0.030 A  
HETATM   21  N   UNL     1      -7.216  12.328  71.784  1.00  0.00     5.925 NA 
HETATM   22  N   UNL     1      -6.916  13.562  72.189  1.00  0.00     3.378 NA 
HETATM   23  H   UNL     1      -7.013  11.451  72.264  1.00  0.00     0.000 HD 
HETATM   24  C   UNL     1      -8.318  16.063  69.244  1.00  0.00    -0.217 A  
HETATM   25  C   UNL     1      -7.618  16.674  70.292  1.00  0.00     1.893 A  
HETATM   26  C   UNL     1      -7.289  14.545  71.317  1.00  0.00     2.246 A  
HETATM   27  C   UNL     1      -7.099  15.928  71.355  1.00  0.00     3.369 A  
BRANCH  24  28
HETATM   28  C   UNL     1      -8.932  16.902  68.143  1.00  0.00    -0.227 C  
BRANCH  28  29
HETATM   29  C   UNL     1      -9.312  16.171  66.870  1.00  0.00    -0.245 A  
HETATM   30  C   UNL     1      -8.375  15.579  66.009  1.00  0.00     0.477 A  
HETATM   31  C   UNL     1      -8.796  14.858  64.892  1.00  0.00     3.494 A  
HETATM   32  F   UNL     1      -7.881  14.286  64.099  1.00  0.00     9.191 F  
HETATM   33  C   UNL     1     -10.142  14.710  64.595  1.00  0.00     0.146 A  
HETATM   34  C   UNL     1     -11.070  15.314  65.428  1.00  0.00    -0.347 A  
HETATM   35  C   UNL     1     -10.673  16.038  66.551  1.00  0.00    -0.238 A  
HETATM   36  F   UNL     1     -12.376  15.192  65.155  1.00  0.00    -0.186 F  
ENDBRANCH  28  29
ENDBRANCH  24  28
ENDBRANCH  17  18
ENDBRANCH  11  14
BRANCH  12  37
HETATM   37  N   UNL     1      -7.607   7.917  69.908  1.00  0.00    -0.087 NA 
HETATM   38  H   UNL     1      -7.389   6.939  70.097  1.00  0.00     0.000 HD 
BRANCH  37  39
HETATM   39  C   UNL     1      -6.749   8.958  70.500  1.00  0.00    -0.051 C  
HETATM   40  C   UNL     1      -7.169  10.398  70.195  1.00  0.00    -0.093 C  
HETATM   41  O   UNL     1      -5.461  10.563  68.468  1.00  0.00    -0.038 OA 
HETATM   42  C   UNL     1      -5.135   9.179  68.583  1.00  0.00    -0.034 C  
HETATM   43  C   UNL     1      -5.315   8.732  70.025  1.00  0.00    -0.028 C  
HETATM   44  C   UNL     1      -6.831  10.817  68.772  1.00  0.00    -0.067 C  
ENDBRANCH  37  39
ENDBRANCH  12  37
ENDBRANCH   5   8
TORSDOF 7
ENDMDL
MODEL      156
REMARK 921   NORMALIZED FREE ENERGY PREDICTED BY IDOCK:   63.85 KCAL/MOL
REMARK 922        TOTAL FREE ENERGY PREDICTED BY IDOCK:   87.45 KCAL/MOL
REMARK 923 INTER-LIGAND FREE ENERGY PREDICTED BY IDOCK:   88.08 KCAL/MOL
REMARK 924 INTRA-LIGAND FREE ENERGY PREDICTED BY IDOCK:   -0.62 KCAL/MOL
REMARK 927      BINDING AFFINITY PREDICTED BY RF-SCORE:    0.00 PKD
ROOT
HETATM    1  C   UNL     1      -6.587  16.693  72.755  1.00  0.00     6.131 C  
HETATM    2  N   UNL     1      -6.500  15.713  73.835  1.00  0.00     3.602 NA 
HETATM    3  C   UNL     1      -7.839  15.188  74.187  1.00  0.00    10.010 C  
HETATM    4  C   UNL     1      -8.445  14.226  73.143  1.00  0.00     9.620 C  
HETATM    5  N   UNL     1      -7.511  13.103  72.919  1.00  0.00     8.323 NA 
HETATM    6  C   UNL     1      -6.189  13.552  72.459  1.00  0.00     1.695 C  
HETATM    7  C   UNL     1      -5.613  14.579  73.471  1.00  0.00    -0.081 C  
ENDROOT
BRANCH   5   8
HETATM    8  C   UNL     1      -7.982  11.813  72.768  1.00  0.00    18.633 A  
HETATM    9  C   UNL     1      -7.505  10.719  73.485  1.00  0.00     8.728 A  
HETATM   10  C   UNL     1      -7.986   9.427  73.235  1.00  0.00     2.032 A  
HETATM   11  C   UNL     1      -8.960   9.192  72.248  1.00  0.00     0.590 A  
HETATM   12  C   UNL     1      -9.541  10.275  71.567  1.00  0.00     3.392 A  
HETATM   13  C   UNL     1      -9.034  11.548  71.871  1.00  0.00    15.227 A  
BRANCH  11  14
HETATM   14  C   UNL     1      -9.290   7.761  71.969  1.00  0.00    -0.152 C  
HETATM   15  H   UNL     1      -7.683   7.177  73.127  1.00  0.00     0.000 HD 
HETATM   16  O   UNL     1     -10.288   7.527  71.290  1.00  0.00    -0.193 OA 
HETATM   17  N   UNL     1      -8.444   6.829  72.542  1.00  0.00    -0.119 N  
BRANCH  17  18
HETATM   18  C   UNL     1      -8.554   5.459  72.380  1.00  0.00    -0.122 A  
HETATM   19  C   UNL     1      -8.769   4.779  71.135  1.00  0.00    -0.138 A  
HETATM   20  C   UNL     1      -8.907   5.119  69.777  1.00  0.00    -0.130 A  
HETATM   21  N   UNL     1      -8.491   4.589  73.387  1.00  0.00    -0.102 NA 
HETATM   22  N   UNL     1      -8.686   3.395  72.827  1.00  0.00    -0.085 NA 
HETATM   23  H   UNL     1      -8.330   4.792  74.374  1.00  0.00     0.000 HD 
HETATM   24  C   UNL     1      -9.216   4.132  68.818  1.00  0.00    -0.206 A  
HETATM   25  C   UNL     1      -9.369   2.801  69.227  1.00  0.00    -0.193 A  
HETATM   26  C   UNL     1      -8.907   3.438  71.479  1.00  0.00    -0.091 A  
HETATM   27  C   UNL     1      -9.207   2.426  70.565  1.00  0.00    -0.194 A  
BRANCH  24  28
HETATM   28  C   UNL     1      -9.326   4.499  67.353  1.00  0.00    -0.168 C  
BRANCH  28  29
HETATM   29  C   UNL     1      -8.572   3.615  66.378  1.00  0.00    -0.115 A  
HETATM   30  C   UNL     1      -7.321   3.044  66.659  1.00  0.00    -0.070 A  
HETATM   31  C   UNL     1      -6.715   2.181  65.747  1.00  0.00    -0.035 A  
HETATM   32  F   UNL     1      -5.532   1.633  66.051  1.00  0.00    -0.010 F  
HETATM   33  C   UNL     1      -7.319   1.870  64.539  1.00  0.00    -0.057 A  
HETATM   34  C   UNL     1      -8.541   2.453  64.244  1.00  0.00    -0.091 A  
HETATM   35  C   UNL     1      -9.168   3.316  65.142  1.00  0.00    -0.149 A  
HETATM   36  F   UNL     1      -9.139   2.174  63.078  1.00  0.00    -0.089 F  
ENDBRANCH  28  29
ENDBRANCH  24  28
ENDBRANCH  17  18
ENDBRANCH  11  14
BRANCH  12  37
HETATM   37  N   UNL     1     -10.515  10.102  70.575  1.00  0.00    -0.408 NA 
HETATM   38  H   UNL     1     -10.211   9.987  69.608  1.00  0.00     0.000 HD 
BRANCH  37  39
HETATM   39  C   UNL     1     -11.959  10.079  70.867  1.00  0.00    -0.361 C  
HETATM   40  C   UNL     1     -12.871  10.243  69.648  1.00  0.00     0.543 C  
HETATM   41  O   UNL     1     -13.226  12.590  70.189  1.00  0.00     0.695 OA 
HETATM   42  C   UNL     1     -12.257  12.550  71.235  1.00  0.00     0.142 C  
HETATM   43  C   UNL     1     -12.266  11.175  71.885  1.00  0.00     0.456 C  
HETATM   44  C   UNL     1     -12.917  11.676  69.139  1.00  0.00     1.613 C  
ENDBRANCH  37  39
ENDBRANCH  12  37
ENDBRANCH   5   8
TORSDOF 7
ENDMDL
MODEL      157
REMARK 921   NORMALIZED FREE ENERGY PREDICTED BY IDOCK:   65.44 KCAL/MOL
REMARK 922        TOTAL FREE ENERGY PREDICTED BY IDOCK:   89.69 KCAL/MOL
REMARK 923 INTER-LIGAND FREE ENERGY PREDICTED BY IDOCK:   89.24 KCAL/MOL
REMARK 924 INTRA-LIGAND FREE ENERGY PREDICTED BY IDOCK:    0.45 KCAL/MOL
REMARK 927      BINDING AFFINITY PREDICTED BY RF-SCORE:    0.00 PKD
ROOT
HETATM    1  C   UNL     1      -7.513  16.629  72.648  1.00  0.00    12.616 C  
HETATM    2  N   UNL     1      -7.258  15.760  71.502  1.00  0.00     3.274 NA 
HETATM    3  C   UNL     1      -6.450  14.583  71.895  1.00  0.00     1.014 C  
HETATM    4  C   UNL     1      -7.214  13.532  72.728  1.00  0.00     6.623 C  
HETATM    5  N   UNL     1      -8.408  13.091  71.976  1.00  0.00    13.824 NA 
HETATM    6  C   UNL     1      -9.311  14.204  71.650  1.00  0.00     7.198 C  
HETATM    7  C   UNL     1      -8.523  15.296  70.878  1.00  0.00     2.483 C  
ENDROOT
BRANCH   5   8
HETATM    8  C   UNL     1      -8.789  11.763  71.973  1.00  0.00    18.085 A  
HETATM    9  C   UNL     1      -9.201  11.067  73.106  1.00  0.00    17.670 A  
HETATM   10  C   UNL     1      -9.514   9.703  73.042  1.00  0.00     4.565 A  
HETATM   11  C   UNL     1      -9.415   8.991  71.833  1.00  0.00    -0.179 A  
HETATM   12  C   UNL     1      -9.098   9.671  70.645  1.00  0.00    -0.063 A  
HETATM   13  C   UNL     1      -8.812  11.040  70.766  1.00  0.00     4.233 A  
BRANCH  11  14
HETATM   14  C   UNL     1      -9.632   7.514  71.914  1.00  0.00    -0.148 C  
HETATM   15  H   UNL     1      -8.394   7.434  73.564  1.00  0.00     0.000 HD 
HETATM   16  O   UNL     1     -10.402   7.005  71.101  1.00  0.00    -0.206 OA 
HETATM   17  N   UNL     1      -8.960   6.865  72.933  1.00  0.00    -0.126 N  
BRANCH  17  18
HETATM   18  C   UNL     1      -8.999   5.501  73.159  1.00  0.00    -0.121 A  
HETATM   19  C   UNL     1      -9.266   4.496  72.171  1.00  0.00    -0.165 A  
HETATM   20  C   UNL     1      -9.529   4.443  70.790  1.00  0.00    -0.243 A  
HETATM   21  N   UNL     1      -8.806   4.944  74.356  1.00  0.00    -0.112 NA 
HETATM   22  N   UNL     1      -8.971   3.636  74.160  1.00  0.00    -0.087 NA 
HETATM   23  H   UNL     1      -8.583   5.418  75.232  1.00  0.00     0.000 HD 
HETATM   24  C   UNL     1      -9.850   3.219  70.166  1.00  0.00     0.062 A  
HETATM   25  C   UNL     1      -9.890   2.047  70.933  1.00  0.00    -0.052 A  
HETATM   26  C   UNL     1      -9.296   3.297  72.877  1.00  0.00    -0.092 A  
HETATM   27  C   UNL     1      -9.603   2.062  72.302  1.00  0.00    -0.173 A  
BRANCH  24  28
HETATM   28  C   UNL     1     -10.094   3.164  68.673  1.00  0.00     0.806 C  
BRANCH  28  29
HETATM   29  C   UNL     1      -8.863   3.170  67.788  1.00  0.00    -0.161 A  
HETATM   30  C   UNL     1      -7.598   3.595  68.223  1.00  0.00    -0.061 A  
HETATM   31  C   UNL     1      -6.491   3.506  67.380  1.00  0.00    -0.037 A  
HETATM   32  F   UNL     1      -5.293   3.900  67.829  1.00  0.00    -0.012 F  
HETATM   33  C   UNL     1      -6.605   3.006  66.092  1.00  0.00    -0.036 A  
HETATM   34  C   UNL     1      -7.856   2.609  65.648  1.00  0.00    -0.078 A  
HETATM   35  C   UNL     1      -8.976   2.686  66.474  1.00  0.00    -0.150 A  
HETATM   36  F   UNL     1      -7.992   2.131  64.403  1.00  0.00    -0.069 F  
ENDBRANCH  28  29
ENDBRANCH  24  28
ENDBRANCH  17  18
ENDBRANCH  11  14
BRANCH  12  37
HETATM   37  N   UNL     1      -8.986   9.015  69.412  1.00  0.00    -0.142 NA 
HETATM   38  H   UNL     1      -9.119   9.557  68.558  1.00  0.00     0.000 HD 
BRANCH  37  39
HETATM   39  C   UNL     1      -8.684   7.578  69.295  1.00  0.00    -0.136 C  
HETATM   40  C   UNL     1      -7.251   7.247  68.870  1.00  0.00    -0.090 C  
HETATM   41  O   UNL     1      -7.987   6.849  66.584  1.00  0.00    -0.104 OA 
HETATM   42  C   UNL     1      -9.306   7.309  66.872  1.00  0.00    -0.156 C  
HETATM   43  C   UNL     1      -9.667   6.954  68.306  1.00  0.00    -0.132 C  
HETATM   44  C   UNL     1      -7.006   7.499  67.390  1.00  0.00    -0.083 C  
ENDBRANCH  37  39
ENDBRANCH  12  37
ENDBRANCH   5   8
TORSDOF 7
ENDMDL
MODEL      158
REMARK 921   NORMALIZED FREE ENERGY PREDICTED BY IDOCK:   70.24 KCAL/MOL
REMARK 922        TOTAL FREE ENERGY PREDICTED BY IDOCK:   96.45 KCAL/MOL
REMARK 923 INTER-LIGAND FREE ENERGY PREDICTED BY IDOCK:   97.04 KCAL/MOL
REMARK 924 INTRA-LIGAND FREE ENERGY PREDICTED BY IDOCK:   -0.59 KCAL/MOL
REMARK 927      BINDING AFFINITY PREDICTED BY RF-SCORE:    0.00 PKD
ROOT
HETATM    1  C   UNL     1      -6.591  16.697  72.759  1.00  0.00     6.131 C  
HETATM    2  N   UNL     1      -6.504  15.742  73.861  1.00  0.00     3.887 NA 
HETATM    3  C   UNL     1      -7.846  15.251  74.248  1.00  0.00    10.894 C  
HETATM    4  C   UNL     1      -8.487  14.275  73.238  1.00  0.00     9.670 C  
HETATM    5  N   UNL     1      -7.577  13.130  73.028  1.00  0.00     9.098 NA 
HETATM    6  C   UNL     1      -6.255  13.543  72.535  1.00  0.00     1.695 C  
HETATM    7  C   UNL     1      -5.644  14.583  73.512  1.00  0.00    -0.081 C  
ENDROOT
BRANCH   5   8
HETATM    8  C   UNL     1      -8.074  11.845  72.916  1.00  0.00    20.505 A  
HETATM    9  C   UNL     1      -7.599  10.759  73.645  1.00  0.00     9.262 A  
HETATM   10  C   UNL     1      -8.107   9.471  73.435  1.00  0.00     2.812 A  
HETATM   11  C   UNL     1      -9.108   9.231  72.477  1.00  0.00     1.349 A  
HETATM   12  C   UNL     1      -9.687  10.310  71.786  1.00  0.00     4.200 A  
HETATM   13  C   UNL     1      -9.151  11.580  72.050  1.00  0.00    16.217 A  
BRANCH  11  14
HETATM   14  C   UNL     1      -9.469   7.800  72.238  1.00  0.00    -0.170 C  
HETATM   15  H   UNL     1      -7.845   7.214  73.369  1.00  0.00     0.000 HD 
HETATM   16  O   UNL     1     -10.488   7.570  71.588  1.00  0.00    -0.200 OA 
HETATM   17  N   UNL     1      -8.626   6.867  72.810  1.00  0.00    -0.120 N  
BRANCH  17  18
HETATM   18  C   UNL     1      -8.763   5.496  72.681  1.00  0.00    -0.123 A  
HETATM   19  C   UNL     1      -9.020   4.793  71.457  1.00  0.00    -0.162 A  
HETATM   20  C   UNL     1      -9.186   5.106  70.096  1.00  0.00    -0.188 A  
HETATM   21  N   UNL     1      -8.691   4.646  73.706  1.00  0.00    -0.106 NA 
HETATM   22  N   UNL     1      -8.920   3.444  73.176  1.00  0.00    -0.090 NA 
HETATM   23  H   UNL     1      -8.502   4.868  74.684  1.00  0.00     0.000 HD 
HETATM   24  C   UNL     1      -9.536   4.104  69.166  1.00  0.00    -0.248 A  
HETATM   25  C   UNL     1      -9.701   2.785  69.608  1.00  0.00     0.070 A  
HETATM   26  C   UNL     1      -9.173   3.462  71.834  1.00  0.00    -0.117 A  
HETATM   27  C   UNL     1      -9.513   2.436  70.949  1.00  0.00    -0.214 A  
BRANCH  24  28
HETATM   28  C   UNL     1      -9.675   4.441  67.696  1.00  0.00    -0.198 C  
BRANCH  28  29
HETATM   29  C   UNL     1      -8.762   5.529  67.165  1.00  0.00    -0.107 A  
HETATM   30  C   UNL     1      -8.393   6.661  67.907  1.00  0.00    -0.119 A  
HETATM   31  C   UNL     1      -7.490   7.586  67.385  1.00  0.00    -0.104 A  
HETATM   32  F   UNL     1      -7.140   8.647  68.123  1.00  0.00    -0.074 F  
HETATM   33  C   UNL     1      -6.940   7.424  66.123  1.00  0.00    -0.065 A  
HETATM   34  C   UNL     1      -7.322   6.322  65.375  1.00  0.00    -0.076 A  
HETATM   35  C   UNL     1      -8.220   5.381  65.877  1.00  0.00    -0.119 A  
HETATM   36  F   UNL     1      -6.810   6.149  64.149  1.00  0.00    -0.038 F  
ENDBRANCH  28  29
ENDBRANCH  24  28
ENDBRANCH  17  18
ENDBRANCH  11  14
BRANCH  12  37
HETATM   37  N   UNL     1     -10.688  10.133  70.822  1.00  0.00    -0.388 NA 
HETATM   38  H   UNL     1     -10.409   9.991  69.850  1.00  0.00     0.000 HD 
BRANCH  37  39
HETATM   39  C   UNL     1     -12.124  10.142  71.148  1.00  0.00    -0.388 C  
HETATM   40  C   UNL     1     -13.061   9.901  69.961  1.00  0.00     0.572 C  
HETATM   41  O   UNL     1     -13.514  12.287  69.794  1.00  0.00     1.831 OA 
HETATM   42  C   UNL     1     -12.528  12.597  70.777  1.00  0.00    -0.270 C  
HETATM   43  C   UNL     1     -12.464  11.478  71.805  1.00  0.00    -0.072 C  
HETATM   44  C   UNL     1     -13.180  11.115  69.053  1.00  0.00     2.687 C  
ENDBRANCH  37  39
ENDBRANCH  12  37
ENDBRANCH   5   8
TORSDOF 7
ENDMDL
MODEL      159
REMARK 921   NORMALIZED FREE ENERGY PREDICTED BY IDOCK:   77.54 KCAL/MOL
REMARK 922        TOTAL FREE ENERGY PREDICTED BY IDOCK:  106.74 KCAL/MOL
REMARK 923 INTER-LIGAND FREE ENERGY PREDICTED BY IDOCK:  108.28 KCAL/MOL
REMARK 924 INTRA-LIGAND FREE ENERGY PREDICTED BY IDOCK:   -1.54 KCAL/MOL
REMARK 927      BINDING AFFINITY PREDICTED BY RF-SCORE:    0.00 PKD
ROOT
HETATM    1  C   UNL     1     -12.633   3.687  65.875  1.00  0.00    12.734 C  
HETATM    2  N   UNL     1     -13.299   4.390  66.969  1.00  0.00    18.392 NA 
HETATM    3  C   UNL     1     -12.449   4.419  68.180  1.00  0.00    16.853 C  
HETATM    4  C   UNL     1     -11.237   5.371  68.088  1.00  0.00     0.993 C  
HETATM    5  N   UNL     1     -11.715   6.735  67.780  1.00  0.00     0.649 NA 
HETATM    6  C   UNL     1     -12.477   6.795  66.525  1.00  0.00     6.760 C  
HETATM    7  C   UNL     1     -13.651   5.781  66.587  1.00  0.00    16.611 C  
ENDROOT
BRANCH   5   8
HETATM    8  C   UNL     1     -11.144   7.837  68.388  1.00  0.00     0.334 A  
HETATM    9  C   UNL     1     -11.440   8.255  69.682  1.00  0.00     0.341 A  
HETATM   10  C   UNL     1     -10.871   9.419  70.214  1.00  0.00    -0.303 A  
HETATM   11  C   UNL     1      -9.987  10.208  69.455  1.00  0.00    -0.257 A  
HETATM   12  C   UNL     1      -9.582   9.775  68.181  1.00  0.00    -0.143 A  
HETATM   13  C   UNL     1     -10.171   8.592  67.707  1.00  0.00    -0.282 A  
BRANCH  11  14
HETATM   14  C   UNL     1      -9.556  11.500  70.071  1.00  0.00     2.012 C  
HETATM   15  H   UNL     1      -9.665  12.404  68.218  1.00  0.00     0.000 HD 
HETATM   16  O   UNL     1      -9.380  11.522  71.288  1.00  0.00     6.970 OA 
HETATM   17  N   UNL     1      -9.432  12.565  69.198  1.00  0.00     0.448 N  
BRANCH  17  18
HETATM   18  C   UNL     1      -9.015  13.835  69.559  1.00  0.00     1.058 A  
HETATM   19  C   UNL     1      -9.351  15.051  68.876  1.00  0.00    -0.208 A  
HETATM   20  C   UNL     1     -10.128  15.439  67.770  1.00  0.00    -0.227 A  
HETATM   21  N   UNL     1      -8.215  14.083  70.597  1.00  0.00     2.197 NA 
HETATM   22  N   UNL     1      -8.017  15.401  70.573  1.00  0.00     0.984 NA 
HETATM   23  H   UNL     1      -7.837  13.410  71.264  1.00  0.00     0.000 HD 
HETATM   24  C   UNL     1     -10.135  16.780  67.332  1.00  0.00    -0.276 A  
HETATM   25  C   UNL     1      -9.371  17.731  68.020  1.00  0.00    -0.276 A  
HETATM   26  C   UNL     1      -8.633  16.043  69.536  1.00  0.00    -0.034 A  
HETATM   27  C   UNL     1      -8.613  17.383  69.143  1.00  0.00     0.065 A  
BRANCH  24  28
HETATM   28  C   UNL     1     -11.003  17.198  66.163  1.00  0.00     0.193 C  
BRANCH  28  29
HETATM   29  C   UNL     1     -11.203  16.166  65.070  1.00  0.00    -0.225 A  
HETATM   30  C   UNL     1     -10.209  15.819  64.141  1.00  0.00     2.504 A  
HETATM   31  C   UNL     1     -10.434  14.809  63.207  1.00  0.00     5.602 A  
HETATM   32  F   UNL     1      -9.460  14.485  62.346  1.00  0.00    11.007 F  
HETATM   33  C   UNL     1     -11.639  14.126  63.160  1.00  0.00     1.429 A  
HETATM   34  C   UNL     1     -12.634  14.483  64.056  1.00  0.00     0.112 A  
HETATM   35  C   UNL     1     -12.430  15.487  65.002  1.00  0.00     0.582 A  
HETATM   36  F   UNL     1     -13.811  13.843  64.024  1.00  0.00     2.260 F  
ENDBRANCH  28  29
ENDBRANCH  24  28
ENDBRANCH  17  18
ENDBRANCH  11  14
BRANCH  12  37
HETATM   37  N   UNL     1      -8.705  10.518  67.380  1.00  0.00    -0.126 NA 
HETATM   38  H   UNL     1      -9.071  11.324  66.874  1.00  0.00     0.000 HD 
BRANCH  37  39
HETATM   39  C   UNL     1      -7.277  10.185  67.237  1.00  0.00    -0.089 C  
HETATM   40  C   UNL     1      -6.666   9.424  68.417  1.00  0.00    -0.058 C  
HETATM   41  O   UNL     1      -5.671  11.477  69.267  1.00  0.00    -0.048 OA 
HETATM   42  C   UNL     1      -6.349  12.271  68.295  1.00  0.00    -0.055 C  
HETATM   43  C   UNL     1      -6.498  11.479  67.005  1.00  0.00    -0.134 C  
HETATM   44  C   UNL     1      -6.418  10.316  69.624  1.00  0.00    -0.069 C  
ENDBRANCH  37  39
ENDBRANCH  12  37
ENDBRANCH   5   8
TORSDOF 7
ENDMDL
