MODEL        1
REMARK 921   NORMALIZED FREE ENERGY PREDICTED BY IDOCK:   -9.41 KCAL/MOL
REMARK 922        TOTAL FREE ENERGY PREDICTED BY IDOCK:  -11.98 KCAL/MOL
REMARK 923 INTER-LIGAND FREE ENERGY PREDICTED BY IDOCK:  -11.06 KCAL/MOL
REMARK 924 INTRA-LIGAND FREE ENERGY PREDICTED BY IDOCK:   -0.92 KCAL/MOL
REMARK 927      BINDING AFFINITY PREDICTED BY RF-SCORE:    0.00 PKD
ROOT
HETATM    1  C   UNL     1     -14.356   8.193  71.951  1.00  0.00    -0.472 C  
HETATM    2  N   UNL     1     -13.734   9.153  71.078  1.00  0.00    -0.578 N  
HETATM    3  C   UNL     1     -12.439   9.572  71.279  1.00  0.00    -0.346 C  
HETATM    4  H   UNL     1     -14.265   9.531  70.293  1.00  0.00     0.000 HD 
HETATM    5  O   UNL     1     -11.727   9.162  72.188  1.00  0.00    -0.342 OA 
ENDROOT
BRANCH   3   6
HETATM    6  C   UNL     1     -11.896  10.533  70.289  1.00  0.00    -0.418 A  
HETATM    7  C   UNL     1     -12.061  11.912  70.409  1.00  0.00    -0.333 A  
HETATM    8  F   UNL     1     -12.700  12.439  71.465  1.00  0.00    -0.438 F  
HETATM    9  C   UNL     1     -11.583  12.790  69.432  1.00  0.00    -0.361 A  
HETATM   10  C   UNL     1     -10.952  12.299  68.289  1.00  0.00    -0.232 A  
HETATM   11  C   UNL     1     -10.743  10.911  68.200  1.00  0.00    -0.256 A  
HETATM   12  C   UNL     1     -11.205  10.035  69.186  1.00  0.00    -0.197 A  
BRANCH  10  13
HETATM   13  N   UNL     1     -10.488  13.151  67.248  1.00  0.00    -0.242 N  
HETATM   14  C   UNL     1      -9.381  14.031  67.347  1.00  0.00    -0.220 C  
HETATM   15  N   UNL     1      -9.622  15.101  66.490  1.00  0.00    -0.254 N  
HETATM   16  S   UNL     1      -7.969  13.651  68.181  1.00  0.00    -0.159 S  
HETATM   17  C   UNL     1     -10.595  12.280  64.926  1.00  0.00    -0.329 C  
HETATM   18  C   UNL     1     -10.566  14.691  65.561  1.00  0.00    -0.355 C  
HETATM   19  C   UNL     1     -12.643  13.397  65.945  1.00  0.00    -0.412 C  
HETATM   20  C   UNL     1     -11.115  13.302  65.947  1.00  0.00    -0.285 C  
HETATM   21  O   UNL     1     -10.915  15.258  64.530  1.00  0.00    -0.334 OA 
BRANCH  15  22
HETATM   22  C   UNL     1      -9.045  16.421  66.542  1.00  0.00    -0.276 A  
HETATM   23  C   UNL     1      -7.113  17.931  66.434  1.00  0.00    -0.292 A  
HETATM   24  C   UNL     1      -7.672  16.643  66.379  1.00  0.00    -0.328 A  
HETATM   25  C   UNL     1      -7.908  19.057  66.671  1.00  0.00    -0.274 A  
HETATM   26  C   UNL     1      -9.288  18.889  66.797  1.00  0.00    -0.343 A  
HETATM   27  C   UNL     1      -7.258  20.332  66.772  1.00  0.00    -0.267 C  
HETATM   28  C   UNL     1      -9.829  17.581  66.684  1.00  0.00    -0.308 A  
HETATM   29  N   UNL     1      -6.700  21.349  66.854  1.00  0.00    -0.506 NA 
HETATM   30  C   UNL     1     -10.257  20.021  67.059  1.00  0.00    -0.451 C  
HETATM   31  F   UNL     1     -11.009  19.791  68.170  1.00  0.00    -0.449 F  
HETATM   32  F   UNL     1     -11.144  20.175  66.037  1.00  0.00    -0.407 F  
HETATM   33  F   UNL     1      -9.690  21.238  67.247  1.00  0.00    -0.599 F  
ENDBRANCH  15  22
ENDBRANCH  10  13
ENDBRANCH   3   6
TORSDOF 3
ENDMDL
MODEL        2
REMARK 921   NORMALIZED FREE ENERGY PREDICTED BY IDOCK:   -9.12 KCAL/MOL
REMARK 922        TOTAL FREE ENERGY PREDICTED BY IDOCK:  -11.64 KCAL/MOL
REMARK 923 INTER-LIGAND FREE ENERGY PREDICTED BY IDOCK:  -10.84 KCAL/MOL
REMARK 924 INTRA-LIGAND FREE ENERGY PREDICTED BY IDOCK:   -0.80 KCAL/MOL
REMARK 927      BINDING AFFINITY PREDICTED BY RF-SCORE:    0.00 PKD
ROOT
HETATM    1  C   UNL     1     -14.047   8.180  71.837  1.00  0.00    -0.415 C  
HETATM    2  N   UNL     1     -13.529   9.080  70.842  1.00  0.00    -0.533 N  
HETATM    3  C   UNL     1     -12.296   9.676  70.983  1.00  0.00    -0.310 C  
HETATM    4  H   UNL     1     -14.088   9.282  70.012  1.00  0.00     0.000 HD 
HETATM    5  O   UNL     1     -11.556   9.481  71.939  1.00  0.00    -0.371 OA 
ENDROOT
BRANCH   3   6
HETATM    6  C   UNL     1     -11.856  10.551  69.871  1.00  0.00    -0.358 A  
HETATM    7  C   UNL     1     -11.130  10.076  68.780  1.00  0.00    -0.173 A  
HETATM    8  F   UNL     1     -10.825   8.774  68.671  1.00  0.00    -0.219 F  
HETATM    9  C   UNL     1     -10.684  10.936  67.772  1.00  0.00    -0.279 A  
HETATM   10  C   UNL     1     -10.930  12.307  67.853  1.00  0.00    -0.224 A  
HETATM   11  C   UNL     1     -11.707  12.772  68.929  1.00  0.00    -0.370 A  
HETATM   12  C   UNL     1     -12.169  11.909  69.927  1.00  0.00    -0.269 A  
BRANCH  10  13
HETATM   13  N   UNL     1     -10.458  13.226  66.874  1.00  0.00    -0.260 N  
HETATM   14  C   UNL     1      -9.329  14.071  67.027  1.00  0.00    -0.250 C  
HETATM   15  N   UNL     1      -9.554  15.208  66.258  1.00  0.00    -0.277 N  
HETATM   16  S   UNL     1      -7.918  13.595  67.813  1.00  0.00    -0.189 S  
HETATM   17  C   UNL     1     -10.609  12.539  64.494  1.00  0.00    -0.363 C  
HETATM   18  C   UNL     1     -10.517  14.893  65.313  1.00  0.00    -0.404 C  
HETATM   19  C   UNL     1     -12.620  13.620  65.621  1.00  0.00    -0.531 C  
HETATM   20  C   UNL     1     -11.095  13.491  65.597  1.00  0.00    -0.289 C  
HETATM   21  O   UNL     1     -10.863  15.545  64.332  1.00  0.00    -0.256 OA 
BRANCH  15  22
HETATM   22  C   UNL     1      -8.945  16.507  66.405  1.00  0.00    -0.305 A  
HETATM   23  C   UNL     1      -6.969  17.960  66.494  1.00  0.00    -0.263 A  
HETATM   24  C   UNL     1      -7.558  16.692  66.348  1.00  0.00    -0.297 A  
HETATM   25  C   UNL     1      -7.747  19.100  66.721  1.00  0.00    -0.259 A  
HETATM   26  C   UNL     1      -9.137  18.970  66.742  1.00  0.00    -0.340 A  
HETATM   27  C   UNL     1      -7.071  20.349  66.919  1.00  0.00    -0.277 C  
HETATM   28  C   UNL     1      -9.705  17.684  66.538  1.00  0.00    -0.310 A  
HETATM   29  N   UNL     1      -6.492  21.344  67.081  1.00  0.00    -0.562 NA 
HETATM   30  C   UNL     1     -10.090  20.120  66.981  1.00  0.00    -0.459 C  
HETATM   31  F   UNL     1     -10.926  19.870  68.026  1.00  0.00    -0.456 F  
HETATM   32  F   UNL     1     -10.897  20.341  65.906  1.00  0.00    -0.438 F  
HETATM   33  F   UNL     1      -9.504  21.310  67.258  1.00  0.00    -0.533 F  
ENDBRANCH  15  22
ENDBRANCH  10  13
ENDBRANCH   3   6
TORSDOF 3
ENDMDL
MODEL        3
REMARK 921   NORMALIZED FREE ENERGY PREDICTED BY IDOCK:   -8.93 KCAL/MOL
REMARK 922        TOTAL FREE ENERGY PREDICTED BY IDOCK:  -11.42 KCAL/MOL
REMARK 923 INTER-LIGAND FREE ENERGY PREDICTED BY IDOCK:  -10.38 KCAL/MOL
REMARK 924 INTRA-LIGAND FREE ENERGY PREDICTED BY IDOCK:   -1.03 KCAL/MOL
REMARK 927      BINDING AFFINITY PREDICTED BY RF-SCORE:    0.00 PKD
ROOT
HETATM    1  C   UNL     1      -6.611  21.195  67.289  1.00  0.00    -0.359 C  
HETATM    2  N   UNL     1      -7.450  20.027  67.286  1.00  0.00    -0.264 N  
HETATM    3  C   UNL     1      -7.613  19.263  66.152  1.00  0.00    -0.287 C  
HETATM    4  H   UNL     1      -7.934  19.758  68.142  1.00  0.00     0.000 HD 
HETATM    5  O   UNL     1      -7.060  19.506  65.087  1.00  0.00    -0.407 OA 
ENDROOT
BRANCH   3   6
HETATM    6  C   UNL     1      -8.470  18.061  66.286  1.00  0.00    -0.214 A  
HETATM    7  C   UNL     1      -9.862  18.120  66.247  1.00  0.00    -0.310 A  
HETATM    8  F   UNL     1     -10.496  19.286  66.048  1.00  0.00    -0.449 F  
HETATM    9  C   UNL     1     -10.644  16.976  66.427  1.00  0.00    -0.172 A  
HETATM   10  C   UNL     1     -10.044  15.743  66.684  1.00  0.00    -0.279 A  
HETATM   11  C   UNL     1      -8.639  15.681  66.670  1.00  0.00    -0.330 A  
HETATM   12  C   UNL     1      -7.857  16.822  66.471  1.00  0.00    -0.338 A  
BRANCH  10  13
HETATM   13  N   UNL     1     -10.801  14.560  66.918  1.00  0.00    -0.299 N  
HETATM   14  C   UNL     1     -11.052  13.993  68.193  1.00  0.00    -0.260 C  
HETATM   15  N   UNL     1     -11.198  12.620  68.015  1.00  0.00    -0.247 N  
HETATM   16  S   UNL     1     -11.350  14.912  69.572  1.00  0.00    -0.298 S  
HETATM   17  C   UNL     1     -12.783  14.168  65.477  1.00  0.00    -0.468 C  
HETATM   18  C   UNL     1     -11.503  12.399  66.682  1.00  0.00    -0.370 C  
HETATM   19  C   UNL     1     -10.481  13.433  64.676  1.00  0.00    -0.428 C  
HETATM   20  C   UNL     1     -11.374  13.715  65.887  1.00  0.00    -0.309 C  
HETATM   21  O   UNL     1     -11.890  11.362  66.152  1.00  0.00    -0.218 OA 
BRANCH  15  22
HETATM   22  C   UNL     1     -11.036  11.580  69.002  1.00  0.00    -0.245 A  
HETATM   23  C   UNL     1      -9.692   9.842  70.095  1.00  0.00    -0.255 A  
HETATM   24  C   UNL     1      -9.845  10.856  69.134  1.00  0.00    -0.164 A  
HETATM   25  C   UNL     1     -10.736   9.497  70.958  1.00  0.00    -0.411 A  
HETATM   26  C   UNL     1     -11.928  10.221  70.892  1.00  0.00    -0.473 A  
HETATM   27  C   UNL     1     -10.525   8.412  71.872  1.00  0.00    -0.296 C  
HETATM   28  C   UNL     1     -12.034  11.276  69.947  1.00  0.00    -0.440 A  
HETATM   29  N   UNL     1     -10.324   7.525  72.596  1.00  0.00    -0.235 NA 
HETATM   30  C   UNL     1     -13.134   9.948  71.764  1.00  0.00    -0.452 C  
HETATM   31  F   UNL     1     -14.251   9.721  71.020  1.00  0.00    -0.211 F  
HETATM   32  F   UNL     1     -13.431  11.009  72.564  1.00  0.00    -0.445 F  
HETATM   33  F   UNL     1     -13.021   8.878  72.589  1.00  0.00    -0.450 F  
ENDBRANCH  15  22
ENDBRANCH  10  13
ENDBRANCH   3   6
TORSDOF 3
ENDMDL
MODEL        4
REMARK 921   NORMALIZED FREE ENERGY PREDICTED BY IDOCK:   -8.38 KCAL/MOL
REMARK 922        TOTAL FREE ENERGY PREDICTED BY IDOCK:  -10.76 KCAL/MOL
REMARK 923 INTER-LIGAND FREE ENERGY PREDICTED BY IDOCK:   -9.71 KCAL/MOL
REMARK 924 INTRA-LIGAND FREE ENERGY PREDICTED BY IDOCK:   -1.05 KCAL/MOL
REMARK 927      BINDING AFFINITY PREDICTED BY RF-SCORE:    0.00 PKD
ROOT
HETATM    1  C   UNL     1      -6.415  20.989  67.684  1.00  0.00    -0.358 C  
HETATM    2  N   UNL     1      -7.283  19.843  67.622  1.00  0.00    -0.267 N  
HETATM    3  C   UNL     1      -7.726  19.342  66.420  1.00  0.00    -0.285 C  
HETATM    4  H   UNL     1      -7.575  19.391  68.489  1.00  0.00     0.000 HD 
HETATM    5  O   UNL     1      -7.415  19.814  65.333  1.00  0.00    -0.391 OA 
ENDROOT
BRANCH   3   6
HETATM    6  C   UNL     1      -8.582  18.133  66.485  1.00  0.00    -0.282 A  
HETATM    7  C   UNL     1      -9.969  18.185  66.362  1.00  0.00    -0.376 A  
HETATM    8  F   UNL     1     -10.598  19.350  66.140  1.00  0.00    -0.469 F  
HETATM    9  C   UNL     1     -10.754  17.035  66.480  1.00  0.00    -0.073 A  
HETATM   10  C   UNL     1     -10.163  15.802  66.757  1.00  0.00    -0.282 A  
HETATM   11  C   UNL     1      -8.760  15.748  66.828  1.00  0.00    -0.305 A  
HETATM   12  C   UNL     1      -7.974  16.896  66.691  1.00  0.00    -0.300 A  
BRANCH  10  13
HETATM   13  N   UNL     1     -10.925  14.611  66.929  1.00  0.00    -0.316 N  
HETATM   14  C   UNL     1     -11.287  14.050  68.180  1.00  0.00    -0.292 C  
HETATM   15  N   UNL     1     -11.401  12.675  68.000  1.00  0.00    -0.269 N  
HETATM   16  S   UNL     1     -11.722  14.975  69.518  1.00  0.00    -0.342 S  
HETATM   17  C   UNL     1     -12.760  14.186  65.314  1.00  0.00    -0.425 C  
HETATM   18  C   UNL     1     -11.578  12.440  66.646  1.00  0.00    -0.385 C  
HETATM   19  C   UNL     1     -10.385  13.472  64.736  1.00  0.00    -0.405 C  
HETATM   20  C   UNL     1     -11.390  13.752  65.856  1.00  0.00    -0.307 C  
HETATM   21  O   UNL     1     -11.903  11.395  66.091  1.00  0.00    -0.218 OA 
BRANCH  15  22
HETATM   22  C   UNL     1     -11.320  11.644  69.006  1.00  0.00    -0.275 A  
HETATM   23  C   UNL     1     -12.314  10.327  70.822  1.00  0.00    -0.445 A  
HETATM   24  C   UNL     1     -12.398  11.330  69.842  1.00  0.00    -0.301 A  
HETATM   25  C   UNL     1     -11.135   9.602  71.018  1.00  0.00    -0.438 A  
HETATM   26  C   UNL     1     -10.047   9.850  70.179  1.00  0.00    -0.309 A  
HETATM   27  C   UNL     1     -11.107   8.634  72.077  1.00  0.00    -0.367 C  
HETATM   28  C   UNL     1     -10.181  10.833  69.163  1.00  0.00    -0.229 A  
HETATM   29  N   UNL     1     -11.114   7.863  72.947  1.00  0.00    -0.402 NA 
HETATM   30  C   UNL     1      -8.716   9.140  70.288  1.00  0.00    -0.200 C  
HETATM   31  F   UNL     1      -7.687  10.020  70.432  1.00  0.00    -0.168 F  
HETATM   32  F   UNL     1      -8.433   8.420  69.167  1.00  0.00    -0.116 F  
HETATM   33  F   UNL     1      -8.603   8.274  71.325  1.00  0.00    -0.116 F  
ENDBRANCH  15  22
ENDBRANCH  10  13
ENDBRANCH   3   6
TORSDOF 3
ENDMDL
MODEL        5
REMARK 921   NORMALIZED FREE ENERGY PREDICTED BY IDOCK:   -8.32 KCAL/MOL
REMARK 922        TOTAL FREE ENERGY PREDICTED BY IDOCK:  -10.69 KCAL/MOL
REMARK 923 INTER-LIGAND FREE ENERGY PREDICTED BY IDOCK:  -10.45 KCAL/MOL
REMARK 924 INTRA-LIGAND FREE ENERGY PREDICTED BY IDOCK:   -0.24 KCAL/MOL
REMARK 927      BINDING AFFINITY PREDICTED BY RF-SCORE:    0.00 PKD
ROOT
HETATM    1  C   UNL     1     -11.636   5.578  72.762  1.00  0.00    -0.235 C  
HETATM    2  N   UNL     1     -11.678   6.998  72.535  1.00  0.00    -0.457 N  
HETATM    3  C   UNL     1     -12.249   7.527  71.400  1.00  0.00    -0.335 C  
HETATM    4  H   UNL     1     -11.277   7.626  73.231  1.00  0.00     0.000 HD 
HETATM    5  O   UNL     1     -12.765   6.847  70.521  1.00  0.00    -0.152 OA 
ENDROOT
BRANCH   3   6
HETATM    6  C   UNL     1     -12.268   9.006  71.300  1.00  0.00    -0.373 A  
HETATM    7  C   UNL     1     -13.258   9.788  71.890  1.00  0.00    -0.449 A  
HETATM    8  F   UNL     1     -14.236   9.227  72.618  1.00  0.00    -0.467 F  
HETATM    9  C   UNL     1     -13.278  11.177  71.734  1.00  0.00    -0.486 A  
HETATM   10  C   UNL     1     -12.315  11.814  70.951  1.00  0.00    -0.320 A  
HETATM   11  C   UNL     1     -11.289  11.024  70.401  1.00  0.00    -0.222 A  
HETATM   12  C   UNL     1     -11.259   9.638  70.573  1.00  0.00    -0.359 A  
BRANCH  10  13
HETATM   13  N   UNL     1     -12.321  13.220  70.727  1.00  0.00    -0.368 N  
HETATM   14  C   UNL     1     -11.722  13.871  69.619  1.00  0.00    -0.311 C  
HETATM   15  N   UNL     1     -11.345  15.143  70.039  1.00  0.00    -0.259 N  
HETATM   16  S   UNL     1     -11.732  13.239  68.059  1.00  0.00    -0.361 S  
HETATM   17  C   UNL     1     -14.370  14.469  71.360  1.00  0.00    -0.409 C  
HETATM   18  C   UNL     1     -12.085  15.449  71.171  1.00  0.00    -0.363 C  
HETATM   19  C   UNL     1     -12.588  14.002  73.118  1.00  0.00    -0.000 C  
HETATM   20  C   UNL     1     -12.881  14.209  71.630  1.00  0.00    -0.349 C  
HETATM   21  O   UNL     1     -12.195  16.531  71.738  1.00  0.00    -0.231 OA 
BRANCH  15  22
HETATM   22  C   UNL     1     -10.348  16.006  69.455  1.00  0.00    -0.278 A  
HETATM   23  C   UNL     1      -8.051  16.444  68.711  1.00  0.00    -0.234 A  
HETATM   24  C   UNL     1      -9.020  15.599  69.278  1.00  0.00    -0.267 A  
HETATM   25  C   UNL     1      -8.368  17.745  68.310  1.00  0.00    -0.276 A  
HETATM   26  C   UNL     1      -9.690  18.180  68.427  1.00  0.00    -0.363 A  
HETATM   27  C   UNL     1      -7.313  18.568  67.794  1.00  0.00    -0.229 C  
HETATM   28  C   UNL     1     -10.658  17.284  68.954  1.00  0.00    -0.276 A  
HETATM   29  N   UNL     1      -6.434  19.211  67.386  1.00  0.00    -0.186 NA 
HETATM   30  C   UNL     1     -10.164  19.562  68.034  1.00  0.00    -0.437 C  
HETATM   31  F   UNL     1     -10.785  20.192  69.069  1.00  0.00    -0.417 F  
HETATM   32  F   UNL     1     -11.078  19.516  67.026  1.00  0.00    -0.566 F  
HETATM   33  F   UNL     1      -9.193  20.411  67.619  1.00  0.00    -0.418 F  
ENDBRANCH  15  22
ENDBRANCH  10  13
ENDBRANCH   3   6
TORSDOF 3
ENDMDL
MODEL        6
REMARK 921   NORMALIZED FREE ENERGY PREDICTED BY IDOCK:   -8.21 KCAL/MOL
REMARK 922        TOTAL FREE ENERGY PREDICTED BY IDOCK:  -10.57 KCAL/MOL
REMARK 923 INTER-LIGAND FREE ENERGY PREDICTED BY IDOCK:   -9.48 KCAL/MOL
REMARK 924 INTRA-LIGAND FREE ENERGY PREDICTED BY IDOCK:   -1.09 KCAL/MOL
REMARK 927      BINDING AFFINITY PREDICTED BY RF-SCORE:    0.00 PKD
ROOT
HETATM    1  C   UNL     1      -6.345  21.206  66.861  1.00  0.00    -0.327 C  
HETATM    2  N   UNL     1      -7.149  20.029  67.053  1.00  0.00    -0.220 N  
HETATM    3  C   UNL     1      -7.390  19.148  66.024  1.00  0.00    -0.272 C  
HETATM    4  H   UNL     1      -7.550  19.844  67.973  1.00  0.00     0.000 HD 
HETATM    5  O   UNL     1      -6.938  19.286  64.894  1.00  0.00    -0.391 OA 
ENDROOT
BRANCH   3   6
HETATM    6  C   UNL     1      -8.200  17.952  66.357  1.00  0.00    -0.287 A  
HETATM    7  C   UNL     1      -7.637  16.693  66.560  1.00  0.00    -0.292 A  
HETATM    8  F   UNL     1      -6.308  16.515  66.497  1.00  0.00    -0.216 F  
HETATM    9  C   UNL     1      -8.432  15.574  66.821  1.00  0.00    -0.314 A  
HETATM   10  C   UNL     1      -9.822  15.686  66.853  1.00  0.00    -0.238 A  
HETATM   11  C   UNL     1     -10.380  16.968  66.699  1.00  0.00    -0.299 A  
HETATM   12  C   UNL     1      -9.584  18.090  66.457  1.00  0.00    -0.318 A  
BRANCH  10  13
HETATM   13  N   UNL     1     -10.674  14.567  67.072  1.00  0.00    -0.286 N  
HETATM   14  C   UNL     1     -10.988  14.017  68.340  1.00  0.00    -0.252 C  
HETATM   15  N   UNL     1     -11.241  12.662  68.155  1.00  0.00    -0.250 N  
HETATM   16  S   UNL     1     -11.232  14.953  69.719  1.00  0.00    -0.285 S  
HETATM   17  C   UNL     1     -12.660  14.339  65.601  1.00  0.00    -0.429 C  
HETATM   18  C   UNL     1     -11.543  12.469  66.816  1.00  0.00    -0.382 C  
HETATM   19  C   UNL     1     -10.412  13.424  64.829  1.00  0.00    -0.419 C  
HETATM   20  C   UNL     1     -11.298  13.773  66.029  1.00  0.00    -0.314 C  
HETATM   21  O   UNL     1     -12.004  11.468  66.276  1.00  0.00    -0.294 OA 
BRANCH  15  22
HETATM   22  C   UNL     1     -11.177  11.609  69.139  1.00  0.00    -0.263 A  
HETATM   23  C   UNL     1     -12.194  10.270  70.927  1.00  0.00    -0.465 A  
HETATM   24  C   UNL     1     -12.262  11.295  69.967  1.00  0.00    -0.389 A  
HETATM   25  C   UNL     1     -11.026   9.523  71.109  1.00  0.00    -0.438 A  
HETATM   26  C   UNL     1      -9.933   9.773  70.277  1.00  0.00    -0.309 A  
HETATM   27  C   UNL     1     -11.015   8.534  72.148  1.00  0.00    -0.357 C  
HETATM   28  C   UNL     1     -10.051  10.778  69.281  1.00  0.00    -0.200 A  
HETATM   29  N   UNL     1     -11.035   7.745  73.002  1.00  0.00    -0.404 NA 
HETATM   30  C   UNL     1      -8.613   9.040  70.373  1.00  0.00    -0.193 C  
HETATM   31  F   UNL     1      -7.572   9.902  70.536  1.00  0.00    -0.157 F  
HETATM   32  F   UNL     1      -8.340   8.339  69.238  1.00  0.00    -0.114 F  
HETATM   33  F   UNL     1      -8.516   8.152  71.392  1.00  0.00    -0.102 F  
ENDBRANCH  15  22
ENDBRANCH  10  13
ENDBRANCH   3   6
TORSDOF 3
ENDMDL
MODEL        7
REMARK 921   NORMALIZED FREE ENERGY PREDICTED BY IDOCK:   -8.00 KCAL/MOL
REMARK 922        TOTAL FREE ENERGY PREDICTED BY IDOCK:  -10.32 KCAL/MOL
REMARK 923 INTER-LIGAND FREE ENERGY PREDICTED BY IDOCK:   -9.36 KCAL/MOL
REMARK 924 INTRA-LIGAND FREE ENERGY PREDICTED BY IDOCK:   -0.96 KCAL/MOL
REMARK 927      BINDING AFFINITY PREDICTED BY RF-SCORE:    0.00 PKD
ROOT
HETATM    1  C   UNL     1      -6.705  21.087  66.725  1.00  0.00    -0.290 C  
HETATM    2  N   UNL     1      -7.479  19.876  66.772  1.00  0.00    -0.245 N  
HETATM    3  C   UNL     1      -7.851  19.307  67.969  1.00  0.00    -0.298 C  
HETATM    4  H   UNL     1      -7.759  19.428  65.899  1.00  0.00     0.000 HD 
HETATM    5  O   UNL     1      -7.569  19.783  69.061  1.00  0.00    -0.322 OA 
ENDROOT
BRANCH   3   6
HETATM    6  C   UNL     1      -8.682  18.081  67.886  1.00  0.00    -0.258 A  
HETATM    7  C   UNL     1     -10.061  18.118  67.692  1.00  0.00    -0.359 A  
HETATM    8  F   UNL     1     -10.702  19.286  67.532  1.00  0.00    -0.471 F  
HETATM    9  C   UNL     1     -10.825  16.948  67.670  1.00  0.00    -0.244 A  
HETATM   10  C   UNL     1     -10.221  15.707  67.877  1.00  0.00    -0.239 A  
HETATM   11  C   UNL     1      -8.823  15.673  68.020  1.00  0.00    -0.169 A  
HETATM   12  C   UNL     1      -8.057  16.842  68.023  1.00  0.00    -0.194 A  
BRANCH  10  13
HETATM   13  N   UNL     1     -10.964  14.493  67.908  1.00  0.00    -0.262 N  
HETATM   14  C   UNL     1     -11.368  13.815  69.086  1.00  0.00    -0.281 C  
HETATM   15  N   UNL     1     -11.444  12.460  68.779  1.00  0.00    -0.279 N  
HETATM   16  S   UNL     1     -11.880  14.608  70.480  1.00  0.00    -0.313 S  
HETATM   17  C   UNL     1     -12.718  14.182  66.180  1.00  0.00    -0.251 C  
HETATM   18  C   UNL     1     -11.558  12.345  67.403  1.00  0.00    -0.365 C  
HETATM   19  C   UNL     1     -10.306  13.566  65.648  1.00  0.00    -0.303 C  
HETATM   20  C   UNL     1     -11.364  13.726  66.743  1.00  0.00    -0.330 C  
HETATM   21  O   UNL     1     -11.835  11.349  66.743  1.00  0.00    -0.443 OA 
BRANCH  15  22
HETATM   22  C   UNL     1     -11.385  11.344  69.692  1.00  0.00    -0.275 A  
HETATM   23  C   UNL     1     -12.355   9.974  71.482  1.00  0.00    -0.513 A  
HETATM   24  C   UNL     1     -12.419  11.061  70.593  1.00  0.00    -0.465 A  
HETATM   25  C   UNL     1     -11.241   9.130  71.517  1.00  0.00    -0.430 A  
HETATM   26  C   UNL     1     -10.204   9.348  70.607  1.00  0.00    -0.353 A  
HETATM   27  C   UNL     1     -11.223   8.078  72.492  1.00  0.00    -0.388 C  
HETATM   28  C   UNL     1     -10.322  10.422  69.686  1.00  0.00    -0.261 A  
HETATM   29  N   UNL     1     -11.237   7.239  73.297  1.00  0.00    -0.239 NA 
HETATM   30  C   UNL     1      -8.945   8.512  70.544  1.00  0.00    -0.155 C  
HETATM   31  F   UNL     1      -7.827   9.280  70.664  1.00  0.00    -0.101 F  
HETATM   32  F   UNL     1      -8.825   7.868  69.350  1.00  0.00    -0.139 F  
HETATM   33  F   UNL     1      -8.836   7.556  71.497  1.00  0.00    -0.121 F  
ENDBRANCH  15  22
ENDBRANCH  10  13
ENDBRANCH   3   6
TORSDOF 3
ENDMDL
MODEL        8
REMARK 921   NORMALIZED FREE ENERGY PREDICTED BY IDOCK:   -7.61 KCAL/MOL
REMARK 922        TOTAL FREE ENERGY PREDICTED BY IDOCK:   -9.86 KCAL/MOL
REMARK 923 INTER-LIGAND FREE ENERGY PREDICTED BY IDOCK:   -9.34 KCAL/MOL
REMARK 924 INTRA-LIGAND FREE ENERGY PREDICTED BY IDOCK:   -0.53 KCAL/MOL
REMARK 927      BINDING AFFINITY PREDICTED BY RF-SCORE:    0.00 PKD
ROOT
HETATM    1  C   UNL     1      -6.238  20.950  68.089  1.00  0.00    -0.330 C  
HETATM    2  N   UNL     1      -6.991  19.726  68.149  1.00  0.00    -0.280 N  
HETATM    3  C   UNL     1      -8.310  19.674  67.757  1.00  0.00    -0.310 C  
HETATM    4  H   UNL     1      -6.538  18.878  68.488  1.00  0.00     0.000 HD 
HETATM    5  O   UNL     1      -8.927  20.640  67.326  1.00  0.00    -0.350 OA 
ENDROOT
BRANCH   3   6
HETATM    6  C   UNL     1      -8.966  18.346  67.827  1.00  0.00    -0.292 A  
HETATM    7  C   UNL     1      -8.278  17.183  68.168  1.00  0.00    -0.224 A  
HETATM    8  F   UNL     1      -6.975  17.223  68.489  1.00  0.00    -0.174 F  
HETATM    9  C   UNL     1      -8.913  15.938  68.175  1.00  0.00    -0.181 A  
HETATM   10  C   UNL     1     -10.253  15.827  67.806  1.00  0.00    -0.251 A  
HETATM   11  C   UNL     1     -10.954  17.010  67.514  1.00  0.00    -0.119 A  
HETATM   12  C   UNL     1     -10.324  18.258  67.525  1.00  0.00    -0.415 A  
BRANCH  10  13
HETATM   13  N   UNL     1     -10.930  14.575  67.756  1.00  0.00    -0.268 N  
HETATM   14  C   UNL     1     -11.272  13.787  68.884  1.00  0.00    -0.272 C  
HETATM   15  N   UNL     1     -11.283  12.457  68.474  1.00  0.00    -0.257 N  
HETATM   16  S   UNL     1     -11.796  14.442  70.344  1.00  0.00    -0.308 S  
HETATM   17  C   UNL     1     -12.701  14.302  66.039  1.00  0.00    -0.240 C  
HETATM   18  C   UNL     1     -11.419  12.443  67.096  1.00  0.00    -0.357 C  
HETATM   19  C   UNL     1     -10.271  13.861  65.419  1.00  0.00    -0.356 C  
HETATM   20  C   UNL     1     -11.313  13.879  66.541  1.00  0.00    -0.331 C  
HETATM   21  O   UNL     1     -11.657  11.486  66.364  1.00  0.00    -0.412 OA 
BRANCH  15  22
HETATM   22  C   UNL     1     -11.144  11.280  69.296  1.00  0.00    -0.255 A  
HETATM   23  C   UNL     1      -9.817   9.408  70.166  1.00  0.00    -0.272 A  
HETATM   24  C   UNL     1      -9.947  10.556  69.366  1.00  0.00    -0.220 A  
HETATM   25  C   UNL     1     -10.891   8.924  70.921  1.00  0.00    -0.308 A  
HETATM   26  C   UNL     1     -12.091   9.638  70.915  1.00  0.00    -0.383 A  
HETATM   27  C   UNL     1     -10.699   7.713  71.666  1.00  0.00    -0.211 C  
HETATM   28  C   UNL     1     -12.174  10.824  70.139  1.00  0.00    -0.425 A  
HETATM   29  N   UNL     1     -10.513   6.727  72.253  1.00  0.00    -0.205 NA 
HETATM   30  C   UNL     1     -13.326   9.221  71.683  1.00  0.00    -0.394 C  
HETATM   31  F   UNL     1     -14.408   9.101  70.865  1.00  0.00    -0.327 F  
HETATM   32  F   UNL     1     -13.673  10.144  72.623  1.00  0.00    -0.353 F  
HETATM   33  F   UNL     1     -13.230   8.039  72.338  1.00  0.00    -0.260 F  
ENDBRANCH  15  22
ENDBRANCH  10  13
ENDBRANCH   3   6
TORSDOF 3
ENDMDL
MODEL        9
REMARK 921   NORMALIZED FREE ENERGY PREDICTED BY IDOCK:   -7.47 KCAL/MOL
REMARK 922        TOTAL FREE ENERGY PREDICTED BY IDOCK:   -9.69 KCAL/MOL
REMARK 923 INTER-LIGAND FREE ENERGY PREDICTED BY IDOCK:   -8.90 KCAL/MOL
REMARK 924 INTRA-LIGAND FREE ENERGY PREDICTED BY IDOCK:   -0.79 KCAL/MOL
REMARK 927      BINDING AFFINITY PREDICTED BY RF-SCORE:    0.00 PKD
ROOT
HETATM    1  C   UNL     1      -9.993   5.236  69.568  1.00  0.00    -0.227 C  
HETATM    2  N   UNL     1      -9.961   6.583  69.065  1.00  0.00    -0.142 N  
HETATM    3  C   UNL     1     -10.482   6.902  67.832  1.00  0.00    -0.212 C  
HETATM    4  H   UNL     1      -9.542   7.319  69.635  1.00  0.00     0.000 HD 
HETATM    5  O   UNL     1     -11.012   6.085  67.089  1.00  0.00    -0.313 OA 
ENDROOT
BRANCH   3   6
HETATM    6  C   UNL     1     -10.425   8.331  67.442  1.00  0.00    -0.353 A  
HETATM    7  C   UNL     1     -10.899   9.355  68.260  1.00  0.00    -0.112 A  
HETATM    8  F   UNL     1     -11.404   9.086  69.475  1.00  0.00    -0.160 F  
HETATM    9  C   UNL     1     -10.880  10.689  67.844  1.00  0.00    -0.328 A  
HETATM   10  C   UNL     1     -10.411  11.025  66.574  1.00  0.00    -0.245 A  
HETATM   11  C   UNL     1      -9.886   9.994  65.774  1.00  0.00    -0.345 A  
HETATM   12  C   UNL     1      -9.888   8.663  66.198  1.00  0.00    -0.269 A  
BRANCH  10  13
HETATM   13  N   UNL     1     -10.413  12.363  66.089  1.00  0.00    -0.243 N  
HETATM   14  C   UNL     1      -9.701  13.442  66.671  1.00  0.00    -0.275 C  
HETATM   15  N   UNL     1     -10.413  14.606  66.396  1.00  0.00    -0.288 N  
HETATM   16  S   UNL     1      -8.163  13.283  67.338  1.00  0.00    -0.169 S  
HETATM   17  C   UNL     1     -10.456  12.687  63.628  1.00  0.00    -0.348 C  
HETATM   18  C   UNL     1     -11.240  14.348  65.315  1.00  0.00    -0.345 C  
HETATM   19  C   UNL     1     -12.641  12.349  64.891  1.00  0.00    -0.372 C  
HETATM   20  C   UNL     1     -11.195  12.846  64.965  1.00  0.00    -0.293 C  
HETATM   21  O   UNL     1     -11.887  15.146  64.644  1.00  0.00    -0.402 OA 
BRANCH  15  22
HETATM   22  C   UNL     1     -10.357  15.862  67.103  1.00  0.00    -0.300 A  
HETATM   23  C   UNL     1     -10.486  17.173  69.174  1.00  0.00    -0.296 A  
HETATM   24  C   UNL     1     -10.539  15.947  68.489  1.00  0.00    -0.263 A  
HETATM   25  C   UNL     1     -10.265  18.375  68.493  1.00  0.00    -0.394 A  
HETATM   26  C   UNL     1     -10.036  18.334  67.117  1.00  0.00    -0.367 A  
HETATM   27  C   UNL     1     -10.284  19.592  69.252  1.00  0.00    -0.128 C  
HETATM   28  C   UNL     1     -10.042  17.074  66.462  1.00  0.00    -0.318 A  
HETATM   29  N   UNL     1     -10.312  20.561  69.894  1.00  0.00     0.376 NA 
HETATM   30  C   UNL     1      -9.788  19.559  66.264  1.00  0.00    -0.429 C  
HETATM   31  F   UNL     1     -10.672  19.638  65.231  1.00  0.00    -0.525 F  
HETATM   32  F   UNL     1      -8.552  19.537  65.694  1.00  0.00    -0.241 F  
HETATM   33  F   UNL     1      -9.879  20.745  66.913  1.00  0.00    -0.576 F  
ENDBRANCH  15  22
ENDBRANCH  10  13
ENDBRANCH   3   6
TORSDOF 3
ENDMDL
MODEL       10
REMARK 921   NORMALIZED FREE ENERGY PREDICTED BY IDOCK:   -7.38 KCAL/MOL
REMARK 922        TOTAL FREE ENERGY PREDICTED BY IDOCK:   -9.59 KCAL/MOL
REMARK 923 INTER-LIGAND FREE ENERGY PREDICTED BY IDOCK:   -8.61 KCAL/MOL
REMARK 924 INTRA-LIGAND FREE ENERGY PREDICTED BY IDOCK:   -0.98 KCAL/MOL
REMARK 927      BINDING AFFINITY PREDICTED BY RF-SCORE:    0.00 PKD
ROOT
HETATM    1  C   UNL     1      -9.612  19.715  66.717  1.00  0.00    -0.371 C  
HETATM    2  N   UNL     1      -9.710  18.281  66.765  1.00  0.00    -0.307 N  
HETATM    3  C   UNL     1      -8.743  17.476  66.208  1.00  0.00    -0.192 C  
HETATM    4  H   UNL     1     -10.514  17.851  67.223  1.00  0.00     0.000 HD 
HETATM    5  O   UNL     1      -7.740  17.908  65.652  1.00  0.00    -0.541 OA 
ENDROOT
BRANCH   3   6
HETATM    6  C   UNL     1      -8.936  16.013  66.358  1.00  0.00    -0.354 A  
HETATM    7  C   UNL     1      -9.876  15.298  65.619  1.00  0.00    -0.348 A  
HETATM    8  F   UNL     1     -10.637  15.910  64.698  1.00  0.00    -0.420 F  
HETATM    9  C   UNL     1     -10.071  13.929  65.820  1.00  0.00    -0.336 A  
HETATM   10  C   UNL     1      -9.343  13.247  66.795  1.00  0.00    -0.252 A  
HETATM   11  C   UNL     1      -8.359  13.964  67.500  1.00  0.00    -0.202 A  
HETATM   12  C   UNL     1      -8.152  15.329  67.287  1.00  0.00    -0.229 A  
BRANCH  10  13
HETATM   13  N   UNL     1      -9.538  11.864  67.066  1.00  0.00    -0.187 N  
HETATM   14  C   UNL     1     -10.304  11.343  68.140  1.00  0.00    -0.188 C  
HETATM   15  N   UNL     1      -9.757  10.110  68.480  1.00  0.00    -0.150 N  
HETATM   16  S   UNL     1     -11.741  12.040  68.674  1.00  0.00    -0.322 S  
HETATM   17  C   UNL     1      -9.777  10.342  65.120  1.00  0.00    -0.364 C  
HETATM   18  C   UNL     1      -9.019   9.663  67.396  1.00  0.00    -0.131 C  
HETATM   19  C   UNL     1      -7.453  10.945  65.967  1.00  0.00    -0.086 C  
HETATM   20  C   UNL     1      -8.931  10.772  66.327  1.00  0.00    -0.170 C  
HETATM   21  O   UNL     1      -8.535   8.550  67.212  1.00  0.00    -0.121 OA 
BRANCH  15  22
HETATM   22  C   UNL     1      -9.882   9.405  69.733  1.00  0.00    -0.201 A  
HETATM   23  C   UNL     1      -8.967   8.672  71.889  1.00  0.00    -0.301 A  
HETATM   24  C   UNL     1      -8.843   9.362  70.671  1.00  0.00    -0.275 A  
HETATM   25  C   UNL     1     -10.137   7.978  72.214  1.00  0.00    -0.311 A  
HETATM   26  C   UNL     1     -11.215   8.028  71.327  1.00  0.00    -0.287 A  
HETATM   27  C   UNL     1     -10.167   7.249  73.448  1.00  0.00    -0.347 C  
HETATM   28  C   UNL     1     -11.078   8.779  70.129  1.00  0.00    -0.214 A  
HETATM   29  N   UNL     1     -10.158   6.663  74.453  1.00  0.00    -0.357 NA 
HETATM   30  C   UNL     1     -12.532   7.321  71.557  1.00  0.00    -0.373 C  
HETATM   31  F   UNL     1     -12.846   6.497  70.519  1.00  0.00    -0.275 F  
HETATM   32  F   UNL     1     -13.567   8.199  71.659  1.00  0.00    -0.338 F  
HETATM   33  F   UNL     1     -12.588   6.547  72.668  1.00  0.00    -0.062 F  
ENDBRANCH  15  22
ENDBRANCH  10  13
ENDBRANCH   3   6
TORSDOF 3
ENDMDL
MODEL       11
REMARK 921   NORMALIZED FREE ENERGY PREDICTED BY IDOCK:   -7.31 KCAL/MOL
REMARK 922        TOTAL FREE ENERGY PREDICTED BY IDOCK:   -9.51 KCAL/MOL
REMARK 923 INTER-LIGAND FREE ENERGY PREDICTED BY IDOCK:   -8.91 KCAL/MOL
REMARK 924 INTRA-LIGAND FREE ENERGY PREDICTED BY IDOCK:   -0.60 KCAL/MOL
REMARK 927      BINDING AFFINITY PREDICTED BY RF-SCORE:    0.00 PKD
ROOT
HETATM    1  C   UNL     1     -11.493   5.673  72.912  1.00  0.00    -0.243 C  
HETATM    2  N   UNL     1     -11.550   7.079  72.613  1.00  0.00    -0.470 N  
HETATM    3  C   UNL     1     -12.181   7.548  71.484  1.00  0.00    -0.331 C  
HETATM    4  H   UNL     1     -11.115   7.743  73.254  1.00  0.00     0.000 HD 
HETATM    5  O   UNL     1     -12.740   6.823  70.670  1.00  0.00    -0.206 OA 
ENDROOT
BRANCH   3   6
HETATM    6  C   UNL     1     -12.209   9.020  71.307  1.00  0.00    -0.373 A  
HETATM    7  C   UNL     1     -13.209   9.825  71.849  1.00  0.00    -0.449 A  
HETATM    8  F   UNL     1     -14.189   9.294  72.597  1.00  0.00    -0.467 F  
HETATM    9  C   UNL     1     -13.237  11.203  71.622  1.00  0.00    -0.449 A  
HETATM   10  C   UNL     1     -12.272  11.806  70.814  1.00  0.00    -0.326 A  
HETATM   11  C   UNL     1     -11.236  10.996  70.314  1.00  0.00    -0.199 A  
HETATM   12  C   UNL     1     -11.198   9.620  70.557  1.00  0.00    -0.359 A  
BRANCH  10  13
HETATM   13  N   UNL     1     -12.285  13.198  70.519  1.00  0.00    -0.361 N  
HETATM   14  C   UNL     1     -11.853  13.776  69.298  1.00  0.00    -0.344 C  
HETATM   15  N   UNL     1     -11.391  15.057  69.586  1.00  0.00    -0.269 N  
HETATM   16  S   UNL     1     -12.118  13.067  67.794  1.00  0.00    -0.062 S  
HETATM   17  C   UNL     1     -14.185  14.534  71.393  1.00  0.00    -0.416 C  
HETATM   18  C   UNL     1     -11.939  15.439  70.800  1.00  0.00    -0.359 C  
HETATM   19  C   UNL     1     -12.161  14.107  72.877  1.00  0.00     0.119 C  
HETATM   20  C   UNL     1     -12.678  14.247  71.442  1.00  0.00    -0.352 C  
HETATM   21  O   UNL     1     -11.938  16.551  71.318  1.00  0.00    -0.189 OA 
BRANCH  15  22
HETATM   22  C   UNL     1     -10.480  15.862  68.809  1.00  0.00    -0.237 A  
HETATM   23  C   UNL     1     -10.014  17.399  66.953  1.00  0.00    -0.300 A  
HETATM   24  C   UNL     1     -10.905  16.618  67.709  1.00  0.00    -0.292 A  
HETATM   25  C   UNL     1      -8.650  17.443  67.258  1.00  0.00    -0.223 A  
HETATM   26  C   UNL     1      -8.188  16.739  68.372  1.00  0.00    -0.224 A  
HETATM   27  C   UNL     1      -7.793  18.216  66.406  1.00  0.00    -0.262 C  
HETATM   28  C   UNL     1      -9.122  16.002  69.148  1.00  0.00    -0.246 A  
HETATM   29  N   UNL     1      -7.125  18.846  65.692  1.00  0.00    -0.447 NA 
HETATM   30  C   UNL     1      -6.740  16.701  68.808  1.00  0.00    -0.174 C  
HETATM   31  F   UNL     1      -6.278  15.423  68.901  1.00  0.00    -0.095 F  
HETATM   32  F   UNL     1      -6.568  17.248  70.043  1.00  0.00    -0.179 F  
HETATM   33  F   UNL     1      -5.872  17.344  67.990  1.00  0.00    -0.127 F  
ENDBRANCH  15  22
ENDBRANCH  10  13
ENDBRANCH   3   6
TORSDOF 3
ENDMDL
MODEL       12
REMARK 921   NORMALIZED FREE ENERGY PREDICTED BY IDOCK:   -7.24 KCAL/MOL
REMARK 922        TOTAL FREE ENERGY PREDICTED BY IDOCK:   -9.42 KCAL/MOL
REMARK 923 INTER-LIGAND FREE ENERGY PREDICTED BY IDOCK:   -8.81 KCAL/MOL
REMARK 924 INTRA-LIGAND FREE ENERGY PREDICTED BY IDOCK:   -0.61 KCAL/MOL
REMARK 927      BINDING AFFINITY PREDICTED BY RF-SCORE:    0.00 PKD
ROOT
HETATM    1  C   UNL     1     -12.388   7.223  71.535  1.00  0.00    -0.362 C  
HETATM    2  N   UNL     1     -11.871   8.326  70.772  1.00  0.00    -0.449 N  
HETATM    3  C   UNL     1     -12.514   9.543  70.741  1.00  0.00    -0.124 C  
HETATM    4  H   UNL     1     -11.009   8.205  70.241  1.00  0.00     0.000 HD 
HETATM    5  O   UNL     1     -13.546   9.779  71.358  1.00  0.00    -0.342 OA 
ENDROOT
BRANCH   3   6
HETATM    6  C   UNL     1     -11.861  10.614  69.951  1.00  0.00    -0.392 A  
HETATM    7  C   UNL     1     -12.051  11.968  70.217  1.00  0.00    -0.312 A  
HETATM    8  F   UNL     1     -12.819  12.367  71.243  1.00  0.00    -0.434 F  
HETATM    9  C   UNL     1     -11.463  12.956  69.422  1.00  0.00    -0.323 A  
HETATM   10  C   UNL     1     -10.692  12.604  68.314  1.00  0.00    -0.230 A  
HETATM   11  C   UNL     1     -10.462  11.236  68.082  1.00  0.00    -0.215 A  
HETATM   12  C   UNL     1     -11.035  10.249  68.889  1.00  0.00    -0.279 A  
BRANCH  10  13
HETATM   13  N   UNL     1     -10.110  13.574  67.449  1.00  0.00    -0.235 N  
HETATM   14  C   UNL     1      -8.878  14.236  67.680  1.00  0.00    -0.196 C  
HETATM   15  N   UNL     1      -8.957  15.484  67.069  1.00  0.00    -0.212 N  
HETATM   16  S   UNL     1      -7.535  13.482  68.360  1.00  0.00    -0.131 S  
HETATM   17  C   UNL     1     -10.374  13.230  65.005  1.00  0.00    -0.355 C  
HETATM   18  C   UNL     1      -9.961  15.424  66.117  1.00  0.00    -0.307 C  
HETATM   19  C   UNL     1     -12.212  14.408  66.315  1.00  0.00    -0.366 C  
HETATM   20  C   UNL     1     -10.718  14.084  66.234  1.00  0.00    -0.289 C  
HETATM   21  O   UNL     1     -10.227  16.239  65.238  1.00  0.00    -0.548 OA 
BRANCH  15  22
HETATM   22  C   UNL     1      -8.180  16.663  67.366  1.00  0.00    -0.169 A  
HETATM   23  C   UNL     1      -7.281  18.304  68.954  1.00  0.00    -0.282 A  
HETATM   24  C   UNL     1      -8.037  17.154  68.669  1.00  0.00    -0.264 A  
HETATM   25  C   UNL     1      -6.645  19.024  67.938  1.00  0.00    -0.237 A  
HETATM   26  C   UNL     1      -6.724  18.547  66.628  1.00  0.00    -0.218 A  
HETATM   27  C   UNL     1      -5.941  20.220  68.298  1.00  0.00    -0.269 C  
HETATM   28  C   UNL     1      -7.451  17.353  66.379  1.00  0.00    -0.341 A  
HETATM   29  N   UNL     1      -5.384  21.188  68.623  1.00  0.00    -0.316 NA 
HETATM   30  C   UNL     1      -6.087  19.232  65.439  1.00  0.00    -0.237 C  
HETATM   31  F   UNL     1      -7.001  19.503  64.467  1.00  0.00    -0.025 F  
HETATM   32  F   UNL     1      -5.141  18.449  64.851  1.00  0.00    -0.166 F  
HETATM   33  F   UNL     1      -5.479  20.413  65.708  1.00  0.00    -0.184 F  
ENDBRANCH  15  22
ENDBRANCH  10  13
ENDBRANCH   3   6
TORSDOF 3
ENDMDL
MODEL       13
REMARK 921   NORMALIZED FREE ENERGY PREDICTED BY IDOCK:   -7.01 KCAL/MOL
REMARK 922        TOTAL FREE ENERGY PREDICTED BY IDOCK:   -9.16 KCAL/MOL
REMARK 923 INTER-LIGAND FREE ENERGY PREDICTED BY IDOCK:   -8.10 KCAL/MOL
REMARK 924 INTRA-LIGAND FREE ENERGY PREDICTED BY IDOCK:   -1.06 KCAL/MOL
REMARK 927      BINDING AFFINITY PREDICTED BY RF-SCORE:    0.00 PKD
ROOT
HETATM    1  C   UNL     1      -6.222   5.103  65.289  1.00  0.00    -0.034 C  
HETATM    2  N   UNL     1      -6.839   6.398  65.400  1.00  0.00    -0.047 N  
HETATM    3  C   UNL     1      -8.207   6.545  65.385  1.00  0.00    -0.135 C  
HETATM    4  H   UNL     1      -6.250   7.225  65.493  1.00  0.00     0.000 HD 
HETATM    5  O   UNL     1      -8.988   5.606  65.290  1.00  0.00    -0.130 OA 
ENDROOT
BRANCH   3   6
HETATM    6  C   UNL     1      -8.724   7.925  65.547  1.00  0.00    -0.112 A  
HETATM    7  C   UNL     1      -8.420   8.953  64.657  1.00  0.00    -0.168 A  
HETATM    8  F   UNL     1      -7.661   8.723  63.574  1.00  0.00    -0.101 F  
HETATM    9  C   UNL     1      -8.879  10.256  64.865  1.00  0.00    -0.213 A  
HETATM   10  C   UNL     1      -9.633  10.567  65.997  1.00  0.00    -0.194 A  
HETATM   11  C   UNL     1      -9.980   9.515  66.863  1.00  0.00    -0.278 A  
HETATM   12  C   UNL     1      -9.536   8.208  66.645  1.00  0.00    -0.295 A  
BRANCH  10  13
HETATM   13  N   UNL     1     -10.086  11.888  66.274  1.00  0.00    -0.215 N  
HETATM   14  C   UNL     1      -9.751  12.638  67.429  1.00  0.00    -0.199 C  
HETATM   15  N   UNL     1     -10.810  13.503  67.684  1.00  0.00    -0.257 N  
HETATM   16  S   UNL     1      -8.228  12.601  68.147  1.00  0.00    -0.174 S  
HETATM   17  C   UNL     1     -10.296  13.449  64.355  1.00  0.00    -0.347 C  
HETATM   18  C   UNL     1     -11.535  13.638  66.511  1.00  0.00    -0.335 C  
HETATM   19  C   UNL     1     -12.217  11.873  64.911  1.00  0.00    -0.042 C  
HETATM   20  C   UNL     1     -11.011  12.646  65.452  1.00  0.00    -0.286 C  
HETATM   21  O   UNL     1     -12.425  14.444  66.254  1.00  0.00    -0.393 OA 
BRANCH  15  22
HETATM   22  C   UNL     1     -11.150  14.138  68.934  1.00  0.00    -0.263 A  
HETATM   23  C   UNL     1     -11.053  16.047  70.474  1.00  0.00    -0.370 A  
HETATM   24  C   UNL     1     -10.722  15.433  69.254  1.00  0.00    -0.251 A  
HETATM   25  C   UNL     1     -11.817  15.381  71.437  1.00  0.00    -0.443 A  
HETATM   26  C   UNL     1     -12.302  14.105  71.144  1.00  0.00    -0.447 A  
HETATM   27  C   UNL     1     -12.065  16.050  72.682  1.00  0.00    -0.538 C  
HETATM   28  C   UNL     1     -11.996  13.533  69.881  1.00  0.00    -0.416 A  
HETATM   29  N   UNL     1     -12.242  16.617  73.682  1.00  0.00    -0.409 NA 
HETATM   30  C   UNL     1     -13.135  13.277  72.098  1.00  0.00    -0.385 C  
HETATM   31  F   UNL     1     -12.574  12.058  72.326  1.00  0.00    -0.203 F  
HETATM   32  F   UNL     1     -14.377  13.026  71.599  1.00  0.00     0.050 F  
HETATM   33  F   UNL     1     -13.330  13.825  73.322  1.00  0.00    -0.472 F  
ENDBRANCH  15  22
ENDBRANCH  10  13
ENDBRANCH   3   6
TORSDOF 3
ENDMDL
MODEL       14
REMARK 921   NORMALIZED FREE ENERGY PREDICTED BY IDOCK:   -6.94 KCAL/MOL
REMARK 922        TOTAL FREE ENERGY PREDICTED BY IDOCK:   -9.08 KCAL/MOL
REMARK 923 INTER-LIGAND FREE ENERGY PREDICTED BY IDOCK:   -8.88 KCAL/MOL
REMARK 924 INTRA-LIGAND FREE ENERGY PREDICTED BY IDOCK:   -0.20 KCAL/MOL
REMARK 927      BINDING AFFINITY PREDICTED BY RF-SCORE:    0.00 PKD
ROOT
HETATM    1  C   UNL     1     -13.041   6.950  71.645  1.00  0.00    -0.279 C  
HETATM    2  N   UNL     1     -12.675   7.981  70.711  1.00  0.00    -0.483 N  
HETATM    3  C   UNL     1     -11.561   8.765  70.908  1.00  0.00    -0.277 C  
HETATM    4  H   UNL     1     -13.253   8.133  69.884  1.00  0.00     0.000 HD 
HETATM    5  O   UNL     1     -10.806   8.641  71.864  1.00  0.00    -0.297 OA 
ENDROOT
BRANCH   3   6
HETATM    6  C   UNL     1     -11.266   9.766  69.855  1.00  0.00    -0.271 A  
HETATM    7  C   UNL     1     -10.640   9.435  68.655  1.00  0.00    -0.200 A  
HETATM    8  F   UNL     1     -10.304   8.164  68.382  1.00  0.00    -0.206 F  
HETATM    9  C   UNL     1     -10.328  10.409  67.703  1.00  0.00    -0.260 A  
HETATM   10  C   UNL     1     -10.610  11.753  67.950  1.00  0.00    -0.201 A  
HETATM   11  C   UNL     1     -11.288  12.074  69.139  1.00  0.00    -0.338 A  
HETATM   12  C   UNL     1     -11.617  11.096  70.082  1.00  0.00    -0.410 A  
BRANCH  10  13
HETATM   13  N   UNL     1     -10.270  12.786  67.030  1.00  0.00    -0.240 N  
HETATM   14  C   UNL     1      -9.203  13.705  67.195  1.00  0.00    -0.244 C  
HETATM   15  N   UNL     1      -9.562  14.879  66.540  1.00  0.00    -0.260 N  
HETATM   16  S   UNL     1      -7.714  13.284  67.858  1.00  0.00    -0.170 S  
HETATM   17  C   UNL     1     -10.513  12.286  64.611  1.00  0.00    -0.334 C  
HETATM   18  C   UNL     1     -10.553  14.564  65.624  1.00  0.00    -0.332 C  
HETATM   19  C   UNL     1     -12.529  13.102  65.935  1.00  0.00    -0.386 C  
HETATM   20  C   UNL     1     -11.002  13.101  65.817  1.00  0.00    -0.277 C  
HETATM   21  O   UNL     1     -11.008  15.264  64.724  1.00  0.00    -0.410 OA 
BRANCH  15  22
HETATM   22  C   UNL     1      -9.048  16.208  66.766  1.00  0.00    -0.230 A  
HETATM   23  C   UNL     1      -9.162  18.640  66.458  1.00  0.00    -0.322 A  
HETATM   24  C   UNL     1      -9.668  17.347  66.238  1.00  0.00    -0.276 A  
HETATM   25  C   UNL     1      -8.000  18.846  67.207  1.00  0.00    -0.261 A  
HETATM   26  C   UNL     1      -7.372  17.743  67.789  1.00  0.00    -0.205 A  
HETATM   27  C   UNL     1      -7.512  20.189  67.339  1.00  0.00    -0.290 C  
HETATM   28  C   UNL     1      -7.937  16.455  67.593  1.00  0.00    -0.165 A  
HETATM   29  N   UNL     1      -7.140  21.287  67.422  1.00  0.00    -0.522 NA 
HETATM   30  C   UNL     1      -6.109  17.829  68.618  1.00  0.00    -0.192 C  
HETATM   31  F   UNL     1      -5.130  17.022  68.124  1.00  0.00    -0.109 F  
HETATM   32  F   UNL     1      -6.316  17.418  69.900  1.00  0.00    -0.242 F  
HETATM   33  F   UNL     1      -5.556  19.063  68.706  1.00  0.00    -0.189 F  
ENDBRANCH  15  22
ENDBRANCH  10  13
ENDBRANCH   3   6
TORSDOF 3
ENDMDL
MODEL       15
REMARK 921   NORMALIZED FREE ENERGY PREDICTED BY IDOCK:   -6.88 KCAL/MOL
REMARK 922        TOTAL FREE ENERGY PREDICTED BY IDOCK:   -9.00 KCAL/MOL
REMARK 923 INTER-LIGAND FREE ENERGY PREDICTED BY IDOCK:   -7.89 KCAL/MOL
REMARK 924 INTRA-LIGAND FREE ENERGY PREDICTED BY IDOCK:   -1.11 KCAL/MOL
REMARK 927      BINDING AFFINITY PREDICTED BY RF-SCORE:    0.00 PKD
ROOT
HETATM    1  C   UNL     1     -11.994  15.181  64.217  1.00  0.00    -0.262 C  
HETATM    2  N   UNL     1     -11.322  14.047  64.793  1.00  0.00    -0.350 N  
HETATM    3  C   UNL     1     -11.954  12.834  64.936  1.00  0.00    -0.402 C  
HETATM    4  H   UNL     1     -10.354  14.145  65.100  1.00  0.00     0.000 HD 
HETATM    5  O   UNL     1     -13.109  12.626  64.583  1.00  0.00    -0.821 OA 
ENDROOT
BRANCH   3   6
HETATM    6  C   UNL     1     -11.143  11.731  65.505  1.00  0.00    -0.336 A  
HETATM    7  C   UNL     1     -10.390  10.865  64.715  1.00  0.00    -0.323 A  
HETATM    8  F   UNL     1     -10.338  11.018  63.383  1.00  0.00    -0.356 F  
HETATM    9  C   UNL     1      -9.676   9.802  65.276  1.00  0.00    -0.371 A  
HETATM   10  C   UNL     1      -9.729   9.563  66.650  1.00  0.00    -0.211 A  
HETATM   11  C   UNL     1     -10.448  10.472  67.447  1.00  0.00    -0.291 A  
HETATM   12  C   UNL     1     -11.146  11.545  66.887  1.00  0.00    -0.366 A  
BRANCH  10  13
HETATM   13  N   UNL     1      -9.055   8.468  67.261  1.00  0.00    -0.132 N  
HETATM   14  C   UNL     1      -9.687   7.309  67.777  1.00  0.00    -0.140 C  
HETATM   15  N   UNL     1      -8.893   6.830  68.815  1.00  0.00    -0.131 N  
HETATM   16  S   UNL     1     -11.016   6.577  67.047  1.00  0.00    -0.310 S  
HETATM   17  C   UNL     1      -6.854   7.812  66.319  1.00  0.00    -0.062 C  
HETATM   18  C   UNL     1      -7.621   7.354  68.647  1.00  0.00    -0.110 C  
HETATM   19  C   UNL     1      -6.976   9.671  68.054  1.00  0.00    -0.078 C  
HETATM   20  C   UNL     1      -7.627   8.397  67.510  1.00  0.00    -0.098 C  
HETATM   21  O   UNL     1      -6.586   7.040  69.228  1.00  0.00    -0.042 OA 
BRANCH  15  22
HETATM   22  C   UNL     1      -9.288   5.973  69.906  1.00  0.00    -0.148 A  
HETATM   23  C   UNL     1      -9.771   3.752  70.831  1.00  0.00    -0.248 A  
HETATM   24  C   UNL     1      -9.383   4.583  69.766  1.00  0.00    -0.223 A  
HETATM   25  C   UNL     1     -10.098   4.282  72.083  1.00  0.00    -0.255 A  
HETATM   26  C   UNL     1      -9.977   5.659  72.281  1.00  0.00    -0.204 A  
HETATM   27  C   UNL     1     -10.542   3.377  73.103  1.00  0.00    -0.178 C  
HETATM   28  C   UNL     1      -9.531   6.466  71.201  1.00  0.00    -0.177 A  
HETATM   29  N   UNL     1     -10.904   2.617  73.906  1.00  0.00    -0.185 NA 
HETATM   30  C   UNL     1     -10.302   6.357  73.583  1.00  0.00    -0.286 C  
HETATM   31  F   UNL     1     -11.220   7.348  73.405  1.00  0.00    -0.376 F  
HETATM   32  F   UNL     1      -9.206   6.960  74.121  1.00  0.00    -0.178 F  
HETATM   33  F   UNL     1     -10.807   5.562  74.557  1.00  0.00    -0.237 F  
ENDBRANCH  15  22
ENDBRANCH  10  13
ENDBRANCH   3   6
TORSDOF 3
ENDMDL
MODEL       16
REMARK 921   NORMALIZED FREE ENERGY PREDICTED BY IDOCK:   -6.86 KCAL/MOL
REMARK 922        TOTAL FREE ENERGY PREDICTED BY IDOCK:   -8.98 KCAL/MOL
REMARK 923 INTER-LIGAND FREE ENERGY PREDICTED BY IDOCK:   -9.30 KCAL/MOL
REMARK 924 INTRA-LIGAND FREE ENERGY PREDICTED BY IDOCK:    0.32 KCAL/MOL
REMARK 927      BINDING AFFINITY PREDICTED BY RF-SCORE:    0.00 PKD
ROOT
HETATM    1  C   UNL     1     -12.438   7.101  71.771  1.00  0.00    -0.350 C  
HETATM    2  N   UNL     1     -11.985   8.136  70.881  1.00  0.00    -0.439 N  
HETATM    3  C   UNL     1     -12.325   9.455  71.080  1.00  0.00    -0.308 C  
HETATM    4  H   UNL     1     -11.397   7.887  70.085  1.00  0.00     0.000 HD 
HETATM    5  O   UNL     1     -13.014   9.842  72.016  1.00  0.00    -0.413 OA 
ENDROOT
BRANCH   3   6
HETATM    6  C   UNL     1     -11.763  10.433  70.118  1.00  0.00    -0.394 A  
HETATM    7  C   UNL     1     -10.969  10.056  69.037  1.00  0.00    -0.212 A  
HETATM    8  F   UNL     1     -10.704   8.762  68.797  1.00  0.00    -0.234 F  
HETATM    9  C   UNL     1     -10.411  11.005  68.177  1.00  0.00    -0.204 A  
HETATM   10  C   UNL     1     -10.612  12.367  68.403  1.00  0.00    -0.236 A  
HETATM   11  C   UNL     1     -11.456  12.739  69.465  1.00  0.00    -0.293 A  
HETATM   12  C   UNL     1     -12.030  11.788  70.313  1.00  0.00    -0.429 A  
BRANCH  10  13
HETATM   13  N   UNL     1     -10.027  13.372  67.581  1.00  0.00    -0.225 N  
HETATM   14  C   UNL     1      -8.814  14.050  67.862  1.00  0.00    -0.185 C  
HETATM   15  N   UNL     1      -8.901  15.313  67.284  1.00  0.00    -0.185 N  
HETATM   16  S   UNL     1      -7.475  13.302  68.555  1.00  0.00    -0.102 S  
HETATM   17  C   UNL     1     -10.222  13.092  65.123  1.00  0.00    -0.299 C  
HETATM   18  C   UNL     1      -9.880  15.261  66.305  1.00  0.00    -0.294 C  
HETATM   19  C   UNL     1     -12.115  14.198  66.417  1.00  0.00    -0.475 C  
HETATM   20  C   UNL     1     -10.614  13.905  66.365  1.00  0.00    -0.280 C  
HETATM   21  O   UNL     1     -10.139  16.095  65.442  1.00  0.00    -0.485 OA 
BRANCH  15  22
HETATM   22  C   UNL     1      -8.154  16.497  67.633  1.00  0.00    -0.163 A  
HETATM   23  C   UNL     1      -6.646  17.725  69.129  1.00  0.00    -0.246 A  
HETATM   24  C   UNL     1      -7.370  16.569  68.791  1.00  0.00    -0.208 A  
HETATM   25  C   UNL     1      -6.690  18.869  68.326  1.00  0.00    -0.259 A  
HETATM   26  C   UNL     1      -7.425  18.829  67.140  1.00  0.00    -0.234 A  
HETATM   27  C   UNL     1      -5.971  20.030  68.767  1.00  0.00    -0.271 C  
HETATM   28  C   UNL     1      -8.102  17.628  66.798  1.00  0.00    -0.264 A  
HETATM   29  N   UNL     1      -5.384  20.956  69.155  1.00  0.00    -0.348 NA 
HETATM   30  C   UNL     1      -7.557  19.996  66.186  1.00  0.00    -0.306 C  
HETATM   31  F   UNL     1      -8.861  20.312  65.958  1.00  0.00    -0.335 F  
HETATM   32  F   UNL     1      -7.025  19.714  64.965  1.00  0.00    -0.295 F  
HETATM   33  F   UNL     1      -6.968  21.146  66.593  1.00  0.00    -0.329 F  
ENDBRANCH  15  22
ENDBRANCH  10  13
ENDBRANCH   3   6
TORSDOF 3
ENDMDL
MODEL       17
REMARK 921   NORMALIZED FREE ENERGY PREDICTED BY IDOCK:   -6.80 KCAL/MOL
REMARK 922        TOTAL FREE ENERGY PREDICTED BY IDOCK:   -8.91 KCAL/MOL
REMARK 923 INTER-LIGAND FREE ENERGY PREDICTED BY IDOCK:   -7.91 KCAL/MOL
REMARK 924 INTRA-LIGAND FREE ENERGY PREDICTED BY IDOCK:   -1.00 KCAL/MOL
REMARK 927      BINDING AFFINITY PREDICTED BY RF-SCORE:    0.00 PKD
ROOT
HETATM    1  C   UNL     1      -8.056  20.046  67.459  1.00  0.00    -0.316 C  
HETATM    2  N   UNL     1      -8.586  18.709  67.453  1.00  0.00    -0.267 N  
HETATM    3  C   UNL     1      -8.266  17.814  66.458  1.00  0.00    -0.269 C  
HETATM    4  H   UNL     1      -9.214  18.417  68.203  1.00  0.00     0.000 HD 
HETATM    5  O   UNL     1      -7.513  18.076  65.528  1.00  0.00    -0.538 OA 
ENDROOT
BRANCH   3   6
HETATM    6  C   UNL     1      -8.843  16.454  66.583  1.00  0.00    -0.283 A  
HETATM    7  C   UNL     1     -10.121  16.133  66.129  1.00  0.00    -0.338 A  
HETATM    8  F   UNL     1     -10.884  17.051  65.514  1.00  0.00    -0.337 F  
HETATM    9  C   UNL     1     -10.658  14.855  66.308  1.00  0.00    -0.309 A  
HETATM   10  C   UNL     1      -9.932  13.872  66.981  1.00  0.00    -0.258 A  
HETATM   11  C   UNL     1      -8.623  14.187  67.390  1.00  0.00    -0.219 A  
HETATM   12  C   UNL     1      -8.080  15.460  67.194  1.00  0.00    -0.249 A  
BRANCH  10  13
HETATM   13  N   UNL     1     -10.454  12.571  67.226  1.00  0.00    -0.219 N  
HETATM   14  C   UNL     1     -10.953  12.115  68.472  1.00  0.00    -0.238 C  
HETATM   15  N   UNL     1     -10.744  10.740  68.526  1.00  0.00    -0.195 N  
HETATM   16  S   UNL     1     -11.842  13.084  69.523  1.00  0.00    -0.296 S  
HETATM   17  C   UNL     1     -11.776  11.510  65.413  1.00  0.00     0.134 C  
HETATM   18  C   UNL     1     -10.576  10.289  67.226  1.00  0.00    -0.267 C  
HETATM   19  C   UNL     1      -9.239  11.304  65.404  1.00  0.00    -0.202 C  
HETATM   20  C   UNL     1     -10.495  11.489  66.259  1.00  0.00    -0.251 C  
HETATM   21  O   UNL     1     -10.555   9.131  66.819  1.00  0.00    -0.227 OA 
BRANCH  15  22
HETATM   22  C   UNL     1     -10.671   9.903  69.698  1.00  0.00    -0.252 A  
HETATM   23  C   UNL     1     -11.725   8.782  71.610  1.00  0.00    -0.402 A  
HETATM   24  C   UNL     1     -11.801   9.595  70.466  1.00  0.00    -0.284 A  
HETATM   25  C   UNL     1     -10.506   8.252  72.044  1.00  0.00    -0.350 A  
HETATM   26  C   UNL     1      -9.360   8.498  71.285  1.00  0.00    -0.261 A  
HETATM   27  C   UNL     1     -10.499   7.480  73.253  1.00  0.00    -0.371 C  
HETATM   28  C   UNL     1      -9.478   9.279  70.106  1.00  0.00    -0.258 A  
HETATM   29  N   UNL     1     -10.526   6.864  74.239  1.00  0.00    -0.207 NA 
HETATM   30  C   UNL     1      -7.982   7.988  71.646  1.00  0.00    -0.112 C  
HETATM   31  F   UNL     1      -7.079   9.003  71.735  1.00  0.00    -0.103 F  
HETATM   32  F   UNL     1      -7.493   7.138  70.701  1.00  0.00    -0.074 F  
HETATM   33  F   UNL     1      -7.900   7.322  72.824  1.00  0.00    -0.090 F  
ENDBRANCH  15  22
ENDBRANCH  10  13
ENDBRANCH   3   6
TORSDOF 3
ENDMDL
MODEL       18
REMARK 921   NORMALIZED FREE ENERGY PREDICTED BY IDOCK:   -6.79 KCAL/MOL
REMARK 922        TOTAL FREE ENERGY PREDICTED BY IDOCK:   -8.90 KCAL/MOL
REMARK 923 INTER-LIGAND FREE ENERGY PREDICTED BY IDOCK:   -8.50 KCAL/MOL
REMARK 924 INTRA-LIGAND FREE ENERGY PREDICTED BY IDOCK:   -0.40 KCAL/MOL
REMARK 927      BINDING AFFINITY PREDICTED BY RF-SCORE:    0.00 PKD
ROOT
HETATM    1  C   UNL     1     -11.165   6.820  71.848  1.00  0.00    -0.260 C  
HETATM    2  N   UNL     1     -10.944   7.974  71.017  1.00  0.00    -0.236 N  
HETATM    3  C   UNL     1     -10.908   7.874  69.645  1.00  0.00    -0.176 C  
HETATM    4  H   UNL     1     -10.810   8.885  71.455  1.00  0.00     0.000 HD 
HETATM    5  O   UNL     1     -11.071   6.822  69.038  1.00  0.00    -0.240 OA 
ENDROOT
BRANCH   3   6
HETATM    6  C   UNL     1     -10.713   9.139  68.897  1.00  0.00    -0.167 A  
HETATM    7  C   UNL     1     -10.468   9.174  67.526  1.00  0.00    -0.270 A  
HETATM    8  F   UNL     1     -10.432   8.042  66.805  1.00  0.00    -0.353 F  
HETATM    9  C   UNL     1     -10.237  10.379  66.858  1.00  0.00    -0.281 A  
HETATM   10  C   UNL     1     -10.215  11.584  67.561  1.00  0.00    -0.184 A  
HETATM   11  C   UNL     1     -10.515  11.547  68.935  1.00  0.00    -0.212 A  
HETATM   12  C   UNL     1     -10.765  10.343  69.599  1.00  0.00    -0.304 A  
BRANCH  10  13
HETATM   13  N   UNL     1      -9.940  12.830  66.932  1.00  0.00    -0.228 N  
HETATM   14  C   UNL     1      -8.782  13.617  67.153  1.00  0.00    -0.216 C  
HETATM   15  N   UNL     1      -9.135  14.946  66.943  1.00  0.00    -0.235 N  
HETATM   16  S   UNL     1      -7.248  12.961  67.380  1.00  0.00    -0.082 S  
HETATM   17  C   UNL     1     -10.624  13.088  64.560  1.00  0.00    -0.413 C  
HETATM   18  C   UNL     1     -10.289  14.958  66.175  1.00  0.00    -0.301 C  
HETATM   19  C   UNL     1     -12.310  13.545  66.412  1.00  0.00    -0.413 C  
HETATM   20  C   UNL     1     -10.831  13.522  66.018  1.00  0.00    -0.278 C  
HETATM   21  O   UNL     1     -10.821  15.912  65.615  1.00  0.00    -0.329 OA 
BRANCH  15  22
HETATM   22  C   UNL     1      -8.473  16.126  67.442  1.00  0.00    -0.170 A  
HETATM   23  C   UNL     1      -7.247  17.324  69.199  1.00  0.00    -0.182 A  
HETATM   24  C   UNL     1      -7.889  16.171  68.715  1.00  0.00    -0.203 A  
HETATM   25  C   UNL     1      -7.174  18.491  68.431  1.00  0.00    -0.292 A  
HETATM   26  C   UNL     1      -7.704  18.478  67.140  1.00  0.00    -0.232 A  
HETATM   27  C   UNL     1      -6.554  19.644  69.016  1.00  0.00    -0.323 C  
HETATM   28  C   UNL     1      -8.300  17.282  66.659  1.00  0.00    -0.291 A  
HETATM   29  N   UNL     1      -6.051  20.563  69.521  1.00  0.00    -0.323 NA 
HETATM   30  C   UNL     1      -7.694  19.671  66.210  1.00  0.00    -0.315 C  
HETATM   31  F   UNL     1      -8.948  19.982  65.779  1.00  0.00    -0.383 F  
HETATM   32  F   UNL     1      -6.965  19.431  65.085  1.00  0.00    -0.295 F  
HETATM   33  F   UNL     1      -7.197  20.815  66.740  1.00  0.00    -0.310 F  
ENDBRANCH  15  22
ENDBRANCH  10  13
ENDBRANCH   3   6
TORSDOF 3
ENDMDL
MODEL       19
REMARK 921   NORMALIZED FREE ENERGY PREDICTED BY IDOCK:   -6.72 KCAL/MOL
REMARK 922        TOTAL FREE ENERGY PREDICTED BY IDOCK:   -8.81 KCAL/MOL
REMARK 923 INTER-LIGAND FREE ENERGY PREDICTED BY IDOCK:   -8.59 KCAL/MOL
REMARK 924 INTRA-LIGAND FREE ENERGY PREDICTED BY IDOCK:   -0.23 KCAL/MOL
REMARK 927      BINDING AFFINITY PREDICTED BY RF-SCORE:    0.00 PKD
ROOT
HETATM    1  C   UNL     1      -6.297  20.324  68.351  1.00  0.00    -0.302 C  
HETATM    2  N   UNL     1      -7.055  19.147  68.023  1.00  0.00    -0.238 N  
HETATM    3  C   UNL     1      -8.350  18.982  68.460  1.00  0.00    -0.352 C  
HETATM    4  H   UNL     1      -6.624  18.419  67.453  1.00  0.00     0.000 HD 
HETATM    5  O   UNL     1      -8.947  19.810  69.136  1.00  0.00    -0.209 OA 
ENDROOT
BRANCH   3   6
HETATM    6  C   UNL     1      -9.040  17.745  68.022  1.00  0.00    -0.269 A  
HETATM    7  C   UNL     1     -10.339  17.745  67.518  1.00  0.00    -0.369 A  
HETATM    8  F   UNL     1     -11.020  18.893  67.372  1.00  0.00    -0.486 F  
HETATM    9  C   UNL     1     -10.983  16.557  67.161  1.00  0.00    -0.049 A  
HETATM   10  C   UNL     1     -10.343  15.329  67.334  1.00  0.00    -0.256 A  
HETATM   11  C   UNL     1      -9.014  15.339  67.793  1.00  0.00    -0.177 A  
HETATM   12  C   UNL     1      -8.365  16.530  68.132  1.00  0.00    -0.186 A  
BRANCH  10  13
HETATM   13  N   UNL     1     -10.975  14.090  67.027  1.00  0.00    -0.294 N  
HETATM   14  C   UNL     1     -11.271  13.072  67.968  1.00  0.00    -0.278 C  
HETATM   15  N   UNL     1     -11.240  11.857  67.289  1.00  0.00    -0.296 N  
HETATM   16  S   UNL     1     -11.795  13.385  69.536  1.00  0.00    -0.326 S  
HETATM   17  C   UNL     1     -12.761  14.114  65.305  1.00  0.00    -0.425 C  
HETATM   18  C   UNL     1     -11.397  12.126  65.939  1.00  0.00    -0.356 C  
HETATM   19  C   UNL     1     -10.327  13.907  64.588  1.00  0.00    -0.366 C  
HETATM   20  C   UNL     1     -11.352  13.649  65.697  1.00  0.00    -0.299 C  
HETATM   21  O   UNL     1     -11.611  11.335  65.025  1.00  0.00     0.037 OA 
BRANCH  15  22
HETATM   22  C   UNL     1     -11.046  10.540  67.844  1.00  0.00    -0.304 A  
HETATM   23  C   UNL     1     -10.255   8.224  67.664  1.00  0.00    -0.294 A  
HETATM   24  C   UNL     1     -10.440   9.507  67.119  1.00  0.00    -0.322 A  
HETATM   25  C   UNL     1     -10.686   7.916  68.958  1.00  0.00    -0.113 A  
HETATM   26  C   UNL     1     -11.257   8.927  69.733  1.00  0.00    -0.018 A  
HETATM   27  C   UNL     1     -10.516   6.570  69.422  1.00  0.00    -0.221 C  
HETATM   28  C   UNL     1     -11.381  10.227  69.175  1.00  0.00    -0.244 A  
HETATM   29  N   UNL     1     -10.370   5.468  69.766  1.00  0.00    -0.270 NA 
HETATM   30  C   UNL     1     -11.766   8.726  71.143  1.00  0.00    -0.291 C  
HETATM   31  F   UNL     1     -13.070   9.101  71.264  1.00  0.00    -0.335 F  
HETATM   32  F   UNL     1     -11.078   9.482  72.043  1.00  0.00    -0.413 F  
HETATM   33  F   UNL     1     -11.709   7.453  71.604  1.00  0.00    -0.263 F  
ENDBRANCH  15  22
ENDBRANCH  10  13
ENDBRANCH   3   6
TORSDOF 3
ENDMDL
MODEL       20
REMARK 921   NORMALIZED FREE ENERGY PREDICTED BY IDOCK:   -6.70 KCAL/MOL
REMARK 922        TOTAL FREE ENERGY PREDICTED BY IDOCK:   -8.79 KCAL/MOL
REMARK 923 INTER-LIGAND FREE ENERGY PREDICTED BY IDOCK:   -7.68 KCAL/MOL
REMARK 924 INTRA-LIGAND FREE ENERGY PREDICTED BY IDOCK:   -1.12 KCAL/MOL
REMARK 927      BINDING AFFINITY PREDICTED BY RF-SCORE:    0.00 PKD
ROOT
HETATM    1  C   UNL     1      -5.770  21.001  68.420  1.00  0.00    -0.346 C  
HETATM    2  N   UNL     1      -6.393  19.712  68.285  1.00  0.00    -0.236 N  
HETATM    3  C   UNL     1      -7.609  19.565  67.656  1.00  0.00    -0.266 C  
HETATM    4  H   UNL     1      -5.924  18.889  68.663  1.00  0.00     0.000 HD 
HETATM    5  O   UNL     1      -8.234  20.496  67.164  1.00  0.00    -0.335 OA 
ENDROOT
BRANCH   3   6
HETATM    6  C   UNL     1      -8.129  18.181  67.544  1.00  0.00    -0.238 A  
HETATM    7  C   UNL     1      -7.826  17.347  66.470  1.00  0.00    -0.285 A  
HETATM    8  F   UNL     1      -7.005  17.757  65.491  1.00  0.00    -0.313 F  
HETATM    9  C   UNL     1      -8.373  16.065  66.366  1.00  0.00    -0.344 A  
HETATM   10  C   UNL     1      -9.270  15.600  67.328  1.00  0.00    -0.204 A  
HETATM   11  C   UNL     1      -9.531  16.426  68.436  1.00  0.00    -0.220 A  
HETATM   12  C   UNL     1      -8.968  17.701  68.549  1.00  0.00    -0.289 A  
BRANCH  10  13
HETATM   13  N   UNL     1      -9.887  14.320  67.241  1.00  0.00    -0.241 N  
HETATM   14  C   UNL     1      -9.212  13.080  67.368  1.00  0.00    -0.208 C  
HETATM   15  N   UNL     1      -9.912  12.146  66.610  1.00  0.00    -0.204 N  
HETATM   16  S   UNL     1      -7.951  12.819  68.453  1.00  0.00    -0.108 S  
HETATM   17  C   UNL     1     -12.161  14.080  68.207  1.00  0.00    -0.312 C  
HETATM   18  C   UNL     1     -11.194  12.636  66.418  1.00  0.00    -0.305 C  
HETATM   19  C   UNL     1     -11.890  14.939  65.826  1.00  0.00    -0.118 C  
HETATM   20  C   UNL     1     -11.288  14.084  66.944  1.00  0.00    -0.329 C  
HETATM   21  O   UNL     1     -12.174  12.049  65.971  1.00  0.00    -0.546 OA 
BRANCH  15  22
HETATM   22  C   UNL     1      -9.422  10.901  66.071  1.00  0.00    -0.203 A  
HETATM   23  C   UNL     1      -8.077   9.638  64.452  1.00  0.00    -0.141 A  
HETATM   24  C   UNL     1      -8.549  10.854  64.976  1.00  0.00    -0.056 A  
HETATM   25  C   UNL     1      -8.473   8.412  64.995  1.00  0.00    -0.160 A  
HETATM   26  C   UNL     1      -9.309   8.411  66.113  1.00  0.00    -0.267 A  
HETATM   27  C   UNL     1      -7.996   7.213  64.369  1.00  0.00    -0.101 C  
HETATM   28  C   UNL     1      -9.726   9.657  66.653  1.00  0.00    -0.266 A  
HETATM   29  N   UNL     1      -7.596   6.260  63.835  1.00  0.00    -0.084 NA 
HETATM   30  C   UNL     1      -9.812   7.157  66.792  1.00  0.00    -0.205 C  
HETATM   31  F   UNL     1     -11.172   7.137  66.865  1.00  0.00    -0.449 F  
HETATM   32  F   UNL     1      -9.371   7.064  68.077  1.00  0.00    -0.130 F  
HETATM   33  F   UNL     1      -9.461   5.993  66.193  1.00  0.00    -0.168 F  
ENDBRANCH  15  22
ENDBRANCH  10  13
ENDBRANCH   3   6
TORSDOF 3
ENDMDL
MODEL       21
REMARK 921   NORMALIZED FREE ENERGY PREDICTED BY IDOCK:   -6.65 KCAL/MOL
REMARK 922        TOTAL FREE ENERGY PREDICTED BY IDOCK:   -8.73 KCAL/MOL
REMARK 923 INTER-LIGAND FREE ENERGY PREDICTED BY IDOCK:   -8.10 KCAL/MOL
REMARK 924 INTRA-LIGAND FREE ENERGY PREDICTED BY IDOCK:   -0.63 KCAL/MOL
REMARK 927      BINDING AFFINITY PREDICTED BY RF-SCORE:    0.00 PKD
ROOT
HETATM    1  C   UNL     1     -10.623   2.551  73.322  1.00  0.00    -0.162 C  
HETATM    2  N   UNL     1     -10.311   3.539  72.325  1.00  0.00    -0.110 N  
HETATM    3  C   UNL     1     -10.698   4.852  72.468  1.00  0.00    -0.196 C  
HETATM    4  H   UNL     1      -9.790   3.261  71.493  1.00  0.00     0.000 HD 
HETATM    5  O   UNL     1     -11.315   5.274  73.439  1.00  0.00    -0.293 OA 
ENDROOT
BRANCH   3   6
HETATM    6  C   UNL     1     -10.282   5.783  71.392  1.00  0.00    -0.269 A  
HETATM    7  C   UNL     1     -11.189   6.562  70.677  1.00  0.00    -0.329 A  
HETATM    8  F   UNL     1     -12.500   6.528  70.962  1.00  0.00    -0.391 F  
HETATM    9  C   UNL     1     -10.772   7.393  69.633  1.00  0.00    -0.245 A  
HETATM   10  C   UNL     1      -9.428   7.436  69.260  1.00  0.00    -0.154 A  
HETATM   11  C   UNL     1      -8.511   6.687  70.019  1.00  0.00    -0.139 A  
HETATM   12  C   UNL     1      -8.927   5.872  71.075  1.00  0.00    -0.148 A  
BRANCH  10  13
HETATM   13  N   UNL     1      -8.963   8.232  68.175  1.00  0.00    -0.139 N  
HETATM   14  C   UNL     1      -8.802   9.640  68.208  1.00  0.00    -0.120 C  
HETATM   15  N   UNL     1      -8.990  10.111  66.912  1.00  0.00    -0.132 N  
HETATM   16  S   UNL     1      -8.242  10.476  69.559  1.00  0.00    -0.007 S  
HETATM   17  C   UNL     1      -7.187   7.271  66.732  1.00  0.00    -0.083 C  
HETATM   18  C   UNL     1      -8.799   9.046  66.047  1.00  0.00    -0.175 C  
HETATM   19  C   UNL     1      -9.627   6.721  66.258  1.00  0.00    -0.087 C  
HETATM   20  C   UNL     1      -8.646   7.737  66.848  1.00  0.00    -0.130 C  
HETATM   21  O   UNL     1      -8.688   9.069  64.824  1.00  0.00    -0.181 OA 
BRANCH  15  22
HETATM   22  C   UNL     1      -9.353  11.445  66.502  1.00  0.00    -0.189 A  
HETATM   23  C   UNL     1      -9.052  13.879  66.587  1.00  0.00    -0.209 A  
HETATM   24  C   UNL     1      -8.693  12.581  66.987  1.00  0.00    -0.205 A  
HETATM   25  C   UNL     1     -10.103  14.097  65.690  1.00  0.00    -0.350 A  
HETATM   26  C   UNL     1     -10.762  12.992  65.147  1.00  0.00    -0.324 A  
HETATM   27  C   UNL     1     -10.449  15.453  65.374  1.00  0.00    -0.402 C  
HETATM   28  C   UNL     1     -10.341  11.691  65.530  1.00  0.00    -0.309 A  
HETATM   29  N   UNL     1     -10.708  16.563  65.143  1.00  0.00    -0.643 NA 
HETATM   30  C   UNL     1     -11.914  13.090  64.172  1.00  0.00    -0.427 C  
HETATM   31  F   UNL     1     -13.011  12.421  64.622  1.00  0.00    -0.557 F  
HETATM   32  F   UNL     1     -11.608  12.532  62.968  1.00  0.00    -0.487 F  
HETATM   33  F   UNL     1     -12.339  14.348  63.901  1.00  0.00    -0.507 F  
ENDBRANCH  15  22
ENDBRANCH  10  13
ENDBRANCH   3   6
TORSDOF 3
ENDMDL
MODEL       22
REMARK 921   NORMALIZED FREE ENERGY PREDICTED BY IDOCK:   -6.65 KCAL/MOL
REMARK 922        TOTAL FREE ENERGY PREDICTED BY IDOCK:   -8.73 KCAL/MOL
REMARK 923 INTER-LIGAND FREE ENERGY PREDICTED BY IDOCK:   -7.98 KCAL/MOL
REMARK 924 INTRA-LIGAND FREE ENERGY PREDICTED BY IDOCK:   -0.75 KCAL/MOL
REMARK 927      BINDING AFFINITY PREDICTED BY RF-SCORE:    0.00 PKD
ROOT
HETATM    1  C   UNL     1      -9.520   1.766  68.518  1.00  0.00    -0.173 C  
HETATM    2  N   UNL     1      -9.374   3.195  68.441  1.00  0.00    -0.188 N  
HETATM    3  C   UNL     1      -9.633   4.004  69.524  1.00  0.00    -0.195 C  
HETATM    4  H   UNL     1      -9.072   3.619  67.563  1.00  0.00     0.000 HD 
HETATM    5  O   UNL     1      -9.987   3.578  70.617  1.00  0.00    -0.098 OA 
ENDROOT
BRANCH   3   6
HETATM    6  C   UNL     1      -9.408   5.456  69.331  1.00  0.00    -0.164 A  
HETATM    7  C   UNL     1     -10.045   6.191  68.334  1.00  0.00    -0.158 A  
HETATM    8  F   UNL     1     -10.934   5.611  67.512  1.00  0.00    -0.299 F  
HETATM    9  C   UNL     1      -9.773   7.549  68.144  1.00  0.00    -0.167 A  
HETATM   10  C   UNL     1      -8.825   8.197  68.936  1.00  0.00    -0.141 A  
HETATM   11  C   UNL     1      -8.224   7.462  69.974  1.00  0.00    -0.131 A  
HETATM   12  C   UNL     1      -8.511   6.109  70.176  1.00  0.00    -0.133 A  
BRANCH  10  13
HETATM   13  N   UNL     1      -8.483   9.566  68.750  1.00  0.00    -0.120 N  
HETATM   14  C   UNL     1      -9.411  10.618  68.549  1.00  0.00    -0.176 C  
HETATM   15  N   UNL     1      -8.777  11.592  67.784  1.00  0.00    -0.146 N  
HETATM   16  S   UNL     1     -10.898  10.703  69.335  1.00  0.00    -0.259 S  
HETATM   17  C   UNL     1      -6.562  10.450  70.051  1.00  0.00    -0.137 C  
HETATM   18  C   UNL     1      -7.410  11.399  67.906  1.00  0.00    -0.093 C  
HETATM   19  C   UNL     1      -6.143   9.271  67.833  1.00  0.00    -0.050 C  
HETATM   20  C   UNL     1      -7.130  10.088  68.671  1.00  0.00    -0.078 C  
HETATM   21  O   UNL     1      -6.501  12.142  67.549  1.00  0.00    -0.102 OA 
BRANCH  15  22
HETATM   22  C   UNL     1      -9.390  12.613  66.969  1.00  0.00    -0.220 A  
HETATM   23  C   UNL     1      -9.891  14.966  66.484  1.00  0.00    -0.281 A  
HETATM   24  C   UNL     1      -9.290  13.975  67.279  1.00  0.00    -0.230 A  
HETATM   25  C   UNL     1     -10.634  14.632  65.348  1.00  0.00    -0.390 A  
HETATM   26  C   UNL     1     -10.725  13.289  64.976  1.00  0.00    -0.346 A  
HETATM   27  C   UNL     1     -11.267  15.694  64.620  1.00  0.00    -0.369 C  
HETATM   28  C   UNL     1     -10.062  12.316  65.769  1.00  0.00    -0.274 A  
HETATM   29  N   UNL     1     -11.772  16.577  64.056  1.00  0.00    -1.064 NA 
HETATM   30  C   UNL     1     -11.500  12.795  63.774  1.00  0.00    -0.470 C  
HETATM   31  F   UNL     1     -12.421  11.855  64.123  1.00  0.00    -0.452 F  
HETATM   32  F   UNL     1     -10.688  12.197  62.859  1.00  0.00    -0.368 F  
HETATM   33  F   UNL     1     -12.188  13.746  63.097  1.00  0.00    -0.510 F  
ENDBRANCH  15  22
ENDBRANCH  10  13
ENDBRANCH   3   6
TORSDOF 3
ENDMDL
MODEL       23
REMARK 921   NORMALIZED FREE ENERGY PREDICTED BY IDOCK:   -6.62 KCAL/MOL
REMARK 922        TOTAL FREE ENERGY PREDICTED BY IDOCK:   -8.70 KCAL/MOL
REMARK 923 INTER-LIGAND FREE ENERGY PREDICTED BY IDOCK:   -8.10 KCAL/MOL
REMARK 924 INTRA-LIGAND FREE ENERGY PREDICTED BY IDOCK:   -0.61 KCAL/MOL
REMARK 927      BINDING AFFINITY PREDICTED BY RF-SCORE:    0.00 PKD
ROOT
HETATM    1  C   UNL     1      -9.045   1.491  67.044  1.00  0.00    -0.079 C  
HETATM    2  N   UNL     1      -9.047   2.929  67.109  1.00  0.00    -0.161 N  
HETATM    3  C   UNL     1      -9.395   3.696  66.021  1.00  0.00    -0.168 C  
HETATM    4  H   UNL     1      -8.786   3.389  67.981  1.00  0.00     0.000 HD 
HETATM    5  O   UNL     1      -9.733   3.226  64.941  1.00  0.00    -0.160 OA 
ENDROOT
BRANCH   3   6
HETATM    6  C   UNL     1      -9.397   5.164  66.223  1.00  0.00    -0.155 A  
HETATM    7  C   UNL     1      -8.293   5.966  65.940  1.00  0.00    -0.136 A  
HETATM    8  F   UNL     1      -7.171   5.436  65.429  1.00  0.00    -0.062 F  
HETATM    9  C   UNL     1      -8.308   7.341  66.191  1.00  0.00    -0.133 A  
HETATM   10  C   UNL     1      -9.428   7.942  66.765  1.00  0.00    -0.201 A  
HETATM   11  C   UNL     1     -10.557   7.137  67.000  1.00  0.00    -0.413 A  
HETATM   12  C   UNL     1     -10.549   5.765  66.732  1.00  0.00    -0.373 A  
BRANCH  10  13
HETATM   13  N   UNL     1      -9.473   9.330  67.079  1.00  0.00    -0.153 N  
HETATM   14  C   UNL     1      -9.690   9.865  68.374  1.00  0.00    -0.149 C  
HETATM   15  N   UNL     1     -10.309  11.101  68.214  1.00  0.00    -0.173 N  
HETATM   16  S   UNL     1      -9.059   9.180  69.776  1.00  0.00    -0.180 S  
HETATM   17  C   UNL     1      -7.916  10.828  65.858  1.00  0.00    -0.140 C  
HETATM   18  C   UNL     1     -10.060  11.532  66.921  1.00  0.00    -0.212 C  
HETATM   19  C   UNL     1     -10.160  10.228  64.817  1.00  0.00    -0.336 C  
HETATM   20  C   UNL     1      -9.371  10.410  66.116  1.00  0.00    -0.172 C  
HETATM   21  O   UNL     1     -10.263  12.641  66.436  1.00  0.00    -0.242 OA 
BRANCH  15  22
HETATM   22  C   UNL     1     -11.104  11.822  69.178  1.00  0.00    -0.238 A  
HETATM   23  C   UNL     1     -12.699  11.874  71.043  1.00  0.00    -0.354 A  
HETATM   24  C   UNL     1     -11.924  11.168  70.107  1.00  0.00    -0.449 A  
HETATM   25  C   UNL     1     -12.698  13.272  71.078  1.00  0.00    -0.374 A  
HETATM   26  C   UNL     1     -11.863  13.965  70.200  1.00  0.00    -0.368 A  
HETATM   27  C   UNL     1     -13.560  13.923  72.023  1.00  0.00    -0.477 C  
HETATM   28  C   UNL     1     -11.052  13.222  69.302  1.00  0.00    -0.208 A  
HETATM   29  N   UNL     1     -14.273  14.419  72.795  1.00  0.00    -0.394 NA 
HETATM   30  C   UNL     1     -11.771  15.474  70.133  1.00  0.00    -0.347 C  
HETATM   31  F   UNL     1     -12.020  15.937  68.877  1.00  0.00    -0.371 F  
HETATM   32  F   UNL     1     -10.525  15.920  70.453  1.00  0.00    -0.294 F  
HETATM   33  F   UNL     1     -12.626  16.143  70.945  1.00  0.00    -0.427 F  
ENDBRANCH  15  22
ENDBRANCH  10  13
ENDBRANCH   3   6
TORSDOF 3
ENDMDL
MODEL       24
REMARK 921   NORMALIZED FREE ENERGY PREDICTED BY IDOCK:   -6.55 KCAL/MOL
REMARK 922        TOTAL FREE ENERGY PREDICTED BY IDOCK:   -8.61 KCAL/MOL
REMARK 923 INTER-LIGAND FREE ENERGY PREDICTED BY IDOCK:   -7.66 KCAL/MOL
REMARK 924 INTRA-LIGAND FREE ENERGY PREDICTED BY IDOCK:   -0.95 KCAL/MOL
REMARK 927      BINDING AFFINITY PREDICTED BY RF-SCORE:    0.00 PKD
ROOT
HETATM    1  C   UNL     1      -6.776  20.956  66.904  1.00  0.00    -0.316 C  
HETATM    2  N   UNL     1      -7.440  19.709  66.637  1.00  0.00    -0.242 N  
HETATM    3  C   UNL     1      -8.166  19.058  67.609  1.00  0.00    -0.275 C  
HETATM    4  H   UNL     1      -7.371  19.297  65.706  1.00  0.00     0.000 HD 
HETATM    5  O   UNL     1      -8.310  19.488  68.747  1.00  0.00    -0.362 OA 
ENDROOT
BRANCH   3   6
HETATM    6  C   UNL     1      -8.837  17.801  67.200  1.00  0.00    -0.251 A  
HETATM    7  C   UNL     1     -10.184  17.550  67.453  1.00  0.00    -0.337 A  
HETATM    8  F   UNL     1     -10.953  18.468  68.059  1.00  0.00    -0.359 F  
HETATM    9  C   UNL     1     -10.776  16.334  67.102  1.00  0.00    -0.247 A  
HETATM   10  C   UNL     1     -10.017  15.323  66.512  1.00  0.00    -0.265 A  
HETATM   11  C   UNL     1      -8.672  15.603  66.212  1.00  0.00    -0.325 A  
HETATM   12  C   UNL     1      -8.085  16.826  66.546  1.00  0.00    -0.329 A  
BRANCH  10  13
HETATM   13  N   UNL     1     -10.565  14.052  66.177  1.00  0.00    -0.286 N  
HETATM   14  C   UNL     1     -10.109  12.809  66.683  1.00  0.00    -0.243 C  
HETATM   15  N   UNL     1     -10.371  11.845  65.715  1.00  0.00    -0.239 N  
HETATM   16  S   UNL     1      -9.589  12.591  68.270  1.00  0.00    -0.182 S  
HETATM   17  C   UNL     1     -13.023  13.918  65.857  1.00  0.00    -0.252 C  
HETATM   18  C   UNL     1     -11.352  12.348  64.876  1.00  0.00    -0.317 C  
HETATM   19  C   UNL     1     -11.538  14.623  63.913  1.00  0.00     0.236 C  
HETATM   20  C   UNL     1     -11.630  13.827  65.217  1.00  0.00    -0.321 C  
HETATM   21  O   UNL     1     -11.996  11.753  64.016  1.00  0.00    -0.348 OA 
BRANCH  15  22
HETATM   22  C   UNL     1      -9.737  10.559  65.555  1.00  0.00    -0.242 A  
HETATM   23  C   UNL     1      -8.066   9.101  64.505  1.00  0.00    -0.139 A  
HETATM   24  C   UNL     1      -8.680  10.355  64.659  1.00  0.00    -0.198 A  
HETATM   25  C   UNL     1      -8.498   7.987  65.232  1.00  0.00    -0.133 A  
HETATM   26  C   UNL     1      -9.521   8.153  66.168  1.00  0.00    -0.217 A  
HETATM   27  C   UNL     1      -7.862   6.727  64.977  1.00  0.00    -0.118 C  
HETATM   28  C   UNL     1     -10.084   9.445  66.340  1.00  0.00    -0.332 A  
HETATM   29  N   UNL     1      -7.330   5.720  64.742  1.00  0.00    -0.066 NA 
HETATM   30  C   UNL     1     -10.081   7.032  67.015  1.00  0.00    -0.229 C  
HETATM   31  F   UNL     1     -11.429   6.914  66.863  1.00  0.00    -0.456 F  
HETATM   32  F   UNL     1      -9.876   7.250  68.344  1.00  0.00    -0.146 F  
HETATM   33  F   UNL     1      -9.576   5.801  66.757  1.00  0.00    -0.128 F  
ENDBRANCH  15  22
ENDBRANCH  10  13
ENDBRANCH   3   6
TORSDOF 3
ENDMDL
MODEL       25
REMARK 921   NORMALIZED FREE ENERGY PREDICTED BY IDOCK:   -6.52 KCAL/MOL
REMARK 922        TOTAL FREE ENERGY PREDICTED BY IDOCK:   -8.58 KCAL/MOL
REMARK 923 INTER-LIGAND FREE ENERGY PREDICTED BY IDOCK:   -7.49 KCAL/MOL
REMARK 924 INTRA-LIGAND FREE ENERGY PREDICTED BY IDOCK:   -1.09 KCAL/MOL
REMARK 927      BINDING AFFINITY PREDICTED BY RF-SCORE:    0.00 PKD
ROOT
HETATM    1  C   UNL     1     -10.157   4.602  65.616  1.00  0.00    -0.218 C  
HETATM    2  N   UNL     1      -9.715   5.931  65.941  1.00  0.00    -0.370 N  
HETATM    3  C   UNL     1     -10.386   6.706  66.860  1.00  0.00    -0.254 C  
HETATM    4  H   UNL     1      -8.887   6.308  65.481  1.00  0.00     0.000 HD 
HETATM    5  O   UNL     1     -11.380   6.328  67.468  1.00  0.00    -0.246 OA 
ENDROOT
BRANCH   3   6
HETATM    6  C   UNL     1      -9.810   8.043  67.140  1.00  0.00    -0.274 A  
HETATM    7  C   UNL     1      -9.233   8.374  68.365  1.00  0.00    -0.135 A  
HETATM    8  F   UNL     1      -9.141   7.466  69.349  1.00  0.00    -0.139 F  
HETATM    9  C   UNL     1      -8.745   9.659  68.617  1.00  0.00    -0.124 A  
HETATM   10  C   UNL     1      -8.854  10.658  67.649  1.00  0.00    -0.131 A  
HETATM   11  C   UNL     1      -9.389  10.304  66.398  1.00  0.00    -0.201 A  
HETATM   12  C   UNL     1      -9.860   9.014  66.140  1.00  0.00    -0.349 A  
BRANCH  10  13
HETATM   13  N   UNL     1      -8.412  11.992  67.876  1.00  0.00    -0.151 N  
HETATM   14  C   UNL     1      -9.262  13.116  68.035  1.00  0.00    -0.211 C  
HETATM   15  N   UNL     1      -8.565  14.231  67.580  1.00  0.00    -0.183 N  
HETATM   16  S   UNL     1     -10.729  13.058  68.859  1.00  0.00    -0.109 S  
HETATM   17  C   UNL     1      -6.416  12.304  69.317  1.00  0.00    -0.109 C  
HETATM   18  C   UNL     1      -7.215  13.917  67.592  1.00  0.00    -0.174 C  
HETATM   19  C   UNL     1      -6.112  11.832  66.834  1.00  0.00    -0.140 C  
HETATM   20  C   UNL     1      -7.026  12.420  67.913  1.00  0.00    -0.106 C  
HETATM   21  O   UNL     1      -6.257  14.671  67.446  1.00  0.00    -0.332 OA 
BRANCH  15  22
HETATM   22  C   UNL     1      -9.109  15.491  67.134  1.00  0.00    -0.217 A  
HETATM   23  C   UNL     1     -10.353  16.841  65.506  1.00  0.00    -0.236 A  
HETATM   24  C   UNL     1      -9.828  15.611  65.938  1.00  0.00    -0.382 A  
HETATM   25  C   UNL     1     -10.167  18.011  66.249  1.00  0.00    -0.381 A  
HETATM   26  C   UNL     1      -9.494  17.930  67.469  1.00  0.00    -0.258 A  
HETATM   27  C   UNL     1     -10.683  19.238  65.714  1.00  0.00    -0.330 C  
HETATM   28  C   UNL     1      -9.021  16.664  67.905  1.00  0.00    -0.217 A  
HETATM   29  N   UNL     1     -11.107  20.216  65.251  1.00  0.00    -0.059 NA 
HETATM   30  C   UNL     1      -9.223  19.119  68.365  1.00  0.00    -0.356 C  
HETATM   31  F   UNL     1      -7.896  19.249  68.638  1.00  0.00    -0.340 F  
HETATM   32  F   UNL     1      -9.839  18.993  69.573  1.00  0.00    -0.310 F  
HETATM   33  F   UNL     1      -9.614  20.319  67.871  1.00  0.00    -0.450 F  
ENDBRANCH  15  22
ENDBRANCH  10  13
ENDBRANCH   3   6
TORSDOF 3
ENDMDL
MODEL       26
REMARK 921   NORMALIZED FREE ENERGY PREDICTED BY IDOCK:   -6.52 KCAL/MOL
REMARK 922        TOTAL FREE ENERGY PREDICTED BY IDOCK:   -8.58 KCAL/MOL
REMARK 923 INTER-LIGAND FREE ENERGY PREDICTED BY IDOCK:   -8.12 KCAL/MOL
REMARK 924 INTRA-LIGAND FREE ENERGY PREDICTED BY IDOCK:   -0.46 KCAL/MOL
REMARK 927      BINDING AFFINITY PREDICTED BY RF-SCORE:    0.00 PKD
ROOT
HETATM    1  C   UNL     1     -10.628  20.109  66.202  1.00  0.00    -0.258 C  
HETATM    2  N   UNL     1     -10.357  18.764  66.632  1.00  0.00    -0.397 N  
HETATM    3  C   UNL     1     -10.643  17.682  65.831  1.00  0.00    -0.203 C  
HETATM    4  H   UNL     1      -9.943  18.608  67.551  1.00  0.00     0.000 HD 
HETATM    5  O   UNL     1     -11.128  17.779  64.710  1.00  0.00    -0.852 OA 
ENDROOT
BRANCH   3   6
HETATM    6  C   UNL     1     -10.280  16.349  66.369  1.00  0.00    -0.325 A  
HETATM    7  C   UNL     1     -10.359  16.037  67.724  1.00  0.00    -0.279 A  
HETATM    8  F   UNL     1     -10.810  16.937  68.613  1.00  0.00    -0.309 F  
HETATM    9  C   UNL     1      -9.961  14.788  68.209  1.00  0.00    -0.222 A  
HETATM   10  C   UNL     1      -9.441  13.827  67.341  1.00  0.00    -0.224 A  
HETATM   11  C   UNL     1      -9.413  14.130  65.968  1.00  0.00    -0.189 A  
HETATM   12  C   UNL     1      -9.829  15.372  65.482  1.00  0.00    -0.359 A  
BRANCH  10  13
HETATM   13  N   UNL     1      -8.982  12.558  67.794  1.00  0.00    -0.175 N  
HETATM   14  C   UNL     1      -9.792  11.404  67.944  1.00  0.00    -0.179 C  
HETATM   15  N   UNL     1      -9.235  10.635  68.961  1.00  0.00    -0.180 N  
HETATM   16  S   UNL     1     -11.032  11.000  66.879  1.00  0.00    -0.203 S  
HETATM   17  C   UNL     1      -6.716  11.841  67.078  1.00  0.00    -0.139 C  
HETATM   18  C   UNL     1      -7.913  11.023  69.106  1.00  0.00    -0.078 C  
HETATM   19  C   UNL     1      -6.976  13.316  69.136  1.00  0.00    -0.031 C  
HETATM   20  C   UNL     1      -7.631  12.266  68.236  1.00  0.00    -0.133 C  
HETATM   21  O   UNL     1      -7.026  10.476  69.755  1.00  0.00    -0.114 OA 
BRANCH  15  22
HETATM   22  C   UNL     1      -9.887   9.632  69.766  1.00  0.00    -0.229 A  
HETATM   23  C   UNL     1      -9.955   7.399  70.784  1.00  0.00    -0.182 A  
HETATM   24  C   UNL     1      -9.315   8.375  70.001  1.00  0.00    -0.159 A  
HETATM   25  C   UNL     1     -11.209   7.636  71.355  1.00  0.00    -0.273 A  
HETATM   26  C   UNL     1     -11.799   8.890  71.184  1.00  0.00    -0.353 A  
HETATM   27  C   UNL     1     -11.825   6.571  72.092  1.00  0.00    -0.305 C  
HETATM   28  C   UNL     1     -11.103   9.873  70.432  1.00  0.00    -0.382 A  
HETATM   29  N   UNL     1     -12.300   5.686  72.678  1.00  0.00     0.032 NA 
HETATM   30  C   UNL     1     -13.151   9.272  71.745  1.00  0.00    -0.400 C  
HETATM   31  F   UNL     1     -13.992   9.714  70.770  1.00  0.00    -0.336 F  
HETATM   32  F   UNL     1     -13.056  10.292  72.643  1.00  0.00    -0.348 F  
HETATM   33  F   UNL     1     -13.817   8.277  72.380  1.00  0.00    -0.334 F  
ENDBRANCH  15  22
ENDBRANCH  10  13
ENDBRANCH   3   6
TORSDOF 3
ENDMDL
MODEL       27
REMARK 921   NORMALIZED FREE ENERGY PREDICTED BY IDOCK:   -6.48 KCAL/MOL
REMARK 922        TOTAL FREE ENERGY PREDICTED BY IDOCK:   -8.54 KCAL/MOL
REMARK 923 INTER-LIGAND FREE ENERGY PREDICTED BY IDOCK:   -7.46 KCAL/MOL
REMARK 924 INTRA-LIGAND FREE ENERGY PREDICTED BY IDOCK:   -1.08 KCAL/MOL
REMARK 927      BINDING AFFINITY PREDICTED BY RF-SCORE:    0.00 PKD
ROOT
HETATM    1  C   UNL     1      -8.575   4.682  69.213  1.00  0.00    -0.082 C  
HETATM    2  N   UNL     1      -8.737   5.947  68.547  1.00  0.00    -0.113 N  
HETATM    3  C   UNL     1      -9.857   6.225  67.796  1.00  0.00    -0.121 C  
HETATM    4  H   UNL     1      -8.006   6.653  68.634  1.00  0.00     0.000 HD 
HETATM    5  O   UNL     1     -10.786   5.440  67.650  1.00  0.00    -0.170 OA 
ENDROOT
BRANCH   3   6
HETATM    6  C   UNL     1      -9.926   7.577  67.193  1.00  0.00    -0.288 A  
HETATM    7  C   UNL     1      -9.298   7.899  65.991  1.00  0.00    -0.063 A  
HETATM    8  F   UNL     1      -8.621   6.970  65.299  1.00  0.00    -0.143 F  
HETATM    9  C   UNL     1      -9.339   9.196  65.473  1.00  0.00    -0.287 A  
HETATM   10  C   UNL     1      -9.988  10.215  66.171  1.00  0.00    -0.246 A  
HETATM   11  C   UNL     1     -10.663   9.873  67.356  1.00  0.00    -0.323 A  
HETATM   12  C   UNL     1     -10.639   8.571  67.864  1.00  0.00    -0.219 A  
BRANCH  10  13
HETATM   13  N   UNL     1     -10.017  11.560  65.705  1.00  0.00    -0.224 N  
HETATM   14  C   UNL     1      -9.381  12.657  66.340  1.00  0.00    -0.198 C  
HETATM   15  N   UNL     1     -10.122  13.796  66.044  1.00  0.00    -0.303 N  
HETATM   16  S   UNL     1      -7.875  12.547  67.085  1.00  0.00    -0.075 S  
HETATM   17  C   UNL     1      -9.943  11.922  63.251  1.00  0.00    -0.409 C  
HETATM   18  C   UNL     1     -10.880  13.524  64.916  1.00  0.00    -0.362 C  
HETATM   19  C   UNL     1     -12.177  11.479  64.390  1.00  0.00     0.151 C  
HETATM   20  C   UNL     1     -10.757  12.030  64.548  1.00  0.00    -0.312 C  
HETATM   21  O   UNL     1     -11.521  14.307  64.223  1.00  0.00    -0.337 OA 
BRANCH  15  22
HETATM   22  C   UNL     1     -10.154  15.042  66.770  1.00  0.00    -0.254 A  
HETATM   23  C   UNL     1      -9.712  17.451  66.930  1.00  0.00    -0.286 A  
HETATM   24  C   UNL     1      -9.682  16.240  66.218  1.00  0.00    -0.329 A  
HETATM   25  C   UNL     1     -10.204  17.512  68.238  1.00  0.00    -0.365 A  
HETATM   26  C   UNL     1     -10.724  16.351  68.813  1.00  0.00    -0.321 A  
HETATM   27  C   UNL     1     -10.148  18.772  68.921  1.00  0.00    -0.307 C  
HETATM   28  C   UNL     1     -10.729  15.154  68.049  1.00  0.00    -0.264 A  
HETATM   29  N   UNL     1     -10.083  19.806  69.449  1.00  0.00    -0.291 NA 
HETATM   30  C   UNL     1     -11.282  16.281  70.218  1.00  0.00    -0.333 C  
HETATM   31  F   UNL     1     -10.661  15.320  70.957  1.00  0.00    -0.343 F  
HETATM   32  F   UNL     1     -12.604  15.954  70.222  1.00  0.00    -0.411 F  
HETATM   33  F   UNL     1     -11.178  17.422  70.941  1.00  0.00     0.167 F  
ENDBRANCH  15  22
ENDBRANCH  10  13
ENDBRANCH   3   6
TORSDOF 3
ENDMDL
MODEL       28
REMARK 921   NORMALIZED FREE ENERGY PREDICTED BY IDOCK:   -6.43 KCAL/MOL
REMARK 922        TOTAL FREE ENERGY PREDICTED BY IDOCK:   -8.47 KCAL/MOL
REMARK 923 INTER-LIGAND FREE ENERGY PREDICTED BY IDOCK:   -7.41 KCAL/MOL
REMARK 924 INTRA-LIGAND FREE ENERGY PREDICTED BY IDOCK:   -1.06 KCAL/MOL
REMARK 927      BINDING AFFINITY PREDICTED BY RF-SCORE:    0.00 PKD
ROOT
HETATM    1  C   UNL     1     -12.227  15.150  64.253  1.00  0.00    -0.240 C  
HETATM    2  N   UNL     1     -11.529  14.054  64.870  1.00  0.00    -0.342 N  
HETATM    3  C   UNL     1     -12.107  12.811  64.991  1.00  0.00    -0.441 C  
HETATM    4  H   UNL     1     -10.584  14.201  65.225  1.00  0.00     0.000 HD 
HETATM    5  O   UNL     1     -13.230  12.544  64.581  1.00  0.00    -0.848 OA 
ENDROOT
BRANCH   3   6
HETATM    6  C   UNL     1     -11.272  11.752  65.608  1.00  0.00    -0.324 A  
HETATM    7  C   UNL     1     -10.513  10.858  64.857  1.00  0.00    -0.282 A  
HETATM    8  F   UNL     1     -10.477  10.942  63.517  1.00  0.00    -0.389 F  
HETATM    9  C   UNL     1      -9.776   9.838  65.465  1.00  0.00    -0.382 A  
HETATM   10  C   UNL     1      -9.811   9.671  66.849  1.00  0.00    -0.200 A  
HETATM   11  C   UNL     1     -10.537  10.609  67.605  1.00  0.00    -0.288 A  
HETATM   12  C   UNL     1     -11.258  11.640  66.998  1.00  0.00    -0.376 A  
BRANCH  10  13
HETATM   13  N   UNL     1      -9.113   8.620  67.509  1.00  0.00    -0.133 N  
HETATM   14  C   UNL     1      -9.697   7.407  67.953  1.00  0.00    -0.143 C  
HETATM   15  N   UNL     1      -8.968   6.973  69.055  1.00  0.00    -0.134 N  
HETATM   16  S   UNL     1     -10.892   6.588  67.094  1.00  0.00    -0.405 S  
HETATM   17  C   UNL     1      -6.790   8.152  66.772  1.00  0.00    -0.069 C  
HETATM   18  C   UNL     1      -7.731   7.596  69.013  1.00  0.00    -0.117 C  
HETATM   19  C   UNL     1      -7.217   9.966  68.506  1.00  0.00    -0.076 C  
HETATM   20  C   UNL     1      -7.713   8.655  67.891  1.00  0.00    -0.102 C  
HETATM   21  O   UNL     1      -6.733   7.352  69.684  1.00  0.00    -0.039 OA 
BRANCH  15  22
HETATM   22  C   UNL     1      -9.395   6.069  70.096  1.00  0.00    -0.154 A  
HETATM   23  C   UNL     1     -10.516   5.625  72.233  1.00  0.00    -0.260 A  
HETATM   24  C   UNL     1     -10.105   6.508  71.220  1.00  0.00    -0.208 A  
HETATM   25  C   UNL     1     -10.219   4.260  72.170  1.00  0.00    -0.234 A  
HETATM   26  C   UNL     1      -9.550   3.770  71.046  1.00  0.00    -0.249 A  
HETATM   27  C   UNL     1     -10.621   3.431  73.269  1.00  0.00    -0.187 C  
HETATM   28  C   UNL     1      -9.195   4.679  70.015  1.00  0.00    -0.186 A  
HETATM   29  N   UNL     1     -10.955   2.788  74.179  1.00  0.00    -0.154 NA 
HETATM   30  C   UNL     1      -9.166   2.319  70.857  1.00  0.00    -0.122 C  
HETATM   31  F   UNL     1      -7.831   2.179  70.629  1.00  0.00    -0.041 F  
HETATM   32  F   UNL     1      -9.786   1.768  69.776  1.00  0.00    -0.170 F  
HETATM   33  F   UNL     1      -9.446   1.504  71.902  1.00  0.00    -0.113 F  
ENDBRANCH  15  22
ENDBRANCH  10  13
ENDBRANCH   3   6
TORSDOF 3
ENDMDL
MODEL       29
REMARK 921   NORMALIZED FREE ENERGY PREDICTED BY IDOCK:   -6.42 KCAL/MOL
REMARK 922        TOTAL FREE ENERGY PREDICTED BY IDOCK:   -8.46 KCAL/MOL
REMARK 923 INTER-LIGAND FREE ENERGY PREDICTED BY IDOCK:   -7.75 KCAL/MOL
REMARK 924 INTRA-LIGAND FREE ENERGY PREDICTED BY IDOCK:   -0.71 KCAL/MOL
REMARK 927      BINDING AFFINITY PREDICTED BY RF-SCORE:    0.00 PKD
ROOT
HETATM    1  C   UNL     1     -10.516  19.255  66.307  1.00  0.00    -0.478 C  
HETATM    2  N   UNL     1     -10.386  17.854  66.606  1.00  0.00    -0.365 N  
HETATM    3  C   UNL     1     -10.676  16.890  65.667  1.00  0.00    -0.167 C  
HETATM    4  H   UNL     1     -10.073  17.568  67.534  1.00  0.00     0.000 HD 
HETATM    5  O   UNL     1     -11.045  17.144  64.527  1.00  0.00    -1.105 OA 
ENDROOT
BRANCH   3   6
HETATM    6  C   UNL     1     -10.465  15.482  66.081  1.00  0.00    -0.323 A  
HETATM    7  C   UNL     1      -9.332  15.063  66.778  1.00  0.00    -0.251 A  
HETATM    8  F   UNL     1      -8.384  15.941  67.140  1.00  0.00    -0.168 F  
HETATM    9  C   UNL     1      -9.137  13.720  67.110  1.00  0.00    -0.243 A  
HETATM   10  C   UNL     1     -10.065  12.754  66.719  1.00  0.00    -0.236 A  
HETATM   11  C   UNL     1     -11.230  13.190  66.063  1.00  0.00    -0.316 A  
HETATM   12  C   UNL     1     -11.434  14.536  65.748  1.00  0.00    -0.342 A  
BRANCH  10  13
HETATM   13  N   UNL     1      -9.887  11.369  66.996  1.00  0.00    -0.190 N  
HETATM   14  C   UNL     1     -10.373  10.698  68.146  1.00  0.00    -0.176 C  
HETATM   15  N   UNL     1      -9.509   9.639  68.406  1.00  0.00    -0.137 N  
HETATM   16  S   UNL     1     -11.863  11.037  68.854  1.00  0.00    -0.251 S  
HETATM   17  C   UNL     1      -9.976   9.800  65.074  1.00  0.00    -0.132 C  
HETATM   18  C   UNL     1      -8.816   9.365  67.238  1.00  0.00    -0.128 C  
HETATM   19  C   UNL     1      -7.784  10.961  65.649  1.00  0.00     0.012 C  
HETATM   20  C   UNL     1      -9.124  10.443  66.178  1.00  0.00    -0.160 C  
HETATM   21  O   UNL     1      -8.103   8.399  66.986  1.00  0.00    -0.102 OA 
BRANCH  15  22
HETATM   22  C   UNL     1      -9.312   8.948  69.657  1.00  0.00    -0.163 A  
HETATM   23  C   UNL     1      -8.203   8.712  71.833  1.00  0.00    -0.167 A  
HETATM   24  C   UNL     1      -8.394   9.390  70.617  1.00  0.00    -0.217 A  
HETATM   25  C   UNL     1      -8.915   7.547  72.134  1.00  0.00    -0.159 A  
HETATM   26  C   UNL     1      -9.872   7.092  71.224  1.00  0.00    -0.178 A  
HETATM   27  C   UNL     1      -8.623   6.877  73.369  1.00  0.00    -0.125 C  
HETATM   28  C   UNL     1     -10.080   7.829  70.029  1.00  0.00    -0.201 A  
HETATM   29  N   UNL     1      -8.359   6.356  74.374  1.00  0.00    -0.125 NA 
HETATM   30  C   UNL     1     -10.706   5.846  71.426  1.00  0.00    -0.260 C  
HETATM   31  F   UNL     1     -10.576   4.981  70.383  1.00  0.00    -0.324 F  
HETATM   32  F   UNL     1     -12.035   6.134  71.505  1.00  0.00    -0.356 F  
HETATM   33  F   UNL     1     -10.414   5.127  72.537  1.00  0.00    -0.222 F  
ENDBRANCH  15  22
ENDBRANCH  10  13
ENDBRANCH   3   6
TORSDOF 3
ENDMDL
MODEL       30
REMARK 921   NORMALIZED FREE ENERGY PREDICTED BY IDOCK:   -6.40 KCAL/MOL
REMARK 922        TOTAL FREE ENERGY PREDICTED BY IDOCK:   -8.44 KCAL/MOL
REMARK 923 INTER-LIGAND FREE ENERGY PREDICTED BY IDOCK:   -7.51 KCAL/MOL
REMARK 924 INTRA-LIGAND FREE ENERGY PREDICTED BY IDOCK:   -0.93 KCAL/MOL
REMARK 927      BINDING AFFINITY PREDICTED BY RF-SCORE:    0.00 PKD
ROOT
HETATM    1  C   UNL     1     -10.703  19.900  65.807  1.00  0.00    -0.318 C  
HETATM    2  N   UNL     1     -10.395  18.529  66.117  1.00  0.00    -0.431 N  
HETATM    3  C   UNL     1     -10.096  18.133  67.401  1.00  0.00    -0.351 C  
HETATM    4  H   UNL     1     -10.398  17.836  65.369  1.00  0.00     0.000 HD 
HETATM    5  O   UNL     1     -10.081  18.896  68.359  1.00  0.00    -0.363 OA 
ENDROOT
BRANCH   3   6
HETATM    6  C   UNL     1      -9.835  16.688  67.601  1.00  0.00    -0.256 A  
HETATM    7  C   UNL     1     -10.239  16.000  68.744  1.00  0.00    -0.225 A  
HETATM    8  F   UNL     1     -10.926  16.623  69.714  1.00  0.00    -0.317 F  
HETATM    9  C   UNL     1      -9.934  14.649  68.927  1.00  0.00    -0.228 A  
HETATM   10  C   UNL     1      -9.182  13.959  67.975  1.00  0.00    -0.193 A  
HETATM   11  C   UNL     1      -8.822  14.645  66.801  1.00  0.00    -0.269 A  
HETATM   12  C   UNL     1      -9.145  15.991  66.610  1.00  0.00    -0.282 A  
BRANCH  10  13
HETATM   13  N   UNL     1      -8.809  12.596  68.139  1.00  0.00    -0.192 N  
HETATM   14  C   UNL     1      -9.714  11.508  68.228  1.00  0.00    -0.198 C  
HETATM   15  N   UNL     1      -9.108  10.526  69.006  1.00  0.00    -0.179 N  
HETATM   16  S   UNL     1     -11.130  11.407  67.323  1.00  0.00    -0.308 S  
HETATM   17  C   UNL     1      -6.763  11.823  66.965  1.00  0.00    -0.139 C  
HETATM   18  C   UNL     1      -7.744  10.767  69.000  1.00  0.00    -0.133 C  
HETATM   19  C   UNL     1      -6.560  12.929  69.249  1.00  0.00    -0.085 C  
HETATM   20  C   UNL     1      -7.450  12.114  68.307  1.00  0.00    -0.107 C  
HETATM   21  O   UNL     1      -6.841  10.039  69.402  1.00  0.00    -0.053 OA 
BRANCH  15  22
HETATM   22  C   UNL     1      -9.748   9.457  69.733  1.00  0.00    -0.199 A  
HETATM   23  C   UNL     1     -11.083   8.637  71.622  1.00  0.00    -0.375 A  
HETATM   24  C   UNL     1     -10.463   9.682  70.916  1.00  0.00    -0.359 A  
HETATM   25  C   UNL     1     -10.999   7.313  71.180  1.00  0.00    -0.267 A  
HETATM   26  C   UNL     1     -10.332   7.047  69.983  1.00  0.00    -0.217 A  
HETATM   27  C   UNL     1     -11.607   6.294  71.986  1.00  0.00    -0.322 C  
HETATM   28  C   UNL     1      -9.763   8.130  69.264  1.00  0.00    -0.170 A  
HETATM   29  N   UNL     1     -12.105   5.491  72.664  1.00  0.00    -0.092 NA 
HETATM   30  C   UNL     1     -10.167   5.661  69.398  1.00  0.00    -0.245 C  
HETATM   31  F   UNL     1      -8.857   5.363  69.177  1.00  0.00    -0.099 F  
HETATM   32  F   UNL     1     -10.782   5.546  68.188  1.00  0.00    -0.259 F  
HETATM   33  F   UNL     1     -10.648   4.649  70.159  1.00  0.00    -0.282 F  
ENDBRANCH  15  22
ENDBRANCH  10  13
ENDBRANCH   3   6
TORSDOF 3
ENDMDL
MODEL       31
REMARK 921   NORMALIZED FREE ENERGY PREDICTED BY IDOCK:   -6.39 KCAL/MOL
REMARK 922        TOTAL FREE ENERGY PREDICTED BY IDOCK:   -8.43 KCAL/MOL
REMARK 923 INTER-LIGAND FREE ENERGY PREDICTED BY IDOCK:   -8.42 KCAL/MOL
REMARK 924 INTRA-LIGAND FREE ENERGY PREDICTED BY IDOCK:   -0.01 KCAL/MOL
REMARK 927      BINDING AFFINITY PREDICTED BY RF-SCORE:    0.00 PKD
ROOT
HETATM    1  C   UNL     1     -13.381   7.280  71.679  1.00  0.00    -0.358 C  
HETATM    2  N   UNL     1     -12.846   8.307  70.826  1.00  0.00    -0.400 N  
HETATM    3  C   UNL     1     -12.597   9.575  71.298  1.00  0.00    -0.339 C  
HETATM    4  H   UNL     1     -12.647   8.090  69.849  1.00  0.00     0.000 HD 
HETATM    5  O   UNL     1     -12.795   9.917  72.458  1.00  0.00    -0.232 OA 
ENDROOT
BRANCH   3   6
HETATM    6  C   UNL     1     -12.007  10.534  70.333  1.00  0.00    -0.425 A  
HETATM    7  C   UNL     1     -12.240  11.906  70.397  1.00  0.00    -0.314 A  
HETATM    8  F   UNL     1     -12.994  12.432  71.375  1.00  0.00    -0.444 F  
HETATM    9  C   UNL     1     -11.713  12.780  69.442  1.00  0.00    -0.380 A  
HETATM   10  C   UNL     1     -10.960  12.288  68.375  1.00  0.00    -0.236 A  
HETATM   11  C   UNL     1     -10.686  10.909  68.346  1.00  0.00    -0.240 A  
HETATM   12  C   UNL     1     -11.198  10.039  69.312  1.00  0.00    -0.213 A  
BRANCH  10  13
HETATM   13  N   UNL     1     -10.440  13.133  67.354  1.00  0.00    -0.241 N  
HETATM   14  C   UNL     1      -9.325  13.996  67.500  1.00  0.00    -0.209 C  
HETATM   15  N   UNL     1      -9.513  15.069  66.635  1.00  0.00    -0.250 N  
HETATM   16  S   UNL     1      -7.955  13.593  68.393  1.00  0.00    -0.136 S  
HETATM   17  C   UNL     1     -10.464  12.265  65.029  1.00  0.00    -0.322 C  
HETATM   18  C   UNL     1     -10.423  14.675  65.668  1.00  0.00    -0.342 C  
HETATM   19  C   UNL     1     -12.535  13.414  65.963  1.00  0.00    -0.431 C  
HETATM   20  C   UNL     1     -11.010  13.294  66.029  1.00  0.00    -0.279 C  
HETATM   21  O   UNL     1     -10.720  15.247  64.624  1.00  0.00    -0.365 OA 
BRANCH  15  22
HETATM   22  C   UNL     1      -8.917  16.380  66.713  1.00  0.00    -0.236 A  
HETATM   23  C   UNL     1      -8.762  18.720  65.987  1.00  0.00    -0.017 A  
HETATM   24  C   UNL     1      -9.347  17.444  65.910  1.00  0.00     0.008 A  
HETATM   25  C   UNL     1      -7.706  18.982  66.865  1.00  0.00    -0.253 A  
HETATM   26  C   UNL     1      -7.273  17.963  67.716  1.00  0.00    -0.211 A  
HETATM   27  C   UNL     1      -7.122  20.292  66.845  1.00  0.00    -0.258 C  
HETATM   28  C   UNL     1      -7.920  16.700  67.652  1.00  0.00    -0.188 A  
HETATM   29  N   UNL     1      -6.667  21.361  66.800  1.00  0.00    -0.451 NA 
HETATM   30  C   UNL     1      -6.141  18.114  68.708  1.00  0.00    -0.202 C  
HETATM   31  F   UNL     1      -5.178  17.170  68.518  1.00  0.00    -0.118 F  
HETATM   32  F   UNL     1      -6.567  17.955  69.992  1.00  0.00    -0.146 F  
HETATM   33  F   UNL     1      -5.496  19.306  68.674  1.00  0.00    -0.188 F  
ENDBRANCH  15  22
ENDBRANCH  10  13
ENDBRANCH   3   6
TORSDOF 3
ENDMDL
MODEL       32
REMARK 921   NORMALIZED FREE ENERGY PREDICTED BY IDOCK:   -6.35 KCAL/MOL
REMARK 922        TOTAL FREE ENERGY PREDICTED BY IDOCK:   -8.38 KCAL/MOL
REMARK 923 INTER-LIGAND FREE ENERGY PREDICTED BY IDOCK:   -7.95 KCAL/MOL
REMARK 924 INTRA-LIGAND FREE ENERGY PREDICTED BY IDOCK:   -0.44 KCAL/MOL
REMARK 927      BINDING AFFINITY PREDICTED BY RF-SCORE:    0.00 PKD
ROOT
HETATM    1  C   UNL     1      -9.056  19.448  67.560  1.00  0.00    -0.302 C  
HETATM    2  N   UNL     1      -9.230  18.022  67.489  1.00  0.00    -0.252 N  
HETATM    3  C   UNL     1      -8.644  17.276  66.492  1.00  0.00    -0.264 C  
HETATM    4  H   UNL     1      -9.801  17.553  68.192  1.00  0.00     0.000 HD 
HETATM    5  O   UNL     1      -7.934  17.755  65.616  1.00  0.00    -0.532 OA 
ENDROOT
BRANCH   3   6
HETATM    6  C   UNL     1      -8.864  15.811  66.548  1.00  0.00    -0.345 A  
HETATM    7  C   UNL     1      -9.787  15.156  65.735  1.00  0.00    -0.351 A  
HETATM    8  F   UNL     1     -10.502  15.833  64.823  1.00  0.00    -0.410 F  
HETATM    9  C   UNL     1     -10.010  13.781  65.847  1.00  0.00    -0.308 A  
HETATM   10  C   UNL     1      -9.330  13.032  66.807  1.00  0.00    -0.244 A  
HETATM   11  C   UNL     1      -8.363  13.689  67.589  1.00  0.00    -0.182 A  
HETATM   12  C   UNL     1      -8.127  15.061  67.464  1.00  0.00    -0.200 A  
BRANCH  10  13
HETATM   13  N   UNL     1      -9.556  11.638  66.989  1.00  0.00    -0.182 N  
HETATM   14  C   UNL     1     -10.347  11.068  68.019  1.00  0.00    -0.185 C  
HETATM   15  N   UNL     1      -9.830   9.805  68.289  1.00  0.00    -0.145 N  
HETATM   16  S   UNL     1     -11.777  11.760  68.577  1.00  0.00    -0.314 S  
HETATM   17  C   UNL     1      -9.798  10.245  64.949  1.00  0.00    -0.404 C  
HETATM   18  C   UNL     1      -9.085   9.411  67.188  1.00  0.00    -0.130 C  
HETATM   19  C   UNL     1      -7.475  10.746  65.861  1.00  0.00    -0.099 C  
HETATM   20  C   UNL     1      -8.961  10.582  66.191  1.00  0.00    -0.160 C  
HETATM   21  O   UNL     1      -8.621   8.302  66.941  1.00  0.00    -0.116 OA 
BRANCH  15  22
HETATM   22  C   UNL     1      -9.985   9.027  69.493  1.00  0.00    -0.191 A  
HETATM   23  C   UNL     1     -10.428   8.854  71.901  1.00  0.00    -0.415 A  
HETATM   24  C   UNL     1     -10.280   9.615  70.729  1.00  0.00    -0.330 A  
HETATM   25  C   UNL     1     -10.270   7.464  71.888  1.00  0.00    -0.213 A  
HETATM   26  C   UNL     1     -10.018   6.829  70.670  1.00  0.00    -0.201 A  
HETATM   27  C   UNL     1     -10.378   6.762  73.133  1.00  0.00    -0.247 C  
HETATM   28  C   UNL     1      -9.927   7.621  69.494  1.00  0.00    -0.182 A  
HETATM   29  N   UNL     1     -10.465   6.223  74.160  1.00  0.00    -0.286 NA 
HETATM   30  C   UNL     1      -9.823   5.337  70.519  1.00  0.00    -0.207 C  
HETATM   31  F   UNL     1      -8.637   5.044  69.918  1.00  0.00    -0.092 F  
HETATM   32  F   UNL     1     -10.785   4.778  69.733  1.00  0.00    -0.251 F  
HETATM   33  F   UNL     1      -9.831   4.631  71.676  1.00  0.00    -0.205 F  
ENDBRANCH  15  22
ENDBRANCH  10  13
ENDBRANCH   3   6
TORSDOF 3
ENDMDL
MODEL       33
REMARK 921   NORMALIZED FREE ENERGY PREDICTED BY IDOCK:   -6.34 KCAL/MOL
REMARK 922        TOTAL FREE ENERGY PREDICTED BY IDOCK:   -8.37 KCAL/MOL
REMARK 923 INTER-LIGAND FREE ENERGY PREDICTED BY IDOCK:   -7.30 KCAL/MOL
REMARK 924 INTRA-LIGAND FREE ENERGY PREDICTED BY IDOCK:   -1.08 KCAL/MOL
REMARK 927      BINDING AFFINITY PREDICTED BY RF-SCORE:    0.00 PKD
ROOT
HETATM    1  C   UNL     1      -6.305  18.885  65.183  1.00  0.00    -0.268 C  
HETATM    2  N   UNL     1      -6.799  17.599  65.598  1.00  0.00    -0.122 N  
HETATM    3  C   UNL     1      -8.045  17.459  66.167  1.00  0.00    -0.220 C  
HETATM    4  H   UNL     1      -6.214  16.774  65.468  1.00  0.00     0.000 HD 
HETATM    5  O   UNL     1      -8.816  18.393  66.349  1.00  0.00    -0.311 OA 
ENDROOT
BRANCH   3   6
HETATM    6  C   UNL     1      -8.458  16.078  66.516  1.00  0.00    -0.348 A  
HETATM    7  C   UNL     1      -8.013  15.426  67.665  1.00  0.00    -0.155 A  
HETATM    8  F   UNL     1      -7.205  16.047  68.538  1.00  0.00    -0.123 F  
HETATM    9  C   UNL     1      -8.379  14.106  67.940  1.00  0.00    -0.162 A  
HETATM   10  C   UNL     1      -9.179  13.394  67.047  1.00  0.00    -0.242 A  
HETATM   11  C   UNL     1      -9.667  14.074  65.917  1.00  0.00    -0.250 A  
HETATM   12  C   UNL     1      -9.316  15.400  65.651  1.00  0.00    -0.168 A  
BRANCH  10  13
HETATM   13  N   UNL     1      -9.541  12.034  67.263  1.00  0.00    -0.181 N  
HETATM   14  C   UNL     1     -10.290  11.555  68.367  1.00  0.00    -0.202 C  
HETATM   15  N   UNL     1      -9.893  10.242  68.601  1.00  0.00    -0.166 N  
HETATM   16  S   UNL     1     -11.576  12.402  69.049  1.00  0.00    -0.327 S  
HETATM   17  C   UNL     1     -10.125  10.677  65.269  1.00  0.00    -0.363 C  
HETATM   18  C   UNL     1      -9.303   9.768  67.441  1.00  0.00    -0.134 C  
HETATM   19  C   UNL     1      -7.685  10.916  65.956  1.00  0.00    -0.107 C  
HETATM   20  C   UNL     1      -9.143  10.918  66.424  1.00  0.00    -0.172 C  
HETATM   21  O   UNL     1      -8.989   8.615  67.163  1.00  0.00    -0.129 OA 
BRANCH  15  22
HETATM   22  C   UNL     1     -10.020   9.486  69.823  1.00  0.00    -0.213 A  
HETATM   23  C   UNL     1      -9.140   8.723  71.982  1.00  0.00    -0.259 A  
HETATM   24  C   UNL     1      -9.012   9.463  70.795  1.00  0.00    -0.254 A  
HETATM   25  C   UNL     1     -10.281   7.957  72.241  1.00  0.00    -0.302 A  
HETATM   26  C   UNL     1     -11.330   7.984  71.320  1.00  0.00    -0.295 A  
HETATM   27  C   UNL     1     -10.313   7.182  73.448  1.00  0.00    -0.349 C  
HETATM   28  C   UNL     1     -11.194   8.784  70.155  1.00  0.00    -0.162 A  
HETATM   29  N   UNL     1     -10.305   6.560  74.431  1.00  0.00    -0.316 NA 
HETATM   30  C   UNL     1     -12.614   7.201  71.479  1.00  0.00    -0.390 C  
HETATM   31  F   UNL     1     -12.850   6.401  70.403  1.00  0.00    -0.110 F  
HETATM   32  F   UNL     1     -13.698   8.020  71.576  1.00  0.00    -0.345 F  
HETATM   33  F   UNL     1     -12.666   6.384  72.559  1.00  0.00    -0.151 F  
ENDBRANCH  15  22
ENDBRANCH  10  13
ENDBRANCH   3   6
TORSDOF 3
ENDMDL
MODEL       34
REMARK 921   NORMALIZED FREE ENERGY PREDICTED BY IDOCK:   -6.31 KCAL/MOL
REMARK 922        TOTAL FREE ENERGY PREDICTED BY IDOCK:   -8.34 KCAL/MOL
REMARK 923 INTER-LIGAND FREE ENERGY PREDICTED BY IDOCK:   -7.28 KCAL/MOL
REMARK 924 INTRA-LIGAND FREE ENERGY PREDICTED BY IDOCK:   -1.06 KCAL/MOL
REMARK 927      BINDING AFFINITY PREDICTED BY RF-SCORE:    0.00 PKD
ROOT
HETATM    1  C   UNL     1      -5.764  21.108  68.071  1.00  0.00    -0.342 C  
HETATM    2  N   UNL     1      -6.359  19.798  68.047  1.00  0.00    -0.224 N  
HETATM    3  C   UNL     1      -7.651  19.604  67.614  1.00  0.00    -0.276 C  
HETATM    4  H   UNL     1      -5.811  18.996  68.357  1.00  0.00     0.000 HD 
HETATM    5  O   UNL     1      -8.374  20.508  67.213  1.00  0.00    -0.337 OA 
ENDROOT
BRANCH   3   6
HETATM    6  C   UNL     1      -8.137  18.204  67.598  1.00  0.00    -0.234 A  
HETATM    7  C   UNL     1      -7.888  17.333  66.539  1.00  0.00    -0.287 A  
HETATM    8  F   UNL     1      -7.154  17.722  65.485  1.00  0.00    -0.305 F  
HETATM    9  C   UNL     1      -8.404  16.034  66.528  1.00  0.00    -0.348 A  
HETATM   10  C   UNL     1      -9.213  15.586  67.573  1.00  0.00    -0.198 A  
HETATM   11  C   UNL     1      -9.416  16.452  68.662  1.00  0.00    -0.239 A  
HETATM   12  C   UNL     1      -8.885  17.745  68.681  1.00  0.00    -0.263 A  
BRANCH  10  13
HETATM   13  N   UNL     1      -9.796  14.288  67.585  1.00  0.00    -0.222 N  
HETATM   14  C   UNL     1      -9.072  13.070  67.621  1.00  0.00    -0.198 C  
HETATM   15  N   UNL     1      -9.846  12.108  66.978  1.00  0.00    -0.201 N  
HETATM   16  S   UNL     1      -7.661  12.858  68.514  1.00  0.00    -0.093 S  
HETATM   17  C   UNL     1     -11.899  13.992  68.870  1.00  0.00    -0.390 C  
HETATM   18  C   UNL     1     -11.156  12.558  66.970  1.00  0.00    -0.281 C  
HETATM   19  C   UNL     1     -12.001  14.832  66.469  1.00  0.00    -0.193 C  
HETATM   20  C   UNL     1     -11.218  14.008  67.494  1.00  0.00    -0.309 C  
HETATM   21  O   UNL     1     -12.172  11.937  66.673  1.00  0.00    -0.493 OA 
BRANCH  15  22
HETATM   22  C   UNL     1      -9.401  10.872  66.382  1.00  0.00    -0.176 A  
HETATM   23  C   UNL     1      -9.377   8.420  66.278  1.00  0.00    -0.283 A  
HETATM   24  C   UNL     1      -9.815   9.622  66.860  1.00  0.00    -0.257 A  
HETATM   25  C   UNL     1      -8.489   8.418  65.198  1.00  0.00    -0.179 A  
HETATM   26  C   UNL     1      -8.083   9.641  64.661  1.00  0.00    -0.141 A  
HETATM   27  C   UNL     1      -8.041   7.151  64.695  1.00  0.00    -0.083 C  
HETATM   28  C   UNL     1      -8.585  10.838  65.236  1.00  0.00    -0.153 A  
HETATM   29  N   UNL     1      -7.693   6.108  64.316  1.00  0.00    -0.100 NA 
HETATM   30  C   UNL     1      -7.125   9.778  63.498  1.00  0.00    -0.115 C  
HETATM   31  F   UNL     1      -6.056  10.558  63.818  1.00  0.00    -0.140 F  
HETATM   32  F   UNL     1      -7.713  10.376  62.425  1.00  0.00    -0.129 F  
HETATM   33  F   UNL     1      -6.604   8.615  63.037  1.00  0.00    -0.089 F  
ENDBRANCH  15  22
ENDBRANCH  10  13
ENDBRANCH   3   6
TORSDOF 3
ENDMDL
MODEL       35
REMARK 921   NORMALIZED FREE ENERGY PREDICTED BY IDOCK:   -6.29 KCAL/MOL
REMARK 922        TOTAL FREE ENERGY PREDICTED BY IDOCK:   -8.31 KCAL/MOL
REMARK 923 INTER-LIGAND FREE ENERGY PREDICTED BY IDOCK:   -7.78 KCAL/MOL
REMARK 924 INTRA-LIGAND FREE ENERGY PREDICTED BY IDOCK:   -0.53 KCAL/MOL
REMARK 927      BINDING AFFINITY PREDICTED BY RF-SCORE:    0.00 PKD
ROOT
HETATM    1  C   UNL     1      -8.645  19.062  68.348  1.00  0.00    -0.348 C  
HETATM    2  N   UNL     1      -8.952  17.694  68.025  1.00  0.00    -0.258 N  
HETATM    3  C   UNL     1      -8.263  17.015  67.047  1.00  0.00    -0.204 C  
HETATM    4  H   UNL     1      -9.698  17.218  68.532  1.00  0.00     0.000 HD 
HETATM    5  O   UNL     1      -7.346  17.506  66.399  1.00  0.00    -0.242 OA 
ENDROOT
BRANCH   3   6
HETATM    6  C   UNL     1      -8.645  15.599  66.833  1.00  0.00    -0.281 A  
HETATM    7  C   UNL     1      -9.665  15.216  65.964  1.00  0.00    -0.330 A  
HETATM    8  F   UNL     1     -10.333  16.130  65.243  1.00  0.00    -0.354 F  
HETATM    9  C   UNL     1     -10.037  13.877  65.823  1.00  0.00    -0.336 A  
HETATM   10  C   UNL     1      -9.411  12.886  66.581  1.00  0.00    -0.255 A  
HETATM   11  C   UNL     1      -8.348  13.273  67.416  1.00  0.00    -0.193 A  
HETATM   12  C   UNL     1      -7.964  14.610  67.543  1.00  0.00    -0.208 A  
BRANCH  10  13
HETATM   13  N   UNL     1      -9.787  11.515  66.504  1.00  0.00    -0.198 N  
HETATM   14  C   UNL     1     -10.531  10.818  67.488  1.00  0.00    -0.220 C  
HETATM   15  N   UNL     1     -10.148   9.482  67.430  1.00  0.00    -0.193 N  
HETATM   16  S   UNL     1     -11.802  11.510  68.350  1.00  0.00    -0.216 S  
HETATM   17  C   UNL     1     -10.404  10.623  64.271  1.00  0.00    -0.325 C  
HETATM   18  C   UNL     1      -9.573   9.262  66.189  1.00  0.00    -0.260 C  
HETATM   19  C   UNL     1      -7.956  10.687  64.967  1.00  0.00    -0.013 C  
HETATM   20  C   UNL     1      -9.409  10.602  65.441  1.00  0.00    -0.210 C  
HETATM   21  O   UNL     1      -9.276   8.192  65.666  1.00  0.00    -0.108 OA 
BRANCH  15  22
HETATM   22  C   UNL     1     -10.273   8.482  68.463  1.00  0.00    -0.198 A  
HETATM   23  C   UNL     1     -10.493   6.145  69.179  1.00  0.00    -0.310 A  
HETATM   24  C   UNL     1     -10.368   7.116  68.170  1.00  0.00    -0.234 A  
HETATM   25  C   UNL     1     -10.545   6.504  70.529  1.00  0.00    -0.282 A  
HETATM   26  C   UNL     1     -10.411   7.852  70.871  1.00  0.00    -0.217 A  
HETATM   27  C   UNL     1     -10.732   5.463  71.498  1.00  0.00    -0.192 C  
HETATM   28  C   UNL     1     -10.232   8.803  69.832  1.00  0.00    -0.206 A  
HETATM   29  N   UNL     1     -10.891   4.596  72.256  1.00  0.00    -0.082 NA 
HETATM   30  C   UNL     1     -10.454   8.373  72.290  1.00  0.00    -0.337 C  
HETATM   31  F   UNL     1     -11.408   9.332  72.444  1.00  0.00    -0.347 F  
HETATM   32  F   UNL     1      -9.278   8.959  72.650  1.00  0.00    -0.308 F  
HETATM   33  F   UNL     1     -10.713   7.443  73.241  1.00  0.00    -0.315 F  
ENDBRANCH  15  22
ENDBRANCH  10  13
ENDBRANCH   3   6
TORSDOF 3
ENDMDL
MODEL       36
REMARK 921   NORMALIZED FREE ENERGY PREDICTED BY IDOCK:   -6.21 KCAL/MOL
REMARK 922        TOTAL FREE ENERGY PREDICTED BY IDOCK:   -8.21 KCAL/MOL
REMARK 923 INTER-LIGAND FREE ENERGY PREDICTED BY IDOCK:   -7.19 KCAL/MOL
REMARK 924 INTRA-LIGAND FREE ENERGY PREDICTED BY IDOCK:   -1.02 KCAL/MOL
REMARK 927      BINDING AFFINITY PREDICTED BY RF-SCORE:    0.00 PKD
ROOT
HETATM    1  C   UNL     1     -10.972   1.962  73.870  1.00  0.00    -0.170 C  
HETATM    2  N   UNL     1     -10.672   2.978  72.897  1.00  0.00    -0.122 N  
HETATM    3  C   UNL     1     -10.797   4.316  73.194  1.00  0.00    -0.219 C  
HETATM    4  H   UNL     1     -10.360   2.701  71.966  1.00  0.00     0.000 HD 
HETATM    5  O   UNL     1     -11.153   4.736  74.288  1.00  0.00    -0.289 OA 
ENDROOT
BRANCH   3   6
HETATM    6  C   UNL     1     -10.420   5.268  72.122  1.00  0.00    -0.278 A  
HETATM    7  C   UNL     1     -11.261   6.294  71.696  1.00  0.00    -0.285 A  
HETATM    8  F   UNL     1     -12.456   6.490  72.275  1.00  0.00    -0.325 F  
HETATM    9  C   UNL     1     -10.899   7.143  70.646  1.00  0.00    -0.268 A  
HETATM   10  C   UNL     1      -9.690   6.960  69.975  1.00  0.00    -0.167 A  
HETATM   11  C   UNL     1      -8.824   5.956  70.443  1.00  0.00    -0.146 A  
HETATM   12  C   UNL     1      -9.178   5.119  71.505  1.00  0.00    -0.177 A  
BRANCH  10  13
HETATM   13  N   UNL     1      -9.299   7.771  68.872  1.00  0.00    -0.147 N  
HETATM   14  C   UNL     1      -8.728   9.065  68.974  1.00  0.00    -0.138 C  
HETATM   15  N   UNL     1      -9.088   9.770  67.830  1.00  0.00    -0.121 N  
HETATM   16  S   UNL     1      -7.627   9.498  70.173  1.00  0.00    -0.157 S  
HETATM   17  C   UNL     1      -8.306   6.626  66.907  1.00  0.00    -0.114 C  
HETATM   18  C   UNL     1      -9.442   8.846  66.861  1.00  0.00    -0.177 C  
HETATM   19  C   UNL     1     -10.837   6.813  67.107  1.00  0.00    -0.462 C  
HETATM   20  C   UNL     1      -9.485   7.430  67.474  1.00  0.00    -0.138 C  
HETATM   21  O   UNL     1      -9.640   9.035  65.664  1.00  0.00    -0.247 OA 
BRANCH  15  22
HETATM   22  C   UNL     1      -9.134  11.201  67.653  1.00  0.00    -0.147 A  
HETATM   23  C   UNL     1      -8.033  13.351  67.221  1.00  0.00    -0.130 A  
HETATM   24  C   UNL     1      -7.985  11.957  67.390  1.00  0.00    -0.162 A  
HETATM   25  C   UNL     1      -9.238  14.053  67.323  1.00  0.00    -0.231 A  
HETATM   26  C   UNL     1     -10.416  13.336  67.541  1.00  0.00    -0.237 A  
HETATM   27  C   UNL     1      -9.199  15.481  67.196  1.00  0.00    -0.214 C  
HETATM   28  C   UNL     1     -10.342  11.922  67.654  1.00  0.00    -0.217 A  
HETATM   29  N   UNL     1      -9.133  16.638  67.095  1.00  0.00    -0.211 NA 
HETATM   30  C   UNL     1     -11.782  13.973  67.674  1.00  0.00    -0.377 C  
HETATM   31  F   UNL     1     -12.386  13.623  68.844  1.00  0.00    -0.379 F  
HETATM   32  F   UNL     1     -12.627  13.570  66.686  1.00  0.00    -0.396 F  
HETATM   33  F   UNL     1     -11.795  15.327  67.647  1.00  0.00    -0.347 F  
ENDBRANCH  15  22
ENDBRANCH  10  13
ENDBRANCH   3   6
TORSDOF 3
ENDMDL
MODEL       37
REMARK 921   NORMALIZED FREE ENERGY PREDICTED BY IDOCK:   -6.17 KCAL/MOL
REMARK 922        TOTAL FREE ENERGY PREDICTED BY IDOCK:   -8.17 KCAL/MOL
REMARK 923 INTER-LIGAND FREE ENERGY PREDICTED BY IDOCK:   -7.37 KCAL/MOL
REMARK 924 INTRA-LIGAND FREE ENERGY PREDICTED BY IDOCK:   -0.80 KCAL/MOL
REMARK 927      BINDING AFFINITY PREDICTED BY RF-SCORE:    0.00 PKD
ROOT
HETATM    1  C   UNL     1     -11.097   4.369  73.509  1.00  0.00    -0.303 C  
HETATM    2  N   UNL     1     -10.673   5.335  72.531  1.00  0.00    -0.226 N  
HETATM    3  C   UNL     1     -10.157   4.947  71.315  1.00  0.00    -0.199 C  
HETATM    4  H   UNL     1     -10.756   6.330  72.743  1.00  0.00     0.000 HD 
HETATM    5  O   UNL     1     -10.033   3.777  70.974  1.00  0.00    -0.167 OA 
ENDROOT
BRANCH   3   6
HETATM    6  C   UNL     1      -9.793   6.036  70.376  1.00  0.00    -0.222 A  
HETATM    7  C   UNL     1     -10.734   6.705  69.598  1.00  0.00    -0.260 A  
HETATM    8  F   UNL     1     -12.040   6.412  69.693  1.00  0.00    -0.416 F  
HETATM    9  C   UNL     1     -10.354   7.692  68.684  1.00  0.00    -0.220 A  
HETATM   10  C   UNL     1      -9.007   8.008  68.506  1.00  0.00    -0.133 A  
HETATM   11  C   UNL     1      -8.067   7.366  69.332  1.00  0.00    -0.129 A  
HETATM   12  C   UNL     1      -8.450   6.393  70.259  1.00  0.00    -0.135 A  
BRANCH  10  13
HETATM   13  N   UNL     1      -8.569   8.974  67.555  1.00  0.00    -0.120 N  
HETATM   14  C   UNL     1      -8.780  10.372  67.658  1.00  0.00    -0.118 C  
HETATM   15  N   UNL     1      -8.841  10.879  66.363  1.00  0.00    -0.165 N  
HETATM   16  S   UNL     1      -8.708  11.214  69.114  1.00  0.00     0.169 S  
HETATM   17  C   UNL     1      -6.374   8.587  66.464  1.00  0.00    -0.058 C  
HETATM   18  C   UNL     1      -8.230   9.962  65.523  1.00  0.00    -0.136 C  
HETATM   19  C   UNL     1      -8.465   7.495  65.505  1.00  0.00    -0.129 C  
HETATM   20  C   UNL     1      -7.899   8.672  66.304  1.00  0.00    -0.102 C  
HETATM   21  O   UNL     1      -7.907  10.103  64.348  1.00  0.00    -0.143 OA 
BRANCH  15  22
HETATM   22  C   UNL     1      -9.449  12.111  65.926  1.00  0.00    -0.179 A  
HETATM   23  C   UNL     1     -11.056  13.343  64.538  1.00  0.00    -0.396 A  
HETATM   24  C   UNL     1     -10.467  12.140  64.964  1.00  0.00    -0.326 A  
HETATM   25  C   UNL     1     -10.637  14.576  65.049  1.00  0.00    -0.458 A  
HETATM   26  C   UNL     1      -9.655  14.593  66.041  1.00  0.00    -0.322 A  
HETATM   27  C   UNL     1     -11.244  15.764  64.523  1.00  0.00    -0.322 C  
HETATM   28  C   UNL     1      -9.117  13.357  66.489  1.00  0.00    -0.128 A  
HETATM   29  N   UNL     1     -11.751  16.708  64.071  1.00  0.00    -1.036 NA 
HETATM   30  C   UNL     1      -9.112  15.856  66.672  1.00  0.00    -0.260 C  
HETATM   31  F   UNL     1      -7.758  15.932  66.556  1.00  0.00    -0.266 F  
HETATM   32  F   UNL     1      -9.373  15.907  68.007  1.00  0.00    -0.195 F  
HETATM   33  F   UNL     1      -9.589  17.014  66.154  1.00  0.00    -0.269 F  
ENDBRANCH  15  22
ENDBRANCH  10  13
ENDBRANCH   3   6
TORSDOF 3
ENDMDL
MODEL       38
REMARK 921   NORMALIZED FREE ENERGY PREDICTED BY IDOCK:   -6.16 KCAL/MOL
REMARK 922        TOTAL FREE ENERGY PREDICTED BY IDOCK:   -8.16 KCAL/MOL
REMARK 923 INTER-LIGAND FREE ENERGY PREDICTED BY IDOCK:   -7.09 KCAL/MOL
REMARK 924 INTRA-LIGAND FREE ENERGY PREDICTED BY IDOCK:   -1.07 KCAL/MOL
REMARK 927      BINDING AFFINITY PREDICTED BY RF-SCORE:    0.00 PKD
ROOT
HETATM    1  C   UNL     1      -9.202  20.510  67.419  1.00  0.00    -0.348 C  
HETATM    2  N   UNL     1      -9.500  19.121  67.193  1.00  0.00    -0.308 N  
HETATM    3  C   UNL     1      -8.762  18.363  66.313  1.00  0.00    -0.191 C  
HETATM    4  H   UNL     1     -10.275  18.689  67.696  1.00  0.00     0.000 HD 
HETATM    5  O   UNL     1      -7.809  18.798  65.678  1.00  0.00    -0.465 OA 
ENDROOT
BRANCH   3   6
HETATM    6  C   UNL     1      -9.141  16.934  66.196  1.00  0.00    -0.265 A  
HETATM    7  C   UNL     1     -10.335  16.516  65.612  1.00  0.00    -0.322 A  
HETATM    8  F   UNL     1     -11.193  17.406  65.088  1.00  0.00    -0.298 F  
HETATM    9  C   UNL     1     -10.688  15.165  65.563  1.00  0.00    -0.379 A  
HETATM   10  C   UNL     1      -9.860  14.198  66.132  1.00  0.00    -0.308 A  
HETATM   11  C   UNL     1      -8.633  14.621  66.674  1.00  0.00    -0.129 A  
HETATM   12  C   UNL     1      -8.271  15.970  66.705  1.00  0.00    -0.307 A  
BRANCH  10  13
HETATM   13  N   UNL     1     -10.199  12.815  66.146  1.00  0.00    -0.269 N  
HETATM   14  C   UNL     1     -10.375  12.031  67.314  1.00  0.00    -0.212 C  
HETATM   15  N   UNL     1     -10.037  10.721  66.991  1.00  0.00    -0.200 N  
HETATM   16  S   UNL     1     -11.101  12.613  68.718  1.00  0.00    -0.268 S  
HETATM   17  C   UNL     1     -11.780  12.009  64.411  1.00  0.00    -0.399 C  
HETATM   18  C   UNL     1     -10.114  10.595  65.613  1.00  0.00    -0.272 C  
HETATM   19  C   UNL     1      -9.295  12.161  63.876  1.00  0.00     0.277 C  
HETATM   20  C   UNL     1     -10.350  11.978  64.970  1.00  0.00    -0.281 C  
HETATM   21  O   UNL     1     -10.077   9.570  64.939  1.00  0.00     0.055 OA 
BRANCH  15  22
HETATM   22  C   UNL     1      -9.640   9.664  67.888  1.00  0.00    -0.139 A  
HETATM   23  C   UNL     1      -7.949   8.523  69.253  1.00  0.00    -0.111 A  
HETATM   24  C   UNL     1      -8.333   9.556  68.380  1.00  0.00    -0.118 A  
HETATM   25  C   UNL     1      -8.857   7.541  69.659  1.00  0.00    -0.141 A  
HETATM   26  C   UNL     1     -10.182   7.634  69.228  1.00  0.00    -0.210 A  
HETATM   27  C   UNL     1      -8.377   6.486  70.504  1.00  0.00    -0.133 C  
HETATM   28  C   UNL     1     -10.552   8.719  68.391  1.00  0.00    -0.185 A  
HETATM   29  N   UNL     1      -7.954   5.642  71.183  1.00  0.00    -0.109 NA 
HETATM   30  C   UNL     1     -11.261   6.637  69.592  1.00  0.00    -0.340 C  
HETATM   31  F   UNL     1     -11.855   6.115  68.484  1.00  0.00    -0.129 F  
HETATM   32  F   UNL     1     -12.262   7.215  70.312  1.00  0.00    -0.246 F  
HETATM   33  F   UNL     1     -10.845   5.572  70.319  1.00  0.00    -0.344 F  
ENDBRANCH  15  22
ENDBRANCH  10  13
ENDBRANCH   3   6
TORSDOF 3
ENDMDL
MODEL       39
REMARK 921   NORMALIZED FREE ENERGY PREDICTED BY IDOCK:   -6.13 KCAL/MOL
REMARK 922        TOTAL FREE ENERGY PREDICTED BY IDOCK:   -8.12 KCAL/MOL
REMARK 923 INTER-LIGAND FREE ENERGY PREDICTED BY IDOCK:   -7.52 KCAL/MOL
REMARK 924 INTRA-LIGAND FREE ENERGY PREDICTED BY IDOCK:   -0.60 KCAL/MOL
REMARK 927      BINDING AFFINITY PREDICTED BY RF-SCORE:    0.00 PKD
ROOT
HETATM    1  C   UNL     1      -7.962   2.130  63.174  1.00  0.00    -0.064 C  
HETATM    2  N   UNL     1      -8.198   3.421  63.762  1.00  0.00    -0.089 N  
HETATM    3  C   UNL     1      -8.213   3.597  65.127  1.00  0.00    -0.097 C  
HETATM    4  H   UNL     1      -8.357   4.225  63.154  1.00  0.00     0.000 HD 
HETATM    5  O   UNL     1      -8.020   2.691  65.928  1.00  0.00    -0.080 OA 
ENDROOT
BRANCH   3   6
HETATM    6  C   UNL     1      -8.426   4.982  65.611  1.00  0.00    -0.127 A  
HETATM    7  C   UNL     1      -9.647   5.425  66.115  1.00  0.00    -0.153 A  
HETATM    8  F   UNL     1     -10.693   4.589  66.219  1.00  0.00    -0.296 F  
HETATM    9  C   UNL     1      -9.833   6.751  66.516  1.00  0.00    -0.167 A  
HETATM   10  C   UNL     1      -8.798   7.678  66.388  1.00  0.00    -0.156 A  
HETATM   11  C   UNL     1      -7.553   7.213  65.927  1.00  0.00    -0.093 A  
HETATM   12  C   UNL     1      -7.363   5.882  65.545  1.00  0.00    -0.076 A  
BRANCH  10  13
HETATM   13  N   UNL     1      -8.953   9.048  66.741  1.00  0.00    -0.132 N  
HETATM   14  C   UNL     1      -9.240   9.527  68.044  1.00  0.00    -0.129 C  
HETATM   15  N   UNL     1      -9.945  10.718  67.903  1.00  0.00    -0.171 N  
HETATM   16  S   UNL     1      -8.594   8.847  69.442  1.00  0.00    -0.136 S  
HETATM   17  C   UNL     1      -7.482  10.694  65.605  1.00  0.00    -0.093 C  
HETATM   18  C   UNL     1      -9.697  11.206  66.630  1.00  0.00    -0.196 C  
HETATM   19  C   UNL     1      -9.650   9.963  64.487  1.00  0.00    -0.290 C  
HETATM   20  C   UNL     1      -8.908  10.162  65.812  1.00  0.00    -0.158 C  
HETATM   21  O   UNL     1      -9.970  12.311  66.172  1.00  0.00    -0.233 OA 
BRANCH  15  22
HETATM   22  C   UNL     1     -10.814  11.349  68.866  1.00  0.00    -0.215 A  
HETATM   23  C   UNL     1     -11.819  13.349  69.872  1.00  0.00    -0.385 A  
HETATM   24  C   UNL     1     -10.973  12.739  68.930  1.00  0.00    -0.275 A  
HETATM   25  C   UNL     1     -12.533  12.591  70.805  1.00  0.00    -0.357 A  
HETATM   26  C   UNL     1     -12.439  11.198  70.751  1.00  0.00    -0.479 A  
HETATM   27  C   UNL     1     -13.330  13.288  71.772  1.00  0.00    -0.393 C  
HETATM   28  C   UNL     1     -11.618  10.609  69.753  1.00  0.00    -0.385 A  
HETATM   29  N   UNL     1     -13.962  13.883  72.546  1.00  0.00    -0.701 NA 
HETATM   30  C   UNL     1     -13.156  10.265  71.701  1.00  0.00    -0.449 C  
HETATM   31  F   UNL     1     -12.287   9.425  72.329  1.00  0.00    -0.423 F  
HETATM   32  F   UNL     1     -14.043   9.462  71.050  1.00  0.00    -0.373 F  
HETATM   33  F   UNL     1     -13.857  10.871  72.690  1.00  0.00    -0.149 F  
ENDBRANCH  15  22
ENDBRANCH  10  13
ENDBRANCH   3   6
TORSDOF 3
ENDMDL
MODEL       40
REMARK 921   NORMALIZED FREE ENERGY PREDICTED BY IDOCK:   -6.10 KCAL/MOL
REMARK 922        TOTAL FREE ENERGY PREDICTED BY IDOCK:   -8.08 KCAL/MOL
REMARK 923 INTER-LIGAND FREE ENERGY PREDICTED BY IDOCK:   -7.89 KCAL/MOL
REMARK 924 INTRA-LIGAND FREE ENERGY PREDICTED BY IDOCK:   -0.19 KCAL/MOL
REMARK 927      BINDING AFFINITY PREDICTED BY RF-SCORE:    0.00 PKD
ROOT
HETATM    1  C   UNL     1      -5.497   2.556  68.261  1.00  0.00    -0.017 C  
HETATM    2  N   UNL     1      -6.555   3.474  68.590  1.00  0.00    -0.040 N  
HETATM    3  C   UNL     1      -6.685   3.994  69.858  1.00  0.00    -0.034 C  
HETATM    4  H   UNL     1      -7.222   3.746  67.868  1.00  0.00     0.000 HD 
HETATM    5  O   UNL     1      -5.922   3.732  70.779  1.00  0.00    -0.013 OA 
ENDROOT
BRANCH   3   6
HETATM    6  C   UNL     1      -7.790   4.961  70.063  1.00  0.00    -0.066 A  
HETATM    7  C   UNL     1      -9.133   4.603  69.963  1.00  0.00    -0.106 A  
HETATM    8  F   UNL     1      -9.489   3.334  69.706  1.00  0.00    -0.202 F  
HETATM    9  C   UNL     1     -10.152   5.548  70.110  1.00  0.00    -0.308 A  
HETATM   10  C   UNL     1      -9.843   6.890  70.331  1.00  0.00    -0.179 A  
HETATM   11  C   UNL     1      -8.488   7.236  70.483  1.00  0.00    -0.138 A  
HETATM   12  C   UNL     1      -7.471   6.287  70.354  1.00  0.00    -0.091 A  
BRANCH  10  13
HETATM   13  N   UNL     1     -10.845   7.895  70.444  1.00  0.00    -0.242 N  
HETATM   14  C   UNL     1     -11.007   8.987  69.554  1.00  0.00    -0.106 C  
HETATM   15  N   UNL     1     -11.563  10.036  70.280  1.00  0.00    -0.275 N  
HETATM   16  S   UNL     1     -10.776   8.867  67.891  1.00  0.00    -0.046 S  
HETATM   17  C   UNL     1     -13.087   7.189  71.239  1.00  0.00    -0.361 C  
HETATM   18  C   UNL     1     -12.158   9.497  71.410  1.00  0.00    -0.378 C  
HETATM   19  C   UNL     1     -11.273   7.755  72.933  1.00  0.00    -0.434 C  
HETATM   20  C   UNL     1     -11.812   7.997  71.521  1.00  0.00    -0.292 C  
HETATM   21  O   UNL     1     -12.911  10.045  72.209  1.00  0.00    -0.389 OA 
BRANCH  15  22
HETATM   22  C   UNL     1     -11.521  11.444  69.970  1.00  0.00    -0.247 A  
HETATM   23  C   UNL     1     -10.749  13.321  68.591  1.00  0.00    -0.281 A  
HETATM   24  C   UNL     1     -10.790  11.948  68.888  1.00  0.00    -0.261 A  
HETATM   25  C   UNL     1     -11.430  14.254  69.379  1.00  0.00    -0.337 A  
HETATM   26  C   UNL     1     -12.207  13.793  70.443  1.00  0.00    -0.433 A  
HETATM   27  C   UNL     1     -11.294  15.643  69.048  1.00  0.00    -0.330 C  
HETATM   28  C   UNL     1     -12.271  12.396  70.685  1.00  0.00    -0.368 A  
HETATM   29  N   UNL     1     -11.158  16.761  68.758  1.00  0.00    -0.273 NA 
HETATM   30  C   UNL     1     -12.988  14.696  71.373  1.00  0.00    -0.334 C  
HETATM   31  F   UNL     1     -12.648  14.490  72.675  1.00  0.00    -0.382 F  
HETATM   32  F   UNL     1     -14.328  14.462  71.298  1.00  0.00    -0.430 F  
HETATM   33  F   UNL     1     -12.829  16.025  71.160  1.00  0.00    -0.501 F  
ENDBRANCH  15  22
ENDBRANCH  10  13
ENDBRANCH   3   6
TORSDOF 3
ENDMDL
MODEL       41
REMARK 921   NORMALIZED FREE ENERGY PREDICTED BY IDOCK:   -6.10 KCAL/MOL
REMARK 922        TOTAL FREE ENERGY PREDICTED BY IDOCK:   -8.08 KCAL/MOL
REMARK 923 INTER-LIGAND FREE ENERGY PREDICTED BY IDOCK:   -7.03 KCAL/MOL
REMARK 924 INTRA-LIGAND FREE ENERGY PREDICTED BY IDOCK:   -1.05 KCAL/MOL
REMARK 927      BINDING AFFINITY PREDICTED BY RF-SCORE:    0.00 PKD
ROOT
HETATM    1  C   UNL     1      -9.971   1.861  73.379  1.00  0.00    -0.086 C  
HETATM    2  N   UNL     1      -9.619   3.067  72.679  1.00  0.00    -0.109 N  
HETATM    3  C   UNL     1     -10.386   4.205  72.779  1.00  0.00    -0.175 C  
HETATM    4  H   UNL     1      -8.782   3.079  72.096  1.00  0.00     0.000 HD 
HETATM    5  O   UNL     1     -11.398   4.282  73.466  1.00  0.00    -0.283 OA 
ENDROOT
BRANCH   3   6
HETATM    6  C   UNL     1      -9.898   5.396  72.043  1.00  0.00    -0.212 A  
HETATM    7  C   UNL     1      -9.132   6.392  72.645  1.00  0.00    -0.135 A  
HETATM    8  F   UNL     1      -8.767   6.295  73.933  1.00  0.00    -0.121 F  
HETATM    9  C   UNL     1      -8.729   7.528  71.938  1.00  0.00    -0.132 A  
HETATM   10  C   UNL     1      -9.117   7.708  70.609  1.00  0.00    -0.158 A  
HETATM   11  C   UNL     1      -9.845   6.675  69.993  1.00  0.00    -0.178 A  
HETATM   12  C   UNL     1     -10.231   5.529  70.695  1.00  0.00    -0.308 A  
BRANCH  10  13
HETATM   13  N   UNL     1      -8.769   8.869  69.863  1.00  0.00    -0.132 N  
HETATM   14  C   UNL     1      -9.690   9.831  69.376  1.00  0.00    -0.202 C  
HETATM   15  N   UNL     1      -9.143  10.382  68.222  1.00  0.00    -0.141 N  
HETATM   16  S   UNL     1     -11.050  10.327  70.236  1.00  0.00    -0.317 S  
HETATM   17  C   UNL     1      -6.665  10.033  70.476  1.00  0.00    -0.118 C  
HETATM   18  C   UNL     1      -7.778  10.146  68.248  1.00  0.00    -0.088 C  
HETATM   19  C   UNL     1      -6.588   8.063  68.866  1.00  0.00    -0.049 C  
HETATM   20  C   UNL     1      -7.428   9.213  69.426  1.00  0.00    -0.077 C  
HETATM   21  O   UNL     1      -6.909  10.621  67.523  1.00  0.00    -0.076 OA 
BRANCH  15  22
HETATM   22  C   UNL     1      -9.837  11.054  67.150  1.00  0.00    -0.184 A  
HETATM   23  C   UNL     1     -10.822  11.072  64.903  1.00  0.00    -0.211 A  
HETATM   24  C   UNL     1     -10.148  10.413  65.945  1.00  0.00    -0.326 A  
HETATM   25  C   UNL     1     -11.202  12.413  65.018  1.00  0.00    -0.354 A  
HETATM   26  C   UNL     1     -10.950  13.080  66.218  1.00  0.00    -0.303 A  
HETATM   27  C   UNL     1     -11.833  13.034  63.889  1.00  0.00    -0.477 C  
HETATM   28  C   UNL     1     -10.316  12.372  67.272  1.00  0.00    -0.227 A  
HETATM   29  N   UNL     1     -12.337  13.509  62.955  1.00  0.00    -0.567 NA 
HETATM   30  C   UNL     1     -11.306  14.529  66.470  1.00  0.00    -0.352 C  
HETATM   31  F   UNL     1     -10.218  15.253  66.854  1.00  0.00    -0.252 F  
HETATM   32  F   UNL     1     -12.212  14.660  67.478  1.00  0.00    -0.385 F  
HETATM   33  F   UNL     1     -11.829  15.191  65.409  1.00  0.00    -0.300 F  
ENDBRANCH  15  22
ENDBRANCH  10  13
ENDBRANCH   3   6
TORSDOF 3
ENDMDL
MODEL       42
REMARK 921   NORMALIZED FREE ENERGY PREDICTED BY IDOCK:   -6.08 KCAL/MOL
REMARK 922        TOTAL FREE ENERGY PREDICTED BY IDOCK:   -8.06 KCAL/MOL
REMARK 923 INTER-LIGAND FREE ENERGY PREDICTED BY IDOCK:   -7.31 KCAL/MOL
REMARK 924 INTRA-LIGAND FREE ENERGY PREDICTED BY IDOCK:   -0.76 KCAL/MOL
REMARK 927      BINDING AFFINITY PREDICTED BY RF-SCORE:    0.00 PKD
ROOT
HETATM    1  C   UNL     1      -5.890   1.528  68.570  1.00  0.00    -0.023 C  
HETATM    2  N   UNL     1      -6.768   2.660  68.700  1.00  0.00    -0.036 N  
HETATM    3  C   UNL     1      -6.748   3.459  69.821  1.00  0.00    -0.034 C  
HETATM    4  H   UNL     1      -7.420   2.875  67.946  1.00  0.00     0.000 HD 
HETATM    5  O   UNL     1      -5.990   3.281  70.766  1.00  0.00    -0.016 OA 
ENDROOT
BRANCH   3   6
HETATM    6  C   UNL     1      -7.673   4.618  69.820  1.00  0.00    -0.058 A  
HETATM    7  C   UNL     1      -9.047   4.486  70.006  1.00  0.00    -0.102 A  
HETATM    8  F   UNL     1      -9.598   3.284  70.233  1.00  0.00    -0.220 F  
HETATM    9  C   UNL     1      -9.900   5.592  69.948  1.00  0.00    -0.250 A  
HETATM   10  C   UNL     1      -9.392   6.861  69.668  1.00  0.00    -0.145 A  
HETATM   11  C   UNL     1      -7.998   6.995  69.534  1.00  0.00    -0.125 A  
HETATM   12  C   UNL     1      -7.144   5.892  69.610  1.00  0.00    -0.068 A  
BRANCH  10  13
HETATM   13  N   UNL     1     -10.226   8.009  69.556  1.00  0.00    -0.205 N  
HETATM   14  C   UNL     1     -10.423   8.760  68.369  1.00  0.00    -0.176 C  
HETATM   15  N   UNL     1     -10.700  10.070  68.747  1.00  0.00    -0.215 N  
HETATM   16  S   UNL     1     -10.531   8.062  66.841  1.00  0.00    -0.234 S  
HETATM   17  C   UNL     1     -12.343   8.015  70.852  1.00  0.00    -0.073 C  
HETATM   18  C   UNL     1     -11.128  10.046  70.065  1.00  0.00    -0.295 C  
HETATM   19  C   UNL     1     -10.183   8.771  71.968  1.00  0.00    -0.401 C  
HETATM   20  C   UNL     1     -10.950   8.629  70.650  1.00  0.00    -0.240 C  
HETATM   21  O   UNL     1     -11.643  10.951  70.715  1.00  0.00    -0.312 OA 
BRANCH  15  22
HETATM   22  C   UNL     1     -10.550  11.267  67.957  1.00  0.00    -0.195 A  
HETATM   23  C   UNL     1      -9.616  13.509  67.604  1.00  0.00    -0.222 A  
HETATM   24  C   UNL     1      -9.757  12.343  68.376  1.00  0.00    -0.189 A  
HETATM   25  C   UNL     1     -10.278  13.654  66.381  1.00  0.00    -0.292 A  
HETATM   26  C   UNL     1     -11.046  12.590  65.903  1.00  0.00    -0.334 A  
HETATM   27  C   UNL     1     -10.132  14.896  65.679  1.00  0.00    -0.359 C  
HETATM   28  C   UNL     1     -11.126  11.405  66.681  1.00  0.00    -0.333 A  
HETATM   29  N   UNL     1      -9.998  15.917  65.137  1.00  0.00    -0.402 NA 
HETATM   30  C   UNL     1     -11.814  12.620  64.601  1.00  0.00    -0.380 C  
HETATM   31  F   UNL     1     -13.134  12.343  64.790  1.00  0.00    -0.547 F  
HETATM   32  F   UNL     1     -11.360  11.682  63.724  1.00  0.00    -0.412 F  
HETATM   33  F   UNL     1     -11.781  13.800  63.935  1.00  0.00    -0.414 F  
ENDBRANCH  15  22
ENDBRANCH  10  13
ENDBRANCH   3   6
TORSDOF 3
ENDMDL
MODEL       43
REMARK 921   NORMALIZED FREE ENERGY PREDICTED BY IDOCK:   -5.99 KCAL/MOL
REMARK 922        TOTAL FREE ENERGY PREDICTED BY IDOCK:   -7.96 KCAL/MOL
REMARK 923 INTER-LIGAND FREE ENERGY PREDICTED BY IDOCK:   -7.78 KCAL/MOL
REMARK 924 INTRA-LIGAND FREE ENERGY PREDICTED BY IDOCK:   -0.18 KCAL/MOL
REMARK 927      BINDING AFFINITY PREDICTED BY RF-SCORE:    0.00 PKD
ROOT
HETATM    1  C   UNL     1      -7.483  20.079  66.197  1.00  0.00    -0.302 C  
HETATM    2  N   UNL     1      -8.013  18.764  66.441  1.00  0.00    -0.277 N  
HETATM    3  C   UNL     1      -8.842  18.511  67.510  1.00  0.00    -0.265 C  
HETATM    4  H   UNL     1      -7.770  18.003  65.807  1.00  0.00     0.000 HD 
HETATM    5  O   UNL     1      -9.194  19.368  68.312  1.00  0.00    -0.321 OA 
ENDROOT
BRANCH   3   6
HETATM    6  C   UNL     1      -9.357  17.126  67.632  1.00  0.00    -0.239 A  
HETATM    7  C   UNL     1      -8.766  16.173  68.460  1.00  0.00    -0.200 A  
HETATM    8  F   UNL     1      -7.708  16.486  69.224  1.00  0.00    -0.231 F  
HETATM    9  C   UNL     1      -9.242  14.860  68.515  1.00  0.00    -0.192 A  
HETATM   10  C   UNL     1     -10.310  14.462  67.710  1.00  0.00    -0.238 A  
HETATM   11  C   UNL     1     -10.934  15.441  66.916  1.00  0.00    -0.294 A  
HETATM   12  C   UNL     1     -10.469  16.759  66.876  1.00  0.00    -0.269 A  
BRANCH  10  13
HETATM   13  N   UNL     1     -10.801  13.126  67.698  1.00  0.00    -0.250 N  
HETATM   14  C   UNL     1     -11.337  12.445  68.820  1.00  0.00    -0.293 C  
HETATM   15  N   UNL     1     -11.087  11.088  68.641  1.00  0.00    -0.218 N  
HETATM   16  S   UNL     1     -12.300  13.192  69.982  1.00  0.00    -0.103 S  
HETATM   17  C   UNL     1     -12.012  12.372  65.667  1.00  0.00    -0.449 C  
HETATM   18  C   UNL     1     -10.851  10.878  67.292  1.00  0.00    -0.287 C  
HETATM   19  C   UNL     1      -9.471  12.230  65.741  1.00  0.00    -0.128 C  
HETATM   20  C   UNL     1     -10.767  12.232  66.556  1.00  0.00    -0.246 C  
HETATM   21  O   UNL     1     -10.776   9.812  66.690  1.00  0.00    -0.147 OA 
BRANCH  15  22
HETATM   22  C   UNL     1     -11.037  10.060  69.651  1.00  0.00    -0.259 A  
HETATM   23  C   UNL     1     -11.162   9.335  71.992  1.00  0.00    -0.205 A  
HETATM   24  C   UNL     1     -11.215  10.340  71.011  1.00  0.00    -0.220 A  
HETATM   25  C   UNL     1     -10.913   8.002  71.653  1.00  0.00    -0.288 A  
HETATM   26  C   UNL     1     -10.771   7.668  70.304  1.00  0.00    -0.244 A  
HETATM   27  C   UNL     1     -10.815   7.042  72.714  1.00  0.00    -0.288 C  
HETATM   28  C   UNL     1     -10.883   8.698  69.332  1.00  0.00    -0.108 A  
HETATM   29  N   UNL     1     -10.736   6.291  73.598  1.00  0.00    -0.255 NA 
HETATM   30  C   UNL     1     -10.495   6.268  69.804  1.00  0.00    -0.232 C  
HETATM   31  F   UNL     1      -9.376   6.223  69.030  1.00  0.00    -0.127 F  
HETATM   32  F   UNL     1     -11.507   5.801  69.020  1.00  0.00    -0.342 F  
HETATM   33  F   UNL     1     -10.310   5.334  70.768  1.00  0.00    -0.265 F  
ENDBRANCH  15  22
ENDBRANCH  10  13
ENDBRANCH   3   6
TORSDOF 3
ENDMDL
MODEL       44
REMARK 921   NORMALIZED FREE ENERGY PREDICTED BY IDOCK:   -5.99 KCAL/MOL
REMARK 922        TOTAL FREE ENERGY PREDICTED BY IDOCK:   -7.95 KCAL/MOL
REMARK 923 INTER-LIGAND FREE ENERGY PREDICTED BY IDOCK:   -6.90 KCAL/MOL
REMARK 924 INTRA-LIGAND FREE ENERGY PREDICTED BY IDOCK:   -1.05 KCAL/MOL
REMARK 927      BINDING AFFINITY PREDICTED BY RF-SCORE:    0.00 PKD
ROOT
HETATM    1  C   UNL     1     -10.313  20.542  67.611  1.00  0.00    -0.083 C  
HETATM    2  N   UNL     1     -10.344  19.131  67.330  1.00  0.00    -0.401 N  
HETATM    3  C   UNL     1     -10.019  18.200  68.290  1.00  0.00    -0.369 C  
HETATM    4  H   UNL     1     -10.613  18.814  66.399  1.00  0.00     0.000 HD 
HETATM    5  O   UNL     1      -9.698  18.492  69.436  1.00  0.00    -0.084 OA 
ENDROOT
BRANCH   3   6
HETATM    6  C   UNL     1     -10.128  16.776  67.891  1.00  0.00    -0.284 A  
HETATM    7  C   UNL     1      -9.021  16.005  67.543  1.00  0.00    -0.194 A  
HETATM    8  F   UNL     1      -7.782  16.519  67.590  1.00  0.00    -0.142 F  
HETATM    9  C   UNL     1      -9.160  14.680  67.121  1.00  0.00    -0.236 A  
HETATM   10  C   UNL     1     -10.426  14.105  67.007  1.00  0.00    -0.271 A  
HETATM   11  C   UNL     1     -11.534  14.872  67.410  1.00  0.00    -0.354 A  
HETATM   12  C   UNL     1     -11.392  16.190  67.850  1.00  0.00    -0.182 A  
BRANCH  10  13
HETATM   13  N   UNL     1     -10.620  12.774  66.540  1.00  0.00    -0.252 N  
HETATM   14  C   UNL     1     -10.519  11.607  67.338  1.00  0.00    -0.210 C  
HETATM   15  N   UNL     1     -10.114  10.568  66.506  1.00  0.00    -0.218 N  
HETATM   16  S   UNL     1     -11.051  11.529  68.934  1.00  0.00    -0.253 S  
HETATM   17  C   UNL     1     -12.385  12.410  64.833  1.00  0.00    -0.475 C  
HETATM   18  C   UNL     1     -10.410  10.934  65.203  1.00  0.00    -0.278 C  
HETATM   19  C   UNL     1     -10.054  13.123  64.099  1.00  0.00    -0.059 C  
HETATM   20  C   UNL     1     -10.886  12.401  65.163  1.00  0.00    -0.297 C  
HETATM   21  O   UNL     1     -10.387  10.236  64.193  1.00  0.00    -0.146 OA 
BRANCH  15  22
HETATM   22  C   UNL     1      -9.469   9.335  66.884  1.00  0.00    -0.161 A  
HETATM   23  C   UNL     1      -7.454   8.031  67.399  1.00  0.00    -0.093 A  
HETATM   24  C   UNL     1      -8.080   9.235  67.033  1.00  0.00    -0.112 A  
HETATM   25  C   UNL     1      -8.196   6.865  67.617  1.00  0.00    -0.117 A  
HETATM   26  C   UNL     1      -9.588   6.928  67.523  1.00  0.00    -0.150 A  
HETATM   27  C   UNL     1      -7.482   5.661  67.930  1.00  0.00    -0.077 C  
HETATM   28  C   UNL     1     -10.194   8.172  67.204  1.00  0.00    -0.366 A  
HETATM   29  N   UNL     1      -6.874   4.701  68.176  1.00  0.00    -0.054 NA 
HETATM   30  C   UNL     1     -10.503   5.742  67.731  1.00  0.00    -0.226 C  
HETATM   31  F   UNL     1     -11.314   5.540  66.656  1.00  0.00    -0.180 F  
HETATM   32  F   UNL     1     -11.336   5.926  68.793  1.00  0.00    -0.387 F  
HETATM   33  F   UNL     1      -9.880   4.559  67.946  1.00  0.00    -0.192 F  
ENDBRANCH  15  22
ENDBRANCH  10  13
ENDBRANCH   3   6
TORSDOF 3
ENDMDL
MODEL       45
REMARK 921   NORMALIZED FREE ENERGY PREDICTED BY IDOCK:   -5.97 KCAL/MOL
REMARK 922        TOTAL FREE ENERGY PREDICTED BY IDOCK:   -7.93 KCAL/MOL
REMARK 923 INTER-LIGAND FREE ENERGY PREDICTED BY IDOCK:   -6.81 KCAL/MOL
REMARK 924 INTRA-LIGAND FREE ENERGY PREDICTED BY IDOCK:   -1.13 KCAL/MOL
REMARK 927      BINDING AFFINITY PREDICTED BY RF-SCORE:    0.00 PKD
ROOT
HETATM    1  C   UNL     1      -6.782  18.626  65.863  1.00  0.00    -0.267 C  
HETATM    2  N   UNL     1      -7.205  17.261  66.023  1.00  0.00    -0.261 N  
HETATM    3  C   UNL     1      -8.361  16.942  66.699  1.00  0.00    -0.253 C  
HETATM    4  H   UNL     1      -6.637  16.513  65.626  1.00  0.00     0.000 HD 
HETATM    5  O   UNL     1      -9.108  17.776  67.195  1.00  0.00    -0.238 OA 
ENDROOT
BRANCH   3   6
HETATM    6  C   UNL     1      -8.712  15.503  66.762  1.00  0.00    -0.302 A  
HETATM    7  C   UNL     1      -8.067  14.607  67.613  1.00  0.00    -0.173 A  
HETATM    8  F   UNL     1      -7.107  15.025  68.453  1.00  0.00    -0.097 F  
HETATM    9  C   UNL     1      -8.384  13.246  67.613  1.00  0.00    -0.181 A  
HETATM   10  C   UNL     1      -9.340  12.744  66.729  1.00  0.00    -0.241 A  
HETATM   11  C   UNL     1     -10.024  13.661  65.911  1.00  0.00    -0.304 A  
HETATM   12  C   UNL     1      -9.719  15.025  65.925  1.00  0.00    -0.376 A  
BRANCH  10  13
HETATM   13  N   UNL     1      -9.665  11.359  66.662  1.00  0.00    -0.197 N  
HETATM   14  C   UNL     1     -10.430  10.654  67.624  1.00  0.00    -0.227 C  
HETATM   15  N   UNL     1      -9.999   9.331  67.610  1.00  0.00    -0.183 N  
HETATM   16  S   UNL     1     -11.762  11.317  68.414  1.00  0.00    -0.260 S  
HETATM   17  C   UNL     1     -10.148  10.407  64.421  1.00  0.00    -0.342 C  
HETATM   18  C   UNL     1      -9.361   9.110  66.400  1.00  0.00    -0.204 C  
HETATM   19  C   UNL     1      -7.738  10.568  65.226  1.00  0.00    -0.085 C  
HETATM   20  C   UNL     1      -9.208  10.441  65.635  1.00  0.00    -0.182 C  
HETATM   21  O   UNL     1      -9.003   8.042  65.912  1.00  0.00    -0.170 OA 
BRANCH  15  22
HETATM   22  C   UNL     1     -10.138   8.346  68.654  1.00  0.00    -0.193 A  
HETATM   23  C   UNL     1     -11.164   6.314  69.572  1.00  0.00    -0.500 A  
HETATM   24  C   UNL     1     -11.029   7.270  68.551  1.00  0.00    -0.029 A  
HETATM   25  C   UNL     1     -10.419   6.403  70.752  1.00  0.00    -0.270 A  
HETATM   26  C   UNL     1      -9.487   7.435  70.881  1.00  0.00    -0.165 A  
HETATM   27  C   UNL     1     -10.654   5.423  71.773  1.00  0.00    -0.222 C  
HETATM   28  C   UNL     1      -9.336   8.354  69.810  1.00  0.00    -0.158 A  
HETATM   29  N   UNL     1     -10.872   4.618  72.583  1.00  0.00    -0.182 NA 
HETATM   30  C   UNL     1      -8.623   7.646  72.105  1.00  0.00    -0.118 C  
HETATM   31  F   UNL     1      -8.774   8.899  72.616  1.00  0.00    -0.236 F  
HETATM   32  F   UNL     1      -7.298   7.521  71.817  1.00  0.00    -0.067 F  
HETATM   33  F   UNL     1      -8.862   6.799  73.136  1.00  0.00    -0.124 F  
ENDBRANCH  15  22
ENDBRANCH  10  13
ENDBRANCH   3   6
TORSDOF 3
ENDMDL
MODEL       46
REMARK 921   NORMALIZED FREE ENERGY PREDICTED BY IDOCK:   -5.95 KCAL/MOL
REMARK 922        TOTAL FREE ENERGY PREDICTED BY IDOCK:   -7.91 KCAL/MOL
REMARK 923 INTER-LIGAND FREE ENERGY PREDICTED BY IDOCK:   -7.72 KCAL/MOL
REMARK 924 INTRA-LIGAND FREE ENERGY PREDICTED BY IDOCK:   -0.19 KCAL/MOL
REMARK 927      BINDING AFFINITY PREDICTED BY RF-SCORE:    0.00 PKD
ROOT
HETATM    1  C   UNL     1     -10.747   2.413  73.800  1.00  0.00    -0.171 C  
HETATM    2  N   UNL     1     -10.388   3.266  72.699  1.00  0.00    -0.161 N  
HETATM    3  C   UNL     1     -10.399   4.637  72.819  1.00  0.00    -0.189 C  
HETATM    4  H   UNL     1     -10.120   2.845  71.809  1.00  0.00     0.000 HD 
HETATM    5  O   UNL     1     -10.695   5.224  73.853  1.00  0.00    -0.276 OA 
ENDROOT
BRANCH   3   6
HETATM    6  C   UNL     1      -9.970   5.406  71.627  1.00  0.00    -0.239 A  
HETATM    7  C   UNL     1      -8.641   5.752  71.391  1.00  0.00    -0.129 A  
HETATM    8  F   UNL     1      -7.669   5.364  72.232  1.00  0.00    -0.093 F  
HETATM    9  C   UNL     1      -8.274   6.522  70.284  1.00  0.00    -0.126 A  
HETATM   10  C   UNL     1      -9.244   6.994  69.400  1.00  0.00    -0.147 A  
HETATM   11  C   UNL     1     -10.576   6.599  69.614  1.00  0.00    -0.276 A  
HETATM   12  C   UNL     1     -10.940   5.812  70.711  1.00  0.00    -0.312 A  
BRANCH  10  13
HETATM   13  N   UNL     1      -8.924   7.819  68.284  1.00  0.00    -0.132 N  
HETATM   14  C   UNL     1      -9.179   9.211  68.200  1.00  0.00    -0.131 C  
HETATM   15  N   UNL     1      -9.367   9.519  66.856  1.00  0.00    -0.142 N  
HETATM   16  S   UNL     1      -9.018  10.262  69.506  1.00  0.00    -0.107 S  
HETATM   17  C   UNL     1      -6.814   7.331  67.072  1.00  0.00    -0.076 C  
HETATM   18  C   UNL     1      -8.793   8.503  66.108  1.00  0.00    -0.167 C  
HETATM   19  C   UNL     1      -8.934   6.056  66.470  1.00  0.00    -0.137 C  
HETATM   20  C   UNL     1      -8.349   7.353  67.036  1.00  0.00    -0.121 C  
HETATM   21  O   UNL     1      -8.574   8.477  64.901  1.00  0.00    -0.171 OA 
BRANCH  15  22
HETATM   22  C   UNL     1     -10.056  10.656  66.299  1.00  0.00    -0.235 A  
HETATM   23  C   UNL     1     -11.008  11.873  64.392  1.00  0.00    -0.392 A  
HETATM   24  C   UNL     1     -10.338  10.761  64.931  1.00  0.00    -0.369 A  
HETATM   25  C   UNL     1     -11.413  12.939  65.201  1.00  0.00    -0.348 A  
HETATM   26  C   UNL     1     -11.191  12.858  66.577  1.00  0.00    -0.340 A  
HETATM   27  C   UNL     1     -12.038  14.065  64.570  1.00  0.00    -0.459 C  
HETATM   28  C   UNL     1     -10.560  11.698  67.099  1.00  0.00    -0.269 A  
HETATM   29  N   UNL     1     -12.537  14.964  64.027  1.00  0.00    -0.786 NA 
HETATM   30  C   UNL     1     -11.575  13.942  67.560  1.00  0.00    -0.360 C  
HETATM   31  F   UNL     1     -10.506  14.353  68.296  1.00  0.00    -0.225 F  
HETATM   32  F   UNL     1     -12.499  13.505  68.461  1.00  0.00    -0.323 F  
HETATM   33  F   UNL     1     -12.094  15.066  67.010  1.00  0.00    -0.308 F  
ENDBRANCH  15  22
ENDBRANCH  10  13
ENDBRANCH   3   6
TORSDOF 3
ENDMDL
MODEL       47
REMARK 921   NORMALIZED FREE ENERGY PREDICTED BY IDOCK:   -5.92 KCAL/MOL
REMARK 922        TOTAL FREE ENERGY PREDICTED BY IDOCK:   -7.88 KCAL/MOL
REMARK 923 INTER-LIGAND FREE ENERGY PREDICTED BY IDOCK:   -6.99 KCAL/MOL
REMARK 924 INTRA-LIGAND FREE ENERGY PREDICTED BY IDOCK:   -0.89 KCAL/MOL
REMARK 927      BINDING AFFINITY PREDICTED BY RF-SCORE:    0.00 PKD
ROOT
HETATM    1  C   UNL     1      -8.732  19.712  66.120  1.00  0.00    -0.333 C  
HETATM    2  N   UNL     1      -8.768  18.300  66.393  1.00  0.00    -0.269 N  
HETATM    3  C   UNL     1      -9.825  17.724  67.060  1.00  0.00    -0.309 C  
HETATM    4  H   UNL     1      -7.993  17.713  66.085  1.00  0.00     0.000 HD 
HETATM    5  O   UNL     1     -10.801  18.351  67.453  1.00  0.00    -0.403 OA 
ENDROOT
BRANCH   3   6
HETATM    6  C   UNL     1      -9.765  16.254  67.245  1.00  0.00    -0.237 A  
HETATM    7  C   UNL     1      -9.242  15.660  68.392  1.00  0.00    -0.191 A  
HETATM    8  F   UNL     1      -8.795  16.409  69.412  1.00  0.00    -0.237 F  
HETATM    9  C   UNL     1      -9.152  14.271  68.516  1.00  0.00    -0.191 A  
HETATM   10  C   UNL     1      -9.558  13.441  67.471  1.00  0.00    -0.221 A  
HETATM   11  C   UNL     1     -10.133  14.045  66.338  1.00  0.00    -0.299 A  
HETATM   12  C   UNL     1     -10.240  15.433  66.222  1.00  0.00    -0.303 A  
BRANCH  10  13
HETATM   13  N   UNL     1      -9.443  12.023  67.533  1.00  0.00    -0.175 N  
HETATM   14  C   UNL     1     -10.300  11.168  68.272  1.00  0.00    -0.180 C  
HETATM   15  N   UNL     1      -9.556  10.051  68.638  1.00  0.00    -0.151 N  
HETATM   16  S   UNL     1     -11.958  11.421  68.417  1.00  0.00    -0.073 S  
HETATM   17  C   UNL     1      -8.745  10.841  65.466  1.00  0.00    -0.196 C  
HETATM   18  C   UNL     1      -8.466   9.974  67.787  1.00  0.00    -0.114 C  
HETATM   19  C   UNL     1      -6.975  11.800  67.024  1.00  0.00    -0.135 C  
HETATM   20  C   UNL     1      -8.395  11.239  66.907  1.00  0.00    -0.155 C  
HETATM   21  O   UNL     1      -7.673   9.047  67.647  1.00  0.00    -0.095 OA 
BRANCH  15  22
HETATM   22  C   UNL     1      -9.817   9.133  69.720  1.00  0.00    -0.181 A  
HETATM   23  C   UNL     1     -10.350   8.676  72.072  1.00  0.00    -0.416 A  
HETATM   24  C   UNL     1     -10.100   9.573  71.019  1.00  0.00    -0.299 A  
HETATM   25  C   UNL     1     -10.312   7.292  71.870  1.00  0.00    -0.210 A  
HETATM   26  C   UNL     1     -10.076   6.808  70.582  1.00  0.00    -0.204 A  
HETATM   27  C   UNL     1     -10.520   6.440  73.005  1.00  0.00    -0.230 C  
HETATM   28  C   UNL     1      -9.880   7.741  69.529  1.00  0.00    -0.179 A  
HETATM   29  N   UNL     1     -10.686   5.777  73.946  1.00  0.00    -0.233 NA 
HETATM   30  C   UNL     1     -10.005   5.339  70.231  1.00  0.00    -0.240 C  
HETATM   31  F   UNL     1      -8.830   5.025  69.619  1.00  0.00    -0.091 F  
HETATM   32  F   UNL     1     -10.985   4.979  69.356  1.00  0.00    -0.192 F  
HETATM   33  F   UNL     1     -10.110   4.487  71.279  1.00  0.00    -0.242 F  
ENDBRANCH  15  22
ENDBRANCH  10  13
ENDBRANCH   3   6
TORSDOF 3
ENDMDL
MODEL       48
REMARK 921   NORMALIZED FREE ENERGY PREDICTED BY IDOCK:   -5.87 KCAL/MOL
REMARK 922        TOTAL FREE ENERGY PREDICTED BY IDOCK:   -7.82 KCAL/MOL
REMARK 923 INTER-LIGAND FREE ENERGY PREDICTED BY IDOCK:   -6.90 KCAL/MOL
REMARK 924 INTRA-LIGAND FREE ENERGY PREDICTED BY IDOCK:   -0.92 KCAL/MOL
REMARK 927      BINDING AFFINITY PREDICTED BY RF-SCORE:    0.00 PKD
ROOT
HETATM    1  C   UNL     1      -6.614  19.970  69.339  1.00  0.00    -0.313 C  
HETATM    2  N   UNL     1      -7.237  18.744  68.915  1.00  0.00    -0.308 N  
HETATM    3  C   UNL     1      -8.429  18.745  68.227  1.00  0.00    -0.327 C  
HETATM    4  H   UNL     1      -6.785  17.855  69.129  1.00  0.00     0.000 HD 
HETATM    5  O   UNL     1      -9.032  19.765  67.918  1.00  0.00    -0.316 OA 
ENDROOT
BRANCH   3   6
HETATM    6  C   UNL     1      -8.949  17.421  67.809  1.00  0.00    -0.236 A  
HETATM    7  C   UNL     1      -8.260  16.582  66.936  1.00  0.00    -0.215 A  
HETATM    8  F   UNL     1      -7.055  16.928  66.456  1.00  0.00    -0.210 F  
HETATM    9  C   UNL     1      -8.800  15.362  66.520  1.00  0.00    -0.347 A  
HETATM   10  C   UNL     1     -10.068  14.968  66.948  1.00  0.00    -0.249 A  
HETATM   11  C   UNL     1     -10.736  15.795  67.869  1.00  0.00    -0.302 A  
HETATM   12  C   UNL     1     -10.187  17.006  68.299  1.00  0.00    -0.326 A  
BRANCH  10  13
HETATM   13  N   UNL     1     -10.678  13.757  66.515  1.00  0.00    -0.283 N  
HETATM   14  C   UNL     1     -10.460  12.482  67.098  1.00  0.00    -0.224 C  
HETATM   15  N   UNL     1     -10.639  11.532  66.097  1.00  0.00    -0.258 N  
HETATM   16  S   UNL     1     -10.272  12.242  68.753  1.00  0.00    -0.031 S  
HETATM   17  C   UNL     1     -13.032  13.876  65.739  1.00  0.00    -0.325 C  
HETATM   18  C   UNL     1     -11.387  12.119  65.088  1.00  0.00    -0.327 C  
HETATM   19  C   UNL     1     -11.143  14.381  64.109  1.00  0.00     0.125 C  
HETATM   20  C   UNL     1     -11.562  13.625  65.372  1.00  0.00    -0.321 C  
HETATM   21  O   UNL     1     -11.919  11.579  64.123  1.00  0.00    -0.185 OA 
BRANCH  15  22
HETATM   22  C   UNL     1     -10.128  10.184  66.058  1.00  0.00    -0.248 A  
HETATM   23  C   UNL     1     -10.177   7.843  66.792  1.00  0.00    -0.358 A  
HETATM   24  C   UNL     1     -10.680   9.155  66.831  1.00  0.00    -0.149 A  
HETATM   25  C   UNL     1      -9.084   7.508  65.986  1.00  0.00    -0.139 A  
HETATM   26  C   UNL     1      -8.529   8.493  65.166  1.00  0.00    -0.193 A  
HETATM   27  C   UNL     1      -8.590   6.163  66.045  1.00  0.00    -0.145 C  
HETATM   28  C   UNL     1      -9.093   9.795  65.188  1.00  0.00    -0.270 A  
HETATM   29  N   UNL     1      -8.211   5.066  66.120  1.00  0.00    -0.108 NA 
HETATM   30  C   UNL     1      -7.345   8.263  64.252  1.00  0.00    -0.093 C  
HETATM   31  F   UNL     1      -6.337   9.142  64.506  1.00  0.00    -0.071 F  
HETATM   32  F   UNL     1      -7.674   8.444  62.943  1.00  0.00    -0.103 F  
HETATM   33  F   UNL     1      -6.784   7.032  64.329  1.00  0.00    -0.042 F  
ENDBRANCH  15  22
ENDBRANCH  10  13
ENDBRANCH   3   6
TORSDOF 3
ENDMDL
MODEL       49
REMARK 921   NORMALIZED FREE ENERGY PREDICTED BY IDOCK:   -5.83 KCAL/MOL
REMARK 922        TOTAL FREE ENERGY PREDICTED BY IDOCK:   -7.77 KCAL/MOL
REMARK 923 INTER-LIGAND FREE ENERGY PREDICTED BY IDOCK:   -6.84 KCAL/MOL
REMARK 924 INTRA-LIGAND FREE ENERGY PREDICTED BY IDOCK:   -0.93 KCAL/MOL
REMARK 927      BINDING AFFINITY PREDICTED BY RF-SCORE:    0.00 PKD
ROOT
HETATM    1  C   UNL     1      -9.476   1.889  68.023  1.00  0.00    -0.143 C  
HETATM    2  N   UNL     1      -9.192   3.298  68.069  1.00  0.00    -0.176 N  
HETATM    3  C   UNL     1      -9.495   4.056  69.178  1.00  0.00    -0.178 C  
HETATM    4  H   UNL     1      -8.757   3.746  67.263  1.00  0.00     0.000 HD 
HETATM    5  O   UNL     1     -10.005   3.597  70.192  1.00  0.00    -0.094 OA 
ENDROOT
BRANCH   3   6
HETATM    6  C   UNL     1      -9.117   5.488  69.120  1.00  0.00    -0.127 A  
HETATM    7  C   UNL     1      -8.671   6.195  70.235  1.00  0.00    -0.145 A  
HETATM    8  F   UNL     1      -8.528   5.587  71.424  1.00  0.00    -0.118 F  
HETATM    9  C   UNL     1      -8.372   7.558  70.162  1.00  0.00    -0.134 A  
HETATM   10  C   UNL     1      -8.546   8.256  68.966  1.00  0.00    -0.135 A  
HETATM   11  C   UNL     1      -8.946   7.525  67.832  1.00  0.00    -0.131 A  
HETATM   12  C   UNL     1      -9.227   6.158  67.902  1.00  0.00    -0.115 A  
BRANCH  10  13
HETATM   13  N   UNL     1      -8.297   9.653  68.854  1.00  0.00    -0.112 N  
HETATM   14  C   UNL     1      -9.289  10.642  68.637  1.00  0.00    -0.177 C  
HETATM   15  N   UNL     1      -8.686  11.691  67.950  1.00  0.00    -0.147 N  
HETATM   16  S   UNL     1     -10.820  10.585  69.334  1.00  0.00    -0.266 S  
HETATM   17  C   UNL     1      -6.527  10.617  70.302  1.00  0.00    -0.138 C  
HETATM   18  C   UNL     1      -7.318  11.593  68.148  1.00  0.00    -0.092 C  
HETATM   19  C   UNL     1      -5.893   9.568  68.070  1.00  0.00    -0.041 C  
HETATM   20  C   UNL     1      -6.986  10.274  68.877  1.00  0.00    -0.065 C  
HETATM   21  O   UNL     1      -6.449  12.415  67.875  1.00  0.00    -0.072 OA 
BRANCH  15  22
HETATM   22  C   UNL     1      -9.326  12.698  67.139  1.00  0.00    -0.210 A  
HETATM   23  C   UNL     1     -10.433  13.408  65.067  1.00  0.00    -0.378 A  
HETATM   24  C   UNL     1      -9.813  12.424  65.855  1.00  0.00    -0.265 A  
HETATM   25  C   UNL     1     -10.578  14.721  65.528  1.00  0.00    -0.374 A  
HETATM   26  C   UNL     1     -10.146  15.030  66.819  1.00  0.00    -0.257 A  
HETATM   27  C   UNL     1     -11.168  15.684  64.643  1.00  0.00    -0.369 C  
HETATM   28  C   UNL     1      -9.572  14.001  67.610  1.00  0.00    -0.221 A  
HETATM   29  N   UNL     1     -11.645  16.441  63.901  1.00  0.00    -1.054 NA 
HETATM   30  C   UNL     1     -10.241  16.409  67.434  1.00  0.00    -0.281 C  
HETATM   31  F   UNL     1      -9.027  16.851  67.864  1.00  0.00    -0.212 F  
HETATM   32  F   UNL     1     -11.048  16.420  68.530  1.00  0.00    -0.304 F  
HETATM   33  F   UNL     1     -10.713  17.379  66.614  1.00  0.00    -0.303 F  
ENDBRANCH  15  22
ENDBRANCH  10  13
ENDBRANCH   3   6
TORSDOF 3
ENDMDL
MODEL       50
REMARK 921   NORMALIZED FREE ENERGY PREDICTED BY IDOCK:   -5.79 KCAL/MOL
REMARK 922        TOTAL FREE ENERGY PREDICTED BY IDOCK:   -7.72 KCAL/MOL
REMARK 923 INTER-LIGAND FREE ENERGY PREDICTED BY IDOCK:   -6.79 KCAL/MOL
REMARK 924 INTRA-LIGAND FREE ENERGY PREDICTED BY IDOCK:   -0.93 KCAL/MOL
REMARK 927      BINDING AFFINITY PREDICTED BY RF-SCORE:    0.00 PKD
ROOT
HETATM    1  C   UNL     1     -10.462  16.047  65.442  1.00  0.00    -0.392 C  
HETATM    2  N   UNL     1     -10.618  14.985  66.399  1.00  0.00    -0.302 N  
HETATM    3  C   UNL     1     -11.711  14.149  66.372  1.00  0.00    -0.390 C  
HETATM    4  H   UNL     1      -9.903  14.848  67.113  1.00  0.00     0.000 HD 
HETATM    5  O   UNL     1     -12.609  14.234  65.543  1.00  0.00    -0.458 OA 
ENDROOT
BRANCH   3   6
HETATM    6  C   UNL     1     -11.739  13.067  67.385  1.00  0.00    -0.427 A  
HETATM    7  C   UNL     1     -11.913  13.313  68.746  1.00  0.00    -0.300 A  
HETATM    8  F   UNL     1     -12.103  14.562  69.200  1.00  0.00    -0.326 F  
HETATM    9  C   UNL     1     -11.883  12.277  69.683  1.00  0.00    -0.393 A  
HETATM   10  C   UNL     1     -11.643  10.964  69.277  1.00  0.00    -0.318 A  
HETATM   11  C   UNL     1     -11.520  10.716  67.898  1.00  0.00    -0.261 A  
HETATM   12  C   UNL     1     -11.569  11.750  66.959  1.00  0.00    -0.321 A  
BRANCH  10  13
HETATM   13  N   UNL     1     -11.559   9.883  70.199  1.00  0.00    -0.243 N  
HETATM   14  C   UNL     1     -10.452   9.006  70.328  1.00  0.00    -0.215 C  
HETATM   15  N   UNL     1     -10.942   7.782  70.773  1.00  0.00    -0.248 N  
HETATM   16  S   UNL     1      -8.852   9.510  70.188  1.00  0.00    -0.238 S  
HETATM   17  C   UNL     1     -12.564  10.216  72.444  1.00  0.00     0.166 C  
HETATM   18  C   UNL     1     -12.182   8.009  71.348  1.00  0.00    -0.309 C  
HETATM   19  C   UNL     1     -14.029   9.435  70.513  1.00  0.00     0.641 C  
HETATM   20  C   UNL     1     -12.616   9.469  71.103  1.00  0.00    -0.301 C  
HETATM   21  O   UNL     1     -12.861   7.240  72.021  1.00  0.00    -0.270 OA 
BRANCH  15  22
HETATM   22  C   UNL     1     -10.322   6.486  70.648  1.00  0.00    -0.201 A  
HETATM   23  C   UNL     1      -9.421   4.428  71.636  1.00  0.00    -0.214 A  
HETATM   24  C   UNL     1     -10.028   5.689  71.762  1.00  0.00    -0.222 A  
HETATM   25  C   UNL     1      -9.068   3.914  70.384  1.00  0.00    -0.188 A  
HETATM   26  C   UNL     1      -9.382   4.654  69.243  1.00  0.00    -0.207 A  
HETATM   27  C   UNL     1      -8.400   2.646  70.340  1.00  0.00    -0.045 C  
HETATM   28  C   UNL     1     -10.043   5.901  69.399  1.00  0.00    -0.260 A  
HETATM   29  N   UNL     1      -7.854   1.619  70.339  1.00  0.00    -0.039 NA 
HETATM   30  C   UNL     1      -9.052   4.215  67.833  1.00  0.00    -0.136 C  
HETATM   31  F   UNL     1      -8.318   5.154  67.174  1.00  0.00    -0.107 F  
HETATM   32  F   UNL     1     -10.174   4.030  67.085  1.00  0.00    -0.196 F  
HETATM   33  F   UNL     1      -8.344   3.064  67.735  1.00  0.00    -0.076 F  
ENDBRANCH  15  22
ENDBRANCH  10  13
ENDBRANCH   3   6
TORSDOF 3
ENDMDL
MODEL       51
REMARK 921   NORMALIZED FREE ENERGY PREDICTED BY IDOCK:   -5.70 KCAL/MOL
REMARK 922        TOTAL FREE ENERGY PREDICTED BY IDOCK:   -7.62 KCAL/MOL
REMARK 923 INTER-LIGAND FREE ENERGY PREDICTED BY IDOCK:   -6.90 KCAL/MOL
REMARK 924 INTRA-LIGAND FREE ENERGY PREDICTED BY IDOCK:   -0.72 KCAL/MOL
REMARK 927      BINDING AFFINITY PREDICTED BY RF-SCORE:    0.00 PKD
ROOT
HETATM    1  C   UNL     1     -10.971  19.834  65.535  1.00  0.00    -0.027 C  
HETATM    2  N   UNL     1     -10.325  18.682  66.107  1.00  0.00    -0.441 N  
HETATM    3  C   UNL     1     -10.512  17.422  65.587  1.00  0.00    -0.165 C  
HETATM    4  H   UNL     1      -9.715  18.802  66.916  1.00  0.00     0.000 HD 
HETATM    5  O   UNL     1     -11.217  17.189  64.612  1.00  0.00    -1.003 OA 
ENDROOT
BRANCH   3   6
HETATM    6  C   UNL     1      -9.761  16.322  66.238  1.00  0.00    -0.329 A  
HETATM    7  C   UNL     1      -8.370  16.294  66.302  1.00  0.00    -0.308 A  
HETATM    8  F   UNL     1      -7.638  17.300  65.798  1.00  0.00    -0.325 F  
HETATM    9  C   UNL     1      -7.688  15.218  66.877  1.00  0.00    -0.108 A  
HETATM   10  C   UNL     1      -8.392  14.122  67.376  1.00  0.00    -0.197 A  
HETATM   11  C   UNL     1      -9.797  14.179  67.355  1.00  0.00    -0.239 A  
HETATM   12  C   UNL     1     -10.479  15.264  66.797  1.00  0.00    -0.293 A  
BRANCH  10  13
HETATM   13  N   UNL     1      -7.740  12.984  67.930  1.00  0.00    -0.129 N  
HETATM   14  C   UNL     1      -8.085  11.636  67.660  1.00  0.00    -0.140 C  
HETATM   15  N   UNL     1      -7.750  10.888  68.784  1.00  0.00    -0.120 N  
HETATM   16  S   UNL     1      -8.573  11.091  66.143  1.00  0.00    -0.169 S  
HETATM   17  C   UNL     1      -5.283  13.118  68.249  1.00  0.00    -0.086 C  
HETATM   18  C   UNL     1      -6.821  11.615  69.511  1.00  0.00    -0.051 C  
HETATM   19  C   UNL     1      -6.836  14.034  70.046  1.00  0.00     0.124 C  
HETATM   20  C   UNL     1      -6.667  13.026  68.906  1.00  0.00    -0.096 C  
HETATM   21  O   UNL     1      -6.135  11.242  70.458  1.00  0.00    -0.249 OA 
BRANCH  15  22
HETATM   22  C   UNL     1      -8.274   9.603  69.178  1.00  0.00    -0.120 A  
HETATM   23  C   UNL     1      -8.399   7.164  68.936  1.00  0.00    -0.126 A  
HETATM   24  C   UNL     1      -7.884   8.414  68.550  1.00  0.00    -0.120 A  
HETATM   25  C   UNL     1      -9.343   7.054  69.961  1.00  0.00    -0.158 A  
HETATM   26  C   UNL     1      -9.729   8.209  70.645  1.00  0.00    -0.184 A  
HETATM   27  C   UNL     1      -9.867   5.752  70.259  1.00  0.00    -0.189 C  
HETATM   28  C   UNL     1      -9.151   9.449  70.268  1.00  0.00    -0.283 A  
HETATM   29  N   UNL     1     -10.276   4.684  70.471  1.00  0.00    -0.195 NA 
HETATM   30  C   UNL     1     -10.742   8.227  71.768  1.00  0.00    -0.266 C  
HETATM   31  F   UNL     1     -11.761   9.093  71.510  1.00  0.00    -0.330 F  
HETATM   32  F   UNL     1     -10.190   8.644  72.941  1.00  0.00    -0.321 F  
HETATM   33  F   UNL     1     -11.333   7.037  72.036  1.00  0.00    -0.252 F  
ENDBRANCH  15  22
ENDBRANCH  10  13
ENDBRANCH   3   6
TORSDOF 3
ENDMDL
MODEL       52
REMARK 921   NORMALIZED FREE ENERGY PREDICTED BY IDOCK:   -5.69 KCAL/MOL
REMARK 922        TOTAL FREE ENERGY PREDICTED BY IDOCK:   -7.61 KCAL/MOL
REMARK 923 INTER-LIGAND FREE ENERGY PREDICTED BY IDOCK:   -7.27 KCAL/MOL
REMARK 924 INTRA-LIGAND FREE ENERGY PREDICTED BY IDOCK:   -0.34 KCAL/MOL
REMARK 927      BINDING AFFINITY PREDICTED BY RF-SCORE:    0.00 PKD
ROOT
HETATM    1  C   UNL     1      -8.212   1.840  64.500  1.00  0.00    -0.074 C  
HETATM    2  N   UNL     1      -8.143   3.183  65.011  1.00  0.00    -0.086 N  
HETATM    3  C   UNL     1      -8.795   3.545  66.167  1.00  0.00    -0.130 C  
HETATM    4  H   UNL     1      -7.600   3.882  64.504  1.00  0.00     0.000 HD 
HETATM    5  O   UNL     1      -9.458   2.768  66.843  1.00  0.00    -0.108 OA 
ENDROOT
BRANCH   3   6
HETATM    6  C   UNL     1      -8.615   4.948  66.613  1.00  0.00    -0.109 A  
HETATM    7  C   UNL     1      -8.470   5.299  67.954  1.00  0.00    -0.101 A  
HETATM    8  F   UNL     1      -8.451   4.360  68.913  1.00  0.00    -0.081 F  
HETATM    9  C   UNL     1      -8.355   6.635  68.348  1.00  0.00    -0.122 A  
HETATM   10  C   UNL     1      -8.415   7.658  67.402  1.00  0.00    -0.122 A  
HETATM   11  C   UNL     1      -8.509   7.294  66.047  1.00  0.00    -0.148 A  
HETATM   12  C   UNL     1      -8.605   5.957  65.651  1.00  0.00    -0.155 A  
BRANCH  10  13
HETATM   13  N   UNL     1      -8.346   9.034  67.760  1.00  0.00    -0.117 N  
HETATM   14  C   UNL     1      -9.374   9.985  67.540  1.00  0.00    -0.144 C  
HETATM   15  N   UNL     1      -8.765  11.226  67.382  1.00  0.00    -0.137 N  
HETATM   16  S   UNL     1     -11.012   9.632  67.706  1.00  0.00    -0.022 S  
HETATM   17  C   UNL     1      -7.183   9.607  69.876  1.00  0.00    -0.106 C  
HETATM   18  C   UNL     1      -7.500  11.149  67.942  1.00  0.00    -0.094 C  
HETATM   19  C   UNL     1      -5.833   9.327  67.735  1.00  0.00    -0.045 C  
HETATM   20  C   UNL     1      -7.191   9.691  68.343  1.00  0.00    -0.074 C  
HETATM   21  O   UNL     1      -6.715  12.062  68.179  1.00  0.00    -0.057 OA 
BRANCH  15  22
HETATM   22  C   UNL     1      -9.301  12.396  66.729  1.00  0.00    -0.220 A  
HETATM   23  C   UNL     1      -9.389  14.826  66.401  1.00  0.00    -0.320 A  
HETATM   24  C   UNL     1      -8.862  13.689  67.037  1.00  0.00    -0.233 A  
HETATM   25  C   UNL     1     -10.394  14.717  65.435  1.00  0.00    -0.406 A  
HETATM   26  C   UNL     1     -10.832  13.444  65.064  1.00  0.00    -0.337 A  
HETATM   27  C   UNL     1     -10.923  15.925  64.872  1.00  0.00    -0.411 C  
HETATM   28  C   UNL     1     -10.242  12.312  65.687  1.00  0.00    -0.287 A  
HETATM   29  N   UNL     1     -11.334  16.924  64.440  1.00  0.00    -1.090 NA 
HETATM   30  C   UNL     1     -11.913  13.187  64.037  1.00  0.00    -0.460 C  
HETATM   31  F   UNL     1     -12.921  12.430  64.549  1.00  0.00    -0.541 F  
HETATM   32  F   UNL     1     -11.438  12.496  62.964  1.00  0.00    -0.480 F  
HETATM   33  F   UNL     1     -12.508  14.296  63.533  1.00  0.00    -0.451 F  
ENDBRANCH  15  22
ENDBRANCH  10  13
ENDBRANCH   3   6
TORSDOF 3
ENDMDL
MODEL       53
REMARK 921   NORMALIZED FREE ENERGY PREDICTED BY IDOCK:   -5.66 KCAL/MOL
REMARK 922        TOTAL FREE ENERGY PREDICTED BY IDOCK:   -7.57 KCAL/MOL
REMARK 923 INTER-LIGAND FREE ENERGY PREDICTED BY IDOCK:   -6.78 KCAL/MOL
REMARK 924 INTRA-LIGAND FREE ENERGY PREDICTED BY IDOCK:   -0.79 KCAL/MOL
REMARK 927      BINDING AFFINITY PREDICTED BY RF-SCORE:    0.00 PKD
ROOT
HETATM    1  C   UNL     1     -11.293   1.685  62.848  1.00  0.00    -0.267 C  
HETATM    2  N   UNL     1     -10.924   2.541  63.944  1.00  0.00    -0.460 N  
HETATM    3  C   UNL     1      -9.606   2.818  64.227  1.00  0.00    -0.152 C  
HETATM    4  H   UNL     1     -11.656   2.951  64.525  1.00  0.00     0.000 HD 
HETATM    5  O   UNL     1      -8.667   2.378  63.576  1.00  0.00    -0.085 OA 
ENDROOT
BRANCH   3   6
HETATM    6  C   UNL     1      -9.355   3.745  65.357  1.00  0.00    -0.159 A  
HETATM    7  C   UNL     1      -9.161   3.304  66.664  1.00  0.00    -0.165 A  
HETATM    8  F   UNL     1      -9.157   1.994  66.955  1.00  0.00    -0.133 F  
HETATM    9  C   UNL     1      -8.978   4.205  67.717  1.00  0.00    -0.142 A  
HETATM   10  C   UNL     1      -9.018   5.580  67.484  1.00  0.00    -0.107 A  
HETATM   11  C   UNL     1      -9.162   6.017  66.156  1.00  0.00    -0.154 A  
HETATM   12  C   UNL     1      -9.326   5.115  65.101  1.00  0.00    -0.011 A  
BRANCH  10  13
HETATM   13  N   UNL     1      -8.881   6.535  68.531  1.00  0.00    -0.121 N  
HETATM   14  C   UNL     1      -9.950   7.057  69.303  1.00  0.00    -0.162 C  
HETATM   15  N   UNL     1      -9.587   8.339  69.702  1.00  0.00    -0.167 N  
HETATM   16  S   UNL     1     -11.266   6.134  69.802  1.00  0.00    -0.365 S  
HETATM   17  C   UNL     1      -6.875   6.361  69.981  1.00  0.00    -0.054 C  
HETATM   18  C   UNL     1      -8.208   8.435  69.607  1.00  0.00    -0.117 C  
HETATM   19  C   UNL     1      -6.730   7.639  67.784  1.00  0.00    -0.067 C  
HETATM   20  C   UNL     1      -7.638   7.173  68.925  1.00  0.00    -0.100 C  
HETATM   21  O   UNL     1      -7.475   9.321  70.036  1.00  0.00    -0.071 OA 
BRANCH  15  22
HETATM   22  C   UNL     1     -10.455   9.415  70.112  1.00  0.00    -0.240 A  
HETATM   23  C   UNL     1     -12.038  10.417  71.699  1.00  0.00    -0.259 A  
HETATM   24  C   UNL     1     -11.190   9.368  71.304  1.00  0.00    -0.437 A  
HETATM   25  C   UNL     1     -12.198  11.557  70.906  1.00  0.00    -0.425 A  
HETATM   26  C   UNL     1     -11.453  11.667  69.730  1.00  0.00    -0.339 A  
HETATM   27  C   UNL     1     -13.126  12.559  71.346  1.00  0.00    -0.210 C  
HETATM   28  C   UNL     1     -10.565  10.615  69.385  1.00  0.00    -0.270 A  
HETATM   29  N   UNL     1     -13.889  13.349  71.728  1.00  0.00    -0.258 NA 
HETATM   30  C   UNL     1     -11.537  12.844  68.784  1.00  0.00    -0.311 C  
HETATM   31  F   UNL     1     -11.843  12.449  67.517  1.00  0.00    -0.376 F  
HETATM   32  F   UNL     1     -10.349  13.503  68.689  1.00  0.00    -0.230 F  
HETATM   33  F   UNL     1     -12.459  13.783  69.106  1.00  0.00    -0.364 F  
ENDBRANCH  15  22
ENDBRANCH  10  13
ENDBRANCH   3   6
TORSDOF 3
ENDMDL
MODEL       54
REMARK 921   NORMALIZED FREE ENERGY PREDICTED BY IDOCK:   -5.60 KCAL/MOL
REMARK 922        TOTAL FREE ENERGY PREDICTED BY IDOCK:   -7.50 KCAL/MOL
REMARK 923 INTER-LIGAND FREE ENERGY PREDICTED BY IDOCK:   -6.82 KCAL/MOL
REMARK 924 INTRA-LIGAND FREE ENERGY PREDICTED BY IDOCK:   -0.68 KCAL/MOL
REMARK 927      BINDING AFFINITY PREDICTED BY RF-SCORE:    0.00 PKD
ROOT
HETATM    1  C   UNL     1     -10.614   3.254  63.792  1.00  0.00    -0.246 C  
HETATM    2  N   UNL     1     -10.340   4.486  64.482  1.00  0.00    -0.424 N  
HETATM    3  C   UNL     1      -9.865   4.495  65.774  1.00  0.00    -0.222 C  
HETATM    4  H   UNL     1     -10.501   5.372  64.004  1.00  0.00     0.000 HD 
HETATM    5  O   UNL     1      -9.633   3.479  66.417  1.00  0.00    -0.175 OA 
ENDROOT
BRANCH   3   6
HETATM    6  C   UNL     1      -9.583   5.826  66.363  1.00  0.00    -0.175 A  
HETATM    7  C   UNL     1     -10.069   6.216  67.609  1.00  0.00    -0.155 A  
HETATM    8  F   UNL     1     -10.798   5.374  68.358  1.00  0.00    -0.245 F  
HETATM    9  C   UNL     1      -9.830   7.497  68.116  1.00  0.00    -0.179 A  
HETATM   10  C   UNL     1      -9.118   8.432  67.364  1.00  0.00    -0.137 A  
HETATM   11  C   UNL     1      -8.586   8.014  66.131  1.00  0.00    -0.163 A  
HETATM   12  C   UNL     1      -8.810   6.728  65.633  1.00  0.00    -0.043 A  
BRANCH  10  13
HETATM   13  N   UNL     1      -8.888   9.761  67.819  1.00  0.00    -0.129 N  
HETATM   14  C   UNL     1      -9.821  10.825  67.733  1.00  0.00    -0.166 C  
HETATM   15  N   UNL     1      -9.095  12.007  67.631  1.00  0.00    -0.173 N  
HETATM   16  S   UNL     1     -11.476  10.625  67.972  1.00  0.00    -0.088 S  
HETATM   17  C   UNL     1      -7.561  10.043  69.897  1.00  0.00    -0.177 C  
HETATM   18  C   UNL     1      -7.817  11.759  68.106  1.00  0.00    -0.135 C  
HETATM   19  C   UNL     1      -6.363   9.803  67.663  1.00  0.00    -0.060 C  
HETATM   20  C   UNL     1      -7.641  10.250  68.378  1.00  0.00    -0.092 C  
HETATM   21  O   UNL     1      -6.930  12.567  68.362  1.00  0.00    -0.081 OA 
BRANCH  15  22
HETATM   22  C   UNL     1      -9.539  13.273  67.101  1.00  0.00    -0.240 A  
HETATM   23  C   UNL     1     -10.165  14.716  65.217  1.00  0.00    -0.421 A  
HETATM   24  C   UNL     1      -9.734  13.480  65.730  1.00  0.00    -0.156 A  
HETATM   25  C   UNL     1     -10.405  15.807  66.059  1.00  0.00    -0.356 A  
HETATM   26  C   UNL     1     -10.265  15.634  67.437  1.00  0.00    -0.264 A  
HETATM   27  C   UNL     1     -10.786  17.052  65.457  1.00  0.00    -0.138 C  
HETATM   28  C   UNL     1      -9.881  14.358  67.929  1.00  0.00    -0.224 A  
HETATM   29  N   UNL     1     -11.087  18.048  64.937  1.00  0.00    -0.484 NA 
HETATM   30  C   UNL     1     -10.491  16.731  68.454  1.00  0.00    -0.339 C  
HETATM   31  F   UNL     1      -9.399  16.910  69.249  1.00  0.00    -0.250 F  
HETATM   32  F   UNL     1     -11.519  16.437  69.297  1.00  0.00    -0.309 F  
HETATM   33  F   UNL     1     -10.770  17.952  67.937  1.00  0.00    -0.370 F  
ENDBRANCH  15  22
ENDBRANCH  10  13
ENDBRANCH   3   6
TORSDOF 3
ENDMDL
MODEL       55
REMARK 921   NORMALIZED FREE ENERGY PREDICTED BY IDOCK:   -5.59 KCAL/MOL
REMARK 922        TOTAL FREE ENERGY PREDICTED BY IDOCK:   -7.49 KCAL/MOL
REMARK 923 INTER-LIGAND FREE ENERGY PREDICTED BY IDOCK:   -6.34 KCAL/MOL
REMARK 924 INTRA-LIGAND FREE ENERGY PREDICTED BY IDOCK:   -1.14 KCAL/MOL
REMARK 927      BINDING AFFINITY PREDICTED BY RF-SCORE:    0.00 PKD
ROOT
HETATM    1  C   UNL     1      -5.263   2.051  72.355  1.00  0.00     0.000 C  
HETATM    2  N   UNL     1      -6.104   3.158  71.984  1.00  0.00    -0.013 N  
HETATM    3  C   UNL     1      -6.703   3.222  70.747  1.00  0.00    -0.032 C  
HETATM    4  H   UNL     1      -6.260   3.912  72.654  1.00  0.00     0.000 HD 
HETATM    5  O   UNL     1      -6.580   2.356  69.889  1.00  0.00    -0.032 OA 
ENDROOT
BRANCH   3   6
HETATM    6  C   UNL     1      -7.578   4.392  70.498  1.00  0.00    -0.052 A  
HETATM    7  C   UNL     1      -7.088   5.693  70.406  1.00  0.00    -0.066 A  
HETATM    8  F   UNL     1      -5.773   5.942  70.504  1.00  0.00    -0.011 F  
HETATM    9  C   UNL     1      -7.944   6.783  70.223  1.00  0.00    -0.115 A  
HETATM   10  C   UNL     1      -9.325   6.593  70.160  1.00  0.00    -0.158 A  
HETATM   11  C   UNL     1      -9.808   5.273  70.201  1.00  0.00    -0.290 A  
HETATM   12  C   UNL     1      -8.950   4.182  70.366  1.00  0.00    -0.152 A  
BRANCH  10  13
HETATM   13  N   UNL     1     -10.238   7.676  70.018  1.00  0.00    -0.208 N  
HETATM   14  C   UNL     1     -10.439   8.423  68.830  1.00  0.00    -0.189 C  
HETATM   15  N   UNL     1     -10.832   9.703  69.206  1.00  0.00    -0.222 N  
HETATM   16  S   UNL     1     -10.425   7.737  67.293  1.00  0.00    -0.318 S  
HETATM   17  C   UNL     1     -12.405   7.505  71.217  1.00  0.00    -0.356 C  
HETATM   18  C   UNL     1     -11.315   9.632  70.503  1.00  0.00    -0.296 C  
HETATM   19  C   UNL     1     -10.362   8.410  72.436  1.00  0.00    -0.399 C  
HETATM   20  C   UNL     1     -11.056   8.226  71.084  1.00  0.00    -0.250 C  
HETATM   21  O   UNL     1     -11.927  10.487  71.136  1.00  0.00    -0.352 OA 
BRANCH  15  22
HETATM   22  C   UNL     1     -10.739  10.918  68.433  1.00  0.00    -0.203 A  
HETATM   23  C   UNL     1     -11.727  12.606  66.951  1.00  0.00    -0.453 A  
HETATM   24  C   UNL     1     -11.823  11.424  67.705  1.00  0.00    -0.196 A  
HETATM   25  C   UNL     1     -10.531  13.327  66.881  1.00  0.00    -0.261 A  
HETATM   26  C   UNL     1      -9.436  12.883  67.626  1.00  0.00    -0.197 A  
HETATM   27  C   UNL     1     -10.494  14.491  66.044  1.00  0.00    -0.308 C  
HETATM   28  C   UNL     1      -9.580  11.715  68.420  1.00  0.00    -0.195 A  
HETATM   29  N   UNL     1     -10.495  15.426  65.353  1.00  0.00    -0.372 NA 
HETATM   30  C   UNL     1      -8.087  13.568  67.635  1.00  0.00    -0.180 C  
HETATM   31  F   UNL     1      -7.087  12.711  67.288  1.00  0.00    -0.131 F  
HETATM   32  F   UNL     1      -7.764  14.033  68.873  1.00  0.00    -0.129 F  
HETATM   33  F   UNL     1      -7.968  14.626  66.796  1.00  0.00    -0.209 F  
ENDBRANCH  15  22
ENDBRANCH  10  13
ENDBRANCH   3   6
TORSDOF 3
ENDMDL
MODEL       56
REMARK 921   NORMALIZED FREE ENERGY PREDICTED BY IDOCK:   -5.58 KCAL/MOL
REMARK 922        TOTAL FREE ENERGY PREDICTED BY IDOCK:   -7.47 KCAL/MOL
REMARK 923 INTER-LIGAND FREE ENERGY PREDICTED BY IDOCK:   -6.57 KCAL/MOL
REMARK 924 INTRA-LIGAND FREE ENERGY PREDICTED BY IDOCK:   -0.91 KCAL/MOL
REMARK 927      BINDING AFFINITY PREDICTED BY RF-SCORE:    0.00 PKD
ROOT
HETATM    1  C   UNL     1      -8.263   5.259  64.133  1.00  0.00    -0.132 C  
HETATM    2  N   UNL     1      -8.722   6.522  64.648  1.00  0.00    -0.329 N  
HETATM    3  C   UNL     1      -8.291   7.000  65.865  1.00  0.00    -0.141 C  
HETATM    4  H   UNL     1      -9.381   7.074  64.100  1.00  0.00     0.000 HD 
HETATM    5  O   UNL     1      -7.492   6.408  66.581  1.00  0.00    -0.080 OA 
ENDROOT
BRANCH   3   6
HETATM    6  C   UNL     1      -8.804   8.331  66.269  1.00  0.00    -0.192 A  
HETATM    7  C   UNL     1     -10.131   8.547  66.636  1.00  0.00    -0.294 A  
HETATM    8  F   UNL     1     -11.008   7.532  66.674  1.00  0.00    -0.390 F  
HETATM    9  C   UNL     1     -10.597   9.823  66.962  1.00  0.00    -0.269 A  
HETATM   10  C   UNL     1      -9.744  10.925  66.896  1.00  0.00    -0.181 A  
HETATM   11  C   UNL     1      -8.395  10.692  66.576  1.00  0.00    -0.143 A  
HETATM   12  C   UNL     1      -7.924   9.413  66.268  1.00  0.00    -0.111 A  
BRANCH  10  13
HETATM   13  N   UNL     1     -10.185  12.250  67.176  1.00  0.00    -0.210 N  
HETATM   14  C   UNL     1      -9.959  13.376  66.345  1.00  0.00    -0.293 C  
HETATM   15  N   UNL     1      -9.910  14.497  67.168  1.00  0.00    -0.241 N  
HETATM   16  S   UNL     1     -10.005  13.309  64.663  1.00  0.00     0.012 S  
HETATM   17  C   UNL     1     -12.397  12.510  68.270  1.00  0.00     0.367 C  
HETATM   18  C   UNL     1     -10.540  14.172  68.359  1.00  0.00    -0.259 C  
HETATM   19  C   UNL     1     -10.329  12.097  69.697  1.00  0.00     0.757 C  
HETATM   20  C   UNL     1     -10.874  12.666  68.384  1.00  0.00    -0.245 C  
HETATM   21  O   UNL     1     -10.876  14.921  69.271  1.00  0.00    -0.248 OA 
BRANCH  15  22
HETATM   22  C   UNL     1      -9.295  15.771  66.889  1.00  0.00    -0.227 A  
HETATM   23  C   UNL     1      -7.309  17.178  66.569  1.00  0.00    -0.311 A  
HETATM   24  C   UNL     1      -7.905  15.934  66.839  1.00  0.00    -0.282 A  
HETATM   25  C   UNL     1      -8.084  18.321  66.352  1.00  0.00    -0.285 A  
HETATM   26  C   UNL     1      -9.475  18.198  66.349  1.00  0.00    -0.284 A  
HETATM   27  C   UNL     1      -7.405  19.566  66.141  1.00  0.00    -0.281 C  
HETATM   28  C   UNL     1     -10.047  16.917  66.572  1.00  0.00    -0.320 A  
HETATM   29  N   UNL     1      -6.823  20.560  65.979  1.00  0.00    -0.235 NA 
HETATM   30  C   UNL     1     -10.426  19.354  66.131  1.00  0.00    -0.508 C  
HETATM   31  F   UNL     1     -11.314  19.474  67.156  1.00  0.00    -0.540 F  
HETATM   32  F   UNL     1     -11.178  19.187  65.008  1.00  0.00    -0.201 F  
HETATM   33  F   UNL     1      -9.841  20.571  66.010  1.00  0.00    -0.466 F  
ENDBRANCH  15  22
ENDBRANCH  10  13
ENDBRANCH   3   6
TORSDOF 3
ENDMDL
MODEL       57
REMARK 921   NORMALIZED FREE ENERGY PREDICTED BY IDOCK:   -5.56 KCAL/MOL
REMARK 922        TOTAL FREE ENERGY PREDICTED BY IDOCK:   -7.45 KCAL/MOL
REMARK 923 INTER-LIGAND FREE ENERGY PREDICTED BY IDOCK:   -7.31 KCAL/MOL
REMARK 924 INTRA-LIGAND FREE ENERGY PREDICTED BY IDOCK:   -0.14 KCAL/MOL
REMARK 927      BINDING AFFINITY PREDICTED BY RF-SCORE:    0.00 PKD
ROOT
HETATM    1  C   UNL     1      -6.782  20.061  65.943  1.00  0.00    -0.251 C  
HETATM    2  N   UNL     1      -7.371  18.749  65.902  1.00  0.00    -0.256 N  
HETATM    3  C   UNL     1      -8.670  18.533  66.301  1.00  0.00    -0.203 C  
HETATM    4  H   UNL     1      -6.813  17.963  65.569  1.00  0.00     0.000 HD 
HETATM    5  O   UNL     1      -9.413  19.421  66.701  1.00  0.00    -0.314 OA 
ENDROOT
BRANCH   3   6
HETATM    6  C   UNL     1      -9.176  17.145  66.173  1.00  0.00    -0.216 A  
HETATM    7  C   UNL     1     -10.407  16.842  65.596  1.00  0.00    -0.265 A  
HETATM    8  F   UNL     1     -11.187  17.810  65.089  1.00  0.00    -0.279 F  
HETATM    9  C   UNL     1     -10.880  15.528  65.536  1.00  0.00    -0.372 A  
HETATM   10  C   UNL     1     -10.137  14.484  66.088  1.00  0.00    -0.305 A  
HETATM   11  C   UNL     1      -8.872  14.790  66.622  1.00  0.00    -0.262 A  
HETATM   12  C   UNL     1      -8.391  16.102  66.664  1.00  0.00    -0.321 A  
BRANCH  10  13
HETATM   13  N   UNL     1     -10.597  13.137  66.091  1.00  0.00    -0.275 N  
HETATM   14  C   UNL     1     -11.022  12.424  67.240  1.00  0.00    -0.260 C  
HETATM   15  N   UNL     1     -10.758  11.076  67.014  1.00  0.00    -0.257 N  
HETATM   16  S   UNL     1     -11.899  13.127  68.494  1.00  0.00    -0.309 S  
HETATM   17  C   UNL     1     -11.959  12.392  64.155  1.00  0.00    -0.518 C  
HETATM   18  C   UNL     1     -10.633  10.897  65.646  1.00  0.00    -0.164 C  
HETATM   19  C   UNL     1      -9.419  12.309  64.011  1.00  0.00     0.210 C  
HETATM   20  C   UNL     1     -10.641  12.265  64.932  1.00  0.00    -0.293 C  
HETATM   21  O   UNL     1     -10.586   9.843  65.018  1.00  0.00     0.212 OA 
BRANCH  15  22
HETATM   22  C   UNL     1     -10.600  10.031  67.995  1.00  0.00    -0.235 A  
HETATM   23  C   UNL     1     -10.424   9.274  70.323  1.00  0.00    -0.271 A  
HETATM   24  C   UNL     1     -10.581  10.295  69.370  1.00  0.00    -0.262 A  
HETATM   25  C   UNL     1     -10.263   7.940  69.936  1.00  0.00    -0.210 A  
HETATM   26  C   UNL     1     -10.319   7.623  68.577  1.00  0.00    -0.225 A  
HETATM   27  C   UNL     1     -10.050   6.961  70.963  1.00  0.00    -0.193 C  
HETATM   28  C   UNL     1     -10.532   8.671  67.642  1.00  0.00    -0.311 A  
HETATM   29  N   UNL     1      -9.873   6.194  71.819  1.00  0.00    -0.164 NA 
HETATM   30  C   UNL     1     -10.156   6.224  68.027  1.00  0.00    -0.152 C  
HETATM   31  F   UNL     1      -9.156   6.160  67.106  1.00  0.00    -0.115 F  
HETATM   32  F   UNL     1     -11.279   5.798  67.385  1.00  0.00    -0.311 F  
HETATM   33  F   UNL     1      -9.867   5.270  68.946  1.00  0.00    -0.160 F  
ENDBRANCH  15  22
ENDBRANCH  10  13
ENDBRANCH   3   6
TORSDOF 3
ENDMDL
MODEL       58
REMARK 921   NORMALIZED FREE ENERGY PREDICTED BY IDOCK:   -5.56 KCAL/MOL
REMARK 922        TOTAL FREE ENERGY PREDICTED BY IDOCK:   -7.45 KCAL/MOL
REMARK 923 INTER-LIGAND FREE ENERGY PREDICTED BY IDOCK:   -6.53 KCAL/MOL
REMARK 924 INTRA-LIGAND FREE ENERGY PREDICTED BY IDOCK:   -0.92 KCAL/MOL
REMARK 927      BINDING AFFINITY PREDICTED BY RF-SCORE:    0.00 PKD
ROOT
HETATM    1  C   UNL     1     -10.799   5.441  73.450  1.00  0.00    -0.297 C  
HETATM    2  N   UNL     1     -10.536   6.426  72.435  1.00  0.00    -0.207 N  
HETATM    3  C   UNL     1      -9.266   6.634  71.949  1.00  0.00    -0.147 C  
HETATM    4  H   UNL     1     -11.308   6.982  72.068  1.00  0.00     0.000 HD 
HETATM    5  O   UNL     1      -8.285   6.003  72.324  1.00  0.00    -0.110 OA 
ENDROOT
BRANCH   3   6
HETATM    6  C   UNL     1      -9.128   7.648  70.876  1.00  0.00    -0.149 A  
HETATM    7  C   UNL     1      -8.416   7.411  69.702  1.00  0.00    -0.133 A  
HETATM    8  F   UNL     1      -7.843   6.219  69.474  1.00  0.00    -0.092 F  
HETATM    9  C   UNL     1      -8.260   8.404  68.731  1.00  0.00    -0.119 A  
HETATM   10  C   UNL     1      -8.793   9.677  68.933  1.00  0.00    -0.136 A  
HETATM   11  C   UNL     1      -9.555   9.894  70.095  1.00  0.00    -0.237 A  
HETATM   12  C   UNL     1      -9.726   8.895  71.056  1.00  0.00    -0.320 A  
BRANCH  10  13
HETATM   13  N   UNL     1      -8.623  10.733  67.993  1.00  0.00    -0.125 N  
HETATM   14  C   UNL     1      -7.823  11.886  68.199  1.00  0.00    -0.134 C  
HETATM   15  N   UNL     1      -8.385  12.920  67.458  1.00  0.00    -0.171 N  
HETATM   16  S   UNL     1      -6.345  11.853  69.005  1.00  0.00    -0.088 S  
HETATM   17  C   UNL     1      -8.515  10.119  65.591  1.00  0.00    -0.159 C  
HETATM   18  C   UNL     1      -9.185  12.350  66.480  1.00  0.00    -0.215 C  
HETATM   19  C   UNL     1     -10.780  10.468  66.699  1.00  0.00    -0.222 C  
HETATM   20  C   UNL     1      -9.293  10.828  66.709  1.00  0.00    -0.161 C  
HETATM   21  O   UNL     1      -9.706  12.894  65.511  1.00  0.00    -0.188 OA 
BRANCH  15  22
HETATM   22  C   UNL     1      -8.222  14.339  67.658  1.00  0.00    -0.185 A  
HETATM   23  C   UNL     1      -6.859  16.379  67.590  1.00  0.00    -0.161 A  
HETATM   24  C   UNL     1      -7.015  14.996  67.391  1.00  0.00    -0.184 A  
HETATM   25  C   UNL     1      -7.907  17.163  68.082  1.00  0.00    -0.206 A  
HETATM   26  C   UNL     1      -9.143  16.559  68.322  1.00  0.00    -0.214 A  
HETATM   27  C   UNL     1      -7.655  18.556  68.314  1.00  0.00    -0.287 C  
HETATM   28  C   UNL     1      -9.284  15.170  68.060  1.00  0.00    -0.185 A  
HETATM   29  N   UNL     1      -7.416  19.680  68.497  1.00  0.00    -0.331 NA 
HETATM   30  C   UNL     1     -10.353  17.292  68.857  1.00  0.00    -0.352 C  
HETATM   31  F   UNL     1     -10.832  16.708  69.990  1.00  0.00    -0.333 F  
HETATM   32  F   UNL     1     -11.385  17.281  67.969  1.00  0.00    -0.284 F  
HETATM   33  F   UNL     1     -10.149  18.593  69.175  1.00  0.00    -0.399 F  
ENDBRANCH  15  22
ENDBRANCH  10  13
ENDBRANCH   3   6
TORSDOF 3
ENDMDL
MODEL       59
REMARK 921   NORMALIZED FREE ENERGY PREDICTED BY IDOCK:   -5.55 KCAL/MOL
REMARK 922        TOTAL FREE ENERGY PREDICTED BY IDOCK:   -7.44 KCAL/MOL
REMARK 923 INTER-LIGAND FREE ENERGY PREDICTED BY IDOCK:   -6.55 KCAL/MOL
REMARK 924 INTRA-LIGAND FREE ENERGY PREDICTED BY IDOCK:   -0.89 KCAL/MOL
REMARK 927      BINDING AFFINITY PREDICTED BY RF-SCORE:    0.00 PKD
ROOT
HETATM    1  C   UNL     1      -9.903  20.501  67.368  1.00  0.00    -0.434 C  
HETATM    2  N   UNL     1     -10.103  19.088  67.179  1.00  0.00    -0.342 N  
HETATM    3  C   UNL     1      -9.269  18.346  66.375  1.00  0.00    -0.273 C  
HETATM    4  H   UNL     1     -10.880  18.627  67.653  1.00  0.00     0.000 HD 
HETATM    5  O   UNL     1      -8.307  18.816  65.781  1.00  0.00    -0.452 OA 
ENDROOT
BRANCH   3   6
HETATM    6  C   UNL     1      -9.554  16.893  66.293  1.00  0.00    -0.300 A  
HETATM    7  C   UNL     1     -10.593  16.372  65.526  1.00  0.00    -0.330 A  
HETATM    8  F   UNL     1     -11.373  17.176  64.786  1.00  0.00    -0.357 F  
HETATM    9  C   UNL     1     -10.870  15.002  65.509  1.00  0.00    -0.360 A  
HETATM   10  C   UNL     1     -10.124  14.121  66.293  1.00  0.00    -0.300 A  
HETATM   11  C   UNL     1      -9.044  14.648  67.025  1.00  0.00    -0.254 A  
HETATM   12  C   UNL     1      -8.756  16.015  67.026  1.00  0.00    -0.236 A  
BRANCH  10  13
HETATM   13  N   UNL     1     -10.397  12.725  66.343  1.00  0.00    -0.254 N  
HETATM   14  C   UNL     1     -10.508  11.959  67.531  1.00  0.00    -0.209 C  
HETATM   15  N   UNL     1     -10.117  10.659  67.224  1.00  0.00    -0.191 N  
HETATM   16  S   UNL     1     -11.226  12.535  68.940  1.00  0.00    -0.287 S  
HETATM   17  C   UNL     1     -11.980  11.810  64.665  1.00  0.00    -0.163 C  
HETATM   18  C   UNL     1     -10.221  10.501  65.852  1.00  0.00    -0.245 C  
HETATM   19  C   UNL     1      -9.520  12.066  64.064  1.00  0.00     0.078 C  
HETATM   20  C   UNL     1     -10.537  11.857  65.188  1.00  0.00    -0.287 C  
HETATM   21  O   UNL     1     -10.152   9.464  65.198  1.00  0.00     0.011 OA 
BRANCH  15  22
HETATM   22  C   UNL     1      -9.648   9.641  68.133  1.00  0.00    -0.143 A  
HETATM   23  C   UNL     1      -9.940   7.507  69.309  1.00  0.00    -0.179 A  
HETATM   24  C   UNL     1     -10.399   8.495  68.421  1.00  0.00    -0.241 A  
HETATM   25  C   UNL     1      -8.709   7.633  69.961  1.00  0.00    -0.142 A  
HETATM   26  C   UNL     1      -7.906   8.738  69.671  1.00  0.00    -0.090 A  
HETATM   27  C   UNL     1      -8.335   6.613  70.897  1.00  0.00    -0.125 C  
HETATM   28  C   UNL     1      -8.374   9.692  68.729  1.00  0.00    -0.111 A  
HETATM   29  N   UNL     1      -8.063   5.772  71.654  1.00  0.00    -0.117 NA 
HETATM   30  C   UNL     1      -6.558   8.994  70.308  1.00  0.00    -0.045 C  
HETATM   31  F   UNL     1      -6.510  10.217  70.905  1.00  0.00    -0.105 F  
HETATM   32  F   UNL     1      -5.554   8.991  69.388  1.00  0.00    -0.034 F  
HETATM   33  F   UNL     1      -6.191   8.106  71.264  1.00  0.00    -0.034 F  
ENDBRANCH  15  22
ENDBRANCH  10  13
ENDBRANCH   3   6
TORSDOF 3
ENDMDL
MODEL       60
REMARK 921   NORMALIZED FREE ENERGY PREDICTED BY IDOCK:   -5.55 KCAL/MOL
REMARK 922        TOTAL FREE ENERGY PREDICTED BY IDOCK:   -7.44 KCAL/MOL
REMARK 923 INTER-LIGAND FREE ENERGY PREDICTED BY IDOCK:   -6.92 KCAL/MOL
REMARK 924 INTRA-LIGAND FREE ENERGY PREDICTED BY IDOCK:   -0.52 KCAL/MOL
REMARK 927      BINDING AFFINITY PREDICTED BY RF-SCORE:    0.00 PKD
ROOT
HETATM    1  C   UNL     1     -10.673  17.037  68.796  1.00  0.00    -0.313 C  
HETATM    2  N   UNL     1     -10.848  15.676  69.226  1.00  0.00    -0.232 N  
HETATM    3  C   UNL     1     -11.594  14.781  68.494  1.00  0.00    -0.321 C  
HETATM    4  H   UNL     1     -10.409  15.367  70.094  1.00  0.00     0.000 HD 
HETATM    5  O   UNL     1     -12.143  15.064  67.436  1.00  0.00    -0.180 OA 
ENDROOT
BRANCH   3   6
HETATM    6  C   UNL     1     -11.666  13.397  69.020  1.00  0.00    -0.368 A  
HETATM    7  C   UNL     1     -12.202  13.094  70.270  1.00  0.00    -0.306 A  
HETATM    8  F   UNL     1     -12.718  14.057  71.050  1.00  0.00    -0.361 F  
HETATM    9  C   UNL     1     -12.210  11.785  70.761  1.00  0.00    -0.424 A  
HETATM   10  C   UNL     1     -11.647  10.748  70.017  1.00  0.00    -0.334 A  
HETATM   11  C   UNL     1     -11.155  11.053  68.735  1.00  0.00    -0.293 A  
HETATM   12  C   UNL     1     -11.165  12.358  68.237  1.00  0.00    -0.309 A  
BRANCH  10  13
HETATM   13  N   UNL     1     -11.592   9.409  70.495  1.00  0.00    -0.259 N  
HETATM   14  C   UNL     1     -10.550   8.487  70.219  1.00  0.00    -0.226 C  
HETATM   15  N   UNL     1     -11.105   7.212  70.248  1.00  0.00    -0.266 N  
HETATM   16  S   UNL     1      -8.927   8.925  70.132  1.00  0.00    -0.187 S  
HETATM   17  C   UNL     1     -12.435   8.978  72.789  1.00  0.00    -0.017 C  
HETATM   18  C   UNL     1     -12.288   7.284  70.965  1.00  0.00    -0.297 C  
HETATM   19  C   UNL     1     -14.066   9.005  70.835  1.00  0.00     0.167 C  
HETATM   20  C   UNL     1     -12.623   8.757  71.282  1.00  0.00    -0.246 C  
HETATM   21  O   UNL     1     -12.983   6.362  71.382  1.00  0.00     0.012 OA 
BRANCH  15  22
HETATM   22  C   UNL     1     -10.595   6.013  69.629  1.00  0.00    -0.300 A  
HETATM   23  C   UNL     1     -10.097   4.663  67.640  1.00  0.00    -0.111 A  
HETATM   24  C   UNL     1     -10.592   5.834  68.240  1.00  0.00    -0.286 A  
HETATM   25  C   UNL     1      -9.595   3.610  68.411  1.00  0.00    -0.164 A  
HETATM   26  C   UNL     1      -9.539   3.761  69.798  1.00  0.00    -0.253 A  
HETATM   27  C   UNL     1      -9.162   2.424  67.731  1.00  0.00    -0.192 C  
HETATM   28  C   UNL     1      -9.997   4.977  70.370  1.00  0.00    -0.317 A  
HETATM   29  N   UNL     1      -8.825   1.474  67.151  1.00  0.00    -0.109 NA 
HETATM   30  C   UNL     1      -9.024   2.699  70.744  1.00  0.00    -0.094 C  
HETATM   31  F   UNL     1      -9.947   2.383  71.694  1.00  0.00    -0.215 F  
HETATM   32  F   UNL     1      -7.922   3.118  71.425  1.00  0.00    -0.054 F  
HETATM   33  F   UNL     1      -8.679   1.524  70.164  1.00  0.00    -0.065 F  
ENDBRANCH  15  22
ENDBRANCH  10  13
ENDBRANCH   3   6
TORSDOF 3
ENDMDL
MODEL       61
REMARK 921   NORMALIZED FREE ENERGY PREDICTED BY IDOCK:   -5.53 KCAL/MOL
REMARK 922        TOTAL FREE ENERGY PREDICTED BY IDOCK:   -7.42 KCAL/MOL
REMARK 923 INTER-LIGAND FREE ENERGY PREDICTED BY IDOCK:   -6.65 KCAL/MOL
REMARK 924 INTRA-LIGAND FREE ENERGY PREDICTED BY IDOCK:   -0.77 KCAL/MOL
REMARK 927      BINDING AFFINITY PREDICTED BY RF-SCORE:    0.00 PKD
ROOT
HETATM    1  C   UNL     1     -11.066   1.837  73.724  1.00  0.00    -0.175 C  
HETATM    2  N   UNL     1     -10.821   2.898  72.784  1.00  0.00    -0.034 N  
HETATM    3  C   UNL     1     -10.943   4.220  73.146  1.00  0.00    -0.211 C  
HETATM    4  H   UNL     1     -10.551   2.665  71.828  1.00  0.00     0.000 HD 
HETATM    5  O   UNL     1     -11.250   4.588  74.274  1.00  0.00    -0.218 OA 
ENDROOT
BRANCH   3   6
HETATM    6  C   UNL     1     -10.624   5.222  72.101  1.00  0.00    -0.281 A  
HETATM    7  C   UNL     1     -11.554   6.152  71.641  1.00  0.00    -0.257 A  
HETATM    8  F   UNL     1     -12.791   6.204  72.161  1.00  0.00    -0.356 F  
HETATM    9  C   UNL     1     -11.241   7.050  70.617  1.00  0.00    -0.327 A  
HETATM   10  C   UNL     1      -9.988   7.014  70.005  1.00  0.00    -0.181 A  
HETATM   11  C   UNL     1      -9.037   6.108  70.509  1.00  0.00    -0.159 A  
HETATM   12  C   UNL     1      -9.345   5.223  71.545  1.00  0.00    -0.182 A  
BRANCH  10  13
HETATM   13  N   UNL     1      -9.638   7.878  68.929  1.00  0.00    -0.154 N  
HETATM   14  C   UNL     1      -9.212   9.223  69.070  1.00  0.00    -0.144 C  
HETATM   15  N   UNL     1      -9.596   9.903  67.918  1.00  0.00    -0.138 N  
HETATM   16  S   UNL     1      -8.214   9.751  70.319  1.00  0.00    -0.057 S  
HETATM   17  C   UNL     1      -8.447   6.873  66.997  1.00  0.00    -0.121 C  
HETATM   18  C   UNL     1      -9.809   8.961  66.925  1.00  0.00    -0.223 C  
HETATM   19  C   UNL     1     -10.990   6.790  67.088  1.00  0.00    -0.458 C  
HETATM   20  C   UNL     1      -9.728   7.540  67.520  1.00  0.00    -0.150 C  
HETATM   21  O   UNL     1      -9.974   9.147  65.723  1.00  0.00    -0.277 OA 
BRANCH  15  22
HETATM   22  C   UNL     1      -9.785  11.324  67.754  1.00  0.00    -0.173 A  
HETATM   23  C   UNL     1     -11.196  13.259  67.220  1.00  0.00    -0.320 A  
HETATM   24  C   UNL     1     -11.017  11.874  67.382  1.00  0.00    -0.315 A  
HETATM   25  C   UNL     1     -10.139  14.154  67.410  1.00  0.00    -0.240 A  
HETATM   26  C   UNL     1      -8.903  13.654  67.824  1.00  0.00    -0.190 A  
HETATM   27  C   UNL     1     -10.384  15.547  67.169  1.00  0.00    -0.272 C  
HETATM   28  C   UNL     1      -8.768  12.256  68.030  1.00  0.00    -0.181 A  
HETATM   29  N   UNL     1     -10.613  16.668  66.960  1.00  0.00    -0.288 NA 
HETATM   30  C   UNL     1      -7.680  14.513  68.060  1.00  0.00    -0.135 C  
HETATM   31  F   UNL     1      -6.619  14.090  67.319  1.00  0.00    -0.186 F  
HETATM   32  F   UNL     1      -7.269  14.463  69.358  1.00  0.00    -0.128 F  
HETATM   33  F   UNL     1      -7.829  15.828  67.767  1.00  0.00    -0.125 F  
ENDBRANCH  15  22
ENDBRANCH  10  13
ENDBRANCH   3   6
TORSDOF 3
ENDMDL
MODEL       62
REMARK 921   NORMALIZED FREE ENERGY PREDICTED BY IDOCK:   -5.44 KCAL/MOL
REMARK 922        TOTAL FREE ENERGY PREDICTED BY IDOCK:   -7.31 KCAL/MOL
REMARK 923 INTER-LIGAND FREE ENERGY PREDICTED BY IDOCK:   -6.29 KCAL/MOL
REMARK 924 INTRA-LIGAND FREE ENERGY PREDICTED BY IDOCK:   -1.02 KCAL/MOL
REMARK 927      BINDING AFFINITY PREDICTED BY RF-SCORE:    0.00 PKD
ROOT
HETATM    1  C   UNL     1      -9.390   1.650  66.730  1.00  0.00     0.105 C  
HETATM    2  N   UNL     1      -9.347   3.066  66.979  1.00  0.00    -0.326 N  
HETATM    3  C   UNL     1      -8.152   3.745  67.059  1.00  0.00    -0.095 C  
HETATM    4  H   UNL     1     -10.220   3.579  67.098  1.00  0.00     0.000 HD 
HETATM    5  O   UNL     1      -7.059   3.211  66.916  1.00  0.00    -0.056 OA 
ENDROOT
BRANCH   3   6
HETATM    6  C   UNL     1      -8.239   5.209  67.280  1.00  0.00    -0.107 A  
HETATM    7  C   UNL     1      -8.125   6.134  66.245  1.00  0.00    -0.113 A  
HETATM    8  F   UNL     1      -7.964   5.730  64.975  1.00  0.00    -0.094 F  
HETATM    9  C   UNL     1      -8.160   7.510  66.491  1.00  0.00    -0.120 A  
HETATM   10  C   UNL     1      -8.278   7.991  67.795  1.00  0.00    -0.129 A  
HETATM   11  C   UNL     1      -8.445   7.052  68.828  1.00  0.00    -0.122 A  
HETATM   12  C   UNL     1      -8.429   5.677  68.579  1.00  0.00    -0.105 A  
BRANCH  10  13
HETATM   13  N   UNL     1      -8.273   9.382  68.098  1.00  0.00    -0.117 N  
HETATM   14  C   UNL     1      -9.353  10.270  67.867  1.00  0.00    -0.138 C  
HETATM   15  N   UNL     1      -8.813  11.533  67.647  1.00  0.00    -0.149 N  
HETATM   16  S   UNL     1     -10.967   9.841  68.085  1.00  0.00    -0.113 S  
HETATM   17  C   UNL     1      -7.095  10.096  70.163  1.00  0.00    -0.162 C  
HETATM   18  C   UNL     1      -7.534  11.542  68.180  1.00  0.00    -0.101 C  
HETATM   19  C   UNL     1      -5.780   9.801  68.003  1.00  0.00    -0.040 C  
HETATM   20  C   UNL     1      -7.141  10.119  68.628  1.00  0.00    -0.074 C  
HETATM   21  O   UNL     1      -6.792  12.503  68.363  1.00  0.00    -0.072 OA 
BRANCH  15  22
HETATM   22  C   UNL     1      -9.423  12.647  66.963  1.00  0.00    -0.220 A  
HETATM   23  C   UNL     1     -10.435  13.653  64.966  1.00  0.00    -0.406 A  
HETATM   24  C   UNL     1      -9.844  12.565  65.630  1.00  0.00    -0.227 A  
HETATM   25  C   UNL     1     -10.616  14.882  65.608  1.00  0.00    -0.358 A  
HETATM   26  C   UNL     1     -10.251  14.998  66.951  1.00  0.00    -0.258 A  
HETATM   27  C   UNL     1     -11.173  15.964  64.848  1.00  0.00    -0.337 C  
HETATM   28  C   UNL     1      -9.706  13.865  67.609  1.00  0.00    -0.226 A  
HETATM   29  N   UNL     1     -11.620  16.822  64.203  1.00  0.00    -1.057 NA 
HETATM   30  C   UNL     1     -10.391  16.270  67.758  1.00  0.00    -0.287 C  
HETATM   31  F   UNL     1      -9.204  16.648  68.309  1.00  0.00    -0.198 F  
HETATM   32  F   UNL     1     -11.251  16.115  68.802  1.00  0.00    -0.289 F  
HETATM   33  F   UNL     1     -10.833  17.349  67.068  1.00  0.00    -0.301 F  
ENDBRANCH  15  22
ENDBRANCH  10  13
ENDBRANCH   3   6
TORSDOF 3
ENDMDL
MODEL       63
REMARK 921   NORMALIZED FREE ENERGY PREDICTED BY IDOCK:   -5.43 KCAL/MOL
REMARK 922        TOTAL FREE ENERGY PREDICTED BY IDOCK:   -7.30 KCAL/MOL
REMARK 923 INTER-LIGAND FREE ENERGY PREDICTED BY IDOCK:   -6.70 KCAL/MOL
REMARK 924 INTRA-LIGAND FREE ENERGY PREDICTED BY IDOCK:   -0.60 KCAL/MOL
REMARK 927      BINDING AFFINITY PREDICTED BY RF-SCORE:    0.00 PKD
ROOT
HETATM    1  C   UNL     1     -10.022   1.509  64.238  1.00  0.00     0.014 C  
HETATM    2  N   UNL     1      -9.836   2.854  64.711  1.00  0.00    -0.340 N  
HETATM    3  C   UNL     1      -8.696   3.227  65.387  1.00  0.00    -0.124 C  
HETATM    4  H   UNL     1     -10.564   3.548  64.542  1.00  0.00     0.000 HD 
HETATM    5  O   UNL     1      -7.768   2.463  65.622  1.00  0.00    -0.074 OA 
ENDROOT
BRANCH   3   6
HETATM    6  C   UNL     1      -8.603   4.651  65.788  1.00  0.00    -0.122 A  
HETATM    7  C   UNL     1      -8.462   5.686  64.865  1.00  0.00    -0.122 A  
HETATM    8  F   UNL     1      -8.439   5.434  63.547  1.00  0.00    -0.125 F  
HETATM    9  C   UNL     1      -8.325   7.014  65.276  1.00  0.00    -0.100 A  
HETATM   10  C   UNL     1      -8.294   7.334  66.634  1.00  0.00    -0.121 A  
HETATM   11  C   UNL     1      -8.489   6.292  67.558  1.00  0.00    -0.108 A  
HETATM   12  C   UNL     1      -8.645   4.966  67.146  1.00  0.00    -0.104 A  
BRANCH  10  13
HETATM   13  N   UNL     1      -8.112   8.666  67.101  1.00  0.00    -0.100 N  
HETATM   14  C   UNL     1      -9.110   9.673  67.101  1.00  0.00    -0.134 C  
HETATM   15  N   UNL     1      -8.464  10.899  66.976  1.00  0.00    -0.132 N  
HETATM   16  S   UNL     1     -10.730   9.369  67.446  1.00  0.00    -0.124 S  
HETATM   17  C   UNL     1      -6.665   8.992  69.090  1.00  0.00    -0.050 C  
HETATM   18  C   UNL     1      -7.144  10.720  67.358  1.00  0.00    -0.091 C  
HETATM   19  C   UNL     1      -5.610   8.863  66.777  1.00  0.00    -0.040 C  
HETATM   20  C   UNL     1      -6.861   9.221  67.585  1.00  0.00    -0.076 C  
HETATM   21  O   UNL     1      -6.291  11.576  67.571  1.00  0.00    -0.061 OA 
BRANCH  15  22
HETATM   22  C   UNL     1      -9.018  12.144  66.504  1.00  0.00    -0.179 A  
HETATM   23  C   UNL     1      -9.124  14.596  66.523  1.00  0.00    -0.267 A  
HETATM   24  C   UNL     1      -8.580  13.385  66.984  1.00  0.00    -0.168 A  
HETATM   25  C   UNL     1     -10.147  14.616  65.570  1.00  0.00    -0.405 A  
HETATM   26  C   UNL     1     -10.586  13.405  65.031  1.00  0.00    -0.370 A  
HETATM   27  C   UNL     1     -10.693  15.888  65.193  1.00  0.00    -0.429 C  
HETATM   28  C   UNL     1      -9.979  12.201  65.477  1.00  0.00    -0.269 A  
HETATM   29  N   UNL     1     -11.117  16.934  64.913  1.00  0.00    -0.678 NA 
HETATM   30  C   UNL     1     -11.685  13.287  63.998  1.00  0.00    -0.430 C  
HETATM   31  F   UNL     1     -12.680  12.457  64.417  1.00  0.00    -0.518 F  
HETATM   32  F   UNL     1     -11.227  12.758  62.830  1.00  0.00    -0.378 F  
HETATM   33  F   UNL     1     -12.295  14.451  63.667  1.00  0.00    -0.470 F  
ENDBRANCH  15  22
ENDBRANCH  10  13
ENDBRANCH   3   6
TORSDOF 3
ENDMDL
MODEL       64
REMARK 921   NORMALIZED FREE ENERGY PREDICTED BY IDOCK:   -5.41 KCAL/MOL
REMARK 922        TOTAL FREE ENERGY PREDICTED BY IDOCK:   -7.27 KCAL/MOL
REMARK 923 INTER-LIGAND FREE ENERGY PREDICTED BY IDOCK:   -6.50 KCAL/MOL
REMARK 924 INTRA-LIGAND FREE ENERGY PREDICTED BY IDOCK:   -0.77 KCAL/MOL
REMARK 927      BINDING AFFINITY PREDICTED BY RF-SCORE:    0.00 PKD
ROOT
HETATM    1  C   UNL     1     -10.231  19.165  66.416  1.00  0.00    -0.438 C  
HETATM    2  N   UNL     1      -9.803  17.792  66.447  1.00  0.00    -0.321 N  
HETATM    3  C   UNL     1     -10.240  16.925  67.423  1.00  0.00    -0.298 C  
HETATM    4  H   UNL     1      -9.162  17.453  65.730  1.00  0.00     0.000 HD 
HETATM    5  O   UNL     1     -11.018  17.245  68.314  1.00  0.00    -0.336 OA 
ENDROOT
BRANCH   3   6
HETATM    6  C   UNL     1      -9.760  15.526  67.325  1.00  0.00    -0.218 A  
HETATM    7  C   UNL     1      -9.892  14.764  66.166  1.00  0.00    -0.312 A  
HETATM    8  F   UNL     1     -10.438  15.288  65.057  1.00  0.00    -0.364 F  
HETATM    9  C   UNL     1      -9.477  13.431  66.119  1.00  0.00    -0.156 A  
HETATM   10  C   UNL     1      -8.945  12.817  67.254  1.00  0.00    -0.199 A  
HETATM   11  C   UNL     1      -8.766  13.606  68.404  1.00  0.00    -0.153 A  
HETATM   12  C   UNL     1      -9.164  14.945  68.444  1.00  0.00    -0.189 A  
BRANCH  10  13
HETATM   13  N   UNL     1      -8.550  11.449  67.267  1.00  0.00    -0.142 N  
HETATM   14  C   UNL     1      -9.372  10.368  67.673  1.00  0.00    -0.148 C  
HETATM   15  N   UNL     1      -8.535   9.377  68.177  1.00  0.00    -0.120 N  
HETATM   16  S   UNL     1     -11.020  10.282  67.339  1.00  0.00    -0.182 S  
HETATM   17  C   UNL     1      -7.071  10.669  65.433  1.00  0.00    -0.011 C  
HETATM   18  C   UNL     1      -7.262   9.608  67.681  1.00  0.00    -0.089 C  
HETATM   19  C   UNL     1      -6.049  11.760  67.494  1.00  0.00    -0.092 C  
HETATM   20  C   UNL     1      -7.226  10.957  66.933  1.00  0.00    -0.124 C  
HETATM   21  O   UNL     1      -6.282   8.871  67.728  1.00  0.00    -0.054 OA 
BRANCH  15  22
HETATM   22  C   UNL     1      -8.880   8.308  69.082  1.00  0.00    -0.143 A  
HETATM   23  C   UNL     1      -9.057   5.920  69.623  1.00  0.00    -0.145 A  
HETATM   24  C   UNL     1      -8.717   6.959  68.740  1.00  0.00    -0.129 A  
HETATM   25  C   UNL     1      -9.590   6.189  70.888  1.00  0.00    -0.193 A  
HETATM   26  C   UNL     1      -9.730   7.519  71.289  1.00  0.00    -0.173 A  
HETATM   27  C   UNL     1      -9.967   5.075  71.710  1.00  0.00    -0.191 C  
HETATM   28  C   UNL     1      -9.328   8.546  70.394  1.00  0.00    -0.179 A  
HETATM   29  N   UNL     1     -10.268   4.152  72.350  1.00  0.00    -0.176 NA 
HETATM   30  C   UNL     1     -10.296   7.944  72.626  1.00  0.00    -0.308 C  
HETATM   31  F   UNL     1     -11.350   8.793  72.477  1.00  0.00    -0.419 F  
HETATM   32  F   UNL     1      -9.379   8.619  73.372  1.00  0.00    -0.230 F  
HETATM   33  F   UNL     1     -10.747   6.936  73.411  1.00  0.00    -0.269 F  
ENDBRANCH  15  22
ENDBRANCH  10  13
ENDBRANCH   3   6
TORSDOF 3
ENDMDL
MODEL       65
REMARK 921   NORMALIZED FREE ENERGY PREDICTED BY IDOCK:   -5.40 KCAL/MOL
REMARK 922        TOTAL FREE ENERGY PREDICTED BY IDOCK:   -7.27 KCAL/MOL
REMARK 923 INTER-LIGAND FREE ENERGY PREDICTED BY IDOCK:   -6.48 KCAL/MOL
REMARK 924 INTRA-LIGAND FREE ENERGY PREDICTED BY IDOCK:   -0.78 KCAL/MOL
REMARK 927      BINDING AFFINITY PREDICTED BY RF-SCORE:    0.00 PKD
ROOT
HETATM    1  C   UNL     1      -5.972   1.614  72.993  1.00  0.00    -0.008 C  
HETATM    2  N   UNL     1      -6.668   2.780  72.519  1.00  0.00    -0.022 N  
HETATM    3  C   UNL     1      -7.248   2.813  71.272  1.00  0.00    -0.033 C  
HETATM    4  H   UNL     1      -6.732   3.601  73.121  1.00  0.00     0.000 HD 
HETATM    5  O   UNL     1      -7.229   1.869  70.491  1.00  0.00    -0.033 OA 
ENDROOT
BRANCH   3   6
HETATM    6  C   UNL     1      -7.971   4.057  70.914  1.00  0.00    -0.059 A  
HETATM    7  C   UNL     1      -7.329   5.283  70.759  1.00  0.00    -0.073 A  
HETATM    8  F   UNL     1      -5.998   5.385  70.896  1.00  0.00    -0.018 F  
HETATM    9  C   UNL     1      -8.045   6.449  70.472  1.00  0.00    -0.117 A  
HETATM   10  C   UNL     1      -9.435   6.415  70.364  1.00  0.00    -0.162 A  
HETATM   11  C   UNL     1     -10.071   5.166  70.470  1.00  0.00    -0.326 A  
HETATM   12  C   UNL     1      -9.353   3.997  70.738  1.00  0.00    -0.217 A  
BRANCH  10  13
HETATM   13  N   UNL     1     -10.210   7.584  70.118  1.00  0.00    -0.203 N  
HETATM   14  C   UNL     1     -10.099   8.407  68.969  1.00  0.00    -0.203 C  
HETATM   15  N   UNL     1     -10.458   9.697  69.346  1.00  0.00    -0.209 N  
HETATM   16  S   UNL     1      -9.820   7.804  67.422  1.00  0.00    -0.195 S  
HETATM   17  C   UNL     1     -12.585   7.552  70.837  1.00  0.00    -0.139 C  
HETATM   18  C   UNL     1     -11.205   9.603  70.510  1.00  0.00    -0.297 C  
HETATM   19  C   UNL     1     -10.774   8.200  72.506  1.00  0.00    -0.419 C  
HETATM   20  C   UNL     1     -11.185   8.151  71.031  1.00  0.00    -0.258 C  
HETATM   21  O   UNL     1     -11.864  10.477  71.064  1.00  0.00    -0.350 OA 
BRANCH  15  22
HETATM   22  C   UNL     1     -10.110  10.937  68.695  1.00  0.00    -0.191 A  
HETATM   23  C   UNL     1      -8.475  12.414  67.616  1.00  0.00    -0.169 A  
HETATM   24  C   UNL     1      -8.811  11.204  68.247  1.00  0.00    -0.155 A  
HETATM   25  C   UNL     1      -9.427  13.419  67.420  1.00  0.00    -0.222 A  
HETATM   26  C   UNL     1     -10.745  13.179  67.812  1.00  0.00    -0.252 A  
HETATM   27  C   UNL     1      -8.995  14.649  66.821  1.00  0.00    -0.257 C  
HETATM   28  C   UNL     1     -11.065  11.926  68.398  1.00  0.00    -0.292 A  
HETATM   29  N   UNL     1      -8.613  15.636  66.340  1.00  0.00    -0.301 NA 
HETATM   30  C   UNL     1     -11.868  14.182  67.660  1.00  0.00    -0.392 C  
HETATM   31  F   UNL     1     -12.482  14.431  68.850  1.00  0.00    -0.295 F  
HETATM   32  F   UNL     1     -12.844  13.727  66.827  1.00  0.00    -0.290 F  
HETATM   33  F   UNL     1     -11.501  15.394  67.178  1.00  0.00    -0.329 F  
ENDBRANCH  15  22
ENDBRANCH  10  13
ENDBRANCH   3   6
TORSDOF 3
ENDMDL
MODEL       66
REMARK 921   NORMALIZED FREE ENERGY PREDICTED BY IDOCK:   -5.40 KCAL/MOL
REMARK 922        TOTAL FREE ENERGY PREDICTED BY IDOCK:   -7.26 KCAL/MOL
REMARK 923 INTER-LIGAND FREE ENERGY PREDICTED BY IDOCK:   -6.64 KCAL/MOL
REMARK 924 INTRA-LIGAND FREE ENERGY PREDICTED BY IDOCK:   -0.62 KCAL/MOL
REMARK 927      BINDING AFFINITY PREDICTED BY RF-SCORE:    0.00 PKD
ROOT
HETATM    1  C   UNL     1     -10.444   3.147  73.400  1.00  0.00    -0.163 C  
HETATM    2  N   UNL     1     -10.109   4.150  72.424  1.00  0.00    -0.172 N  
HETATM    3  C   UNL     1     -10.405   5.479  72.630  1.00  0.00    -0.198 C  
HETATM    4  H   UNL     1      -9.642   3.871  71.562  1.00  0.00     0.000 HD 
HETATM    5  O   UNL     1     -10.952   5.902  73.641  1.00  0.00    -0.225 OA 
ENDROOT
BRANCH   3   6
HETATM    6  C   UNL     1      -9.974   6.421  71.570  1.00  0.00    -0.200 A  
HETATM    7  C   UNL     1     -10.861   7.268  70.909  1.00  0.00    -0.243 A  
HETATM    8  F   UNL     1     -12.163   7.292  71.235  1.00  0.00    -0.316 F  
HETATM    9  C   UNL     1     -10.434   8.109  69.877  1.00  0.00    -0.226 A  
HETATM   10  C   UNL     1      -9.102   8.096  69.461  1.00  0.00    -0.151 A  
HETATM   11  C   UNL     1      -8.202   7.277  70.167  1.00  0.00    -0.134 A  
HETATM   12  C   UNL     1      -8.627   6.450  71.211  1.00  0.00    -0.127 A  
BRANCH  10  13
HETATM   13  N   UNL     1      -8.630   8.901  68.387  1.00  0.00    -0.133 N  
HETATM   14  C   UNL     1      -8.145  10.227  68.515  1.00  0.00    -0.109 C  
HETATM   15  N   UNL     1      -8.408  10.883  67.316  1.00  0.00    -0.121 N  
HETATM   16  S   UNL     1      -7.215  10.751  69.817  1.00  0.00    -0.037 S  
HETATM   17  C   UNL     1      -7.356   7.768  66.584  1.00  0.00    -0.088 C  
HETATM   18  C   UNL     1      -8.596   9.917  66.341  1.00  0.00    -0.128 C  
HETATM   19  C   UNL     1      -9.899   7.815  66.487  1.00  0.00    -0.255 C  
HETATM   20  C   UNL     1      -8.634   8.517  66.987  1.00  0.00    -0.121 C  
HETATM   21  O   UNL     1      -8.664  10.066  65.124  1.00  0.00    -0.145 OA 
BRANCH  15  22
HETATM   22  C   UNL     1      -8.509  12.304  67.091  1.00  0.00    -0.184 A  
HETATM   23  C   UNL     1      -7.585  14.574  67.219  1.00  0.00    -0.150 A  
HETATM   24  C   UNL     1      -7.481  13.190  67.437  1.00  0.00    -0.131 A  
HETATM   25  C   UNL     1      -8.735  15.135  66.656  1.00  0.00    -0.308 A  
HETATM   26  C   UNL     1      -9.769  14.286  66.254  1.00  0.00    -0.321 A  
HETATM   27  C   UNL     1      -8.792  16.562  66.518  1.00  0.00    -0.282 C  
HETATM   28  C   UNL     1      -9.612  12.887  66.439  1.00  0.00    -0.252 A  
HETATM   29  N   UNL     1      -8.808  17.721  66.426  1.00  0.00    -0.381 NA 
HETATM   30  C   UNL     1     -11.064  14.764  65.637  1.00  0.00    -0.342 C  
HETATM   31  F   UNL     1     -12.146  14.319  66.333  1.00  0.00    -0.392 F  
HETATM   32  F   UNL     1     -11.223  14.297  64.367  1.00  0.00    -0.367 F  
HETATM   33  F   UNL     1     -11.208  16.109  65.560  1.00  0.00    -0.239 F  
ENDBRANCH  15  22
ENDBRANCH  10  13
ENDBRANCH   3   6
TORSDOF 3
ENDMDL
MODEL       67
REMARK 921   NORMALIZED FREE ENERGY PREDICTED BY IDOCK:   -5.32 KCAL/MOL
REMARK 922        TOTAL FREE ENERGY PREDICTED BY IDOCK:   -7.16 KCAL/MOL
REMARK 923 INTER-LIGAND FREE ENERGY PREDICTED BY IDOCK:   -6.03 KCAL/MOL
REMARK 924 INTRA-LIGAND FREE ENERGY PREDICTED BY IDOCK:   -1.13 KCAL/MOL
REMARK 927      BINDING AFFINITY PREDICTED BY RF-SCORE:    0.00 PKD
ROOT
HETATM    1  C   UNL     1     -10.302   2.556  72.465  1.00  0.00    -0.137 C  
HETATM    2  N   UNL     1      -9.896   3.765  71.799  1.00  0.00    -0.174 N  
HETATM    3  C   UNL     1      -9.581   3.776  70.460  1.00  0.00    -0.192 C  
HETATM    4  H   UNL     1      -9.842   4.633  72.332  1.00  0.00     0.000 HD 
HETATM    5  O   UNL     1      -9.631   2.784  69.744  1.00  0.00    -0.119 OA 
ENDROOT
BRANCH   3   6
HETATM    6  C   UNL     1      -9.217   5.091  69.879  1.00  0.00    -0.175 A  
HETATM    7  C   UNL     1     -10.163   6.065  69.569  1.00  0.00    -0.208 A  
HETATM    8  F   UNL     1     -11.466   5.864  69.821  1.00  0.00    -0.459 F  
HETATM    9  C   UNL     1      -9.794   7.276  68.975  1.00  0.00    -0.165 A  
HETATM   10  C   UNL     1      -8.461   7.524  68.647  1.00  0.00    -0.129 A  
HETATM   11  C   UNL     1      -7.505   6.558  69.010  1.00  0.00    -0.095 A  
HETATM   12  C   UNL     1      -7.872   5.356  69.622  1.00  0.00    -0.078 A  
BRANCH  10  13
HETATM   13  N   UNL     1      -8.044   8.722  68.001  1.00  0.00    -0.107 N  
HETATM   14  C   UNL     1      -7.892   9.980  68.636  1.00  0.00    -0.091 C  
HETATM   15  N   UNL     1      -8.134  10.961  67.680  1.00  0.00    -0.114 N  
HETATM   16  S   UNL     1      -7.285  10.160  70.197  1.00  0.00    -0.113 S  
HETATM   17  C   UNL     1      -6.320   8.522  66.227  1.00  0.00    -0.057 C  
HETATM   18  C   UNL     1      -7.969  10.381  66.432  1.00  0.00    -0.130 C  
HETATM   19  C   UNL     1      -8.772   8.175  65.640  1.00  0.00    -0.176 C  
HETATM   20  C   UNL     1      -7.776   8.858  66.581  1.00  0.00    -0.100 C  
HETATM   21  O   UNL     1      -7.907  10.934  65.338  1.00  0.00    -0.065 OA 
BRANCH  15  22
HETATM   22  C   UNL     1      -8.522  12.332  67.901  1.00  0.00    -0.165 A  
HETATM   23  C   UNL     1      -7.964  14.688  68.303  1.00  0.00    -0.133 A  
HETATM   24  C   UNL     1      -7.582  13.353  68.085  1.00  0.00    -0.138 A  
HETATM   25  C   UNL     1      -9.312  15.056  68.361  1.00  0.00    -0.193 A  
HETATM   26  C   UNL     1     -10.285  14.079  68.140  1.00  0.00    -0.243 A  
HETATM   27  C   UNL     1      -9.625  16.427  68.645  1.00  0.00    -0.240 C  
HETATM   28  C   UNL     1      -9.866  12.749  67.869  1.00  0.00    -0.223 A  
HETATM   29  N   UNL     1      -9.845  17.544  68.884  1.00  0.00    -0.307 NA 
HETATM   30  C   UNL     1     -11.774  14.343  68.179  1.00  0.00    -0.342 C  
HETATM   31  F   UNL     1     -12.405  13.526  69.066  1.00  0.00    -0.360 F  
HETATM   32  F   UNL     1     -12.362  14.107  66.974  1.00  0.00    -0.444 F  
HETATM   33  F   UNL     1     -12.129  15.604  68.527  1.00  0.00    -0.357 F  
ENDBRANCH  15  22
ENDBRANCH  10  13
ENDBRANCH   3   6
TORSDOF 3
ENDMDL
MODEL       68
REMARK 921   NORMALIZED FREE ENERGY PREDICTED BY IDOCK:   -5.29 KCAL/MOL
REMARK 922        TOTAL FREE ENERGY PREDICTED BY IDOCK:   -7.14 KCAL/MOL
REMARK 923 INTER-LIGAND FREE ENERGY PREDICTED BY IDOCK:   -6.00 KCAL/MOL
REMARK 924 INTRA-LIGAND FREE ENERGY PREDICTED BY IDOCK:   -1.13 KCAL/MOL
REMARK 927      BINDING AFFINITY PREDICTED BY RF-SCORE:    0.00 PKD
ROOT
HETATM    1  C   UNL     1     -10.898  16.874  67.355  1.00  0.00    -0.166 C  
HETATM    2  N   UNL     1     -10.457  15.526  67.594  1.00  0.00    -0.273 N  
HETATM    3  C   UNL     1     -11.039  14.456  66.953  1.00  0.00    -0.323 C  
HETATM    4  H   UNL     1      -9.696  15.360  68.252  1.00  0.00     0.000 HD 
HETATM    5  O   UNL     1     -11.948  14.566  66.140  1.00  0.00    -0.372 OA 
ENDROOT
BRANCH   3   6
HETATM    6  C   UNL     1     -10.470  13.120  67.252  1.00  0.00    -0.243 A  
HETATM    7  C   UNL     1     -10.760  12.422  68.423  1.00  0.00    -0.235 A  
HETATM    8  F   UNL     1     -11.612  12.925  69.330  1.00  0.00    -0.289 F  
HETATM    9  C   UNL     1     -10.167  11.187  68.700  1.00  0.00    -0.216 A  
HETATM   10  C   UNL     1      -9.239  10.636  67.818  1.00  0.00    -0.146 A  
HETATM   11  C   UNL     1      -8.990  11.320  66.614  1.00  0.00    -0.180 A  
HETATM   12  C   UNL     1      -9.597  12.546  66.328  1.00  0.00    -0.246 A  
BRANCH  10  13
HETATM   13  N   UNL     1      -8.576   9.403  68.079  1.00  0.00    -0.120 N  
HETATM   14  C   UNL     1      -9.218   8.147  68.220  1.00  0.00    -0.134 C  
HETATM   15  N   UNL     1      -8.437   7.374  69.074  1.00  0.00    -0.129 N  
HETATM   16  S   UNL     1     -10.543   7.676  67.293  1.00  0.00    -0.288 S  
HETATM   17  C   UNL     1      -6.369   9.042  67.003  1.00  0.00    -0.060 C  
HETATM   18  C   UNL     1      -7.162   7.915  69.082  1.00  0.00    -0.081 C  
HETATM   19  C   UNL     1      -6.500  10.299  69.213  1.00  0.00    -0.049 C  
HETATM   20  C   UNL     1      -7.151   9.250  68.308  1.00  0.00    -0.076 C  
HETATM   21  O   UNL     1      -6.134   7.434  69.550  1.00  0.00    -0.029 OA 
BRANCH  15  22
HETATM   22  C   UNL     1      -8.848   6.234  69.855  1.00  0.00    -0.141 A  
HETATM   23  C   UNL     1      -8.998   3.810  70.210  1.00  0.00    -0.170 A  
HETATM   24  C   UNL     1      -8.593   4.919  69.447  1.00  0.00    -0.100 A  
HETATM   25  C   UNL     1      -9.691   3.971  71.413  1.00  0.00    -0.253 A  
HETATM   26  C   UNL     1      -9.930   5.265  71.882  1.00  0.00    -0.240 A  
HETATM   27  C   UNL     1     -10.122   2.792  72.106  1.00  0.00    -0.140 C  
HETATM   28  C   UNL     1      -9.462   6.364  71.115  1.00  0.00    -0.177 A  
HETATM   29  N   UNL     1     -10.463   1.816  72.641  1.00  0.00    -0.148 NA 
HETATM   30  C   UNL     1     -10.670   5.577  73.163  1.00  0.00    -0.268 C  
HETATM   31  F   UNL     1     -11.730   6.402  72.942  1.00  0.00    -0.230 F  
HETATM   32  F   UNL     1      -9.877   6.224  74.062  1.00  0.00    -0.156 F  
HETATM   33  F   UNL     1     -11.174   4.502  73.818  1.00  0.00    -0.325 F  
ENDBRANCH  15  22
ENDBRANCH  10  13
ENDBRANCH   3   6
TORSDOF 3
ENDMDL
MODEL       69
REMARK 921   NORMALIZED FREE ENERGY PREDICTED BY IDOCK:   -5.29 KCAL/MOL
REMARK 922        TOTAL FREE ENERGY PREDICTED BY IDOCK:   -7.14 KCAL/MOL
REMARK 923 INTER-LIGAND FREE ENERGY PREDICTED BY IDOCK:   -6.68 KCAL/MOL
REMARK 924 INTRA-LIGAND FREE ENERGY PREDICTED BY IDOCK:   -0.46 KCAL/MOL
REMARK 927      BINDING AFFINITY PREDICTED BY RF-SCORE:    0.00 PKD
ROOT
HETATM    1  C   UNL     1      -9.812   4.634  71.035  1.00  0.00    -0.198 C  
HETATM    2  N   UNL     1      -9.989   5.978  70.553  1.00  0.00    -0.179 N  
HETATM    3  C   UNL     1      -8.913   6.769  70.219  1.00  0.00    -0.152 C  
HETATM    4  H   UNL     1     -10.932   6.353  70.456  1.00  0.00     0.000 HD 
HETATM    5  O   UNL     1      -7.749   6.395  70.294  1.00  0.00    -0.094 OA 
ENDROOT
BRANCH   3   6
HETATM    6  C   UNL     1      -9.225   8.120  69.696  1.00  0.00    -0.155 A  
HETATM    7  C   UNL     1      -9.255   8.413  68.334  1.00  0.00    -0.135 A  
HETATM    8  F   UNL     1      -9.033   7.455  67.420  1.00  0.00    -0.121 F  
HETATM    9  C   UNL     1      -9.502   9.708  67.873  1.00  0.00    -0.148 A  
HETATM   10  C   UNL     1      -9.694  10.755  68.775  1.00  0.00    -0.192 A  
HETATM   11  C   UNL     1      -9.715  10.443  70.146  1.00  0.00     0.227 A  
HETATM   12  C   UNL     1      -9.486   9.144  70.607  1.00  0.00    -0.316 A  
BRANCH  10  13
HETATM   13  N   UNL     1      -9.905  12.098  68.353  1.00  0.00    -0.212 N  
HETATM   14  C   UNL     1      -8.879  13.016  68.015  1.00  0.00    -0.191 C  
HETATM   15  N   UNL     1      -9.352  14.293  68.303  1.00  0.00    -0.203 N  
HETATM   16  S   UNL     1      -7.478  12.575  67.191  1.00  0.00    -0.012 S  
HETATM   17  C   UNL     1     -11.870  12.546  66.905  1.00  0.00    -0.404 C  
HETATM   18  C   UNL     1     -10.735  14.227  68.355  1.00  0.00    -0.251 C  
HETATM   19  C   UNL     1     -12.155  12.508  69.434  1.00  0.00    -0.237 C  
HETATM   20  C   UNL     1     -11.195  12.757  68.268  1.00  0.00    -0.271 C  
HETATM   21  O   UNL     1     -11.540  15.153  68.395  1.00  0.00    -0.318 OA 
BRANCH  15  22
HETATM   22  C   UNL     1      -8.579  15.486  68.545  1.00  0.00    -0.176 A  
HETATM   23  C   UNL     1      -6.647  16.635  69.529  1.00  0.00    -0.212 A  
HETATM   24  C   UNL     1      -7.395  15.470  69.293  1.00  0.00    -0.202 A  
HETATM   25  C   UNL     1      -7.062  17.877  69.037  1.00  0.00    -0.229 A  
HETATM   26  C   UNL     1      -8.214  17.934  68.250  1.00  0.00    -0.292 A  
HETATM   27  C   UNL     1      -6.278  19.030  69.369  1.00  0.00    -0.266 C  
HETATM   28  C   UNL     1      -8.919  16.731  67.984  1.00  0.00    -0.217 A  
HETATM   29  N   UNL     1      -5.623  19.947  69.661  1.00  0.00    -0.234 NA 
HETATM   30  C   UNL     1      -8.773  19.211  67.662  1.00  0.00    -0.296 C  
HETATM   31  F   UNL     1     -10.070  19.407  68.027  1.00  0.00    -0.383 F  
HETATM   32  F   UNL     1      -8.772  19.184  66.300  1.00  0.00    -0.300 F  
HETATM   33  F   UNL     1      -8.119  20.346  68.012  1.00  0.00    -0.308 F  
ENDBRANCH  15  22
ENDBRANCH  10  13
ENDBRANCH   3   6
TORSDOF 3
ENDMDL
MODEL       70
REMARK 921   NORMALIZED FREE ENERGY PREDICTED BY IDOCK:   -5.29 KCAL/MOL
REMARK 922        TOTAL FREE ENERGY PREDICTED BY IDOCK:   -7.13 KCAL/MOL
REMARK 923 INTER-LIGAND FREE ENERGY PREDICTED BY IDOCK:   -6.26 KCAL/MOL
REMARK 924 INTRA-LIGAND FREE ENERGY PREDICTED BY IDOCK:   -0.87 KCAL/MOL
REMARK 927      BINDING AFFINITY PREDICTED BY RF-SCORE:    0.00 PKD
ROOT
HETATM    1  C   UNL     1      -7.151   1.662  66.271  1.00  0.00    -0.050 C  
HETATM    2  N   UNL     1      -7.406   3.074  66.368  1.00  0.00    -0.073 N  
HETATM    3  C   UNL     1      -8.004   3.621  67.480  1.00  0.00    -0.082 C  
HETATM    4  H   UNL     1      -7.138   3.683  65.595  1.00  0.00     0.000 HD 
HETATM    5  O   UNL     1      -8.346   2.966  68.457  1.00  0.00    -0.063 OA 
ENDROOT
BRANCH   3   6
HETATM    6  C   UNL     1      -8.177   5.094  67.478  1.00  0.00    -0.103 A  
HETATM    7  C   UNL     1      -9.415   5.707  67.661  1.00  0.00    -0.115 A  
HETATM    8  F   UNL     1     -10.518   4.977  67.887  1.00  0.00    -0.204 F  
HETATM    9  C   UNL     1      -9.555   7.096  67.603  1.00  0.00    -0.152 A  
HETATM   10  C   UNL     1      -8.453   7.906  67.325  1.00  0.00    -0.121 A  
HETATM   11  C   UNL     1      -7.199   7.285  67.193  1.00  0.00    -0.092 A  
HETATM   12  C   UNL     1      -7.056   5.897  67.270  1.00  0.00    -0.074 A  
BRANCH  10  13
HETATM   13  N   UNL     1      -8.556   9.321  67.211  1.00  0.00    -0.124 N  
HETATM   14  C   UNL     1      -8.807  10.209  68.287  1.00  0.00    -0.124 C  
HETATM   15  N   UNL     1      -9.472  11.315  67.767  1.00  0.00    -0.167 N  
HETATM   16  S   UNL     1      -8.166   9.999  69.829  1.00  0.00    -0.152 S  
HETATM   17  C   UNL     1      -7.045  10.450  65.597  1.00  0.00    -0.142 C  
HETATM   18  C   UNL     1      -9.226  11.351  66.404  1.00  0.00    -0.197 C  
HETATM   19  C   UNL     1      -9.252   9.477  64.784  1.00  0.00    -0.267 C  
HETATM   20  C   UNL     1      -8.485  10.069  65.969  1.00  0.00    -0.131 C  
HETATM   21  O   UNL     1      -9.466  12.256  65.610  1.00  0.00    -0.186 OA 
BRANCH  15  22
HETATM   22  C   UNL     1     -10.305  12.258  68.473  1.00  0.00    -0.223 A  
HETATM   23  C   UNL     1     -12.137  12.769  70.024  1.00  0.00    -0.355 A  
HETATM   24  C   UNL     1     -11.326  11.848  69.340  1.00  0.00    -0.327 A  
HETATM   25  C   UNL     1     -11.970  14.147  69.856  1.00  0.00    -0.398 A  
HETATM   26  C   UNL     1     -10.936  14.603  69.035  1.00  0.00    -0.269 A  
HETATM   27  C   UNL     1     -12.874  15.024  70.543  1.00  0.00    -0.333 C  
HETATM   28  C   UNL     1     -10.100  13.648  68.400  1.00  0.00    -0.241 A  
HETATM   29  N   UNL     1     -13.626  15.708  71.108  1.00  0.00    -0.576 NA 
HETATM   30  C   UNL     1     -10.651  16.064  68.767  1.00  0.00    -0.262 C  
HETATM   31  F   UNL     1     -10.654  16.339  67.434  1.00  0.00    -0.293 F  
HETATM   32  F   UNL     1      -9.419  16.430  69.218  1.00  0.00    -0.238 F  
HETATM   33  F   UNL     1     -11.526  16.937  69.323  1.00  0.00    -0.131 F  
ENDBRANCH  15  22
ENDBRANCH  10  13
ENDBRANCH   3   6
TORSDOF 3
ENDMDL
MODEL       71
REMARK 921   NORMALIZED FREE ENERGY PREDICTED BY IDOCK:   -5.29 KCAL/MOL
REMARK 922        TOTAL FREE ENERGY PREDICTED BY IDOCK:   -7.13 KCAL/MOL
REMARK 923 INTER-LIGAND FREE ENERGY PREDICTED BY IDOCK:   -7.04 KCAL/MOL
REMARK 924 INTRA-LIGAND FREE ENERGY PREDICTED BY IDOCK:   -0.09 KCAL/MOL
REMARK 927      BINDING AFFINITY PREDICTED BY RF-SCORE:    0.00 PKD
ROOT
HETATM    1  C   UNL     1     -10.870   3.108  63.631  1.00  0.00    -0.180 C  
HETATM    2  N   UNL     1     -10.599   4.345  64.313  1.00  0.00    -0.472 N  
HETATM    3  C   UNL     1      -9.962   4.368  65.533  1.00  0.00    -0.230 C  
HETATM    4  H   UNL     1     -10.885   5.225  63.883  1.00  0.00     0.000 HD 
HETATM    5  O   UNL     1      -9.574   3.361  66.113  1.00  0.00    -0.147 OA 
ENDROOT
BRANCH   3   6
HETATM    6  C   UNL     1      -9.703   5.706  66.116  1.00  0.00    -0.127 A  
HETATM    7  C   UNL     1      -8.753   6.583  65.597  1.00  0.00    -0.091 A  
HETATM    8  F   UNL     1      -8.043   6.261  64.505  1.00  0.00    -0.113 F  
HETATM    9  C   UNL     1      -8.495   7.817  66.200  1.00  0.00    -0.143 A  
HETATM   10  C   UNL     1      -9.167   8.188  67.365  1.00  0.00    -0.137 A  
HETATM   11  C   UNL     1     -10.162   7.322  67.853  1.00  0.00    -0.237 A  
HETATM   12  C   UNL     1     -10.432   6.096  67.239  1.00  0.00    -0.317 A  
BRANCH  10  13
HETATM   13  N   UNL     1      -8.906   9.414  68.039  1.00  0.00    -0.124 N  
HETATM   14  C   UNL     1      -9.509  10.659  67.728  1.00  0.00    -0.153 C  
HETATM   15  N   UNL     1      -8.602  11.657  68.073  1.00  0.00    -0.146 N  
HETATM   16  S   UNL     1     -11.120  10.817  67.265  1.00  0.00    -0.201 S  
HETATM   17  C   UNL     1      -8.531   9.313  70.491  1.00  0.00    -0.251 C  
HETATM   18  C   UNL     1      -7.705  11.116  68.979  1.00  0.00    -0.114 C  
HETATM   19  C   UNL     1      -6.583   8.908  68.903  1.00  0.00    -0.052 C  
HETATM   20  C   UNL     1      -7.936   9.595  69.104  1.00  0.00    -0.099 C  
HETATM   21  O   UNL     1      -6.871  11.699  69.666  1.00  0.00    -0.099 OA 
BRANCH  15  22
HETATM   22  C   UNL     1      -8.548  13.010  67.576  1.00  0.00    -0.192 A  
HETATM   23  C   UNL     1      -7.457  15.203  67.421  1.00  0.00    -0.239 A  
HETATM   24  C   UNL     1      -7.505  13.885  67.905  1.00  0.00    -0.155 A  
HETATM   25  C   UNL     1      -8.466  15.710  66.595  1.00  0.00    -0.323 A  
HETATM   26  C   UNL     1      -9.504  14.861  66.207  1.00  0.00    -0.339 A  
HETATM   27  C   UNL     1      -8.378  17.083  66.189  1.00  0.00    -0.241 C  
HETATM   28  C   UNL     1      -9.496  13.519  66.669  1.00  0.00    -0.271 A  
HETATM   29  N   UNL     1      -8.281  18.200  65.883  1.00  0.00    -0.519 NA 
HETATM   30  C   UNL     1     -10.656  15.285  65.322  1.00  0.00    -0.417 C  
HETATM   31  F   UNL     1     -11.858  15.049  65.917  1.00  0.00    -0.307 F  
HETATM   32  F   UNL     1     -10.678  14.588  64.152  1.00  0.00    -0.229 F  
HETATM   33  F   UNL     1     -10.670  16.595  64.977  1.00  0.00    -0.372 F  
ENDBRANCH  15  22
ENDBRANCH  10  13
ENDBRANCH   3   6
TORSDOF 3
ENDMDL
MODEL       72
REMARK 921   NORMALIZED FREE ENERGY PREDICTED BY IDOCK:   -5.28 KCAL/MOL
REMARK 922        TOTAL FREE ENERGY PREDICTED BY IDOCK:   -7.13 KCAL/MOL
REMARK 923 INTER-LIGAND FREE ENERGY PREDICTED BY IDOCK:   -6.97 KCAL/MOL
REMARK 924 INTRA-LIGAND FREE ENERGY PREDICTED BY IDOCK:   -0.15 KCAL/MOL
REMARK 927      BINDING AFFINITY PREDICTED BY RF-SCORE:    0.00 PKD
ROOT
HETATM    1  C   UNL     1     -10.794  19.476  65.831  1.00  0.00    -0.326 C  
HETATM    2  N   UNL     1     -10.459  18.111  66.139  1.00  0.00    -0.404 N  
HETATM    3  C   UNL     1     -10.238  17.699  67.434  1.00  0.00    -0.345 C  
HETATM    4  H   UNL     1     -10.385  17.432  65.380  1.00  0.00     0.000 HD 
HETATM    5  O   UNL     1     -10.319  18.443  68.403  1.00  0.00    -0.367 OA 
ENDROOT
BRANCH   3   6
HETATM    6  C   UNL     1      -9.941  16.260  67.626  1.00  0.00    -0.247 A  
HETATM    7  C   UNL     1     -10.529  15.497  68.633  1.00  0.00    -0.237 A  
HETATM    8  F   UNL     1     -11.434  16.037  69.465  1.00  0.00    -0.286 F  
HETATM    9  C   UNL     1     -10.190  14.155  68.823  1.00  0.00    -0.216 A  
HETATM   10  C   UNL     1      -9.222  13.551  68.020  1.00  0.00    -0.209 A  
HETATM   11  C   UNL     1      -8.671  14.311  66.972  1.00  0.00    -0.231 A  
HETATM   12  C   UNL     1      -9.024  15.648  66.772  1.00  0.00    -0.291 A  
BRANCH  10  13
HETATM   13  N   UNL     1      -8.812  12.201  68.204  1.00  0.00    -0.183 N  
HETATM   14  C   UNL     1      -9.688  11.099  68.373  1.00  0.00    -0.191 C  
HETATM   15  N   UNL     1      -9.022  10.153  69.147  1.00  0.00    -0.165 N  
HETATM   16  S   UNL     1     -11.147  10.942  67.549  1.00  0.00    -0.287 S  
HETATM   17  C   UNL     1      -6.815  11.432  66.946  1.00  0.00    -0.142 C  
HETATM   18  C   UNL     1      -7.665  10.420  69.061  1.00  0.00    -0.116 C  
HETATM   19  C   UNL     1      -6.515  12.611  69.182  1.00  0.00    -0.106 C  
HETATM   20  C   UNL     1      -7.436  11.750  68.313  1.00  0.00    -0.103 C  
HETATM   21  O   UNL     1      -6.727   9.723  69.435  1.00  0.00    -0.050 OA 
BRANCH  15  22
HETATM   22  C   UNL     1      -9.599   9.095  69.938  1.00  0.00    -0.192 A  
HETATM   23  C   UNL     1     -11.273   7.332  70.280  1.00  0.00    -0.287 A  
HETATM   24  C   UNL     1     -10.711   8.361  69.505  1.00  0.00    -0.181 A  
HETATM   25  C   UNL     1     -10.752   7.003  71.535  1.00  0.00    -0.244 A  
HETATM   26  C   UNL     1      -9.617   7.678  71.989  1.00  0.00    -0.200 A  
HETATM   27  C   UNL     1     -11.415   5.981  72.293  1.00  0.00    -0.312 C  
HETATM   28  C   UNL     1      -9.041   8.676  71.160  1.00  0.00    -0.263 A  
HETATM   29  N   UNL     1     -11.978   5.153  72.884  1.00  0.00    -0.118 NA 
HETATM   30  C   UNL     1      -8.959   7.421  73.327  1.00  0.00    -0.165 C  
HETATM   31  F   UNL     1      -8.861   8.561  74.065  1.00  0.00    -0.257 F  
HETATM   32  F   UNL     1      -7.685   6.961  73.184  1.00  0.00    -0.090 F  
HETATM   33  F   UNL     1      -9.592   6.525  74.122  1.00  0.00    -0.163 F  
ENDBRANCH  15  22
ENDBRANCH  10  13
ENDBRANCH   3   6
TORSDOF 3
ENDMDL
MODEL       73
REMARK 921   NORMALIZED FREE ENERGY PREDICTED BY IDOCK:   -5.25 KCAL/MOL
REMARK 922        TOTAL FREE ENERGY PREDICTED BY IDOCK:   -7.09 KCAL/MOL
REMARK 923 INTER-LIGAND FREE ENERGY PREDICTED BY IDOCK:   -6.14 KCAL/MOL
REMARK 924 INTRA-LIGAND FREE ENERGY PREDICTED BY IDOCK:   -0.95 KCAL/MOL
REMARK 927      BINDING AFFINITY PREDICTED BY RF-SCORE:    0.00 PKD
ROOT
HETATM    1  C   UNL     1     -11.424  16.250  64.468  1.00  0.00    -0.169 C  
HETATM    2  N   UNL     1     -10.778  14.998  64.760  1.00  0.00    -0.580 N  
HETATM    3  C   UNL     1     -11.426  13.797  64.584  1.00  0.00    -0.371 C  
HETATM    4  H   UNL     1      -9.817  15.001  65.104  1.00  0.00     0.000 HD 
HETATM    5  O   UNL     1     -12.573  13.701  64.164  1.00  0.00    -0.655 OA 
ENDROOT
BRANCH   3   6
HETATM    6  C   UNL     1     -10.641  12.575  64.880  1.00  0.00    -0.330 A  
HETATM    7  C   UNL     1     -10.690  11.435  64.079  1.00  0.00    -0.387 A  
HETATM    8  F   UNL     1     -11.438  11.409  62.965  1.00  0.00    -0.344 F  
HETATM    9  C   UNL     1      -9.978  10.280  64.412  1.00  0.00    -0.331 A  
HETATM   10  C   UNL     1      -9.220  10.230  65.582  1.00  0.00    -0.184 A  
HETATM   11  C   UNL     1      -9.133  11.400  66.358  1.00  0.00    -0.201 A  
HETATM   12  C   UNL     1      -9.830  12.561  66.014  1.00  0.00    -0.266 A  
BRANCH  10  13
HETATM   13  N   UNL     1      -8.514   9.061  65.986  1.00  0.00    -0.124 N  
HETATM   14  C   UNL     1      -8.954   8.144  66.973  1.00  0.00    -0.141 C  
HETATM   15  N   UNL     1      -7.820   7.580  67.550  1.00  0.00    -0.114 N  
HETATM   16  S   UNL     1     -10.566   7.700  67.171  1.00  0.00    -0.294 S  
HETATM   17  C   UNL     1      -7.293   7.802  64.230  1.00  0.00    -0.089 C  
HETATM   18  C   UNL     1      -6.767   7.757  66.667  1.00  0.00    -0.066 C  
HETATM   19  C   UNL     1      -6.168   9.781  65.370  1.00  0.00    -0.080 C  
HETATM   20  C   UNL     1      -7.206   8.663  65.498  1.00  0.00    -0.084 C  
HETATM   21  O   UNL     1      -5.650   7.250  66.704  1.00  0.00    -0.022 OA 
BRANCH  15  22
HETATM   22  C   UNL     1      -7.709   6.947  68.841  1.00  0.00    -0.110 A  
HETATM   23  C   UNL     1      -7.457   4.950  70.245  1.00  0.00    -0.058 A  
HETATM   24  C   UNL     1      -7.563   5.562  68.984  1.00  0.00    -0.087 A  
HETATM   25  C   UNL     1      -7.509   5.701  71.423  1.00  0.00    -0.095 A  
HETATM   26  C   UNL     1      -7.611   7.090  71.328  1.00  0.00    -0.086 A  
HETATM   27  C   UNL     1      -7.454   5.000  72.673  1.00  0.00    -0.095 C  
HETATM   28  C   UNL     1      -7.661   7.684  70.039  1.00  0.00    -0.092 A  
HETATM   29  N   UNL     1      -7.413   4.401  73.669  1.00  0.00    -0.076 NA 
HETATM   30  C   UNL     1      -7.680   8.016  72.523  1.00  0.00    -0.120 C  
HETATM   31  F   UNL     1      -8.786   8.808  72.480  1.00  0.00    -0.289 F  
HETATM   32  F   UNL     1      -6.617   8.866  72.567  1.00  0.00    -0.096 F  
HETATM   33  F   UNL     1      -7.717   7.403  73.730  1.00  0.00    -0.110 F  
ENDBRANCH  15  22
ENDBRANCH  10  13
ENDBRANCH   3   6
TORSDOF 3
ENDMDL
MODEL       74
REMARK 921   NORMALIZED FREE ENERGY PREDICTED BY IDOCK:   -5.24 KCAL/MOL
REMARK 922        TOTAL FREE ENERGY PREDICTED BY IDOCK:   -7.07 KCAL/MOL
REMARK 923 INTER-LIGAND FREE ENERGY PREDICTED BY IDOCK:   -7.00 KCAL/MOL
REMARK 924 INTRA-LIGAND FREE ENERGY PREDICTED BY IDOCK:   -0.07 KCAL/MOL
REMARK 927      BINDING AFFINITY PREDICTED BY RF-SCORE:    0.00 PKD
ROOT
HETATM    1  C   UNL     1      -8.212   4.906  64.170  1.00  0.00    -0.122 C  
HETATM    2  N   UNL     1      -8.866   5.935  64.933  1.00  0.00    -0.367 N  
HETATM    3  C   UNL     1      -8.426   6.287  66.189  1.00  0.00    -0.138 C  
HETATM    4  H   UNL     1      -9.673   6.415  64.535  1.00  0.00     0.000 HD 
HETATM    5  O   UNL     1      -7.459   5.773  66.737  1.00  0.00    -0.081 OA 
ENDROOT
BRANCH   3   6
HETATM    6  C   UNL     1      -9.158   7.390  66.858  1.00  0.00    -0.164 A  
HETATM    7  C   UNL     1     -10.475   7.263  67.295  1.00  0.00    -0.310 A  
HETATM    8  F   UNL     1     -11.138   6.104  67.157  1.00  0.00    -0.351 F  
HETATM    9  C   UNL     1     -11.156   8.337  67.876  1.00  0.00     0.313 A  
HETATM   10  C   UNL     1     -10.536   9.580  68.004  1.00  0.00    -0.230 A  
HETATM   11  C   UNL     1      -9.190   9.686  67.609  1.00  0.00    -0.144 A  
HETATM   12  C   UNL     1      -8.504   8.607  67.045  1.00  0.00    -0.110 A  
BRANCH  10  13
HETATM   13  N   UNL     1     -11.203  10.713  68.548  1.00  0.00    -0.267 N  
HETATM   14  C   UNL     1     -11.324  11.973  67.909  1.00  0.00    -0.305 C  
HETATM   15  N   UNL     1     -11.404  12.940  68.906  1.00  0.00    -0.271 N  
HETATM   16  S   UNL     1     -11.567  12.149  66.252  1.00  0.00    -0.304 S  
HETATM   17  C   UNL     1     -13.264  10.301  69.868  1.00  0.00     0.616 C  
HETATM   18  C   UNL     1     -11.797  12.307  70.074  1.00  0.00    -0.296 C  
HETATM   19  C   UNL     1     -10.992  10.157  71.007  1.00  0.00    -0.146 C  
HETATM   20  C   UNL     1     -11.804  10.778  69.868  1.00  0.00    -0.335 C  
HETATM   21  O   UNL     1     -12.164  12.816  71.130  1.00  0.00    -0.247 OA 
BRANCH  15  22
HETATM   22  C   UNL     1     -11.108  14.347  68.797  1.00  0.00    -0.257 A  
HETATM   23  C   UNL     1     -10.813  16.567  69.801  1.00  0.00    -0.302 A  
HETATM   24  C   UNL     1     -11.099  15.196  69.911  1.00  0.00    -0.302 A  
HETATM   25  C   UNL     1     -10.537  17.153  68.561  1.00  0.00    -0.361 A  
HETATM   26  C   UNL     1     -10.493  16.337  67.429  1.00  0.00    -0.304 A  
HETATM   27  C   UNL     1     -10.312  18.569  68.520  1.00  0.00    -0.277 C  
HETATM   28  C   UNL     1     -10.734  14.946  67.581  1.00  0.00    -0.270 A  
HETATM   29  N   UNL     1     -10.141  19.719  68.519  1.00  0.00    -0.442 NA 
HETATM   30  C   UNL     1     -10.210  16.845  66.032  1.00  0.00    -0.336 C  
HETATM   31  F   UNL     1     -11.202  16.504  65.164  1.00  0.00    -0.287 F  
HETATM   32  F   UNL     1      -9.069  16.308  65.519  1.00  0.00    -0.269 F  
HETATM   33  F   UNL     1     -10.073  18.188  65.920  1.00  0.00    -0.330 F  
ENDBRANCH  15  22
ENDBRANCH  10  13
ENDBRANCH   3   6
TORSDOF 3
ENDMDL
MODEL       75
REMARK 921   NORMALIZED FREE ENERGY PREDICTED BY IDOCK:   -5.22 KCAL/MOL
REMARK 922        TOTAL FREE ENERGY PREDICTED BY IDOCK:   -7.05 KCAL/MOL
REMARK 923 INTER-LIGAND FREE ENERGY PREDICTED BY IDOCK:   -5.93 KCAL/MOL
REMARK 924 INTRA-LIGAND FREE ENERGY PREDICTED BY IDOCK:   -1.12 KCAL/MOL
REMARK 927      BINDING AFFINITY PREDICTED BY RF-SCORE:    0.00 PKD
ROOT
HETATM    1  C   UNL     1      -5.995   1.866  73.126  1.00  0.00    -0.008 C  
HETATM    2  N   UNL     1      -6.462   3.037  72.434  1.00  0.00    -0.014 N  
HETATM    3  C   UNL     1      -7.334   2.944  71.373  1.00  0.00    -0.033 C  
HETATM    4  H   UNL     1      -6.140   3.956  72.735  1.00  0.00     0.000 HD 
HETATM    5  O   UNL     1      -7.780   1.883  70.954  1.00  0.00    -0.033 OA 
ENDROOT
BRANCH   3   6
HETATM    6  C   UNL     1      -7.774   4.224  70.767  1.00  0.00    -0.056 A  
HETATM    7  C   UNL     1      -8.889   4.927  71.218  1.00  0.00    -0.132 A  
HETATM    8  F   UNL     1      -9.606   4.484  72.263  1.00  0.00    -0.159 F  
HETATM    9  C   UNL     1      -9.309   6.104  70.593  1.00  0.00    -0.177 A  
HETATM   10  C   UNL     1      -8.633   6.590  69.474  1.00  0.00    -0.134 A  
HETATM   11  C   UNL     1      -7.478   5.905  69.057  1.00  0.00    -0.085 A  
HETATM   12  C   UNL     1      -7.047   4.737  69.693  1.00  0.00    -0.054 A  
BRANCH  10  13
HETATM   13  N   UNL     1      -9.050   7.760  68.778  1.00  0.00    -0.141 N  
HETATM   14  C   UNL     1      -9.016   9.076  69.304  1.00  0.00    -0.144 C  
HETATM   15  N   UNL     1     -10.038   9.795  68.692  1.00  0.00    -0.163 N  
HETATM   16  S   UNL     1      -7.778   9.645  70.293  1.00  0.00    -0.169 S  
HETATM   17  C   UNL     1      -8.576   7.871  66.344  1.00  0.00    -0.156 C  
HETATM   18  C   UNL     1     -10.376   9.133  67.522  1.00  0.00    -0.261 C  
HETATM   19  C   UNL     1     -10.684   6.701  67.162  1.00  0.00    -0.440 C  
HETATM   20  C   UNL     1      -9.637   7.780  67.451  1.00  0.00    -0.151 C  
HETATM   21  O   UNL     1     -11.090   9.526  66.605  1.00  0.00     0.128 OA 
BRANCH  15  22
HETATM   22  C   UNL     1     -10.683  10.993  69.170  1.00  0.00    -0.234 A  
HETATM   23  C   UNL     1     -12.336  12.130  70.584  1.00  0.00    -0.385 A  
HETATM   24  C   UNL     1     -11.709  10.959  70.123  1.00  0.00    -0.433 A  
HETATM   25  C   UNL     1     -11.972  13.388  70.096  1.00  0.00    -0.396 A  
HETATM   26  C   UNL     1     -10.924  13.474  69.177  1.00  0.00    -0.220 A  
HETATM   27  C   UNL     1     -12.697  14.531  70.571  1.00  0.00    -0.345 C  
HETATM   28  C   UNL     1     -10.274  12.279  68.770  1.00  0.00    -0.119 A  
HETATM   29  N   UNL     1     -13.309  15.436  70.970  1.00  0.00    -0.497 NA 
HETATM   30  C   UNL     1     -10.436  14.771  68.570  1.00  0.00    -0.249 C  
HETATM   31  F   UNL     1     -10.465  14.731  67.210  1.00  0.00    -0.254 F  
HETATM   32  F   UNL     1      -9.142  15.032  68.905  1.00  0.00    -0.171 F  
HETATM   33  F   UNL     1     -11.140  15.875  68.918  1.00  0.00    -0.243 F  
ENDBRANCH  15  22
ENDBRANCH  10  13
ENDBRANCH   3   6
TORSDOF 3
ENDMDL
MODEL       76
REMARK 921   NORMALIZED FREE ENERGY PREDICTED BY IDOCK:   -5.22 KCAL/MOL
REMARK 922        TOTAL FREE ENERGY PREDICTED BY IDOCK:   -7.05 KCAL/MOL
REMARK 923 INTER-LIGAND FREE ENERGY PREDICTED BY IDOCK:   -6.09 KCAL/MOL
REMARK 924 INTRA-LIGAND FREE ENERGY PREDICTED BY IDOCK:   -0.96 KCAL/MOL
REMARK 927      BINDING AFFINITY PREDICTED BY RF-SCORE:    0.00 PKD
ROOT
HETATM    1  C   UNL     1      -9.508   1.618  70.419  1.00  0.00    -0.083 C  
HETATM    2  N   UNL     1      -9.296   2.876  69.754  1.00  0.00    -0.148 N  
HETATM    3  C   UNL     1      -8.648   2.947  68.542  1.00  0.00    -0.083 C  
HETATM    4  H   UNL     1      -9.633   3.734  70.191  1.00  0.00     0.000 HD 
HETATM    5  O   UNL     1      -8.223   1.967  67.943  1.00  0.00    -0.062 OA 
ENDROOT
BRANCH   3   6
HETATM    6  C   UNL     1      -8.527   4.296  67.938  1.00  0.00    -0.100 A  
HETATM    7  C   UNL     1      -9.417   4.775  66.980  1.00  0.00    -0.152 A  
HETATM    8  F   UNL     1     -10.464   4.035  66.582  1.00  0.00    -0.107 F  
HETATM    9  C   UNL     1      -9.247   6.031  66.390  1.00  0.00    -0.163 A  
HETATM   10  C   UNL     1      -8.152   6.827  66.729  1.00  0.00    -0.109 A  
HETATM   11  C   UNL     1      -7.287   6.360  67.734  1.00  0.00    -0.088 A  
HETATM   12  C   UNL     1      -7.469   5.112  68.337  1.00  0.00    -0.075 A  
BRANCH  10  13
HETATM   13  N   UNL     1      -7.913   8.093  66.123  1.00  0.00    -0.098 N  
HETATM   14  C   UNL     1      -8.548   9.305  66.492  1.00  0.00    -0.130 C  
HETATM   15  N   UNL     1      -8.599  10.109  65.357  1.00  0.00    -0.147 N  
HETATM   16  S   UNL     1      -8.915   9.711  68.084  1.00  0.00    -0.122 S  
HETATM   17  C   UNL     1      -5.586   8.603  65.426  1.00  0.00    -0.046 C  
HETATM   18  C   UNL     1      -7.640   9.646  64.470  1.00  0.00    -0.127 C  
HETATM   19  C   UNL     1      -7.113   7.305  63.856  1.00  0.00    -0.068 C  
HETATM   20  C   UNL     1      -7.033   8.327  64.993  1.00  0.00    -0.074 C  
HETATM   21  O   UNL     1      -7.232  10.180  63.443  1.00  0.00    -0.132 OA 
BRANCH  15  22
HETATM   22  C   UNL     1      -9.493  11.210  65.095  1.00  0.00    -0.226 A  
HETATM   23  C   UNL     1     -11.415  12.189  63.924  1.00  0.00    -0.519 A  
HETATM   24  C   UNL     1     -10.548  11.113  64.179  1.00  0.00    -0.436 A  
HETATM   25  C   UNL     1     -11.253  13.420  64.568  1.00  0.00    -0.393 A  
HETATM   26  C   UNL     1     -10.241  13.550  65.521  1.00  0.00    -0.308 A  
HETATM   27  C   UNL     1     -12.141  14.489  64.212  1.00  0.00    -0.425 C  
HETATM   28  C   UNL     1      -9.415  12.428  65.795  1.00  0.00    -0.094 A  
HETATM   29  N   UNL     1     -12.872  15.336  63.897  1.00  0.00    -0.437 NA 
HETATM   30  C   UNL     1      -9.957  14.825  66.284  1.00  0.00    -0.291 C  
HETATM   31  F   UNL     1      -8.664  15.222  66.134  1.00  0.00    -0.319 F  
HETATM   32  F   UNL     1     -10.142  14.665  67.624  1.00  0.00    -0.223 F  
HETATM   33  F   UNL     1     -10.711  15.893  65.929  1.00  0.00    -0.306 F  
ENDBRANCH  15  22
ENDBRANCH  10  13
ENDBRANCH   3   6
TORSDOF 3
ENDMDL
MODEL       77
REMARK 921   NORMALIZED FREE ENERGY PREDICTED BY IDOCK:   -5.22 KCAL/MOL
REMARK 922        TOTAL FREE ENERGY PREDICTED BY IDOCK:   -7.05 KCAL/MOL
REMARK 923 INTER-LIGAND FREE ENERGY PREDICTED BY IDOCK:   -6.67 KCAL/MOL
REMARK 924 INTRA-LIGAND FREE ENERGY PREDICTED BY IDOCK:   -0.37 KCAL/MOL
REMARK 927      BINDING AFFINITY PREDICTED BY RF-SCORE:    0.00 PKD
ROOT
HETATM    1  C   UNL     1     -10.676  18.568  65.714  1.00  0.00    -0.156 C  
HETATM    2  N   UNL     1     -10.407  17.193  66.041  1.00  0.00    -0.345 N  
HETATM    3  C   UNL     1     -10.783  16.169  65.202  1.00  0.00    -0.371 C  
HETATM    4  H   UNL     1      -9.926  16.973  66.913  1.00  0.00     0.000 HD 
HETATM    5  O   UNL     1     -11.353  16.345  64.132  1.00  0.00    -0.941 OA 
ENDROOT
BRANCH   3   6
HETATM    6  C   UNL     1     -10.414  14.798  65.629  1.00  0.00    -0.365 A  
HETATM    7  C   UNL     1     -11.184  13.679  65.319  1.00  0.00    -0.299 A  
HETATM    8  F   UNL     1     -12.296  13.794  64.576  1.00  0.00    -0.399 F  
HETATM    9  C   UNL     1     -10.838  12.406  65.780  1.00  0.00    -0.312 A  
HETATM   10  C   UNL     1      -9.720  12.230  66.595  1.00  0.00    -0.222 A  
HETATM   11  C   UNL     1      -8.918  13.355  66.861  1.00  0.00    -0.216 A  
HETATM   12  C   UNL     1      -9.254  14.625  66.384  1.00  0.00    -0.280 A  
BRANCH  10  13
HETATM   13  N   UNL     1      -9.353  10.961  67.124  1.00  0.00    -0.159 N  
HETATM   14  C   UNL     1      -8.839   9.879  66.365  1.00  0.00    -0.142 C  
HETATM   15  N   UNL     1      -9.218   8.704  67.007  1.00  0.00    -0.145 N  
HETATM   16  S   UNL     1      -7.769  10.077  65.080  1.00  0.00    -0.140 S  
HETATM   17  C   UNL     1      -8.292  10.922  69.368  1.00  0.00     0.051 C  
HETATM   18  C   UNL     1      -9.522   9.022  68.321  1.00  0.00    -0.146 C  
HETATM   19  C   UNL     1     -10.831  10.943  69.177  1.00  0.00    -0.280 C  
HETATM   20  C   UNL     1      -9.510  10.553  68.508  1.00  0.00    -0.164 C  
HETATM   21  O   UNL     1      -9.716   8.259  69.263  1.00  0.00    -0.172 OA 
BRANCH  15  22
HETATM   22  C   UNL     1      -9.323   7.383  66.439  1.00  0.00    -0.155 A  
HETATM   23  C   UNL     1     -10.497   5.245  66.167  1.00  0.00    -0.259 A  
HETATM   24  C   UNL     1     -10.400   6.533  66.720  1.00  0.00    -0.279 A  
HETATM   25  C   UNL     1      -9.507   4.744  65.316  1.00  0.00    -0.141 A  
HETATM   26  C   UNL     1      -8.436   5.572  64.973  1.00  0.00    -0.147 A  
HETATM   27  C   UNL     1      -9.647   3.399  64.837  1.00  0.00    -0.152 C  
HETATM   28  C   UNL     1      -8.393   6.887  65.506  1.00  0.00    -0.138 A  
HETATM   29  N   UNL     1      -9.786   2.304  64.471  1.00  0.00    -0.034 NA 
HETATM   30  C   UNL     1      -7.299   5.152  64.067  1.00  0.00    -0.055 C  
HETATM   31  F   UNL     1      -6.091   5.309  64.674  1.00  0.00    -0.020 F  
HETATM   32  F   UNL     1      -7.247   5.908  62.936  1.00  0.00    -0.043 F  
HETATM   33  F   UNL     1      -7.335   3.862  63.652  1.00  0.00    -0.048 F  
ENDBRANCH  15  22
ENDBRANCH  10  13
ENDBRANCH   3   6
TORSDOF 3
ENDMDL
MODEL       78
REMARK 921   NORMALIZED FREE ENERGY PREDICTED BY IDOCK:   -5.21 KCAL/MOL
REMARK 922        TOTAL FREE ENERGY PREDICTED BY IDOCK:   -7.04 KCAL/MOL
REMARK 923 INTER-LIGAND FREE ENERGY PREDICTED BY IDOCK:   -6.78 KCAL/MOL
REMARK 924 INTRA-LIGAND FREE ENERGY PREDICTED BY IDOCK:   -0.26 KCAL/MOL
REMARK 927      BINDING AFFINITY PREDICTED BY RF-SCORE:    0.00 PKD
ROOT
HETATM    1  C   UNL     1      -9.170   5.228  70.021  1.00  0.00    -0.138 C  
HETATM    2  N   UNL     1      -9.181   6.467  69.290  1.00  0.00    -0.139 N  
HETATM    3  C   UNL     1     -10.327   6.939  68.692  1.00  0.00    -0.186 C  
HETATM    4  H   UNL     1      -8.319   7.008  69.213  1.00  0.00     0.000 HD 
HETATM    5  O   UNL     1     -11.406   6.360  68.745  1.00  0.00    -0.327 OA 
ENDROOT
BRANCH   3   6
HETATM    6  C   UNL     1     -10.221   8.246  68.001  1.00  0.00    -0.265 A  
HETATM    7  C   UNL     1      -9.769   8.371  66.689  1.00  0.00    -0.251 A  
HETATM    8  F   UNL     1      -9.438   7.287  65.970  1.00  0.00    -0.190 F  
HETATM    9  C   UNL     1      -9.630   9.622  66.082  1.00  0.00    -0.295 A  
HETATM   10  C   UNL     1      -9.913  10.788  66.795  1.00  0.00    -0.206 A  
HETATM   11  C   UNL     1     -10.418  10.653  68.100  1.00  0.00    -0.215 A  
HETATM   12  C   UNL     1     -10.575   9.400  68.700  1.00  0.00    -0.230 A  
BRANCH  10  13
HETATM   13  N   UNL     1      -9.744  12.085  66.234  1.00  0.00    -0.230 N  
HETATM   14  C   UNL     1      -8.726  13.003  66.596  1.00  0.00    -0.019 C  
HETATM   15  N   UNL     1      -9.230  14.284  66.390  1.00  0.00    -0.240 N  
HETATM   16  S   UNL     1      -7.149  12.540  66.959  1.00  0.00     0.154 S  
HETATM   17  C   UNL     1     -10.222  12.354  63.813  1.00  0.00    -0.404 C  
HETATM   18  C   UNL     1     -10.294  14.181  65.509  1.00  0.00    -0.351 C  
HETATM   19  C   UNL     1     -12.126  12.513  65.496  1.00  0.00    -0.481 C  
HETATM   20  C   UNL     1     -10.625  12.696  65.255  1.00  0.00    -0.291 C  
HETATM   21  O   UNL     1     -10.890  15.082  64.926  1.00  0.00    -0.393 OA 
BRANCH  15  22
HETATM   22  C   UNL     1      -8.779  15.516  66.990  1.00  0.00    -0.231 A  
HETATM   23  C   UNL     1      -8.845  17.961  67.190  1.00  0.00    -0.250 A  
HETATM   24  C   UNL     1      -9.289  16.763  66.605  1.00  0.00    -0.274 A  
HETATM   25  C   UNL     1      -7.857  17.964  68.179  1.00  0.00    -0.266 A  
HETATM   26  C   UNL     1      -7.351  16.741  68.624  1.00  0.00    -0.218 A  
HETATM   27  C   UNL     1      -7.414  19.230  68.686  1.00  0.00    -0.345 C  
HETATM   28  C   UNL     1      -7.857  15.545  68.052  1.00  0.00    -0.132 A  
HETATM   29  N   UNL     1      -7.073  20.273  69.072  1.00  0.00    -0.118 NA 
HETATM   30  C   UNL     1      -6.279  16.605  69.683  1.00  0.00    -0.226 C  
HETATM   31  F   UNL     1      -5.215  15.885  69.231  1.00  0.00    -0.106 F  
HETATM   32  F   UNL     1      -6.734  15.943  70.782  1.00  0.00     0.309 F  
HETATM   33  F   UNL     1      -5.762  17.772  70.138  1.00  0.00    -0.221 F  
ENDBRANCH  15  22
ENDBRANCH  10  13
ENDBRANCH   3   6
TORSDOF 3
ENDMDL
MODEL       79
REMARK 921   NORMALIZED FREE ENERGY PREDICTED BY IDOCK:   -5.19 KCAL/MOL
REMARK 922        TOTAL FREE ENERGY PREDICTED BY IDOCK:   -7.01 KCAL/MOL
REMARK 923 INTER-LIGAND FREE ENERGY PREDICTED BY IDOCK:   -7.76 KCAL/MOL
REMARK 924 INTRA-LIGAND FREE ENERGY PREDICTED BY IDOCK:    0.75 KCAL/MOL
REMARK 927      BINDING AFFINITY PREDICTED BY RF-SCORE:    0.00 PKD
ROOT
HETATM    1  C   UNL     1     -13.980  15.944  73.047  1.00  0.00    -0.282 C  
HETATM    2  N   UNL     1     -13.543  15.300  71.837  1.00  0.00    -0.432 N  
HETATM    3  C   UNL     1     -12.289  15.526  71.317  1.00  0.00    -0.408 C  
HETATM    4  H   UNL     1     -14.176  14.663  71.355  1.00  0.00     0.000 HD 
HETATM    5  O   UNL     1     -11.462  16.265  71.838  1.00  0.00    -0.387 OA 
ENDROOT
BRANCH   3   6
HETATM    6  C   UNL     1     -11.940  14.773  70.088  1.00  0.00    -0.367 A  
HETATM    7  C   UNL     1     -11.476  15.394  68.931  1.00  0.00    -0.342 A  
HETATM    8  F   UNL     1     -11.287  16.722  68.891  1.00  0.00    -0.288 F  
HETATM    9  C   UNL     1     -11.204  14.663  67.771  1.00  0.00    -0.320 A  
HETATM   10  C   UNL     1     -11.425  13.286  67.736  1.00  0.00    -0.317 A  
HETATM   11  C   UNL     1     -11.844  12.658  68.923  1.00  0.00    -0.345 A  
HETATM   12  C   UNL     1     -12.097  13.387  70.088  1.00  0.00    -0.415 A  
BRANCH  10  13
HETATM   13  N   UNL     1     -11.206  12.507  66.565  1.00  0.00    -0.291 N  
HETATM   14  C   UNL     1     -10.659  11.199  66.547  1.00  0.00    -0.262 C  
HETATM   15  N   UNL     1     -10.003  11.040  65.331  1.00  0.00    -0.245 N  
HETATM   16  S   UNL     1     -11.002  10.037  67.716  1.00  0.00    -0.175 S  
HETATM   17  C   UNL     1     -12.884  12.684  64.745  1.00  0.00    -0.349 C  
HETATM   18  C   UNL     1     -10.508  11.986  64.453  1.00  0.00    -0.312 C  
HETATM   19  C   UNL     1     -10.989  14.379  64.877  1.00  0.00    -0.416 C  
HETATM   20  C   UNL     1     -11.444  12.954  65.205  1.00  0.00    -0.313 C  
HETATM   21  O   UNL     1     -10.338  12.065  63.240  1.00  0.00    -0.434 OA 
BRANCH  15  22
HETATM   22  C   UNL     1      -8.957  10.100  65.008  1.00  0.00    -0.195 A  
HETATM   23  C   UNL     1      -7.804   8.625  63.422  1.00  0.00    -0.151 A  
HETATM   24  C   UNL     1      -8.823   9.542  63.731  1.00  0.00    -0.238 A  
HETATM   25  C   UNL     1      -6.880   8.213  64.389  1.00  0.00    -0.068 A  
HETATM   26  C   UNL     1      -6.949   8.776  65.665  1.00  0.00    -0.079 A  
HETATM   27  C   UNL     1      -5.906   7.230  64.014  1.00  0.00    -0.037 C  
HETATM   28  C   UNL     1      -7.957   9.740  65.931  1.00  0.00    -0.111 A  
HETATM   29  N   UNL     1      -5.133   6.428  63.681  1.00  0.00    -0.017 NA 
HETATM   30  C   UNL     1      -6.015   8.416  66.799  1.00  0.00    -0.053 C  
HETATM   31  F   UNL     1      -6.701   7.999  67.899  1.00  0.00    -0.060 F  
HETATM   32  F   UNL     1      -5.276   9.485  67.205  1.00  0.00    -0.035 F  
HETATM   33  F   UNL     1      -5.127   7.429  66.527  1.00  0.00    -0.020 F  
ENDBRANCH  15  22
ENDBRANCH  10  13
ENDBRANCH   3   6
TORSDOF 3
ENDMDL
MODEL       80
REMARK 921   NORMALIZED FREE ENERGY PREDICTED BY IDOCK:   -5.17 KCAL/MOL
REMARK 922        TOTAL FREE ENERGY PREDICTED BY IDOCK:   -6.99 KCAL/MOL
REMARK 923 INTER-LIGAND FREE ENERGY PREDICTED BY IDOCK:   -6.13 KCAL/MOL
REMARK 924 INTRA-LIGAND FREE ENERGY PREDICTED BY IDOCK:   -0.87 KCAL/MOL
REMARK 927      BINDING AFFINITY PREDICTED BY RF-SCORE:    0.00 PKD
ROOT
HETATM    1  C   UNL     1     -14.367  14.631  72.023  1.00  0.00    -0.558 C  
HETATM    2  N   UNL     1     -13.326  13.968  71.285  1.00  0.00    -0.305 N  
HETATM    3  C   UNL     1     -12.626  14.613  70.291  1.00  0.00    -0.318 C  
HETATM    4  H   UNL     1     -13.101  12.997  71.503  1.00  0.00     0.000 HD 
HETATM    5  O   UNL     1     -12.822  15.780  69.973  1.00  0.00    -0.225 OA 
ENDROOT
BRANCH   3   6
HETATM    6  C   UNL     1     -11.550  13.836  69.630  1.00  0.00    -0.343 A  
HETATM    7  C   UNL     1     -10.437  14.437  69.045  1.00  0.00    -0.222 A  
HETATM    8  F   UNL     1     -10.273  15.768  69.087  1.00  0.00    -0.187 F  
HETATM    9  C   UNL     1      -9.465  13.681  68.384  1.00  0.00    -0.190 A  
HETATM   10  C   UNL     1      -9.605  12.298  68.267  1.00  0.00    -0.212 A  
HETATM   11  C   UNL     1     -10.702  11.693  68.905  1.00  0.00    -0.244 A  
HETATM   12  C   UNL     1     -11.665  12.447  69.582  1.00  0.00    -0.377 A  
BRANCH  10  13
HETATM   13  N   UNL     1      -8.664  11.492  67.566  1.00  0.00    -0.142 N  
HETATM   14  C   UNL     1      -8.970  10.653  66.465  1.00  0.00    -0.156 C  
HETATM   15  N   UNL     1      -8.062   9.599  66.481  1.00  0.00    -0.118 N  
HETATM   16  S   UNL     1     -10.083  11.064  65.270  1.00  0.00    -0.293 S  
HETATM   17  C   UNL     1      -6.386  12.422  67.236  1.00  0.00    -0.142 C  
HETATM   18  C   UNL     1      -6.969   9.997  67.233  1.00  0.00    -0.083 C  
HETATM   19  C   UNL     1      -6.944  11.200  69.398  1.00  0.00    -0.124 C  
HETATM   20  C   UNL     1      -7.260  11.353  67.908  1.00  0.00    -0.084 C  
HETATM   21  O   UNL     1      -5.877   9.446  67.340  1.00  0.00    -0.045 OA 
BRANCH  15  22
HETATM   22  C   UNL     1      -8.207   8.300  65.871  1.00  0.00    -0.119 A  
HETATM   23  C   UNL     1      -7.821   6.739  64.017  1.00  0.00    -0.106 A  
HETATM   24  C   UNL     1      -7.675   8.005  64.609  1.00  0.00    -0.126 A  
HETATM   25  C   UNL     1      -8.522   5.714  64.659  1.00  0.00    -0.085 A  
HETATM   26  C   UNL     1      -9.032   5.949  65.937  1.00  0.00    -0.149 A  
HETATM   27  C   UNL     1      -8.678   4.467  63.966  1.00  0.00    -0.139 C  
HETATM   28  C   UNL     1      -8.823   7.221  66.532  1.00  0.00    -0.156 A  
HETATM   29  N   UNL     1      -8.793   3.472  63.376  1.00  0.00    -0.094 NA 
HETATM   30  C   UNL     1      -9.811   4.928  66.737  1.00  0.00    -0.200 C  
HETATM   31  F   UNL     1     -11.028   5.409  67.115  1.00  0.00    -0.289 F  
HETATM   32  F   UNL     1      -9.170   4.593  67.892  1.00  0.00    -0.116 F  
HETATM   33  F   UNL     1     -10.063   3.760  66.098  1.00  0.00    -0.177 F  
ENDBRANCH  15  22
ENDBRANCH  10  13
ENDBRANCH   3   6
TORSDOF 3
ENDMDL
MODEL       81
REMARK 921   NORMALIZED FREE ENERGY PREDICTED BY IDOCK:   -5.10 KCAL/MOL
REMARK 922        TOTAL FREE ENERGY PREDICTED BY IDOCK:   -6.91 KCAL/MOL
REMARK 923 INTER-LIGAND FREE ENERGY PREDICTED BY IDOCK:   -7.66 KCAL/MOL
REMARK 924 INTRA-LIGAND FREE ENERGY PREDICTED BY IDOCK:    0.75 KCAL/MOL
REMARK 927      BINDING AFFINITY PREDICTED BY RF-SCORE:    0.00 PKD
ROOT
HETATM    1  C   UNL     1     -13.490  15.596  72.033  1.00  0.00    -0.447 C  
HETATM    2  N   UNL     1     -13.082  14.231  71.831  1.00  0.00    -0.343 N  
HETATM    3  C   UNL     1     -12.656  13.784  70.601  1.00  0.00    -0.315 C  
HETATM    4  H   UNL     1     -13.108  13.581  72.617  1.00  0.00     0.000 HD 
HETATM    5  O   UNL     1     -12.581  14.498  69.609  1.00  0.00    -0.242 OA 
ENDROOT
BRANCH   3   6
HETATM    6  C   UNL     1     -12.223  12.367  70.529  1.00  0.00    -0.382 A  
HETATM    7  C   UNL     1     -12.686  11.392  71.410  1.00  0.00    -0.384 A  
HETATM    8  F   UNL     1     -13.588  11.693  72.357  1.00  0.00    -0.536 F  
HETATM    9  C   UNL     1     -12.220  10.076  71.350  1.00  0.00    -0.510 A  
HETATM   10  C   UNL     1     -11.247   9.713  70.418  1.00  0.00    -0.283 A  
HETATM   11  C   UNL     1     -10.823  10.689  69.499  1.00  0.00    -0.303 A  
HETATM   12  C   UNL     1     -11.303  12.001  69.547  1.00  0.00    -0.298 A  
BRANCH  10  13
HETATM   13  N   UNL     1     -10.710   8.397  70.349  1.00  0.00    -0.228 N  
HETATM   14  C   UNL     1      -9.940   7.887  69.273  1.00  0.00    -0.190 C  
HETATM   15  N   UNL     1     -10.161   6.514  69.219  1.00  0.00    -0.163 N  
HETATM   16  S   UNL     1      -8.806   8.803  68.432  1.00  0.00    -0.138 S  
HETATM   17  C   UNL     1      -9.879   7.389  72.459  1.00  0.00    -0.213 C  
HETATM   18  C   UNL     1     -10.641   6.115  70.455  1.00  0.00    -0.253 C  
HETATM   19  C   UNL     1     -12.350   7.217  71.871  1.00  0.00    -0.352 C  
HETATM   20  C   UNL     1     -10.923   7.352  71.334  1.00  0.00    -0.235 C  
HETATM   21  O   UNL     1     -10.784   4.975  70.885  1.00  0.00    -0.134 OA 
BRANCH  15  22
HETATM   22  C   UNL     1      -9.972   5.634  68.091  1.00  0.00    -0.147 A  
HETATM   23  C   UNL     1     -10.576   4.857  65.843  1.00  0.00    -0.280 A  
HETATM   24  C   UNL     1     -10.762   5.718  66.938  1.00  0.00    -0.381 A  
HETATM   25  C   UNL     1      -9.597   3.859  65.863  1.00  0.00    -0.185 A  
HETATM   26  C   UNL     1      -8.757   3.765  66.975  1.00  0.00    -0.120 A  
HETATM   27  C   UNL     1      -9.506   2.981  64.733  1.00  0.00    -0.143 C  
HETATM   28  C   UNL     1      -8.934   4.684  68.042  1.00  0.00    -0.131 A  
HETATM   29  N   UNL     1      -9.463   2.282  63.804  1.00  0.00    -0.109 NA 
HETATM   30  C   UNL     1      -7.663   2.731  67.123  1.00  0.00    -0.070 C  
HETATM   31  F   UNL     1      -7.809   2.007  68.267  1.00  0.00    -0.053 F  
HETATM   32  F   UNL     1      -6.431   3.305  67.203  1.00  0.00    -0.033 F  
HETATM   33  F   UNL     1      -7.586   1.821  66.122  1.00  0.00    -0.058 F  
ENDBRANCH  15  22
ENDBRANCH  10  13
ENDBRANCH   3   6
TORSDOF 3
ENDMDL
MODEL       82
REMARK 921   NORMALIZED FREE ENERGY PREDICTED BY IDOCK:   -5.10 KCAL/MOL
REMARK 922        TOTAL FREE ENERGY PREDICTED BY IDOCK:   -6.91 KCAL/MOL
REMARK 923 INTER-LIGAND FREE ENERGY PREDICTED BY IDOCK:   -6.09 KCAL/MOL
REMARK 924 INTRA-LIGAND FREE ENERGY PREDICTED BY IDOCK:   -0.82 KCAL/MOL
REMARK 927      BINDING AFFINITY PREDICTED BY RF-SCORE:    0.00 PKD
ROOT
HETATM    1  C   UNL     1      -7.677   4.212  70.484  1.00  0.00    -0.048 C  
HETATM    2  N   UNL     1      -7.911   5.478  69.842  1.00  0.00    -0.081 N  
HETATM    3  C   UNL     1      -8.203   6.609  70.571  1.00  0.00    -0.118 C  
HETATM    4  H   UNL     1      -7.859   5.540  68.825  1.00  0.00     0.000 HD 
HETATM    5  O   UNL     1      -8.273   6.628  71.794  1.00  0.00    -0.110 OA 
ENDROOT
BRANCH   3   6
HETATM    6  C   UNL     1      -8.384   7.862  69.799  1.00  0.00    -0.127 A  
HETATM    7  C   UNL     1      -9.377   8.793  70.096  1.00  0.00    -0.169 A  
HETATM    8  F   UNL     1     -10.205   8.608  71.135  1.00  0.00    -0.221 F  
HETATM    9  C   UNL     1      -9.556   9.940  69.318  1.00  0.00    -0.215 A  
HETATM   10  C   UNL     1      -8.756  10.165  68.196  1.00  0.00    -0.122 A  
HETATM   11  C   UNL     1      -7.723   9.248  67.933  1.00  0.00    -0.088 A  
HETATM   12  C   UNL     1      -7.532   8.111  68.723  1.00  0.00    -0.090 A  
BRANCH  10  13
HETATM   13  N   UNL     1      -8.930  11.295  67.349  1.00  0.00    -0.143 N  
HETATM   14  C   UNL     1      -8.396  12.586  67.592  1.00  0.00    -0.172 C  
HETATM   15  N   UNL     1      -9.254  13.508  67.002  1.00  0.00    -0.239 N  
HETATM   16  S   UNL     1      -6.873  12.845  68.262  1.00  0.00    -0.107 S  
HETATM   17  C   UNL     1      -8.939  10.896  64.899  1.00  0.00    -0.167 C  
HETATM   18  C   UNL     1     -10.002  12.837  66.048  1.00  0.00    -0.271 C  
HETATM   19  C   UNL     1     -11.095  10.621  66.225  1.00  0.00     0.084 C  
HETATM   20  C   UNL     1      -9.735  11.321  66.141  1.00  0.00    -0.220 C  
HETATM   21  O   UNL     1     -10.732  13.311  65.182  1.00  0.00    -0.298 OA 
BRANCH  15  22
HETATM   22  C   UNL     1      -9.398  14.908  67.319  1.00  0.00    -0.204 A  
HETATM   23  C   UNL     1     -10.643  16.770  68.323  1.00  0.00    -0.352 A  
HETATM   24  C   UNL     1     -10.505  15.405  68.018  1.00  0.00    -0.257 A  
HETATM   25  C   UNL     1      -9.681  17.703  67.925  1.00  0.00    -0.295 A  
HETATM   26  C   UNL     1      -8.539  17.247  67.263  1.00  0.00    -0.214 A  
HETATM   27  C   UNL     1      -9.920  19.086  68.221  1.00  0.00    -0.394 C  
HETATM   28  C   UNL     1      -8.403  15.856  67.017  1.00  0.00    -0.255 A  
HETATM   29  N   UNL     1     -10.146  20.199  68.470  1.00  0.00    -0.350 NA 
HETATM   30  C   UNL     1      -7.427  18.151  66.776  1.00  0.00    -0.216 C  
HETATM   31  F   UNL     1      -7.198  17.991  65.444  1.00  0.00    -0.245 F  
HETATM   32  F   UNL     1      -6.244  17.874  67.392  1.00  0.00    -0.145 F  
HETATM   33  F   UNL     1      -7.638  19.477  66.954  1.00  0.00    -0.237 F  
ENDBRANCH  15  22
ENDBRANCH  10  13
ENDBRANCH   3   6
TORSDOF 3
ENDMDL
MODEL       83
REMARK 921   NORMALIZED FREE ENERGY PREDICTED BY IDOCK:   -5.09 KCAL/MOL
REMARK 922        TOTAL FREE ENERGY PREDICTED BY IDOCK:   -6.90 KCAL/MOL
REMARK 923 INTER-LIGAND FREE ENERGY PREDICTED BY IDOCK:   -6.28 KCAL/MOL
REMARK 924 INTRA-LIGAND FREE ENERGY PREDICTED BY IDOCK:   -0.63 KCAL/MOL
REMARK 927      BINDING AFFINITY PREDICTED BY RF-SCORE:    0.00 PKD
ROOT
HETATM    1  C   UNL     1      -8.041   5.054  62.870  1.00  0.00    -0.096 C  
HETATM    2  N   UNL     1      -8.537   6.176  63.621  1.00  0.00    -0.323 N  
HETATM    3  C   UNL     1      -7.892   6.625  64.751  1.00  0.00    -0.115 C  
HETATM    4  H   UNL     1      -9.385   6.649  63.310  1.00  0.00     0.000 HD 
HETATM    5  O   UNL     1      -6.863   6.125  65.188  1.00  0.00    -0.049 OA 
ENDROOT
BRANCH   3   6
HETATM    6  C   UNL     1      -8.478   7.814  65.415  1.00  0.00    -0.124 A  
HETATM    7  C   UNL     1      -9.619   7.746  66.212  1.00  0.00    -0.108 A  
HETATM    8  F   UNL     1     -10.227   6.572  66.445  1.00  0.00    -0.222 F  
HETATM    9  C   UNL     1     -10.179   8.892  66.783  1.00  0.00    -0.348 A  
HETATM   10  C   UNL     1      -9.620  10.147  66.540  1.00  0.00    -0.187 A  
HETATM   11  C   UNL     1      -8.439  10.203  65.778  1.00  0.00    -0.153 A  
HETATM   12  C   UNL     1      -7.869   9.054  65.223  1.00  0.00    -0.102 A  
BRANCH  10  13
HETATM   13  N   UNL     1     -10.180  11.347  67.063  1.00  0.00    -0.207 N  
HETATM   14  C   UNL     1     -10.277  12.574  66.360  1.00  0.00    -0.244 C  
HETATM   15  N   UNL     1     -10.228  13.597  67.303  1.00  0.00    -0.244 N  
HETATM   16  S   UNL     1     -10.634  12.675  64.718  1.00  0.00    -0.334 S  
HETATM   17  C   UNL     1     -12.156  11.132  68.549  1.00  0.00    -0.129 C  
HETATM   18  C   UNL     1     -10.567  13.054  68.531  1.00  0.00    -0.258 C  
HETATM   19  C   UNL     1      -9.816  10.914  69.529  1.00  0.00     0.033 C  
HETATM   20  C   UNL     1     -10.676  11.519  68.416  1.00  0.00    -0.208 C  
HETATM   21  O   UNL     1     -10.824  13.641  69.578  1.00  0.00    -0.088 OA 
BRANCH  15  22
HETATM   22  C   UNL     1      -9.863  14.976  67.090  1.00  0.00    -0.233 A  
HETATM   23  C   UNL     1     -10.316  17.205  66.168  1.00  0.00    -0.327 A  
HETATM   24  C   UNL     1     -10.678  15.863  66.375  1.00  0.00    -0.256 A  
HETATM   25  C   UNL     1      -9.110  17.715  66.657  1.00  0.00    -0.280 A  
HETATM   26  C   UNL     1      -8.285  16.879  67.413  1.00  0.00    -0.199 A  
HETATM   27  C   UNL     1      -8.783  19.079  66.355  1.00  0.00    -0.317 C  
HETATM   28  C   UNL     1      -8.703  15.543  67.650  1.00  0.00    -0.183 A  
HETATM   29  N   UNL     1      -8.545  20.185  66.088  1.00  0.00    -0.252 NA 
HETATM   30  C   UNL     1      -6.956  17.305  67.995  1.00  0.00    -0.176 C  
HETATM   31  F   UNL     1      -5.946  16.483  67.595  1.00  0.00    -0.109 F  
HETATM   32  F   UNL     1      -6.958  17.253  69.356  1.00  0.00    -0.244 F  
HETATM   33  F   UNL     1      -6.556  18.559  67.670  1.00  0.00    -0.194 F  
ENDBRANCH  15  22
ENDBRANCH  10  13
ENDBRANCH   3   6
TORSDOF 3
ENDMDL
MODEL       84
REMARK 921   NORMALIZED FREE ENERGY PREDICTED BY IDOCK:   -5.04 KCAL/MOL
REMARK 922        TOTAL FREE ENERGY PREDICTED BY IDOCK:   -6.84 KCAL/MOL
REMARK 923 INTER-LIGAND FREE ENERGY PREDICTED BY IDOCK:   -6.07 KCAL/MOL
REMARK 924 INTRA-LIGAND FREE ENERGY PREDICTED BY IDOCK:   -0.77 KCAL/MOL
REMARK 927      BINDING AFFINITY PREDICTED BY RF-SCORE:    0.00 PKD
ROOT
HETATM    1  C   UNL     1      -9.466   4.414  74.388  1.00  0.00    -0.113 C  
HETATM    2  N   UNL     1      -9.442   5.316  73.267  1.00  0.00    -0.141 N  
HETATM    3  C   UNL     1      -8.379   5.348  72.394  1.00  0.00    -0.118 C  
HETATM    4  H   UNL     1     -10.231   5.945  73.116  1.00  0.00     0.000 HD 
HETATM    5  O   UNL     1      -7.399   4.620  72.493  1.00  0.00    -0.078 OA 
ENDROOT
BRANCH   3   6
HETATM    6  C   UNL     1      -8.489   6.291  71.256  1.00  0.00    -0.124 A  
HETATM    7  C   UNL     1      -7.577   6.310  70.202  1.00  0.00    -0.096 A  
HETATM    8  F   UNL     1      -6.562   5.434  70.155  1.00  0.00    -0.033 F  
HETATM    9  C   UNL     1      -7.678   7.245  69.168  1.00  0.00    -0.108 A  
HETATM   10  C   UNL     1      -8.685   8.211  69.186  1.00  0.00    -0.140 A  
HETATM   11  C   UNL     1      -9.631   8.154  70.224  1.00  0.00    -0.171 A  
HETATM   12  C   UNL     1      -9.541   7.206  71.247  1.00  0.00    -0.163 A  
BRANCH  10  13
HETATM   13  N   UNL     1      -8.800   9.212  68.180  1.00  0.00    -0.129 N  
HETATM   14  C   UNL     1      -8.463  10.578  68.347  1.00  0.00    -0.128 C  
HETATM   15  N   UNL     1      -9.275  11.315  67.490  1.00  0.00    -0.157 N  
HETATM   16  S   UNL     1      -7.141  11.101  69.250  1.00  0.00    -0.108 S  
HETATM   17  C   UNL     1      -8.274   8.550  65.846  1.00  0.00    -0.125 C  
HETATM   18  C   UNL     1      -9.741  10.454  66.509  1.00  0.00    -0.194 C  
HETATM   19  C   UNL     1     -10.612   8.150  66.769  1.00  0.00    -0.223 C  
HETATM   20  C   UNL     1      -9.344   9.003  66.850  1.00  0.00    -0.158 C  
HETATM   21  O   UNL     1     -10.327  10.734  65.467  1.00  0.00    -0.265 OA 
BRANCH  15  22
HETATM   22  C   UNL     1      -9.624  12.711  67.588  1.00  0.00    -0.188 A  
HETATM   23  C   UNL     1      -9.533  15.015  66.748  1.00  0.00    -0.263 A  
HETATM   24  C   UNL     1      -9.193  13.655  66.648  1.00  0.00    -0.225 A  
HETATM   25  C   UNL     1     -10.311  15.492  67.808  1.00  0.00    -0.263 A  
HETATM   26  C   UNL     1     -10.799  14.580  68.746  1.00  0.00    -0.256 A  
HETATM   27  C   UNL     1     -10.567  16.902  67.875  1.00  0.00    -0.361 C  
HETATM   28  C   UNL     1     -10.482  13.205  68.587  1.00  0.00    -0.242 A  
HETATM   29  N   UNL     1     -10.752  18.050  67.904  1.00  0.00    -0.372 NA 
HETATM   30  C   UNL     1     -11.645  14.965  69.939  1.00  0.00    -0.289 C  
HETATM   31  F   UNL     1     -11.092  14.535  71.106  1.00  0.00    -0.185 F  
HETATM   32  F   UNL     1     -12.883  14.400  69.885  1.00  0.00    -0.347 F  
HETATM   33  F   UNL     1     -11.849  16.295  70.100  1.00  0.00    -0.309 F  
ENDBRANCH  15  22
ENDBRANCH  10  13
ENDBRANCH   3   6
TORSDOF 3
ENDMDL
MODEL       85
REMARK 921   NORMALIZED FREE ENERGY PREDICTED BY IDOCK:   -5.03 KCAL/MOL
REMARK 922        TOTAL FREE ENERGY PREDICTED BY IDOCK:   -6.83 KCAL/MOL
REMARK 923 INTER-LIGAND FREE ENERGY PREDICTED BY IDOCK:   -5.81 KCAL/MOL
REMARK 924 INTRA-LIGAND FREE ENERGY PREDICTED BY IDOCK:   -1.02 KCAL/MOL
REMARK 927      BINDING AFFINITY PREDICTED BY RF-SCORE:    0.00 PKD
ROOT
HETATM    1  C   UNL     1      -5.307   4.586  63.469  1.00  0.00    -0.009 C  
HETATM    2  N   UNL     1      -5.973   5.777  63.927  1.00  0.00    -0.024 N  
HETATM    3  C   UNL     1      -7.256   6.079  63.533  1.00  0.00    -0.056 C  
HETATM    4  H   UNL     1      -5.483   6.410  64.559  1.00  0.00     0.000 HD 
HETATM    5  O   UNL     1      -7.921   5.369  62.788  1.00  0.00    -0.080 OA 
ENDROOT
BRANCH   3   6
HETATM    6  C   UNL     1      -7.848   7.312  64.105  1.00  0.00    -0.118 A  
HETATM    7  C   UNL     1      -8.768   7.291  65.151  1.00  0.00     0.159 A  
HETATM    8  F   UNL     1      -9.136   6.132  65.720  1.00  0.00    -0.162 F  
HETATM    9  C   UNL     1      -9.348   8.467  65.635  1.00  0.00    -0.065 A  
HETATM   10  C   UNL     1      -9.040   9.697  65.053  1.00  0.00    -0.233 A  
HETATM   11  C   UNL     1      -8.073   9.717  64.033  1.00  0.00    -0.152 A  
HETATM   12  C   UNL     1      -7.479   8.543  63.562  1.00  0.00    -0.112 A  
BRANCH  10  13
HETATM   13  N   UNL     1      -9.639  10.915  65.482  1.00  0.00    -0.208 N  
HETATM   14  C   UNL     1      -9.557  11.446  66.795  1.00  0.00    -0.188 C  
HETATM   15  N   UNL     1     -10.712  12.190  67.015  1.00  0.00    -0.231 N  
HETATM   16  S   UNL     1      -8.172  11.349  67.747  1.00  0.00    -0.131 S  
HETATM   17  C   UNL     1      -9.669  12.803  63.871  1.00  0.00     0.363 C  
HETATM   18  C   UNL     1     -11.249  12.510  65.778  1.00  0.00    -0.320 C  
HETATM   19  C   UNL     1     -11.516  11.053  63.792  1.00  0.00     0.476 C  
HETATM   20  C   UNL     1     -10.481  11.768  64.664  1.00  0.00    -0.299 C  
HETATM   21  O   UNL     1     -12.149  13.303  65.521  1.00  0.00    -0.384 OA 
BRANCH  15  22
HETATM   22  C   UNL     1     -11.300  12.554  68.281  1.00  0.00    -0.286 A  
HETATM   23  C   UNL     1     -12.369  11.957  70.408  1.00  0.00    -0.334 A  
HETATM   24  C   UNL     1     -11.795  11.598  69.176  1.00  0.00    -0.390 A  
HETATM   25  C   UNL     1     -12.486  13.297  70.790  1.00  0.00    -0.403 A  
HETATM   26  C   UNL     1     -11.967  14.283  69.948  1.00  0.00    -0.397 A  
HETATM   27  C   UNL     1     -13.136  13.589  72.035  1.00  0.00    -0.387 C  
HETATM   28  C   UNL     1     -11.345  13.885  68.735  1.00  0.00    -0.310 A  
HETATM   29  N   UNL     1     -13.673  13.791  73.046  1.00  0.00    -0.429 NA 
HETATM   30  C   UNL     1     -12.032  15.765  70.241  1.00  0.00    -0.361 C  
HETATM   31  F   UNL     1     -12.632  16.451  69.229  1.00  0.00     0.069 F  
HETATM   32  F   UNL     1     -10.792  16.311  70.374  1.00  0.00    -0.311 F  
HETATM   33  F   UNL     1     -12.711  16.105  71.364  1.00  0.00    -0.495 F  
ENDBRANCH  15  22
ENDBRANCH  10  13
ENDBRANCH   3   6
TORSDOF 3
ENDMDL
MODEL       86
REMARK 921   NORMALIZED FREE ENERGY PREDICTED BY IDOCK:   -5.03 KCAL/MOL
REMARK 922        TOTAL FREE ENERGY PREDICTED BY IDOCK:   -6.82 KCAL/MOL
REMARK 923 INTER-LIGAND FREE ENERGY PREDICTED BY IDOCK:   -5.81 KCAL/MOL
REMARK 924 INTRA-LIGAND FREE ENERGY PREDICTED BY IDOCK:   -1.01 KCAL/MOL
REMARK 927      BINDING AFFINITY PREDICTED BY RF-SCORE:    0.00 PKD
ROOT
HETATM    1  C   UNL     1      -7.471   3.799  69.014  1.00  0.00    -0.053 C  
HETATM    2  N   UNL     1      -7.709   5.150  68.582  1.00  0.00    -0.078 N  
HETATM    3  C   UNL     1      -8.985   5.633  68.402  1.00  0.00    -0.114 C  
HETATM    4  H   UNL     1      -6.914   5.764  68.406  1.00  0.00     0.000 HD 
HETATM    5  O   UNL     1      -9.995   4.969  68.602  1.00  0.00    -0.160 OA 
ENDROOT
BRANCH   3   6
HETATM    6  C   UNL     1      -9.101   7.053  67.994  1.00  0.00    -0.127 A  
HETATM    7  C   UNL     1      -9.211   7.448  66.662  1.00  0.00    -0.158 A  
HETATM    8  F   UNL     1      -9.253   6.538  65.676  1.00  0.00    -0.129 F  
HETATM    9  C   UNL     1      -9.266   8.798  66.304  1.00  0.00    -0.261 A  
HETATM   10  C   UNL     1      -9.180   9.791  67.280  1.00  0.00    -0.134 A  
HETATM   11  C   UNL     1      -9.122   9.385  68.626  1.00  0.00    -0.132 A  
HETATM   12  C   UNL     1      -9.085   8.035  68.984  1.00  0.00    -0.144 A  
BRANCH  10  13
HETATM   13  N   UNL     1      -9.187  11.178  66.961  1.00  0.00    -0.161 N  
HETATM   14  C   UNL     1      -8.066  12.041  67.052  1.00  0.00    -0.158 C  
HETATM   15  N   UNL     1      -8.547  13.320  67.317  1.00  0.00    -0.204 N  
HETATM   16  S   UNL     1      -6.500  11.569  66.652  1.00  0.00    -0.035 S  
HETATM   17  C   UNL     1     -10.582  11.900  65.039  1.00  0.00    -0.335 C  
HETATM   18  C   UNL     1      -9.879  13.355  66.938  1.00  0.00    -0.256 C  
HETATM   19  C   UNL     1     -11.641  11.661  67.342  1.00  0.00    -0.330 C  
HETATM   20  C   UNL     1     -10.356  11.938  66.557  1.00  0.00    -0.216 C  
HETATM   21  O   UNL     1     -10.614  14.333  66.830  1.00  0.00    -0.275 OA 
BRANCH  15  22
HETATM   22  C   UNL     1      -7.834  14.425  67.909  1.00  0.00    -0.150 A  
HETATM   23  C   UNL     1      -6.562  15.422  69.756  1.00  0.00    -0.170 A  
HETATM   24  C   UNL     1      -7.253  14.342  69.181  1.00  0.00    -0.104 A  
HETATM   25  C   UNL     1      -6.436  16.643  69.085  1.00  0.00    -0.200 A  
HETATM   26  C   UNL     1      -6.963  16.758  67.797  1.00  0.00    -0.151 A  
HETATM   27  C   UNL     1      -5.768  17.717  69.760  1.00  0.00    -0.241 C  
HETATM   28  C   UNL     1      -7.609  15.632  67.222  1.00  0.00    -0.247 A  
HETATM   29  N   UNL     1      -5.226  18.570  70.337  1.00  0.00    -0.226 NA 
HETATM   30  C   UNL     1      -6.899  18.021  66.967  1.00  0.00    -0.188 C  
HETATM   31  F   UNL     1      -8.136  18.420  66.564  1.00  0.00    -0.241 F  
HETATM   32  F   UNL     1      -6.178  17.841  65.826  1.00  0.00    -0.229 F  
HETATM   33  F   UNL     1      -6.352  19.095  67.587  1.00  0.00    -0.199 F  
ENDBRANCH  15  22
ENDBRANCH  10  13
ENDBRANCH   3   6
TORSDOF 3
ENDMDL
MODEL       87
REMARK 921   NORMALIZED FREE ENERGY PREDICTED BY IDOCK:   -5.00 KCAL/MOL
REMARK 922        TOTAL FREE ENERGY PREDICTED BY IDOCK:   -6.80 KCAL/MOL
REMARK 923 INTER-LIGAND FREE ENERGY PREDICTED BY IDOCK:   -6.11 KCAL/MOL
REMARK 924 INTRA-LIGAND FREE ENERGY PREDICTED BY IDOCK:   -0.69 KCAL/MOL
REMARK 927      BINDING AFFINITY PREDICTED BY RF-SCORE:    0.00 PKD
ROOT
HETATM    1  C   UNL     1     -10.557   3.147  63.499  1.00  0.00    -0.251 C  
HETATM    2  N   UNL     1     -10.342   4.334  64.283  1.00  0.00    -0.420 N  
HETATM    3  C   UNL     1      -9.755   4.276  65.527  1.00  0.00    -0.203 C  
HETATM    4  H   UNL     1     -10.632   5.238  63.910  1.00  0.00     0.000 HD 
HETATM    5  O   UNL     1      -9.367   3.236  66.045  1.00  0.00    -0.157 OA 
ENDROOT
BRANCH   3   6
HETATM    6  C   UNL     1      -9.551   5.571  66.220  1.00  0.00    -0.173 A  
HETATM    7  C   UNL     1      -8.698   6.560  65.734  1.00  0.00    -0.120 A  
HETATM    8  F   UNL     1      -8.040   6.392  64.576  1.00  0.00    -0.112 F  
HETATM    9  C   UNL     1      -8.487   7.749  66.436  1.00  0.00    -0.136 A  
HETATM   10  C   UNL     1      -9.107   7.961  67.668  1.00  0.00    -0.133 A  
HETATM   11  C   UNL     1     -10.006   6.982  68.128  1.00  0.00    -0.169 A  
HETATM   12  C   UNL     1     -10.231   5.801  67.415  1.00  0.00    -0.243 A  
BRANCH  10  13
HETATM   13  N   UNL     1      -8.888   9.136  68.441  1.00  0.00    -0.129 N  
HETATM   14  C   UNL     1      -9.540  10.379  68.237  1.00  0.00    -0.144 C  
HETATM   15  N   UNL     1      -8.669  11.379  68.659  1.00  0.00    -0.149 N  
HETATM   16  S   UNL     1     -11.159  10.512  67.797  1.00  0.00    -0.277 S  
HETATM   17  C   UNL     1      -8.488   8.847  70.873  1.00  0.00    -0.226 C  
HETATM   18  C   UNL     1      -7.744  10.799  69.512  1.00  0.00    -0.066 C  
HETATM   19  C   UNL     1      -6.539   8.651  69.247  1.00  0.00    -0.049 C  
HETATM   20  C   UNL     1      -7.916   9.266  69.511  1.00  0.00    -0.098 C  
HETATM   21  O   UNL     1      -6.928  11.356  70.241  1.00  0.00    -0.002 OA 
BRANCH  15  22
HETATM   22  C   UNL     1      -8.671  12.770  68.276  1.00  0.00    -0.168 A  
HETATM   23  C   UNL     1      -7.564  14.738  67.315  1.00  0.00    -0.195 A  
HETATM   24  C   UNL     1      -7.559  13.382  67.684  1.00  0.00    -0.177 A  
HETATM   25  C   UNL     1      -8.683  15.547  67.539  1.00  0.00    -0.183 A  
HETATM   26  C   UNL     1      -9.830  14.969  68.087  1.00  0.00    -0.216 A  
HETATM   27  C   UNL     1      -8.592  16.935  67.189  1.00  0.00    -0.197 C  
HETATM   28  C   UNL     1      -9.812  13.584  68.400  1.00  0.00    -0.225 A  
HETATM   29  N   UNL     1      -8.484  18.056  66.901  1.00  0.00    -0.241 NA 
HETATM   30  C   UNL     1     -11.103  15.731  68.382  1.00  0.00    -0.341 C  
HETATM   31  F   UNL     1     -11.475  15.601  69.685  1.00  0.00    -0.254 F  
HETATM   32  F   UNL     1     -12.152  15.268  67.649  1.00  0.00    -0.284 F  
HETATM   33  F   UNL     1     -11.046  17.065  68.150  1.00  0.00    -0.364 F  
ENDBRANCH  15  22
ENDBRANCH  10  13
ENDBRANCH   3   6
TORSDOF 3
ENDMDL
MODEL       88
REMARK 921   NORMALIZED FREE ENERGY PREDICTED BY IDOCK:   -4.97 KCAL/MOL
REMARK 922        TOTAL FREE ENERGY PREDICTED BY IDOCK:   -6.76 KCAL/MOL
REMARK 923 INTER-LIGAND FREE ENERGY PREDICTED BY IDOCK:   -5.96 KCAL/MOL
REMARK 924 INTRA-LIGAND FREE ENERGY PREDICTED BY IDOCK:   -0.80 KCAL/MOL
REMARK 927      BINDING AFFINITY PREDICTED BY RF-SCORE:    0.00 PKD
ROOT
HETATM    1  C   UNL     1      -7.136   1.558  72.749  1.00  0.00    -0.023 C  
HETATM    2  N   UNL     1      -7.204   2.831  72.083  1.00  0.00    -0.041 N  
HETATM    3  C   UNL     1      -8.031   3.033  71.002  1.00  0.00    -0.053 C  
HETATM    4  H   UNL     1      -6.626   3.601  72.419  1.00  0.00     0.000 HD 
HETATM    5  O   UNL     1      -8.767   2.168  70.541  1.00  0.00    -0.054 OA 
ENDROOT
BRANCH   3   6
HETATM    6  C   UNL     1      -8.043   4.399  70.427  1.00  0.00    -0.066 A  
HETATM    7  C   UNL     1      -8.313   4.648  69.083  1.00  0.00    -0.080 A  
HETATM    8  F   UNL     1      -8.615   3.645  68.244  1.00  0.00    -0.093 F  
HETATM    9  C   UNL     1      -8.266   5.943  68.558  1.00  0.00    -0.109 A  
HETATM   10  C   UNL     1      -7.912   7.021  69.370  1.00  0.00    -0.118 A  
HETATM   11  C   UNL     1      -7.692   6.770  70.736  1.00  0.00    -0.093 A  
HETATM   12  C   UNL     1      -7.758   5.477  71.264  1.00  0.00    -0.108 A  
BRANCH  10  13
HETATM   13  N   UNL     1      -7.808   8.350  68.870  1.00  0.00    -0.111 N  
HETATM   14  C   UNL     1      -8.902   9.219  68.631  1.00  0.00    -0.132 C  
HETATM   15  N   UNL     1      -8.534  10.075  67.598  1.00  0.00    -0.115 N  
HETATM   16  S   UNL     1     -10.259   9.294  69.625  1.00  0.00    -0.220 S  
HETATM   17  C   UNL     1      -5.877   9.709  69.635  1.00  0.00    -0.033 C  
HETATM   18  C   UNL     1      -7.150  10.074  67.523  1.00  0.00    -0.087 C  
HETATM   19  C   UNL     1      -5.603   8.143  67.647  1.00  0.00    -0.038 C  
HETATM   20  C   UNL     1      -6.573   8.998  68.466  1.00  0.00    -0.055 C  
HETATM   21  O   UNL     1      -6.422  10.826  66.882  1.00  0.00    -0.075 OA 
BRANCH  15  22
HETATM   22  C   UNL     1      -9.401  10.820  66.718  1.00  0.00    -0.161 A  
HETATM   23  C   UNL     1     -10.482  11.155  64.540  1.00  0.00    -0.415 A  
HETATM   24  C   UNL     1      -9.639  10.425  65.395  1.00  0.00    -0.303 A  
HETATM   25  C   UNL     1     -11.113  12.327  64.970  1.00  0.00    -0.359 A  
HETATM   26  C   UNL     1     -10.939  12.736  66.294  1.00  0.00    -0.307 A  
HETATM   27  C   UNL     1     -11.912  13.049  64.023  1.00  0.00    -0.456 C  
HETATM   28  C   UNL     1     -10.124  11.948  67.149  1.00  0.00    -0.222 A  
HETATM   29  N   UNL     1     -12.547  13.614  63.229  1.00  0.00    -0.755 NA 
HETATM   30  C   UNL     1     -11.561  13.983  66.883  1.00  0.00    -0.386 C  
HETATM   31  F   UNL     1     -10.620  14.805  67.424  1.00  0.00    -0.255 F  
HETATM   32  F   UNL     1     -12.423  13.689  67.895  1.00  0.00    -0.326 F  
HETATM   33  F   UNL     1     -12.258  14.750  66.010  1.00  0.00    -0.311 F  
ENDBRANCH  15  22
ENDBRANCH  10  13
ENDBRANCH   3   6
TORSDOF 3
ENDMDL
MODEL       89
REMARK 921   NORMALIZED FREE ENERGY PREDICTED BY IDOCK:   -4.79 KCAL/MOL
REMARK 922        TOTAL FREE ENERGY PREDICTED BY IDOCK:   -6.55 KCAL/MOL
REMARK 923 INTER-LIGAND FREE ENERGY PREDICTED BY IDOCK:   -6.35 KCAL/MOL
REMARK 924 INTRA-LIGAND FREE ENERGY PREDICTED BY IDOCK:   -0.20 KCAL/MOL
REMARK 927      BINDING AFFINITY PREDICTED BY RF-SCORE:    0.00 PKD
ROOT
HETATM    1  C   UNL     1      -9.732   6.298  71.420  1.00  0.00    -0.173 C  
HETATM    2  N   UNL     1      -9.766   7.303  70.392  1.00  0.00    -0.173 N  
HETATM    3  C   UNL     1     -10.735   7.298  69.414  1.00  0.00    -0.225 C  
HETATM    4  H   UNL     1      -9.056   8.036  70.386  1.00  0.00     0.000 HD 
HETATM    5  O   UNL     1     -11.630   6.464  69.353  1.00  0.00    -0.382 OA 
ENDROOT
BRANCH   3   6
HETATM    6  C   UNL     1     -10.688   8.409  68.434  1.00  0.00    -0.076 A  
HETATM    7  C   UNL     1     -10.162   8.260  67.152  1.00  0.00    -0.295 A  
HETATM    8  F   UNL     1      -9.699   7.073  66.732  1.00  0.00    -0.185 F  
HETATM    9  C   UNL     1     -10.084   9.339  66.267  1.00  0.00    -0.322 A  
HETATM   10  C   UNL     1     -10.506  10.609  66.663  1.00  0.00    -0.237 A  
HETATM   11  C   UNL     1     -11.084  10.740  67.938  1.00  0.00    -0.369 A  
HETATM   12  C   UNL     1     -11.179   9.657  68.816  1.00  0.00    -0.011 A  
BRANCH  10  13
HETATM   13  N   UNL     1     -10.405  11.746  65.813  1.00  0.00    -0.244 N  
HETATM   14  C   UNL     1      -9.703  12.937  66.125  1.00  0.00    -0.248 C  
HETATM   15  N   UNL     1     -10.334  13.980  65.455  1.00  0.00    -0.322 N  
HETATM   16  S   UNL     1      -8.240  12.956  66.959  1.00  0.00    -0.012 S  
HETATM   17  C   UNL     1     -10.211  11.335  63.373  1.00  0.00    -0.454 C  
HETATM   18  C   UNL     1     -11.070  13.430  64.418  1.00  0.00    -0.388 C  
HETATM   19  C   UNL     1     -12.514  11.417  64.455  1.00  0.00     0.664 C  
HETATM   20  C   UNL     1     -11.060  11.890  64.526  1.00  0.00    -0.325 C  
HETATM   21  O   UNL     1     -11.617  14.006  63.483  1.00  0.00     0.089 OA 
BRANCH  15  22
HETATM   22  C   UNL     1     -10.287  15.387  65.769  1.00  0.00    -0.361 A  
HETATM   23  C   UNL     1     -10.840  17.724  65.262  1.00  0.00     0.264 A  
HETATM   24  C   UNL     1     -10.890  16.354  64.954  1.00  0.00    -0.268 A  
HETATM   25  C   UNL     1     -10.168  18.189  66.396  1.00  0.00    -0.405 A  
HETATM   26  C   UNL     1      -9.588  17.258  67.261  1.00  0.00    -0.254 A  
HETATM   27  C   UNL     1     -10.110  19.605  66.613  1.00  0.00    -0.445 C  
HETATM   28  C   UNL     1      -9.702  15.877  66.951  1.00  0.00    -0.241 A  
HETATM   29  N   UNL     1     -10.076  20.759  66.756  1.00  0.00    -0.103 NA 
HETATM   30  C   UNL     1      -8.831  17.628  68.517  1.00  0.00    -0.285 C  
HETATM   31  F   UNL     1      -7.574  17.103  68.518  1.00  0.00    -0.200 F  
HETATM   32  F   UNL     1      -9.436  17.141  69.636  1.00  0.00    -0.013 F  
HETATM   33  F   UNL     1      -8.672  18.957  68.728  1.00  0.00    -0.352 F  
ENDBRANCH  15  22
ENDBRANCH  10  13
ENDBRANCH   3   6
TORSDOF 3
ENDMDL
MODEL       90
REMARK 921   NORMALIZED FREE ENERGY PREDICTED BY IDOCK:   -4.76 KCAL/MOL
REMARK 922        TOTAL FREE ENERGY PREDICTED BY IDOCK:   -6.52 KCAL/MOL
REMARK 923 INTER-LIGAND FREE ENERGY PREDICTED BY IDOCK:   -5.59 KCAL/MOL
REMARK 924 INTRA-LIGAND FREE ENERGY PREDICTED BY IDOCK:   -0.92 KCAL/MOL
REMARK 927      BINDING AFFINITY PREDICTED BY RF-SCORE:    0.00 PKD
ROOT
HETATM    1  C   UNL     1     -10.236  20.576  68.166  1.00  0.00    -0.039 C  
HETATM    2  N   UNL     1     -10.189  19.143  68.059  1.00  0.00    -0.382 N  
HETATM    3  C   UNL     1      -8.992  18.464  68.021  1.00  0.00    -0.290 C  
HETATM    4  H   UNL     1     -11.062  18.617  68.010  1.00  0.00     0.000 HD 
HETATM    5  O   UNL     1      -7.900  19.014  68.087  1.00  0.00    -0.279 OA 
ENDROOT
BRANCH   3   6
HETATM    6  C   UNL     1      -9.075  16.986  67.950  1.00  0.00    -0.232 A  
HETATM    7  C   UNL     1      -8.710  16.264  66.815  1.00  0.00    -0.231 A  
HETATM    8  F   UNL     1      -8.226  16.888  65.730  1.00  0.00    -0.304 F  
HETATM    9  C   UNL     1      -8.848  14.875  66.760  1.00  0.00    -0.291 A  
HETATM   10  C   UNL     1      -9.389  14.175  67.839  1.00  0.00    -0.204 A  
HETATM   11  C   UNL     1      -9.707  14.903  69.000  1.00  0.00    -0.212 A  
HETATM   12  C   UNL     1      -9.551  16.290  69.062  1.00  0.00    -0.257 A  
BRANCH  10  13
HETATM   13  N   UNL     1      -9.590  12.766  67.812  1.00  0.00    -0.198 N  
HETATM   14  C   UNL     1      -8.563  11.799  67.675  1.00  0.00    -0.153 C  
HETATM   15  N   UNL     1      -9.118  10.689  67.046  1.00  0.00    -0.144 N  
HETATM   16  S   UNL     1      -7.047  11.952  68.393  1.00  0.00    -0.093 S  
HETATM   17  C   UNL     1     -11.355  11.836  69.288  1.00  0.00    -0.348 C  
HETATM   18  C   UNL     1     -10.491  10.754  67.214  1.00  0.00    -0.237 C  
HETATM   19  C   UNL     1     -11.980  12.720  66.984  1.00  0.00    -0.364 C  
HETATM   20  C   UNL     1     -10.881  12.103  67.853  1.00  0.00    -0.217 C  
HETATM   21  O   UNL     1     -11.328   9.887  66.980  1.00  0.00     0.023 OA 
BRANCH  15  22
HETATM   22  C   UNL     1      -8.430   9.655  66.312  1.00  0.00    -0.119 A  
HETATM   23  C   UNL     1      -6.867   8.936  64.562  1.00  0.00    -0.081 A  
HETATM   24  C   UNL     1      -7.533   9.946  65.277  1.00  0.00    -0.131 A  
HETATM   25  C   UNL     1      -7.085   7.584  64.844  1.00  0.00    -0.060 A  
HETATM   26  C   UNL     1      -7.939   7.247  65.897  1.00  0.00    -0.115 A  
HETATM   27  C   UNL     1      -6.414   6.609  64.033  1.00  0.00    -0.038 C  
HETATM   28  C   UNL     1      -8.555   8.292  66.635  1.00  0.00    -0.135 A  
HETATM   29  N   UNL     1      -5.861   5.845  63.353  1.00  0.00    -0.021 NA 
HETATM   30  C   UNL     1      -8.261   5.826  66.302  1.00  0.00    -0.109 C  
HETATM   31  F   UNL     1      -9.603   5.595  66.296  1.00  0.00    -0.154 F  
HETATM   32  F   UNL     1      -7.844   5.553  67.569  1.00  0.00    -0.096 F  
HETATM   33  F   UNL     1      -7.722   4.862  65.516  1.00  0.00    -0.082 F  
ENDBRANCH  15  22
ENDBRANCH  10  13
ENDBRANCH   3   6
TORSDOF 3
ENDMDL
MODEL       91
REMARK 921   NORMALIZED FREE ENERGY PREDICTED BY IDOCK:   -4.63 KCAL/MOL
REMARK 922        TOTAL FREE ENERGY PREDICTED BY IDOCK:   -6.36 KCAL/MOL
REMARK 923 INTER-LIGAND FREE ENERGY PREDICTED BY IDOCK:   -5.85 KCAL/MOL
REMARK 924 INTRA-LIGAND FREE ENERGY PREDICTED BY IDOCK:   -0.51 KCAL/MOL
REMARK 927      BINDING AFFINITY PREDICTED BY RF-SCORE:    0.00 PKD
ROOT
HETATM    1  C   UNL     1     -10.587  18.255  66.335  1.00  0.00    -0.293 C  
HETATM    2  N   UNL     1     -10.131  16.913  66.581  1.00  0.00    -0.293 N  
HETATM    3  C   UNL     1     -10.326  15.909  65.660  1.00  0.00    -0.390 C  
HETATM    4  H   UNL     1      -9.652  16.701  67.456  1.00  0.00     0.000 HD 
HETATM    5  O   UNL     1     -10.879  16.078  64.580  1.00  0.00    -0.608 OA 
ENDROOT
BRANCH   3   6
HETATM    6  C   UNL     1      -9.776  14.578  66.010  1.00  0.00    -0.331 A  
HETATM    7  C   UNL     1     -10.273  13.392  65.474  1.00  0.00    -0.290 A  
HETATM    8  F   UNL     1     -11.268  13.408  64.573  1.00  0.00    -0.319 F  
HETATM    9  C   UNL     1      -9.768  12.148  65.863  1.00  0.00    -0.253 A  
HETATM   10  C   UNL     1      -8.766  12.064  66.830  1.00  0.00    -0.192 A  
HETATM   11  C   UNL     1      -8.232  13.266  67.328  1.00  0.00    -0.164 A  
HETATM   12  C   UNL     1      -8.725  14.510  66.925  1.00  0.00    -0.237 A  
BRANCH  10  13
HETATM   13  N   UNL     1      -8.251  10.819  67.290  1.00  0.00    -0.120 N  
HETATM   14  C   UNL     1      -7.523   9.896  66.497  1.00  0.00    -0.100 C  
HETATM   15  N   UNL     1      -7.766   8.626  67.011  1.00  0.00    -0.095 N  
HETATM   16  S   UNL     1      -6.402  10.361  65.330  1.00  0.00    -0.086 S  
HETATM   17  C   UNL     1      -7.368  10.734  69.608  1.00  0.00    -0.107 C  
HETATM   18  C   UNL     1      -8.213   8.777  68.314  1.00  0.00    -0.118 C  
HETATM   19  C   UNL     1      -9.859  10.404  69.198  1.00  0.00    -0.237 C  
HETATM   20  C   UNL     1      -8.448  10.271  68.619  1.00  0.00    -0.127 C  
HETATM   21  O   UNL     1      -8.359   7.913  69.173  1.00  0.00    -0.129 OA 
BRANCH  15  22
HETATM   22  C   UNL     1      -7.626   7.359  66.335  1.00  0.00    -0.088 A  
HETATM   23  C   UNL     1      -6.313   5.754  65.023  1.00  0.00    -0.037 A  
HETATM   24  C   UNL     1      -6.444   6.988  65.682  1.00  0.00    -0.047 A  
HETATM   25  C   UNL     1      -7.370   4.841  64.976  1.00  0.00    -0.072 A  
HETATM   26  C   UNL     1      -8.554   5.149  65.650  1.00  0.00    -0.139 A  
HETATM   27  C   UNL     1      -7.181   3.628  64.234  1.00  0.00    -0.058 C  
HETATM   28  C   UNL     1      -8.637   6.380  66.352  1.00  0.00    -0.134 A  
HETATM   29  N   UNL     1      -6.997   2.657  63.620  1.00  0.00    -0.039 NA 
HETATM   30  C   UNL     1      -9.771   4.252  65.674  1.00  0.00    -0.205 C  
HETATM   31  F   UNL     1     -10.882   4.902  65.231  1.00  0.00    -0.174 F  
HETATM   32  F   UNL     1     -10.066   3.832  66.936  1.00  0.00    -0.206 F  
HETATM   33  F   UNL     1      -9.679   3.130  64.920  1.00  0.00    -0.156 F  
ENDBRANCH  15  22
ENDBRANCH  10  13
ENDBRANCH   3   6
TORSDOF 3
ENDMDL
MODEL       92
REMARK 921   NORMALIZED FREE ENERGY PREDICTED BY IDOCK:   -4.51 KCAL/MOL
REMARK 922        TOTAL FREE ENERGY PREDICTED BY IDOCK:   -6.22 KCAL/MOL
REMARK 923 INTER-LIGAND FREE ENERGY PREDICTED BY IDOCK:   -5.12 KCAL/MOL
REMARK 924 INTRA-LIGAND FREE ENERGY PREDICTED BY IDOCK:   -1.09 KCAL/MOL
REMARK 927      BINDING AFFINITY PREDICTED BY RF-SCORE:    0.00 PKD
ROOT
HETATM    1  C   UNL     1      -6.819   3.277  62.413  1.00  0.00    -0.027 C  
HETATM    2  N   UNL     1      -6.920   4.332  63.386  1.00  0.00    -0.043 N  
HETATM    3  C   UNL     1      -8.139   4.846  63.766  1.00  0.00    -0.112 C  
HETATM    4  H   UNL     1      -6.069   4.708  63.805  1.00  0.00     0.000 HD 
HETATM    5  O   UNL     1      -9.210   4.445  63.324  1.00  0.00    -0.141 OA 
ENDROOT
BRANCH   3   6
HETATM    6  C   UNL     1      -8.115   5.902  64.806  1.00  0.00    -0.132 A  
HETATM    7  C   UNL     1      -8.343   5.636  66.155  1.00  0.00    -0.120 A  
HETATM    8  F   UNL     1      -8.562   4.382  66.581  1.00  0.00    -0.111 F  
HETATM    9  C   UNL     1      -8.365   6.660  67.105  1.00  0.00    -0.113 A  
HETATM   10  C   UNL     1      -8.190   7.988  66.716  1.00  0.00    -0.111 A  
HETATM   11  C   UNL     1      -7.909   8.244  65.362  1.00  0.00    -0.113 A  
HETATM   12  C   UNL     1      -7.868   7.217  64.415  1.00  0.00    -0.126 A  
BRANCH  10  13
HETATM   13  N   UNL     1      -8.248   9.069  67.641  1.00  0.00    -0.109 N  
HETATM   14  C   UNL     1      -9.260  10.062  67.671  1.00  0.00    -0.137 C  
HETATM   15  N   UNL     1      -8.687  11.223  68.181  1.00  0.00    -0.148 N  
HETATM   16  S   UNL     1     -10.883   9.739  67.363  1.00  0.00    -0.104 S  
HETATM   17  C   UNL     1      -7.518   8.619  69.970  1.00  0.00    -0.056 C  
HETATM   18  C   UNL     1      -7.544  10.859  68.874  1.00  0.00    -0.128 C  
HETATM   19  C   UNL     1      -5.789   9.241  68.209  1.00  0.00    -0.038 C  
HETATM   20  C   UNL     1      -7.249   9.360  68.653  1.00  0.00    -0.074 C  
HETATM   21  O   UNL     1      -6.856  11.546  69.623  1.00  0.00    -0.114 OA 
BRANCH  15  22
HETATM   22  C   UNL     1      -9.145  12.580  68.013  1.00  0.00    -0.200 A  
HETATM   23  C   UNL     1      -9.109  14.733  66.836  1.00  0.00    -0.268 A  
HETATM   24  C   UNL     1      -8.662  13.410  66.994  1.00  0.00    -0.195 A  
HETATM   25  C   UNL     1     -10.052  15.289  67.706  1.00  0.00    -0.230 A  
HETATM   26  C   UNL     1     -10.594  14.485  68.711  1.00  0.00    -0.248 A  
HETATM   27  C   UNL     1     -10.416  16.664  67.517  1.00  0.00    -0.317 C  
HETATM   28  C   UNL     1     -10.161  13.136  68.812  1.00  0.00    -0.109 A  
HETATM   29  N   UNL     1     -10.684  17.782  67.341  1.00  0.00    -0.328 NA 
HETATM   30  C   UNL     1     -11.617  14.964  69.717  1.00  0.00    -0.303 C  
HETATM   31  F   UNL     1     -11.194  14.764  70.996  1.00  0.00    -0.305 F  
HETATM   32  F   UNL     1     -12.793  14.286  69.606  1.00  0.00    -0.299 F  
HETATM   33  F   UNL     1     -11.935  16.279  69.640  1.00  0.00    -0.266 F  
ENDBRANCH  15  22
ENDBRANCH  10  13
ENDBRANCH   3   6
TORSDOF 3
ENDMDL
MODEL       93
REMARK 921   NORMALIZED FREE ENERGY PREDICTED BY IDOCK:   -4.51 KCAL/MOL
REMARK 922        TOTAL FREE ENERGY PREDICTED BY IDOCK:   -6.22 KCAL/MOL
REMARK 923 INTER-LIGAND FREE ENERGY PREDICTED BY IDOCK:   -5.66 KCAL/MOL
REMARK 924 INTRA-LIGAND FREE ENERGY PREDICTED BY IDOCK:   -0.56 KCAL/MOL
REMARK 927      BINDING AFFINITY PREDICTED BY RF-SCORE:    0.00 PKD
ROOT
HETATM    1  C   UNL     1      -8.616   3.515  72.224  1.00  0.00    -0.084 C  
HETATM    2  N   UNL     1      -8.691   4.680  71.384  1.00  0.00    -0.117 N  
HETATM    3  C   UNL     1      -8.536   5.947  71.898  1.00  0.00    -0.137 C  
HETATM    4  H   UNL     1      -8.863   4.565  70.385  1.00  0.00     0.000 HD 
HETATM    5  O   UNL     1      -8.315   6.176  73.081  1.00  0.00    -0.118 OA 
ENDROOT
BRANCH   3   6
HETATM    6  C   UNL     1      -8.594   7.065  70.925  1.00  0.00    -0.139 A  
HETATM    7  C   UNL     1      -9.579   8.049  70.967  1.00  0.00    -0.160 A  
HETATM    8  F   UNL     1     -10.515   8.047  71.929  1.00  0.00    -0.234 F  
HETATM    9  C   UNL     1      -9.639   9.061  70.005  1.00  0.00    -0.203 A  
HETATM   10  C   UNL     1      -8.722   9.090  68.953  1.00  0.00    -0.136 A  
HETATM   11  C   UNL     1      -7.700   8.125  68.947  1.00  0.00    -0.103 A  
HETATM   12  C   UNL     1      -7.630   7.124  69.920  1.00  0.00    -0.098 A  
BRANCH  10  13
HETATM   13  N   UNL     1      -8.770  10.075  67.926  1.00  0.00    -0.125 N  
HETATM   14  C   UNL     1      -8.445  11.444  68.094  1.00  0.00    -0.152 C  
HETATM   15  N   UNL     1      -9.198  12.166  67.173  1.00  0.00    -0.187 N  
HETATM   16  S   UNL     1      -7.188  11.982  69.076  1.00  0.00    -0.001 S  
HETATM   17  C   UNL     1      -8.087   9.378  65.644  1.00  0.00    -0.112 C  
HETATM   18  C   UNL     1      -9.596  11.290  66.177  1.00  0.00    -0.214 C  
HETATM   19  C   UNL     1     -10.482   8.989  66.413  1.00  0.00    -0.110 C  
HETATM   20  C   UNL     1      -9.222   9.845  66.566  1.00  0.00    -0.155 C  
HETATM   21  O   UNL     1     -10.110  11.553  65.093  1.00  0.00    -0.244 OA 
BRANCH  15  22
HETATM   22  C   UNL     1      -9.553  13.563  67.226  1.00  0.00    -0.235 A  
HETATM   23  C   UNL     1     -11.186  15.379  66.978  1.00  0.00    -0.229 A  
HETATM   24  C   UNL     1     -10.845  14.016  66.929  1.00  0.00    -0.290 A  
HETATM   25  C   UNL     1     -10.240  16.352  67.314  1.00  0.00    -0.278 A  
HETATM   26  C   UNL     1      -8.950  15.943  67.659  1.00  0.00    -0.193 A  
HETATM   27  C   UNL     1     -10.648  17.727  67.286  1.00  0.00    -0.316 C  
HETATM   28  C   UNL     1      -8.650  14.555  67.651  1.00  0.00    -0.184 A  
HETATM   29  N   UNL     1     -11.008  18.832  67.247  1.00  0.00    -0.331 NA 
HETATM   30  C   UNL     1      -7.835  16.892  68.036  1.00  0.00    -0.179 C  
HETATM   31  F   UNL     1      -6.737  16.714  67.251  1.00  0.00    -0.140 F  
HETATM   32  F   UNL     1      -7.411  16.693  69.315  1.00  0.00    -0.231 F  
HETATM   33  F   UNL     1      -8.139  18.210  67.946  1.00  0.00    -0.229 F  
ENDBRANCH  15  22
ENDBRANCH  10  13
ENDBRANCH   3   6
TORSDOF 3
ENDMDL
MODEL       94
REMARK 921   NORMALIZED FREE ENERGY PREDICTED BY IDOCK:   -4.50 KCAL/MOL
REMARK 922        TOTAL FREE ENERGY PREDICTED BY IDOCK:   -6.21 KCAL/MOL
REMARK 923 INTER-LIGAND FREE ENERGY PREDICTED BY IDOCK:   -5.36 KCAL/MOL
REMARK 924 INTRA-LIGAND FREE ENERGY PREDICTED BY IDOCK:   -0.85 KCAL/MOL
REMARK 927      BINDING AFFINITY PREDICTED BY RF-SCORE:    0.00 PKD
ROOT
HETATM    1  C   UNL     1     -10.276   4.313  65.267  1.00  0.00    -0.217 C  
HETATM    2  N   UNL     1      -9.674   5.566  65.637  1.00  0.00    -0.366 N  
HETATM    3  C   UNL     1     -10.191   6.339  66.652  1.00  0.00    -0.164 C  
HETATM    4  H   UNL     1      -8.846   5.889  65.137  1.00  0.00     0.000 HD 
HETATM    5  O   UNL     1     -11.173   6.021  67.312  1.00  0.00    -0.231 OA 
ENDROOT
BRANCH   3   6
HETATM    6  C   UNL     1      -9.459   7.589  66.967  1.00  0.00    -0.206 A  
HETATM    7  C   UNL     1      -8.778   7.781  68.167  1.00  0.00    -0.126 A  
HETATM    8  F   UNL     1      -8.725   6.809  69.091  1.00  0.00    -0.128 F  
HETATM    9  C   UNL     1      -8.141   8.991  68.457  1.00  0.00    -0.107 A  
HETATM   10  C   UNL     1      -8.200  10.054  67.556  1.00  0.00    -0.114 A  
HETATM   11  C   UNL     1      -8.845   9.836  66.325  1.00  0.00    -0.165 A  
HETATM   12  C   UNL     1      -9.466   8.620  66.028  1.00  0.00    -0.278 A  
BRANCH  10  13
HETATM   13  N   UNL     1      -7.605  11.318  67.826  1.00  0.00    -0.100 N  
HETATM   14  C   UNL     1      -8.318  12.511  68.108  1.00  0.00    -0.175 C  
HETATM   15  N   UNL     1      -7.536  13.576  67.670  1.00  0.00    -0.167 N  
HETATM   16  S   UNL     1      -9.727  12.551  69.029  1.00  0.00     0.476 S  
HETATM   17  C   UNL     1      -5.499  11.332  69.140  1.00  0.00    -0.040 C  
HETATM   18  C   UNL     1      -6.230  13.125  67.569  1.00  0.00    -0.122 C  
HETATM   19  C   UNL     1      -5.406  10.990  66.619  1.00  0.00    -0.092 C  
HETATM   20  C   UNL     1      -6.181  11.599  67.791  1.00  0.00    -0.059 C  
HETATM   21  O   UNL     1      -5.208  13.784  67.400  1.00  0.00    -0.337 OA 
BRANCH  15  22
HETATM   22  C   UNL     1      -7.970  14.910  67.335  1.00  0.00    -0.199 A  
HETATM   23  C   UNL     1      -7.716  17.348  67.455  1.00  0.00    -0.205 A  
HETATM   24  C   UNL     1      -7.289  16.050  67.781  1.00  0.00    -0.157 A  
HETATM   25  C   UNL     1      -8.858  17.562  66.678  1.00  0.00    -0.284 A  
HETATM   26  C   UNL     1      -9.545  16.455  66.175  1.00  0.00    -0.356 A  
HETATM   27  C   UNL     1      -9.265  18.916  66.436  1.00  0.00    -0.313 C  
HETATM   28  C   UNL     1      -9.057  15.156  66.477  1.00  0.00    -0.328 A  
HETATM   29  N   UNL     1      -9.572  20.025  66.264  1.00  0.00    -0.413 NA 
HETATM   30  C   UNL     1     -10.794  16.548  65.327  1.00  0.00    -0.221 C  
HETATM   31  F   UNL     1     -11.823  15.841  65.869  1.00  0.00     0.129 F  
HETATM   32  F   UNL     1     -10.601  16.028  64.083  1.00  0.00    -0.011 F  
HETATM   33  F   UNL     1     -11.273  17.802  65.136  1.00  0.00    -0.279 F  
ENDBRANCH  15  22
ENDBRANCH  10  13
ENDBRANCH   3   6
TORSDOF 3
ENDMDL
MODEL       95
REMARK 921   NORMALIZED FREE ENERGY PREDICTED BY IDOCK:   -4.47 KCAL/MOL
REMARK 922        TOTAL FREE ENERGY PREDICTED BY IDOCK:   -6.18 KCAL/MOL
REMARK 923 INTER-LIGAND FREE ENERGY PREDICTED BY IDOCK:   -6.06 KCAL/MOL
REMARK 924 INTRA-LIGAND FREE ENERGY PREDICTED BY IDOCK:   -0.12 KCAL/MOL
REMARK 927      BINDING AFFINITY PREDICTED BY RF-SCORE:    0.00 PKD
ROOT
HETATM    1  C   UNL     1      -6.132   3.939  69.178  1.00  0.00    -0.027 C  
HETATM    2  N   UNL     1      -6.941   5.128  69.213  1.00  0.00    -0.054 N  
HETATM    3  C   UNL     1      -7.902   5.372  68.258  1.00  0.00    -0.088 C  
HETATM    4  H   UNL     1      -6.801   5.805  69.963  1.00  0.00     0.000 HD 
HETATM    5  O   UNL     1      -8.145   4.607  67.332  1.00  0.00    -0.100 OA 
ENDROOT
BRANCH   3   6
HETATM    6  C   UNL     1      -8.699   6.611  68.425  1.00  0.00    -0.122 A  
HETATM    7  C   UNL     1      -8.115   7.865  68.593  1.00  0.00    -0.126 A  
HETATM    8  F   UNL     1      -6.780   8.011  68.574  1.00  0.00    -0.058 F  
HETATM    9  C   UNL     1      -8.891   9.008  68.800  1.00  0.00    -0.137 A  
HETATM   10  C   UNL     1     -10.281   8.913  68.876  1.00  0.00    -0.206 A  
HETATM   11  C   UNL     1     -10.866   7.653  68.654  1.00  0.00    -0.013 A  
HETATM   12  C   UNL     1     -10.090   6.514  68.428  1.00  0.00    -0.169 A  
BRANCH  10  13
HETATM   13  N   UNL     1     -11.111  10.042  69.130  1.00  0.00    -0.215 N  
HETATM   14  C   UNL     1     -11.203  11.188  68.301  1.00  0.00    -0.279 C  
HETATM   15  N   UNL     1     -11.525  12.267  69.119  1.00  0.00    -0.277 N  
HETATM   16  S   UNL     1     -11.161  11.119  66.620  1.00  0.00     0.003 S  
HETATM   17  C   UNL     1     -13.339   9.618  70.137  1.00  0.00     0.796 C  
HETATM   18  C   UNL     1     -12.073  11.761  70.286  1.00  0.00    -0.342 C  
HETATM   19  C   UNL     1     -11.300   9.839  71.645  1.00  0.00    -0.230 C  
HETATM   20  C   UNL     1     -11.939  10.224  70.308  1.00  0.00    -0.264 C  
HETATM   21  O   UNL     1     -12.655  12.370  71.180  1.00  0.00    -0.364 OA 
BRANCH  15  22
HETATM   22  C   UNL     1     -11.312  13.669  68.855  1.00  0.00    -0.290 A  
HETATM   23  C   UNL     1     -11.060  15.988  69.617  1.00  0.00    -0.331 A  
HETATM   24  C   UNL     1     -11.265  14.622  69.879  1.00  0.00    -0.271 A  
HETATM   25  C   UNL     1     -10.907  16.461  68.310  1.00  0.00    -0.347 A  
HETATM   26  C   UNL     1     -10.904  15.541  67.260  1.00  0.00    -0.313 A  
HETATM   27  C   UNL     1     -10.761  17.875  68.118  1.00  0.00    -0.274 C  
HETATM   28  C   UNL     1     -11.060  14.162  67.561  1.00  0.00    -0.304 A  
HETATM   29  N   UNL     1     -10.650  19.026  67.996  1.00  0.00    -0.352 NA 
HETATM   30  C   UNL     1     -10.753  15.921  65.804  1.00  0.00    -0.316 C  
HETATM   31  F   UNL     1     -11.787  15.452  65.053  1.00  0.00    -0.282 F  
HETATM   32  F   UNL     1      -9.626  15.388  65.256  1.00  0.00    -0.323 F  
HETATM   33  F   UNL     1     -10.695  17.252  65.555  1.00  0.00    -0.380 F  
ENDBRANCH  15  22
ENDBRANCH  10  13
ENDBRANCH   3   6
TORSDOF 3
ENDMDL
MODEL       96
REMARK 921   NORMALIZED FREE ENERGY PREDICTED BY IDOCK:   -4.46 KCAL/MOL
REMARK 922        TOTAL FREE ENERGY PREDICTED BY IDOCK:   -6.16 KCAL/MOL
REMARK 923 INTER-LIGAND FREE ENERGY PREDICTED BY IDOCK:   -5.14 KCAL/MOL
REMARK 924 INTRA-LIGAND FREE ENERGY PREDICTED BY IDOCK:   -1.02 KCAL/MOL
REMARK 927      BINDING AFFINITY PREDICTED BY RF-SCORE:    0.00 PKD
ROOT
HETATM    1  C   UNL     1     -10.995   1.961  62.711  1.00  0.00    -0.208 C  
HETATM    2  N   UNL     1     -10.802   3.096  63.574  1.00  0.00    -0.269 N  
HETATM    3  C   UNL     1      -9.824   3.105  64.542  1.00  0.00    -0.123 C  
HETATM    4  H   UNL     1     -11.404   3.913  63.466  1.00  0.00     0.000 HD 
HETATM    5  O   UNL     1      -9.051   2.173  64.732  1.00  0.00    -0.119 OA 
ENDROOT
BRANCH   3   6
HETATM    6  C   UNL     1      -9.697   4.347  65.341  1.00  0.00    -0.203 A  
HETATM    7  C   UNL     1      -8.536   5.117  65.357  1.00  0.00    -0.146 A  
HETATM    8  F   UNL     1      -7.475   4.778  64.608  1.00  0.00    -0.066 F  
HETATM    9  C   UNL     1      -8.429   6.256  66.161  1.00  0.00    -0.138 A  
HETATM   10  C   UNL     1      -9.480   6.632  66.996  1.00  0.00    -0.144 A  
HETATM   11  C   UNL     1     -10.668   5.881  66.935  1.00  0.00    -0.395 A  
HETATM   12  C   UNL     1     -10.782   4.753  66.118  1.00  0.00    -0.177 A  
BRANCH  10  13
HETATM   13  N   UNL     1      -9.400   7.757  67.864  1.00  0.00    -0.140 N  
HETATM   14  C   UNL     1      -9.410   9.112  67.445  1.00  0.00    -0.134 C  
HETATM   15  N   UNL     1      -8.685   9.842  68.382  1.00  0.00    -0.119 N  
HETATM   16  S   UNL     1     -10.358   9.681  66.175  1.00  0.00    -0.044 S  
HETATM   17  C   UNL     1     -10.569   7.601  70.048  1.00  0.00    -0.240 C  
HETATM   18  C   UNL     1      -8.638   9.098  69.550  1.00  0.00    -0.138 C  
HETATM   19  C   UNL     1      -8.210   6.672  69.815  1.00  0.00    -0.127 C  
HETATM   20  C   UNL     1      -9.229   7.694  69.304  1.00  0.00    -0.145 C  
HETATM   21  O   UNL     1      -8.262   9.452  70.664  1.00  0.00    -0.176 OA 
BRANCH  15  22
HETATM   22  C   UNL     1      -8.050  11.125  68.203  1.00  0.00    -0.128 A  
HETATM   23  C   UNL     1      -6.053  12.506  67.848  1.00  0.00    -0.101 A  
HETATM   24  C   UNL     1      -6.668  11.254  68.019  1.00  0.00    -0.062 A  
HETATM   25  C   UNL     1      -6.799  13.689  67.867  1.00  0.00    -0.155 A  
HETATM   26  C   UNL     1      -8.186  13.606  68.004  1.00  0.00    -0.162 A  
HETATM   27  C   UNL     1      -6.094  14.932  67.744  1.00  0.00    -0.130 C  
HETATM   28  C   UNL     1      -8.783  12.323  68.122  1.00  0.00    -0.186 A  
HETATM   29  N   UNL     1      -5.492  15.923  67.648  1.00  0.00    -0.190 NA 
HETATM   30  C   UNL     1      -9.105  14.807  68.045  1.00  0.00    -0.179 C  
HETATM   31  F   UNL     1      -9.872  14.814  69.170  1.00  0.00    -0.209 F  
HETATM   32  F   UNL     1      -9.979  14.811  67.000  1.00  0.00    -0.229 F  
HETATM   33  F   UNL     1      -8.486  16.012  68.017  1.00  0.00    -0.157 F  
ENDBRANCH  15  22
ENDBRANCH  10  13
ENDBRANCH   3   6
TORSDOF 3
ENDMDL
MODEL       97
REMARK 921   NORMALIZED FREE ENERGY PREDICTED BY IDOCK:   -4.42 KCAL/MOL
REMARK 922        TOTAL FREE ENERGY PREDICTED BY IDOCK:   -6.11 KCAL/MOL
REMARK 923 INTER-LIGAND FREE ENERGY PREDICTED BY IDOCK:   -6.41 KCAL/MOL
REMARK 924 INTRA-LIGAND FREE ENERGY PREDICTED BY IDOCK:    0.30 KCAL/MOL
REMARK 927      BINDING AFFINITY PREDICTED BY RF-SCORE:    0.00 PKD
ROOT
HETATM    1  C   UNL     1     -10.980  19.931  65.253  1.00  0.00     0.262 C  
HETATM    2  N   UNL     1     -10.356  18.777  65.844  1.00  0.00    -0.407 N  
HETATM    3  C   UNL     1     -10.625  17.505  65.394  1.00  0.00     0.003 C  
HETATM    4  H   UNL     1      -9.699  18.906  66.614  1.00  0.00     0.000 HD 
HETATM    5  O   UNL     1     -11.389  17.262  64.468  1.00  0.00    -1.007 OA 
ENDROOT
BRANCH   3   6
HETATM    6  C   UNL     1      -9.888  16.402  66.057  1.00  0.00    -0.362 A  
HETATM    7  C   UNL     1      -8.509  16.428  66.253  1.00  0.00    -0.337 A  
HETATM    8  F   UNL     1      -7.780  17.490  65.875  1.00  0.00    -0.309 F  
HETATM    9  C   UNL     1      -7.836  15.350  66.834  1.00  0.00    -0.196 A  
HETATM   10  C   UNL     1      -8.532  14.200  67.205  1.00  0.00    -0.214 A  
HETATM   11  C   UNL     1      -9.930  14.201  67.053  1.00  0.00    -0.260 A  
HETATM   12  C   UNL     1     -10.605  15.287  66.488  1.00  0.00    -0.304 A  
BRANCH  10  13
HETATM   13  N   UNL     1      -7.884  13.060  67.760  1.00  0.00    -0.142 N  
HETATM   14  C   UNL     1      -8.262  11.714  67.528  1.00  0.00    -0.148 C  
HETATM   15  N   UNL     1      -7.903  10.981  68.655  1.00  0.00    -0.128 N  
HETATM   16  S   UNL     1      -8.810  11.150  66.039  1.00  0.00    -0.176 S  
HETATM   17  C   UNL     1      -5.415  13.154  67.996  1.00  0.00    -0.108 C  
HETATM   18  C   UNL     1      -6.938  11.704  69.337  1.00  0.00    -0.051 C  
HETATM   19  C   UNL     1      -6.891  14.133  69.825  1.00  0.00    -0.019 C  
HETATM   20  C   UNL     1      -6.778  13.100  68.700  1.00  0.00    -0.096 C  
HETATM   21  O   UNL     1      -6.228  11.337  70.268  1.00  0.00    -0.151 OA 
BRANCH  15  22
HETATM   22  C   UNL     1      -8.438   9.715  69.092  1.00  0.00    -0.143 A  
HETATM   23  C   UNL     1      -9.019   8.121  70.865  1.00  0.00    -0.163 A  
HETATM   24  C   UNL     1      -8.500   9.357  70.445  1.00  0.00    -0.247 A  
HETATM   25  C   UNL     1      -9.486   7.179  69.944  1.00  0.00    -0.153 A  
HETATM   26  C   UNL     1      -9.484   7.509  68.587  1.00  0.00    -0.146 A  
HETATM   27  C   UNL     1      -9.947   5.916  70.446  1.00  0.00    -0.192 C  
HETATM   28  C   UNL     1      -9.003   8.787  68.198  1.00  0.00    -0.141 A  
HETATM   29  N   UNL     1     -10.308   4.901  70.884  1.00  0.00    -0.195 NA 
HETATM   30  C   UNL     1      -9.957   6.580  67.490  1.00  0.00    -0.137 C  
HETATM   31  F   UNL     1      -8.994   6.386  66.548  1.00  0.00    -0.126 F  
HETATM   32  F   UNL     1     -11.030   7.089  66.824  1.00  0.00    -0.405 F  
HETATM   33  F   UNL     1     -10.325   5.342  67.898  1.00  0.00    -0.211 F  
ENDBRANCH  15  22
ENDBRANCH  10  13
ENDBRANCH   3   6
TORSDOF 3
ENDMDL
MODEL       98
REMARK 921   NORMALIZED FREE ENERGY PREDICTED BY IDOCK:   -4.41 KCAL/MOL
REMARK 922        TOTAL FREE ENERGY PREDICTED BY IDOCK:   -6.10 KCAL/MOL
REMARK 923 INTER-LIGAND FREE ENERGY PREDICTED BY IDOCK:   -5.80 KCAL/MOL
REMARK 924 INTRA-LIGAND FREE ENERGY PREDICTED BY IDOCK:   -0.30 KCAL/MOL
REMARK 927      BINDING AFFINITY PREDICTED BY RF-SCORE:    0.00 PKD
ROOT
HETATM    1  C   UNL     1     -10.754  17.157  65.827  1.00  0.00    -0.138 C  
HETATM    2  N   UNL     1     -10.327  15.826  66.167  1.00  0.00    -0.304 N  
HETATM    3  C   UNL     1     -10.918  15.122  67.191  1.00  0.00    -0.326 C  
HETATM    4  H   UNL     1      -9.570  15.395  65.637  1.00  0.00     0.000 HD 
HETATM    5  O   UNL     1     -11.840  15.558  67.869  1.00  0.00    -0.240 OA 
ENDROOT
BRANCH   3   6
HETATM    6  C   UNL     1     -10.417  13.745  67.418  1.00  0.00    -0.256 A  
HETATM    7  C   UNL     1     -11.144  12.611  67.061  1.00  0.00    -0.281 A  
HETATM    8  F   UNL     1     -12.335  12.720  66.452  1.00  0.00    -0.453 F  
HETATM    9  C   UNL     1     -10.669  11.326  67.335  1.00  0.00    -0.285 A  
HETATM   10  C   UNL     1      -9.459  11.148  68.008  1.00  0.00    -0.174 A  
HETATM   11  C   UNL     1      -8.707  12.295  68.319  1.00  0.00    -0.178 A  
HETATM   12  C   UNL     1      -9.174  13.580  68.027  1.00  0.00    -0.209 A  
BRANCH  10  13
HETATM   13  N   UNL     1      -8.957   9.861  68.348  1.00  0.00    -0.119 N  
HETATM   14  C   UNL     1      -8.493   8.895  67.419  1.00  0.00    -0.115 C  
HETATM   15  N   UNL     1      -8.718   7.640  67.977  1.00  0.00    -0.126 N  
HETATM   16  S   UNL     1      -7.620   9.289  66.034  1.00  0.00    -0.096 S  
HETATM   17  C   UNL     1      -7.601   9.674  70.419  1.00  0.00    -0.176 C  
HETATM   18  C   UNL     1      -8.858   7.807  69.345  1.00  0.00    -0.139 C  
HETATM   19  C   UNL     1     -10.140   9.544  70.562  1.00  0.00    -0.347 C  
HETATM   20  C   UNL     1      -8.903   9.310  69.690  1.00  0.00    -0.155 C  
HETATM   21  O   UNL     1      -8.881   6.945  70.219  1.00  0.00    -0.146 OA 
BRANCH  15  22
HETATM   22  C   UNL     1      -8.829   6.376  67.291  1.00  0.00    -0.108 A  
HETATM   23  C   UNL     1      -9.041   5.057  65.232  1.00  0.00    -0.143 A  
HETATM   24  C   UNL     1      -8.931   6.291  65.897  1.00  0.00    -0.122 A  
HETATM   25  C   UNL     1      -9.070   3.852  65.940  1.00  0.00    -0.146 A  
HETATM   26  C   UNL     1      -8.927   3.886  67.329  1.00  0.00    -0.151 A  
HETATM   27  C   UNL     1      -9.244   2.638  65.197  1.00  0.00    -0.131 C  
HETATM   28  C   UNL     1      -8.764   5.144  67.966  1.00  0.00    -0.102 A  
HETATM   29  N   UNL     1      -9.392   1.672  64.566  1.00  0.00    -0.132 NA 
HETATM   30  C   UNL     1      -8.945   2.657  68.211  1.00  0.00    -0.149 C  
HETATM   31  F   UNL     1      -9.894   2.750  69.182  1.00  0.00    -0.171 F  
HETATM   32  F   UNL     1      -7.762   2.485  68.864  1.00  0.00    -0.047 F  
HETATM   33  F   UNL     1      -9.191   1.488  67.571  1.00  0.00    -0.133 F  
ENDBRANCH  15  22
ENDBRANCH  10  13
ENDBRANCH   3   6
TORSDOF 3
ENDMDL
MODEL       99
REMARK 921   NORMALIZED FREE ENERGY PREDICTED BY IDOCK:   -4.40 KCAL/MOL
REMARK 922        TOTAL FREE ENERGY PREDICTED BY IDOCK:   -6.09 KCAL/MOL
REMARK 923 INTER-LIGAND FREE ENERGY PREDICTED BY IDOCK:   -5.39 KCAL/MOL
REMARK 924 INTRA-LIGAND FREE ENERGY PREDICTED BY IDOCK:   -0.70 KCAL/MOL
REMARK 927      BINDING AFFINITY PREDICTED BY RF-SCORE:    0.00 PKD
ROOT
HETATM    1  C   UNL     1     -12.793  14.746  70.481  1.00  0.00    -0.322 C  
HETATM    2  N   UNL     1     -12.149  13.705  69.726  1.00  0.00    -0.336 N  
HETATM    3  C   UNL     1     -11.722  13.914  68.434  1.00  0.00    -0.356 C  
HETATM    4  H   UNL     1     -12.006  12.792  70.157  1.00  0.00     0.000 HD 
HETATM    5  O   UNL     1     -11.842  14.982  67.845  1.00  0.00    -0.334 OA 
ENDROOT
BRANCH   3   6
HETATM    6  C   UNL     1     -11.036  12.777  67.774  1.00  0.00    -0.289 A  
HETATM    7  C   UNL     1     -11.417  12.290  66.526  1.00  0.00    -0.381 A  
HETATM    8  F   UNL     1     -12.418  12.864  65.839  1.00  0.00    -0.484 F  
HETATM    9  C   UNL     1     -10.786  11.183  65.952  1.00  0.00    -0.261 A  
HETATM   10  C   UNL     1      -9.771  10.515  66.638  1.00  0.00    -0.189 A  
HETATM   11  C   UNL     1      -9.356  11.044  67.874  1.00  0.00    -0.160 A  
HETATM   12  C   UNL     1      -9.976  12.162  68.438  1.00  0.00    -0.206 A  
BRANCH  10  13
HETATM   13  N   UNL     1      -9.129   9.358  66.114  1.00  0.00    -0.159 N  
HETATM   14  C   UNL     1      -9.278   8.043  66.623  1.00  0.00    -0.180 C  
HETATM   15  N   UNL     1      -8.098   7.357  66.354  1.00  0.00    -0.114 N  
HETATM   16  S   UNL     1     -10.737   7.436  67.205  1.00  0.00    -0.271 S  
HETATM   17  C   UNL     1      -8.851   9.222  63.651  1.00  0.00    -0.146 C  
HETATM   18  C   UNL     1      -7.447   8.025  65.329  1.00  0.00    -0.080 C  
HETATM   19  C   UNL     1      -7.121  10.465  65.045  1.00  0.00    -0.062 C  
HETATM   20  C   UNL     1      -8.172   9.352  65.022  1.00  0.00    -0.138 C  
HETATM   21  O   UNL     1      -6.479   7.654  64.672  1.00  0.00    -0.044 OA 
BRANCH  15  22
HETATM   22  C   UNL     1      -7.588   6.182  67.018  1.00  0.00    -0.095 A  
HETATM   23  C   UNL     1      -5.823   5.001  68.247  1.00  0.00    -0.017 A  
HETATM   24  C   UNL     1      -6.316   6.149  67.603  1.00  0.00    -0.041 A  
HETATM   25  C   UNL     1      -6.580   3.828  68.319  1.00  0.00    -0.045 A  
HETATM   26  C   UNL     1      -7.871   3.828  67.787  1.00  0.00    -0.081 A  
HETATM   27  C   UNL     1      -5.985   2.680  68.941  1.00  0.00    -0.024 C  
HETATM   28  C   UNL     1      -8.361   5.019  67.191  1.00  0.00    -0.106 A  
HETATM   29  N   UNL     1      -5.473   1.765  69.445  1.00  0.00    -0.012 NA 
HETATM   30  C   UNL     1      -8.789   2.626  67.797  1.00  0.00    -0.131 C  
HETATM   31  F   UNL     1      -9.215   2.311  66.543  1.00  0.00    -0.139 F  
HETATM   32  F   UNL     1      -9.917   2.857  68.524  1.00  0.00    -0.131 F  
HETATM   33  F   UNL     1      -8.250   1.488  68.296  1.00  0.00    -0.055 F  
ENDBRANCH  15  22
ENDBRANCH  10  13
ENDBRANCH   3   6
TORSDOF 3
ENDMDL
MODEL      100
REMARK 921   NORMALIZED FREE ENERGY PREDICTED BY IDOCK:   -4.39 KCAL/MOL
REMARK 922        TOTAL FREE ENERGY PREDICTED BY IDOCK:   -6.08 KCAL/MOL
REMARK 923 INTER-LIGAND FREE ENERGY PREDICTED BY IDOCK:   -5.14 KCAL/MOL
REMARK 924 INTRA-LIGAND FREE ENERGY PREDICTED BY IDOCK:   -0.93 KCAL/MOL
REMARK 927      BINDING AFFINITY PREDICTED BY RF-SCORE:    0.00 PKD
ROOT
HETATM    1  C   UNL     1     -13.623  15.212  72.243  1.00  0.00    -0.462 C  
HETATM    2  N   UNL     1     -12.700  14.379  71.520  1.00  0.00    -0.326 N  
HETATM    3  C   UNL     1     -12.298  14.694  70.242  1.00  0.00    -0.349 C  
HETATM    4  H   UNL     1     -12.335  13.536  71.965  1.00  0.00     0.000 HD 
HETATM    5  O   UNL     1     -12.676  15.691  69.640  1.00  0.00    -0.103 OA 
ENDROOT
BRANCH   3   6
HETATM    6  C   UNL     1     -11.312  13.780  69.617  1.00  0.00    -0.241 A  
HETATM    7  C   UNL     1     -10.259  14.234  68.826  1.00  0.00    -0.226 A  
HETATM    8  F   UNL     1     -10.069  15.547  68.621  1.00  0.00    -0.197 F  
HETATM    9  C   UNL     1      -9.376  13.345  68.207  1.00  0.00    -0.205 A  
HETATM   10  C   UNL     1      -9.550  11.967  68.344  1.00  0.00    -0.190 A  
HETATM   11  C   UNL     1     -10.583  11.517  69.186  1.00  0.00    -0.174 A  
HETATM   12  C   UNL     1     -11.454  12.407  69.819  1.00  0.00    -0.220 A  
BRANCH  10  13
HETATM   13  N   UNL     1      -8.704  11.023  67.697  1.00  0.00    -0.127 N  
HETATM   14  C   UNL     1      -9.109  10.137  66.667  1.00  0.00    -0.144 C  
HETATM   15  N   UNL     1      -8.307   9.003  66.755  1.00  0.00    -0.114 N  
HETATM   16  S   UNL     1     -10.195  10.565  65.454  1.00  0.00    -0.235 S  
HETATM   17  C   UNL     1      -6.352  11.696  67.277  1.00  0.00    -0.118 C  
HETATM   18  C   UNL     1      -7.168   9.347  67.464  1.00  0.00    -0.079 C  
HETATM   19  C   UNL     1      -6.991  10.701  69.532  1.00  0.00    -0.121 C  
HETATM   20  C   UNL     1      -7.315  10.773  68.037  1.00  0.00    -0.088 C  
HETATM   21  O   UNL     1      -6.134   8.701  67.604  1.00  0.00    -0.047 OA 
BRANCH  15  22
HETATM   22  C   UNL     1      -8.588   7.683  66.247  1.00  0.00    -0.144 A  
HETATM   23  C   UNL     1      -9.864   5.587  66.290  1.00  0.00    -0.173 A  
HETATM   24  C   UNL     1      -9.596   6.874  66.786  1.00  0.00    -0.215 A  
HETATM   25  C   UNL     1      -9.119   5.046  65.237  1.00  0.00    -0.143 A  
HETATM   26  C   UNL     1      -8.132   5.832  64.640  1.00  0.00    -0.132 A  
HETATM   27  C   UNL     1      -9.413   3.704  64.824  1.00  0.00    -0.160 C  
HETATM   28  C   UNL     1      -7.921   7.148  65.129  1.00  0.00    -0.128 A  
HETATM   29  N   UNL     1      -9.671   2.612  64.518  1.00  0.00    -0.123 NA 
HETATM   30  C   UNL     1      -7.256   5.366  63.498  1.00  0.00    -0.049 C  
HETATM   31  F   UNL     1      -5.933   5.483  63.801  1.00  0.00    -0.019 F  
HETATM   32  F   UNL     1      -7.446   6.113  62.376  1.00  0.00    -0.045 F  
HETATM   33  F   UNL     1      -7.431   4.076  63.122  1.00  0.00    -0.047 F  
ENDBRANCH  15  22
ENDBRANCH  10  13
ENDBRANCH   3   6
TORSDOF 3
ENDMDL
MODEL      101
REMARK 921   NORMALIZED FREE ENERGY PREDICTED BY IDOCK:   -4.37 KCAL/MOL
REMARK 922        TOTAL FREE ENERGY PREDICTED BY IDOCK:   -6.05 KCAL/MOL
REMARK 923 INTER-LIGAND FREE ENERGY PREDICTED BY IDOCK:   -5.38 KCAL/MOL
REMARK 924 INTRA-LIGAND FREE ENERGY PREDICTED BY IDOCK:   -0.67 KCAL/MOL
REMARK 927      BINDING AFFINITY PREDICTED BY RF-SCORE:    0.00 PKD
ROOT
HETATM    1  C   UNL     1      -6.769   4.097  68.495  1.00  0.00    -0.046 C  
HETATM    2  N   UNL     1      -7.138   5.363  67.919  1.00  0.00    -0.066 N  
HETATM    3  C   UNL     1      -8.391   5.901  68.110  1.00  0.00    -0.115 C  
HETATM    4  H   UNL     1      -6.457   5.873  67.356  1.00  0.00     0.000 HD 
HETATM    5  O   UNL     1      -9.264   5.363  68.780  1.00  0.00    -0.118 OA 
ENDROOT
BRANCH   3   6
HETATM    6  C   UNL     1      -8.637   7.229  67.499  1.00  0.00    -0.122 A  
HETATM    7  C   UNL     1      -8.559   7.453  66.126  1.00  0.00    -0.146 A  
HETATM    8  F   UNL     1      -8.286   6.448  65.279  1.00  0.00    -0.133 F  
HETATM    9  C   UNL     1      -8.746   8.728  65.584  1.00  0.00    -0.215 A  
HETATM   10  C   UNL     1      -8.986   9.821  66.417  1.00  0.00    -0.151 A  
HETATM   11  C   UNL     1      -9.116   9.579  67.797  1.00  0.00    -0.133 A  
HETATM   12  C   UNL     1      -8.947   8.301  68.336  1.00  0.00    -0.136 A  
BRANCH  10  13
HETATM   13  N   UNL     1      -9.139  11.144  65.915  1.00  0.00    -0.200 N  
HETATM   14  C   UNL     1      -8.534  12.301  66.469  1.00  0.00     0.015 C  
HETATM   15  N   UNL     1      -9.369  13.379  66.194  1.00  0.00    -0.129 N  
HETATM   16  S   UNL     1      -6.975  12.314  67.106  1.00  0.00    -0.048 S  
HETATM   17  C   UNL     1      -9.263  11.425  63.453  1.00  0.00    -0.149 C  
HETATM   18  C   UNL     1     -10.185  13.019  65.134  1.00  0.00    -0.272 C  
HETATM   19  C   UNL     1     -11.376  10.878  64.764  1.00  0.00     0.428 C  
HETATM   20  C   UNL     1      -9.989  11.525  64.802  1.00  0.00    -0.260 C  
HETATM   21  O   UNL     1     -10.925  13.735  64.466  1.00  0.00    -0.387 OA 
BRANCH  15  22
HETATM   22  C   UNL     1      -9.433  14.644  66.883  1.00  0.00    -0.246 A  
HETATM   23  C   UNL     1     -10.552  16.213  68.403  1.00  0.00    -0.286 A  
HETATM   24  C   UNL     1     -10.493  14.977  67.736  1.00  0.00    -0.249 A  
HETATM   25  C   UNL     1      -9.555  17.178  68.233  1.00  0.00    -0.280 A  
HETATM   26  C   UNL     1      -8.457  16.873  67.426  1.00  0.00    -0.204 A  
HETATM   27  C   UNL     1      -9.715  18.437  68.901  1.00  0.00    -0.291 C  
HETATM   28  C   UNL     1      -8.399  15.597  66.808  1.00  0.00    -0.313 A  
HETATM   29  N   UNL     1      -9.877  19.449  69.451  1.00  0.00    -0.280 NA 
HETATM   30  C   UNL     1      -7.315  17.828  67.156  1.00  0.00    -0.186 C  
HETATM   31  F   UNL     1      -7.132  18.027  65.822  1.00  0.00    -0.297 F  
HETATM   32  F   UNL     1      -6.131  17.347  67.625  1.00  0.00    -0.132 F  
HETATM   33  F   UNL     1      -7.454  19.064  67.694  1.00  0.00    -0.231 F  
ENDBRANCH  15  22
ENDBRANCH  10  13
ENDBRANCH   3   6
TORSDOF 3
ENDMDL
MODEL      102
REMARK 921   NORMALIZED FREE ENERGY PREDICTED BY IDOCK:   -4.35 KCAL/MOL
REMARK 922        TOTAL FREE ENERGY PREDICTED BY IDOCK:   -6.02 KCAL/MOL
REMARK 923 INTER-LIGAND FREE ENERGY PREDICTED BY IDOCK:   -5.52 KCAL/MOL
REMARK 924 INTRA-LIGAND FREE ENERGY PREDICTED BY IDOCK:   -0.50 KCAL/MOL
REMARK 927      BINDING AFFINITY PREDICTED BY RF-SCORE:    0.00 PKD
ROOT
HETATM    1  C   UNL     1      -8.854   3.806  63.857  1.00  0.00    -0.103 C  
HETATM    2  N   UNL     1      -8.799   5.148  64.373  1.00  0.00    -0.304 N  
HETATM    3  C   UNL     1      -9.121   5.428  65.681  1.00  0.00    -0.140 C  
HETATM    4  H   UNL     1      -8.515   5.908  63.755  1.00  0.00     0.000 HD 
HETATM    5  O   UNL     1      -9.459   4.575  66.493  1.00  0.00    -0.145 OA 
ENDROOT
BRANCH   3   6
HETATM    6  C   UNL     1      -8.987   6.842  66.105  1.00  0.00    -0.157 A  
HETATM    7  C   UNL     1      -8.737   7.877  65.206  1.00  0.00     0.001 A  
HETATM    8  F   UNL     1      -8.641   7.636  63.889  1.00  0.00     0.007 F  
HETATM    9  C   UNL     1      -8.564   9.194  65.641  1.00  0.00    -0.178 A  
HETATM   10  C   UNL     1      -8.606   9.499  67.002  1.00  0.00    -0.128 A  
HETATM   11  C   UNL     1      -8.911   8.459  67.898  1.00  0.00    -0.138 A  
HETATM   12  C   UNL     1      -9.102   7.146  67.461  1.00  0.00    -0.123 A  
BRANCH  10  13
HETATM   13  N   UNL     1      -8.392  10.817  67.495  1.00  0.00    -0.115 N  
HETATM   14  C   UNL     1      -9.376  11.836  67.551  1.00  0.00    -0.174 C  
HETATM   15  N   UNL     1      -8.717  13.057  67.436  1.00  0.00    -0.195 N  
HETATM   16  S   UNL     1     -10.989  11.545  67.936  1.00  0.00    -0.253 S  
HETATM   17  C   UNL     1      -6.882  11.074  69.448  1.00  0.00    -0.119 C  
HETATM   18  C   UNL     1      -7.389  12.851  67.774  1.00  0.00    -0.134 C  
HETATM   19  C   UNL     1      -5.899  10.989  67.101  1.00  0.00    -0.064 C  
HETATM   20  C   UNL     1      -7.119  11.342  67.955  1.00  0.00    -0.074 C  
HETATM   21  O   UNL     1      -6.518  13.690  67.982  1.00  0.00    -0.105 OA 
BRANCH  15  22
HETATM   22  C   UNL     1      -9.267  14.321  67.012  1.00  0.00    -0.239 A  
HETATM   23  C   UNL     1     -10.290  15.758  65.306  1.00  0.00    -0.387 A  
HETATM   24  C   UNL     1      -9.756  14.524  65.716  1.00  0.00    -0.306 A  
HETATM   25  C   UNL     1     -10.341  16.851  66.176  1.00  0.00    -0.327 A  
HETATM   26  C   UNL     1      -9.904  16.682  67.492  1.00  0.00    -0.253 A  
HETATM   27  C   UNL     1     -10.845  18.094  65.668  1.00  0.00     0.084 C  
HETATM   28  C   UNL     1      -9.420  15.408  67.891  1.00  0.00    -0.197 A  
HETATM   29  N   UNL     1     -11.252  19.089  65.224  1.00  0.00     0.023 NA 
HETATM   30  C   UNL     1      -9.903  17.783  68.530  1.00  0.00    -0.355 C  
HETATM   31  F   UNL     1      -8.665  17.964  69.067  1.00  0.00    -0.251 F  
HETATM   32  F   UNL     1     -10.722  17.491  69.578  1.00  0.00    -0.290 F  
HETATM   33  F   UNL     1     -10.289  19.002  68.083  1.00  0.00    -0.380 F  
ENDBRANCH  15  22
ENDBRANCH  10  13
ENDBRANCH   3   6
TORSDOF 3
ENDMDL
MODEL      103
REMARK 921   NORMALIZED FREE ENERGY PREDICTED BY IDOCK:   -4.30 KCAL/MOL
REMARK 922        TOTAL FREE ENERGY PREDICTED BY IDOCK:   -5.97 KCAL/MOL
REMARK 923 INTER-LIGAND FREE ENERGY PREDICTED BY IDOCK:   -6.20 KCAL/MOL
REMARK 924 INTRA-LIGAND FREE ENERGY PREDICTED BY IDOCK:    0.23 KCAL/MOL
REMARK 927      BINDING AFFINITY PREDICTED BY RF-SCORE:    0.00 PKD
ROOT
HETATM    1  C   UNL     1     -12.487  16.678  74.171  1.00  0.00    -0.236 C  
HETATM    2  N   UNL     1     -12.076  15.775  73.130  1.00  0.00    -0.464 N  
HETATM    3  C   UNL     1     -12.836  15.593  71.997  1.00  0.00    -0.443 C  
HETATM    4  H   UNL     1     -11.203  15.259  73.233  1.00  0.00     0.000 HD 
HETATM    5  O   UNL     1     -13.890  16.180  71.786  1.00  0.00    -0.074 OA 
ENDROOT
BRANCH   3   6
HETATM    6  C   UNL     1     -12.287  14.667  70.977  1.00  0.00    -0.403 A  
HETATM    7  C   UNL     1     -11.381  15.074  70.000  1.00  0.00    -0.273 A  
HETATM    8  F   UNL     1     -10.932  16.338  69.962  1.00  0.00    -0.293 F  
HETATM    9  C   UNL     1     -10.921  14.190  69.020  1.00  0.00    -0.286 A  
HETATM   10  C   UNL     1     -11.387  12.876  68.980  1.00  0.00    -0.290 A  
HETATM   11  C   UNL     1     -12.260  12.457  70.000  1.00  0.00    -0.264 A  
HETATM   12  C   UNL     1     -12.706  13.337  70.990  1.00  0.00    -0.374 A  
BRANCH  10  13
HETATM   13  N   UNL     1     -10.981  11.952  67.975  1.00  0.00    -0.211 N  
HETATM   14  C   UNL     1     -10.678  10.585  68.199  1.00  0.00    -0.233 C  
HETATM   15  N   UNL     1      -9.742  10.205  67.242  1.00  0.00    -0.162 N  
HETATM   16  S   UNL     1     -11.526   9.616  69.284  1.00  0.00     0.246 S  
HETATM   17  C   UNL     1     -12.025  12.170  65.734  1.00  0.00    -0.267 C  
HETATM   18  C   UNL     1      -9.815  11.113  66.199  1.00  0.00    -0.225 C  
HETATM   19  C   UNL     1      -9.987  13.582  66.314  1.00  0.00    -0.302 C  
HETATM   20  C   UNL     1     -10.748  12.280  66.581  1.00  0.00    -0.245 C  
HETATM   21  O   UNL     1      -9.300  11.037  65.087  1.00  0.00    -0.210 OA 
BRANCH  15  22
HETATM   22  C   UNL     1      -8.821   9.096  67.301  1.00  0.00    -0.124 A  
HETATM   23  C   UNL     1      -6.851   7.985  68.253  1.00  0.00    -0.072 A  
HETATM   24  C   UNL     1      -7.748   9.065  68.201  1.00  0.00    -0.096 A  
HETATM   25  C   UNL     1      -6.981   6.891  67.391  1.00  0.00    -0.079 A  
HETATM   26  C   UNL     1      -8.061   6.859  66.507  1.00  0.00    -0.111 A  
HETATM   27  C   UNL     1      -5.993   5.854  67.463  1.00  0.00    -0.018 C  
HETATM   28  C   UNL     1      -8.981   7.941  66.515  1.00  0.00    -0.192 A  
HETATM   29  N   UNL     1      -5.173   5.034  67.543  1.00  0.00    -0.007 NA 
HETATM   30  C   UNL     1      -8.315   5.739  65.522  1.00  0.00    -0.140 C  
HETATM   31  F   UNL     1      -8.411   6.205  64.246  1.00  0.00    -0.131 F  
HETATM   32  F   UNL     1      -9.491   5.101  65.772  1.00  0.00    -0.153 F  
HETATM   33  F   UNL     1      -7.366   4.772  65.487  1.00  0.00    -0.067 F  
ENDBRANCH  15  22
ENDBRANCH  10  13
ENDBRANCH   3   6
TORSDOF 3
ENDMDL
MODEL      104
REMARK 921   NORMALIZED FREE ENERGY PREDICTED BY IDOCK:   -4.29 KCAL/MOL
REMARK 922        TOTAL FREE ENERGY PREDICTED BY IDOCK:   -5.96 KCAL/MOL
REMARK 923 INTER-LIGAND FREE ENERGY PREDICTED BY IDOCK:   -4.82 KCAL/MOL
REMARK 924 INTRA-LIGAND FREE ENERGY PREDICTED BY IDOCK:   -1.13 KCAL/MOL
REMARK 927      BINDING AFFINITY PREDICTED BY RF-SCORE:    0.00 PKD
ROOT
HETATM    1  C   UNL     1      -5.461   2.211  64.327  1.00  0.00    -0.009 C  
HETATM    2  N   UNL     1      -5.950   2.991  65.432  1.00  0.00    -0.019 N  
HETATM    3  C   UNL     1      -7.207   3.551  65.416  1.00  0.00    -0.067 C  
HETATM    4  H   UNL     1      -5.351   3.132  66.246  1.00  0.00     0.000 HD 
HETATM    5  O   UNL     1      -7.994   3.422  64.486  1.00  0.00    -0.084 OA 
ENDROOT
BRANCH   3   6
HETATM    6  C   UNL     1      -7.611   4.300  66.630  1.00  0.00    -0.085 A  
HETATM    7  C   UNL     1      -8.015   3.668  67.804  1.00  0.00    -0.081 A  
HETATM    8  F   UNL     1      -8.022   2.329  67.898  1.00  0.00    -0.058 F  
HETATM    9  C   UNL     1      -8.440   4.400  68.916  1.00  0.00    -0.095 A  
HETATM   10  C   UNL     1      -8.500   5.793  68.863  1.00  0.00    -0.104 A  
HETATM   11  C   UNL     1      -8.041   6.426  67.694  1.00  0.00    -0.114 A  
HETATM   12  C   UNL     1      -7.599   5.694  66.589  1.00  0.00    -0.092 A  
BRANCH  10  13
HETATM   13  N   UNL     1      -8.968   6.579  69.954  1.00  0.00    -0.143 N  
HETATM   14  C   UNL     1     -10.208   7.265  69.992  1.00  0.00    -0.201 C  
HETATM   15  N   UNL     1     -10.044   8.376  70.813  1.00  0.00    -0.190 N  
HETATM   16  S   UNL     1     -11.629   6.643  69.336  1.00  0.00     0.007 S  
HETATM   17  C   UNL     1      -8.440   5.783  72.245  1.00  0.00    -0.122 C  
HETATM   18  C   UNL     1      -8.941   8.144  71.619  1.00  0.00    -0.163 C  
HETATM   19  C   UNL     1      -6.741   7.198  70.983  1.00  0.00    -0.049 C  
HETATM   20  C   UNL     1      -8.222   6.856  71.168  1.00  0.00    -0.118 C  
HETATM   21  O   UNL     1      -8.568   8.780  72.600  1.00  0.00    -0.411 OA 
BRANCH  15  22
HETATM   22  C   UNL     1     -10.832   9.584  70.832  1.00  0.00    -0.337 A  
HETATM   23  C   UNL     1     -12.567  11.005  71.828  1.00  0.00    -0.311 A  
HETATM   24  C   UNL     1     -11.799   9.828  71.815  1.00  0.00    -0.335 A  
HETATM   25  C   UNL     1     -12.410  11.985  70.843  1.00  0.00    -0.384 A  
HETATM   26  C   UNL     1     -11.427  11.804  69.867  1.00  0.00    -0.285 A  
HETATM   27  C   UNL     1     -13.270  13.132  70.889  1.00  0.00     0.144 C  
HETATM   28  C   UNL     1     -10.631  10.629  69.912  1.00  0.00    -0.203 A  
HETATM   29  N   UNL     1     -13.987  14.046  70.951  1.00  0.00     0.165 NA 
HETATM   30  C   UNL     1     -11.158  12.784  68.747  1.00  0.00    -0.260 C  
HETATM   31  F   UNL     1     -11.242  12.185  67.527  1.00  0.00    -0.266 F  
HETATM   32  F   UNL     1      -9.901  13.303  68.819  1.00  0.00    -0.209 F  
HETATM   33  F   UNL     1     -11.998  13.846  68.691  1.00  0.00    -0.346 F  
ENDBRANCH  15  22
ENDBRANCH  10  13
ENDBRANCH   3   6
TORSDOF 3
ENDMDL
MODEL      105
REMARK 921   NORMALIZED FREE ENERGY PREDICTED BY IDOCK:   -4.28 KCAL/MOL
REMARK 922        TOTAL FREE ENERGY PREDICTED BY IDOCK:   -5.95 KCAL/MOL
REMARK 923 INTER-LIGAND FREE ENERGY PREDICTED BY IDOCK:   -5.19 KCAL/MOL
REMARK 924 INTRA-LIGAND FREE ENERGY PREDICTED BY IDOCK:   -0.76 KCAL/MOL
REMARK 927      BINDING AFFINITY PREDICTED BY RF-SCORE:    0.00 PKD
ROOT
HETATM    1  C   UNL     1      -9.780   1.481  69.890  1.00  0.00     0.061 C  
HETATM    2  N   UNL     1      -9.486   2.770  69.322  1.00  0.00    -0.124 N  
HETATM    3  C   UNL     1      -8.678   2.900  68.215  1.00  0.00    -0.104 C  
HETATM    4  H   UNL     1      -9.885   3.606  69.749  1.00  0.00     0.000 HD 
HETATM    5  O   UNL     1      -8.169   1.950  67.633  1.00  0.00    -0.063 OA 
ENDROOT
BRANCH   3   6
HETATM    6  C   UNL     1      -8.483   4.276  67.699  1.00  0.00    -0.101 A  
HETATM    7  C   UNL     1      -9.501   5.001  67.082  1.00  0.00    -0.136 A  
HETATM    8  F   UNL     1     -10.734   4.486  66.958  1.00  0.00    -0.141 F  
HETATM    9  C   UNL     1      -9.273   6.277  66.560  1.00  0.00    -0.169 A  
HETATM   10  C   UNL     1      -8.000   6.846  66.617  1.00  0.00    -0.108 A  
HETATM   11  C   UNL     1      -6.991   6.131  67.287  1.00  0.00    -0.069 A  
HETATM   12  C   UNL     1      -7.225   4.863  67.826  1.00  0.00    -0.070 A  
BRANCH  10  13
HETATM   13  N   UNL     1      -7.710   8.123  66.059  1.00  0.00    -0.088 N  
HETATM   14  C   UNL     1      -7.859   9.360  66.735  1.00  0.00    -0.105 C  
HETATM   15  N   UNL     1      -8.133  10.328  65.774  1.00  0.00    -0.143 N  
HETATM   16  S   UNL     1      -7.506   9.571  68.368  1.00  0.00    -0.077 S  
HETATM   17  C   UNL     1      -5.755   8.287  64.539  1.00  0.00    -0.051 C  
HETATM   18  C   UNL     1      -7.707   9.838  64.550  1.00  0.00    -0.137 C  
HETATM   19  C   UNL     1      -8.013   7.566  63.610  1.00  0.00    -0.074 C  
HETATM   20  C   UNL     1      -7.280   8.362  64.693  1.00  0.00    -0.082 C  
HETATM   21  O   UNL     1      -7.594  10.441  63.486  1.00  0.00    -0.131 OA 
BRANCH  15  22
HETATM   22  C   UNL     1      -8.774  11.606  65.966  1.00  0.00    -0.055 A  
HETATM   23  C   UNL     1      -8.847  13.848  66.961  1.00  0.00    -0.231 A  
HETATM   24  C   UNL     1      -8.218  12.606  66.774  1.00  0.00     0.029 A  
HETATM   25  C   UNL     1     -10.074  14.139  66.356  1.00  0.00    -0.299 A  
HETATM   26  C   UNL     1     -10.645  13.188  65.507  1.00  0.00    -0.299 A  
HETATM   27  C   UNL     1     -10.683  15.406  66.641  1.00  0.00    -0.309 C  
HETATM   28  C   UNL     1      -9.959  11.963  65.296  1.00  0.00    -0.280 A  
HETATM   29  N   UNL     1     -11.153  16.438  66.897  1.00  0.00     0.002 NA 
HETATM   30  C   UNL     1     -11.967  13.376  64.796  1.00  0.00    -0.390 C  
HETATM   31  F   UNL     1     -12.836  12.366  65.078  1.00  0.00    -0.541 F  
HETATM   32  F   UNL     1     -11.819  13.370  63.442  1.00  0.00    -0.491 F  
HETATM   33  F   UNL     1     -12.629  14.520  65.094  1.00  0.00    -0.415 F  
ENDBRANCH  15  22
ENDBRANCH  10  13
ENDBRANCH   3   6
TORSDOF 3
ENDMDL
MODEL      106
REMARK 921   NORMALIZED FREE ENERGY PREDICTED BY IDOCK:   -4.26 KCAL/MOL
REMARK 922        TOTAL FREE ENERGY PREDICTED BY IDOCK:   -5.92 KCAL/MOL
REMARK 923 INTER-LIGAND FREE ENERGY PREDICTED BY IDOCK:   -5.29 KCAL/MOL
REMARK 924 INTRA-LIGAND FREE ENERGY PREDICTED BY IDOCK:   -0.63 KCAL/MOL
REMARK 927      BINDING AFFINITY PREDICTED BY RF-SCORE:    0.00 PKD
ROOT
HETATM    1  C   UNL     1      -5.475  20.285  63.977  1.00  0.00    -0.214 C  
HETATM    2  N   UNL     1      -6.255  19.175  64.457  1.00  0.00    -0.199 N  
HETATM    3  C   UNL     1      -6.742  19.143  65.744  1.00  0.00    -0.264 C  
HETATM    4  H   UNL     1      -6.451  18.395  63.830  1.00  0.00     0.000 HD 
HETATM    5  O   UNL     1      -6.566  20.042  66.557  1.00  0.00    -0.194 OA 
ENDROOT
BRANCH   3   6
HETATM    6  C   UNL     1      -7.566  17.965  66.107  1.00  0.00    -0.295 A  
HETATM    7  C   UNL     1      -7.009  16.744  66.481  1.00  0.00    -0.189 A  
HETATM    8  F   UNL     1      -5.678  16.590  66.563  1.00  0.00    -0.143 F  
HETATM    9  C   UNL     1      -7.810  15.635  66.768  1.00  0.00    -0.211 A  
HETATM   10  C   UNL     1      -9.198  15.720  66.656  1.00  0.00    -0.255 A  
HETATM   11  C   UNL     1      -9.756  16.969  66.329  1.00  0.00    -0.302 A  
HETATM   12  C   UNL     1      -8.954  18.082  66.060  1.00  0.00     0.001 A  
BRANCH  10  13
HETATM   13  N   UNL     1     -10.053  14.606  66.895  1.00  0.00    -0.252 N  
HETATM   14  C   UNL     1      -9.978  13.749  68.022  1.00  0.00    -0.246 C  
HETATM   15  N   UNL     1     -10.441  12.499  67.624  1.00  0.00    -0.215 N  
HETATM   16  S   UNL     1      -9.621  14.293  69.575  1.00  0.00     0.607 S  
HETATM   17  C   UNL     1     -12.434  14.831  66.233  1.00  0.00     0.173 C  
HETATM   18  C   UNL     1     -11.203  12.676  66.481  1.00  0.00    -0.296 C  
HETATM   19  C   UNL     1     -10.714  14.092  64.508  1.00  0.00    -0.355 C  
HETATM   20  C   UNL     1     -11.087  14.135  65.992  1.00  0.00    -0.314 C  
HETATM   21  O   UNL     1     -11.938  11.867  65.923  1.00  0.00    -0.480 OA 
BRANCH  15  22
HETATM   22  C   UNL     1     -10.172  11.222  68.239  1.00  0.00    -0.186 A  
HETATM   23  C   UNL     1     -10.905   9.018  69.031  1.00  0.00    -0.092 A  
HETATM   24  C   UNL     1     -11.171  10.260  68.429  1.00  0.00    -0.284 A  
HETATM   25  C   UNL     1      -9.623   8.691  69.483  1.00  0.00    -0.170 A  
HETATM   26  C   UNL     1      -8.586   9.602  69.276  1.00  0.00    -0.153 A  
HETATM   27  C   UNL     1      -9.442   7.429  70.140  1.00  0.00    -0.165 C  
HETATM   28  C   UNL     1      -8.875  10.826  68.617  1.00  0.00    -0.152 A  
HETATM   29  N   UNL     1      -9.329   6.401  70.673  1.00  0.00    -0.161 NA 
HETATM   30  C   UNL     1      -7.158   9.373  69.720  1.00  0.00    -0.068 C  
HETATM   31  F   UNL     1      -6.712  10.383  70.517  1.00  0.00    -0.133 F  
HETATM   32  F   UNL     1      -6.300   9.329  68.663  1.00  0.00    -0.047 F  
HETATM   33  F   UNL     1      -6.945   8.233  70.421  1.00  0.00    -0.037 F  
ENDBRANCH  15  22
ENDBRANCH  10  13
ENDBRANCH   3   6
TORSDOF 3
ENDMDL
MODEL      107
REMARK 921   NORMALIZED FREE ENERGY PREDICTED BY IDOCK:   -4.18 KCAL/MOL
REMARK 922        TOTAL FREE ENERGY PREDICTED BY IDOCK:   -5.83 KCAL/MOL
REMARK 923 INTER-LIGAND FREE ENERGY PREDICTED BY IDOCK:   -5.39 KCAL/MOL
REMARK 924 INTRA-LIGAND FREE ENERGY PREDICTED BY IDOCK:   -0.44 KCAL/MOL
REMARK 927      BINDING AFFINITY PREDICTED BY RF-SCORE:    0.00 PKD
ROOT
HETATM    1  C   UNL     1     -12.027  15.520  63.910  1.00  0.00     0.222 C  
HETATM    2  N   UNL     1     -11.252  14.468  64.511  1.00  0.00    -0.587 N  
HETATM    3  C   UNL     1     -11.634  13.149  64.415  1.00  0.00    -0.377 C  
HETATM    4  H   UNL     1     -10.400  14.705  65.021  1.00  0.00     0.000 HD 
HETATM    5  O   UNL     1     -12.633  12.776  63.812  1.00  0.00    -0.660 OA 
ENDROOT
BRANCH   3   6
HETATM    6  C   UNL     1     -10.731  12.154  65.041  1.00  0.00    -0.338 A  
HETATM    7  C   UNL     1     -10.062  11.176  64.308  1.00  0.00    -0.326 A  
HETATM    8  F   UNL     1     -10.182  11.116  62.972  1.00  0.00    -0.330 F  
HETATM    9  C   UNL     1      -9.259  10.219  64.933  1.00  0.00    -0.273 A  
HETATM   10  C   UNL     1      -9.132  10.202  66.322  1.00  0.00    -0.154 A  
HETATM   11  C   UNL     1      -9.767  11.222  67.052  1.00  0.00    -0.208 A  
HETATM   12  C   UNL     1     -10.556  12.191  66.424  1.00  0.00    -0.275 A  
BRANCH  10  13
HETATM   13  N   UNL     1      -8.361   9.220  67.006  1.00  0.00    -0.119 N  
HETATM   14  C   UNL     1      -8.890   8.079  67.661  1.00  0.00    -0.125 C  
HETATM   15  N   UNL     1      -8.026   7.761  68.704  1.00  0.00    -0.120 N  
HETATM   16  S   UNL     1     -10.191   7.192  67.067  1.00  0.00    -0.283 S  
HETATM   17  C   UNL     1      -6.157   8.618  66.036  1.00  0.00    -0.048 C  
HETATM   18  C   UNL     1      -6.801   8.348  68.430  1.00  0.00    -0.065 C  
HETATM   19  C   UNL     1      -6.342  10.631  67.584  1.00  0.00    -0.056 C  
HETATM   20  C   UNL     1      -6.923   9.268  67.198  1.00  0.00    -0.085 C  
HETATM   21  O   UNL     1      -5.725   8.162  68.991  1.00  0.00    -0.033 OA 
BRANCH  15  22
HETATM   22  C   UNL     1      -8.319   6.994  69.890  1.00  0.00    -0.139 A  
HETATM   23  C   UNL     1      -9.897   6.137  71.563  1.00  0.00    -0.190 A  
HETATM   24  C   UNL     1      -9.616   6.883  70.406  1.00  0.00    -0.171 A  
HETATM   25  C   UNL     1      -8.882   5.480  72.266  1.00  0.00    -0.132 A  
HETATM   26  C   UNL     1      -7.580   5.527  71.765  1.00  0.00    -0.095 A  
HETATM   27  C   UNL     1      -9.237   4.787  73.471  1.00  0.00    -0.119 C  
HETATM   28  C   UNL     1      -7.337   6.244  70.564  1.00  0.00    -0.085 A  
HETATM   29  N   UNL     1      -9.556   4.240  74.447  1.00  0.00    -0.109 NA 
HETATM   30  C   UNL     1      -6.394   4.863  72.430  1.00  0.00    -0.031 C  
HETATM   31  F   UNL     1      -5.396   5.755  72.680  1.00  0.00    -0.021 F  
HETATM   32  F   UNL     1      -5.843   3.902  71.639  1.00  0.00    -0.010 F  
HETATM   33  F   UNL     1      -6.655   4.265  73.618  1.00  0.00    -0.043 F  
ENDBRANCH  15  22
ENDBRANCH  10  13
ENDBRANCH   3   6
TORSDOF 3
ENDMDL
MODEL      108
REMARK 921   NORMALIZED FREE ENERGY PREDICTED BY IDOCK:   -4.17 KCAL/MOL
REMARK 922        TOTAL FREE ENERGY PREDICTED BY IDOCK:   -5.82 KCAL/MOL
REMARK 923 INTER-LIGAND FREE ENERGY PREDICTED BY IDOCK:   -4.88 KCAL/MOL
REMARK 924 INTRA-LIGAND FREE ENERGY PREDICTED BY IDOCK:   -0.94 KCAL/MOL
REMARK 927      BINDING AFFINITY PREDICTED BY RF-SCORE:    0.00 PKD
ROOT
HETATM    1  C   UNL     1      -6.937  21.128  67.013  1.00  0.00    -0.247 C  
HETATM    2  N   UNL     1      -7.589  19.850  66.907  1.00  0.00    -0.259 N  
HETATM    3  C   UNL     1      -8.459  19.405  67.875  1.00  0.00    -0.313 C  
HETATM    4  H   UNL     1      -7.402  19.261  66.095  1.00  0.00     0.000 HD 
HETATM    5  O   UNL     1      -8.750  20.052  68.874  1.00  0.00    -0.065 OA 
ENDROOT
BRANCH   3   6
HETATM    6  C   UNL     1      -9.099  18.089  67.632  1.00  0.00    -0.255 A  
HETATM    7  C   UNL     1     -10.441  17.958  67.280  1.00  0.00    -0.366 A  
HETATM    8  F   UNL     1     -11.216  19.040  67.109  1.00  0.00    -0.477 F  
HETATM    9  C   UNL     1     -11.029  16.702  67.108  1.00  0.00    -0.023 A  
HETATM   10  C   UNL     1     -10.286  15.540  67.319  1.00  0.00    -0.267 A  
HETATM   11  C   UNL     1      -8.920  15.680  67.622  1.00  0.00    -0.183 A  
HETATM   12  C   UNL     1      -8.328  16.936  67.776  1.00  0.00    -0.198 A  
BRANCH  10  13
HETATM   13  N   UNL     1     -10.853  14.239  67.199  1.00  0.00    -0.292 N  
HETATM   14  C   UNL     1     -10.703  13.195  68.146  1.00  0.00    -0.242 C  
HETATM   15  N   UNL     1     -10.781  11.991  67.452  1.00  0.00    -0.222 N  
HETATM   16  S   UNL     1     -10.688  13.450  69.810  1.00  0.00     0.696 S  
HETATM   17  C   UNL     1     -13.114  14.067  66.189  1.00  0.00     0.332 C  
HETATM   18  C   UNL     1     -11.417  12.240  66.247  1.00  0.00    -0.380 C  
HETATM   19  C   UNL     1     -11.064  14.127  64.680  1.00  0.00    -0.378 C  
HETATM   20  C   UNL     1     -11.615  13.759  66.061  1.00  0.00    -0.346 C  
HETATM   21  O   UNL     1     -11.849  11.430  65.432  1.00  0.00    -0.024 OA 
BRANCH  15  22
HETATM   22  C   UNL     1     -10.274  10.703  67.859  1.00  0.00    -0.177 A  
HETATM   23  C   UNL     1     -10.561   8.528  68.958  1.00  0.00    -0.173 A  
HETATM   24  C   UNL     1     -11.060   9.780  68.561  1.00  0.00    -0.138 A  
HETATM   25  C   UNL     1      -9.243   8.150  68.682  1.00  0.00    -0.143 A  
HETATM   26  C   UNL     1      -8.437   9.021  67.946  1.00  0.00    -0.121 A  
HETATM   27  C   UNL     1      -8.789   6.881  69.170  1.00  0.00    -0.134 C  
HETATM   28  C   UNL     1      -8.986  10.257  67.513  1.00  0.00    -0.138 A  
HETATM   29  N   UNL     1      -8.450   5.849  69.585  1.00  0.00    -0.116 NA 
HETATM   30  C   UNL     1      -6.996   8.736  67.584  1.00  0.00    -0.075 C  
HETATM   31  F   UNL     1      -6.165   9.726  68.012  1.00  0.00    -0.053 F  
HETATM   32  F   UNL     1      -6.818   8.661  66.236  1.00  0.00    -0.065 F  
HETATM   33  F   UNL     1      -6.487   7.587  68.092  1.00  0.00    -0.042 F  
ENDBRANCH  15  22
ENDBRANCH  10  13
ENDBRANCH   3   6
TORSDOF 3
ENDMDL
MODEL      109
REMARK 921   NORMALIZED FREE ENERGY PREDICTED BY IDOCK:   -4.15 KCAL/MOL
REMARK 922        TOTAL FREE ENERGY PREDICTED BY IDOCK:   -5.80 KCAL/MOL
REMARK 923 INTER-LIGAND FREE ENERGY PREDICTED BY IDOCK:   -4.86 KCAL/MOL
REMARK 924 INTRA-LIGAND FREE ENERGY PREDICTED BY IDOCK:   -0.94 KCAL/MOL
REMARK 927      BINDING AFFINITY PREDICTED BY RF-SCORE:    0.00 PKD
ROOT
HETATM    1  C   UNL     1     -12.463  15.519  70.128  1.00  0.00    -0.318 C  
HETATM    2  N   UNL     1     -11.808  14.389  69.526  1.00  0.00    -0.309 N  
HETATM    3  C   UNL     1     -11.567  14.337  68.171  1.00  0.00    -0.332 C  
HETATM    4  H   UNL     1     -11.514  13.610  70.115  1.00  0.00     0.000 HD 
HETATM    5  O   UNL     1     -11.874  15.232  67.394  1.00  0.00    -0.215 OA 
ENDROOT
BRANCH   3   6
HETATM    6  C   UNL     1     -10.848  13.139  67.676  1.00  0.00    -0.269 A  
HETATM    7  C   UNL     1     -11.257  12.427  66.549  1.00  0.00    -0.319 A  
HETATM    8  F   UNL     1     -12.318  12.826  65.832  1.00  0.00    -0.474 F  
HETATM    9  C   UNL     1     -10.589  11.271  66.136  1.00  0.00    -0.312 A  
HETATM   10  C   UNL     1      -9.507  10.781  66.869  1.00  0.00    -0.168 A  
HETATM   11  C   UNL     1      -9.068  11.532  67.973  1.00  0.00    -0.174 A  
HETATM   12  C   UNL     1      -9.725  12.699  68.375  1.00  0.00    -0.187 A  
BRANCH  10  13
HETATM   13  N   UNL     1      -8.824   9.584  66.512  1.00  0.00    -0.137 N  
HETATM   14  C   UNL     1      -9.088   8.302  67.059  1.00  0.00    -0.145 C  
HETATM   15  N   UNL     1      -7.899   7.579  67.014  1.00  0.00    -0.114 N  
HETATM   16  S   UNL     1     -10.636   7.757  67.435  1.00  0.00    -0.241 S  
HETATM   17  C   UNL     1      -8.170   9.307  64.135  1.00  0.00    -0.159 C  
HETATM   18  C   UNL     1      -7.078   8.177  66.072  1.00  0.00    -0.061 C  
HETATM   19  C   UNL     1      -6.644  10.591  65.717  1.00  0.00    -0.123 C  
HETATM   20  C   UNL     1      -7.710   9.499  65.587  1.00  0.00    -0.101 C  
HETATM   21  O   UNL     1      -6.031   7.751  65.595  1.00  0.00    -0.037 OA 
BRANCH  15  22
HETATM   22  C   UNL     1      -7.533   6.434  67.810  1.00  0.00    -0.093 A  
HETATM   23  C   UNL     1      -7.092   4.031  68.047  1.00  0.00    -0.059 A  
HETATM   24  C   UNL     1      -7.447   5.145  67.268  1.00  0.00    -0.083 A  
HETATM   25  C   UNL     1      -6.823   4.158  69.414  1.00  0.00    -0.045 A  
HETATM   26  C   UNL     1      -6.855   5.430  69.988  1.00  0.00    -0.059 A  
HETATM   27  C   UNL     1      -6.525   2.967  70.155  1.00  0.00    -0.029 C  
HETATM   28  C   UNL     1      -7.164   6.543  69.163  1.00  0.00    -0.091 A  
HETATM   29  N   UNL     1      -6.293   1.982  70.729  1.00  0.00    -0.023 NA 
HETATM   30  C   UNL     1      -6.587   5.703  71.452  1.00  0.00    -0.045 C  
HETATM   31  F   UNL     1      -7.621   6.370  72.035  1.00  0.00    -0.089 F  
HETATM   32  F   UNL     1      -5.491   6.492  71.628  1.00  0.00    -0.025 F  
HETATM   33  F   UNL     1      -6.383   4.604  72.219  1.00  0.00    -0.021 F  
ENDBRANCH  15  22
ENDBRANCH  10  13
ENDBRANCH   3   6
TORSDOF 3
ENDMDL
MODEL      110
REMARK 921   NORMALIZED FREE ENERGY PREDICTED BY IDOCK:   -4.13 KCAL/MOL
REMARK 922        TOTAL FREE ENERGY PREDICTED BY IDOCK:   -5.77 KCAL/MOL
REMARK 923 INTER-LIGAND FREE ENERGY PREDICTED BY IDOCK:   -5.51 KCAL/MOL
REMARK 924 INTRA-LIGAND FREE ENERGY PREDICTED BY IDOCK:   -0.26 KCAL/MOL
REMARK 927      BINDING AFFINITY PREDICTED BY RF-SCORE:    0.00 PKD
ROOT
HETATM    1  C   UNL     1     -10.184  19.016  68.935  1.00  0.00    -0.221 C  
HETATM    2  N   UNL     1     -10.159  17.701  68.353  1.00  0.00    -0.345 N  
HETATM    3  C   UNL     1     -10.584  16.597  69.056  1.00  0.00    -0.340 C  
HETATM    4  H   UNL     1      -9.820  17.584  67.399  1.00  0.00     0.000 HD 
HETATM    5  O   UNL     1     -11.018  16.648  70.201  1.00  0.00    -0.321 OA 
ENDROOT
BRANCH   3   6
HETATM    6  C   UNL     1     -10.549  15.302  68.334  1.00  0.00    -0.246 A  
HETATM    7  C   UNL     1      -9.432  14.469  68.336  1.00  0.00    -0.209 A  
HETATM    8  F   UNL     1      -8.332  14.794  69.034  1.00  0.00    -0.155 F  
HETATM    9  C   UNL     1      -9.409  13.279  67.603  1.00  0.00    -0.212 A  
HETATM   10  C   UNL     1     -10.504  12.911  66.821  1.00  0.00    -0.254 A  
HETATM   11  C   UNL     1     -11.648  13.729  66.866  1.00  0.00    -0.394 A  
HETATM   12  C   UNL     1     -11.676  14.909  67.613  1.00  0.00    -0.329 A  
BRANCH  10  13
HETATM   13  N   UNL     1     -10.511  11.732  66.024  1.00  0.00    -0.238 N  
HETATM   14  C   UNL     1     -10.404  10.410  66.524  1.00  0.00    -0.224 C  
HETATM   15  N   UNL     1      -9.799   9.639  65.536  1.00  0.00    -0.313 N  
HETATM   16  S   UNL     1     -11.126   9.901  67.957  1.00  0.00    -0.060 S  
HETATM   17  C   UNL     1     -11.999  11.704  64.038  1.00  0.00    -0.282 C  
HETATM   18  C   UNL     1      -9.957  10.302  64.330  1.00  0.00    -0.223 C  
HETATM   19  C   UNL     1      -9.671  12.716  63.850  1.00  0.00     0.206 C  
HETATM   20  C   UNL     1     -10.560  11.702  64.574  1.00  0.00    -0.318 C  
HETATM   21  O   UNL     1      -9.740   9.884  63.196  1.00  0.00    -0.087 OA 
BRANCH  15  22
HETATM   22  C   UNL     1      -9.094   8.391  65.697  1.00  0.00    -0.097 A  
HETATM   23  C   UNL     1      -8.644   6.318  66.932  1.00  0.00    -0.113 A  
HETATM   24  C   UNL     1      -9.335   7.532  66.777  1.00  0.00    -0.209 A  
HETATM   25  C   UNL     1      -7.666   5.918  66.016  1.00  0.00    -0.099 A  
HETATM   26  C   UNL     1      -7.422   6.722  64.901  1.00  0.00    -0.094 A  
HETATM   27  C   UNL     1      -6.962   4.695  66.273  1.00  0.00    -0.070 C  
HETATM   28  C   UNL     1      -8.175   7.916  64.744  1.00  0.00    -0.112 A  
HETATM   29  N   UNL     1      -6.406   3.702  66.513  1.00  0.00    -0.035 NA 
HETATM   30  C   UNL     1      -6.391   6.406  63.840  1.00  0.00    -0.030 C  
HETATM   31  F   UNL     1      -5.507   7.429  63.680  1.00  0.00    -0.034 F  
HETATM   32  F   UNL     1      -6.962   6.216  62.619  1.00  0.00    -0.037 F  
HETATM   33  F   UNL     1      -5.637   5.305  64.075  1.00  0.00    -0.015 F  
ENDBRANCH  15  22
ENDBRANCH  10  13
ENDBRANCH   3   6
TORSDOF 3
ENDMDL
MODEL      111
REMARK 921   NORMALIZED FREE ENERGY PREDICTED BY IDOCK:   -4.11 KCAL/MOL
REMARK 922        TOTAL FREE ENERGY PREDICTED BY IDOCK:   -5.75 KCAL/MOL
REMARK 923 INTER-LIGAND FREE ENERGY PREDICTED BY IDOCK:   -5.30 KCAL/MOL
REMARK 924 INTRA-LIGAND FREE ENERGY PREDICTED BY IDOCK:   -0.44 KCAL/MOL
REMARK 927      BINDING AFFINITY PREDICTED BY RF-SCORE:    0.00 PKD
ROOT
HETATM    1  C   UNL     1     -14.378  14.780  71.928  1.00  0.00    -0.570 C  
HETATM    2  N   UNL     1     -13.377  13.967  71.292  1.00  0.00    -0.284 N  
HETATM    3  C   UNL     1     -12.639  14.437  70.229  1.00  0.00    -0.323 C  
HETATM    4  H   UNL     1     -13.209  13.021  71.636  1.00  0.00     0.000 HD 
HETATM    5  O   UNL     1     -12.766  15.562  69.761  1.00  0.00    -0.189 OA 
ENDROOT
BRANCH   3   6
HETATM    6  C   UNL     1     -11.609  13.520  69.685  1.00  0.00    -0.340 A  
HETATM    7  C   UNL     1     -10.526  13.966  68.931  1.00  0.00    -0.187 A  
HETATM    8  F   UNL     1     -10.346  15.274  68.692  1.00  0.00    -0.214 F  
HETATM    9  C   UNL     1      -9.599  13.072  68.387  1.00  0.00    -0.178 A  
HETATM   10  C   UNL     1      -9.758  11.697  68.562  1.00  0.00    -0.184 A  
HETATM   11  C   UNL     1     -10.824  11.257  69.367  1.00  0.00    -0.239 A  
HETATM   12  C   UNL     1     -11.740  12.152  69.926  1.00  0.00    -0.361 A  
BRANCH  10  13
HETATM   13  N   UNL     1      -8.866  10.747  67.990  1.00  0.00    -0.129 N  
HETATM   14  C   UNL     1      -9.252   9.509  67.417  1.00  0.00    -0.133 C  
HETATM   15  N   UNL     1      -8.190   8.625  67.583  1.00  0.00    -0.110 N  
HETATM   16  S   UNL     1     -10.654   9.308  66.505  1.00  0.00     0.075 S  
HETATM   17  C   UNL     1      -6.917  11.624  66.728  1.00  0.00    -0.080 C  
HETATM   18  C   UNL     1      -7.047   9.377  67.801  1.00  0.00    -0.082 C  
HETATM   19  C   UNL     1      -6.764  11.362  69.256  1.00  0.00    -0.113 C  
HETATM   20  C   UNL     1      -7.420  10.865  67.965  1.00  0.00    -0.090 C  
HETATM   21  O   UNL     1      -5.879   9.001  67.808  1.00  0.00    -0.039 OA 
BRANCH  15  22
HETATM   22  C   UNL     1      -8.232   7.183  67.573  1.00  0.00    -0.117 A  
HETATM   23  C   UNL     1      -7.666   5.021  66.559  1.00  0.00    -0.092 A  
HETATM   24  C   UNL     1      -7.620   6.426  66.566  1.00  0.00    -0.094 A  
HETATM   25  C   UNL     1      -8.343   4.312  67.556  1.00  0.00    -0.099 A  
HETATM   26  C   UNL     1      -8.932   5.024  68.603  1.00  0.00    -0.127 A  
HETATM   27  C   UNL     1      -8.396   2.883  67.448  1.00  0.00    -0.085 C  
HETATM   28  C   UNL     1      -8.823   6.439  68.611  1.00  0.00    -0.120 A  
HETATM   29  N   UNL     1      -8.425   1.726  67.329  1.00  0.00    -0.079 NA 
HETATM   30  C   UNL     1      -9.695   4.379  69.739  1.00  0.00    -0.221 C  
HETATM   31  F   UNL     1     -10.954   4.886  69.849  1.00  0.00    -0.158 F  
HETATM   32  F   UNL     1      -9.098   4.605  70.942  1.00  0.00    -0.137 F  
HETATM   33  F   UNL     1      -9.850   3.036  69.645  1.00  0.00    -0.205 F  
ENDBRANCH  15  22
ENDBRANCH  10  13
ENDBRANCH   3   6
TORSDOF 3
ENDMDL
MODEL      112
REMARK 921   NORMALIZED FREE ENERGY PREDICTED BY IDOCK:   -4.04 KCAL/MOL
REMARK 922        TOTAL FREE ENERGY PREDICTED BY IDOCK:   -5.67 KCAL/MOL
REMARK 923 INTER-LIGAND FREE ENERGY PREDICTED BY IDOCK:   -4.86 KCAL/MOL
REMARK 924 INTRA-LIGAND FREE ENERGY PREDICTED BY IDOCK:   -0.80 KCAL/MOL
REMARK 927      BINDING AFFINITY PREDICTED BY RF-SCORE:    0.00 PKD
ROOT
HETATM    1  C   UNL     1      -6.639   1.731  73.230  1.00  0.00    -0.014 C  
HETATM    2  N   UNL     1      -6.767   2.806  72.282  1.00  0.00    -0.015 N  
HETATM    3  C   UNL     1      -7.370   3.995  72.621  1.00  0.00    -0.067 C  
HETATM    4  H   UNL     1      -6.404   2.683  71.337  1.00  0.00     0.000 HD 
HETATM    5  O   UNL     1      -7.822   4.232  73.735  1.00  0.00    -0.083 OA 
ENDROOT
BRANCH   3   6
HETATM    6  C   UNL     1      -7.406   5.040  71.570  1.00  0.00    -0.081 A  
HETATM    7  C   UNL     1      -8.516   5.854  71.354  1.00  0.00    -0.128 A  
HETATM    8  F   UNL     1      -9.608   5.748  72.128  1.00  0.00    -0.154 F  
HETATM    9  C   UNL     1      -8.540   6.795  70.321  1.00  0.00    -0.140 A  
HETATM   10  C   UNL     1      -7.453   6.919  69.454  1.00  0.00    -0.094 A  
HETATM   11  C   UNL     1      -6.316   6.132  69.710  1.00  0.00    -0.034 A  
HETATM   12  C   UNL     1      -6.286   5.204  70.755  1.00  0.00    -0.023 A  
BRANCH  10  13
HETATM   13  N   UNL     1      -7.449   7.832  68.362  1.00  0.00    -0.101 N  
HETATM   14  C   UNL     1      -7.260   9.232  68.471  1.00  0.00    -0.072 C  
HETATM   15  N   UNL     1      -7.945   9.828  67.416  1.00  0.00    -0.102 N  
HETATM   16  S   UNL     1      -6.186   9.939  69.558  1.00  0.00    -0.048 S  
HETATM   17  C   UNL     1      -6.426   7.063  66.235  1.00  0.00    -0.051 C  
HETATM   18  C   UNL     1      -8.141   8.861  66.443  1.00  0.00    -0.110 C  
HETATM   19  C   UNL     1      -8.860   6.508  66.732  1.00  0.00    -0.130 C  
HETATM   20  C   UNL     1      -7.704   7.481  66.977  1.00  0.00    -0.111 C  
HETATM   21  O   UNL     1      -8.532   9.011  65.289  1.00  0.00    -0.146 OA 
BRANCH  15  22
HETATM   22  C   UNL     1      -8.416  11.188  67.325  1.00  0.00    -0.137 A  
HETATM   23  C   UNL     1      -8.003  13.604  67.208  1.00  0.00    -0.129 A  
HETATM   24  C   UNL     1      -7.540  12.280  67.294  1.00  0.00    -0.152 A  
HETATM   25  C   UNL     1      -9.371  13.893  67.166  1.00  0.00    -0.244 A  
HETATM   26  C   UNL     1     -10.280  12.834  67.151  1.00  0.00    -0.235 A  
HETATM   27  C   UNL     1      -9.768  15.271  67.138  1.00  0.00    -0.217 C  
HETATM   28  C   UNL     1      -9.780  11.505  67.185  1.00  0.00    -0.199 A  
HETATM   29  N   UNL     1     -10.057  16.398  67.122  1.00  0.00    -0.265 NA 
HETATM   30  C   UNL     1     -11.782  13.009  67.111  1.00  0.00    -0.382 C  
HETATM   31  F   UNL     1     -12.390  12.368  68.147  1.00  0.00    -0.302 F  
HETATM   32  F   UNL     1     -12.323  12.480  65.979  1.00  0.00    -0.473 F  
HETATM   33  F   UNL     1     -12.218  14.291  67.168  1.00  0.00    -0.424 F  
ENDBRANCH  15  22
ENDBRANCH  10  13
ENDBRANCH   3   6
TORSDOF 3
ENDMDL
MODEL      113
REMARK 921   NORMALIZED FREE ENERGY PREDICTED BY IDOCK:   -3.98 KCAL/MOL
REMARK 922        TOTAL FREE ENERGY PREDICTED BY IDOCK:   -5.59 KCAL/MOL
REMARK 923 INTER-LIGAND FREE ENERGY PREDICTED BY IDOCK:   -6.05 KCAL/MOL
REMARK 924 INTRA-LIGAND FREE ENERGY PREDICTED BY IDOCK:    0.46 KCAL/MOL
REMARK 927      BINDING AFFINITY PREDICTED BY RF-SCORE:    0.00 PKD
ROOT
HETATM    1  C   UNL     1     -12.486  16.677  74.172  1.00  0.00    -0.236 C  
HETATM    2  N   UNL     1     -12.052  15.791  73.125  1.00  0.00    -0.464 N  
HETATM    3  C   UNL     1     -12.800  15.606  71.985  1.00  0.00    -0.443 C  
HETATM    4  H   UNL     1     -11.170  15.289  73.229  1.00  0.00     0.000 HD 
HETATM    5  O   UNL     1     -13.863  16.177  71.772  1.00  0.00    -0.074 OA 
ENDROOT
BRANCH   3   6
HETATM    6  C   UNL     1     -12.228  14.699  70.961  1.00  0.00    -0.399 A  
HETATM    7  C   UNL     1     -11.324  15.132  69.992  1.00  0.00    -0.277 A  
HETATM    8  F   UNL     1     -10.898  16.404  69.968  1.00  0.00    -0.305 F  
HETATM    9  C   UNL     1     -10.842  14.265  69.008  1.00  0.00    -0.274 A  
HETATM   10  C   UNL     1     -11.283  12.943  68.953  1.00  0.00    -0.279 A  
HETATM   11  C   UNL     1     -12.155  12.500  69.964  1.00  0.00    -0.337 A  
HETATM   12  C   UNL     1     -12.623  13.362  70.959  1.00  0.00    -0.425 A  
BRANCH  10  13
HETATM   13  N   UNL     1     -10.854  12.036  67.943  1.00  0.00    -0.206 N  
HETATM   14  C   UNL     1     -10.527  10.674  68.156  1.00  0.00    -0.185 C  
HETATM   15  N   UNL     1      -9.579  10.319  67.202  1.00  0.00    -0.165 N  
HETATM   16  S   UNL     1     -11.362   9.679  69.228  1.00  0.00     0.133 S  
HETATM   17  C   UNL     1     -11.890  12.254  65.698  1.00  0.00    -0.423 C  
HETATM   18  C   UNL     1      -9.663  11.235  66.165  1.00  0.00    -0.220 C  
HETATM   19  C   UNL     1      -9.883  13.699  66.302  1.00  0.00    -0.310 C  
HETATM   20  C   UNL     1     -10.621  12.381  66.552  1.00  0.00    -0.235 C  
HETATM   21  O   UNL     1      -9.141  11.179  65.056  1.00  0.00    -0.193 OA 
BRANCH  15  22
HETATM   22  C   UNL     1      -8.637   9.228  67.256  1.00  0.00    -0.125 A  
HETATM   23  C   UNL     1      -7.497   7.317  66.221  1.00  0.00    -0.083 A  
HETATM   24  C   UNL     1      -8.414   8.381  66.164  1.00  0.00    -0.139 A  
HETATM   25  C   UNL     1      -6.773   7.046  67.387  1.00  0.00    -0.067 A  
HETATM   26  C   UNL     1      -6.932   7.890  68.487  1.00  0.00    -0.071 A  
HETATM   27  C   UNL     1      -5.900   5.908  67.388  1.00  0.00    -0.017 C  
HETATM   28  C   UNL     1      -7.825   8.989  68.380  1.00  0.00    -0.103 A  
HETATM   29  N   UNL     1      -5.206   4.975  67.359  1.00  0.00    -0.007 NA 
HETATM   30  C   UNL     1      -6.213   7.706  69.805  1.00  0.00    -0.030 C  
HETATM   31  F   UNL     1      -7.087   7.626  70.846  1.00  0.00    -0.052 F  
HETATM   32  F   UNL     1      -5.395   8.758  70.087  1.00  0.00    -0.027 F  
HETATM   33  F   UNL     1      -5.438   6.597  69.893  1.00  0.00    -0.013 F  
ENDBRANCH  15  22
ENDBRANCH  10  13
ENDBRANCH   3   6
TORSDOF 3
ENDMDL
MODEL      114
REMARK 921   NORMALIZED FREE ENERGY PREDICTED BY IDOCK:   -3.97 KCAL/MOL
REMARK 922        TOTAL FREE ENERGY PREDICTED BY IDOCK:   -5.58 KCAL/MOL
REMARK 923 INTER-LIGAND FREE ENERGY PREDICTED BY IDOCK:   -5.47 KCAL/MOL
REMARK 924 INTRA-LIGAND FREE ENERGY PREDICTED BY IDOCK:   -0.11 KCAL/MOL
REMARK 927      BINDING AFFINITY PREDICTED BY RF-SCORE:    0.00 PKD
ROOT
HETATM    1  C   UNL     1     -10.775  18.248  66.657  1.00  0.00    -0.191 C  
HETATM    2  N   UNL     1     -10.354  16.899  66.925  1.00  0.00    -0.311 N  
HETATM    3  C   UNL     1     -10.498  15.901  65.987  1.00  0.00    -0.345 C  
HETATM    4  H   UNL     1      -9.939  16.676  67.830  1.00  0.00     0.000 HD 
HETATM    5  O   UNL     1     -10.973  16.083  64.873  1.00  0.00    -0.472 OA 
ENDROOT
BRANCH   3   6
HETATM    6  C   UNL     1      -9.989  14.562  66.367  1.00  0.00    -0.304 A  
HETATM    7  C   UNL     1      -9.407  14.300  67.605  1.00  0.00    -0.201 A  
HETATM    8  F   UNL     1      -9.313  15.260  68.538  1.00  0.00    -0.179 F  
HETATM    9  C   UNL     1      -8.890  13.039  67.915  1.00  0.00    -0.193 A  
HETATM   10  C   UNL     1      -8.916  12.013  66.969  1.00  0.00    -0.198 A  
HETATM   11  C   UNL     1      -9.551  12.269  65.741  1.00  0.00    -0.185 A  
HETATM   12  C   UNL     1     -10.085  13.525  65.439  1.00  0.00    -0.279 A  
BRANCH  10  13
HETATM   13  N   UNL     1      -8.362  10.727  67.223  1.00  0.00    -0.123 N  
HETATM   14  C   UNL     1      -9.112   9.557  67.503  1.00  0.00    -0.130 C  
HETATM   15  N   UNL     1      -8.323   8.740  68.307  1.00  0.00    -0.125 N  
HETATM   16  S   UNL     1     -10.577   9.197  66.756  1.00  0.00    -0.053 S  
HETATM   17  C   UNL     1      -6.344  10.077  65.931  1.00  0.00    -0.091 C  
HETATM   18  C   UNL     1      -7.005   9.135  68.143  1.00  0.00    -0.076 C  
HETATM   19  C   UNL     1      -6.085  11.434  68.069  1.00  0.00    -0.046 C  
HETATM   20  C   UNL     1      -6.944  10.427  67.301  1.00  0.00    -0.086 C  
HETATM   21  O   UNL     1      -5.987   8.564  68.521  1.00  0.00    -0.043 OA 
BRANCH  15  22
HETATM   22  C   UNL     1      -8.758   7.686  69.191  1.00  0.00    -0.139 A  
HETATM   23  C   UNL     1      -9.524   6.898  71.385  1.00  0.00    -0.160 A  
HETATM   24  C   UNL     1      -9.104   7.928  70.526  1.00  0.00    -0.154 A  
HETATM   25  C   UNL     1      -9.602   5.573  70.945  1.00  0.00    -0.219 A  
HETATM   26  C   UNL     1      -9.308   5.291  69.609  1.00  0.00    -0.174 A  
HETATM   27  C   UNL     1      -9.983   4.568  71.895  1.00  0.00    -0.191 C  
HETATM   28  C   UNL     1      -8.938   6.361  68.752  1.00  0.00    -0.126 A  
HETATM   29  N   UNL     1     -10.289   3.777  72.691  1.00  0.00    -0.166 NA 
HETATM   30  C   UNL     1      -9.350   3.903  69.009  1.00  0.00    -0.169 C  
HETATM   31  F   UNL     1      -8.164   3.572  68.428  1.00  0.00    -0.074 F  
HETATM   32  F   UNL     1     -10.285   3.806  68.023  1.00  0.00    -0.051 F  
HETATM   33  F   UNL     1      -9.623   2.902  69.881  1.00  0.00    -0.220 F  
ENDBRANCH  15  22
ENDBRANCH  10  13
ENDBRANCH   3   6
TORSDOF 3
ENDMDL
MODEL      115
REMARK 921   NORMALIZED FREE ENERGY PREDICTED BY IDOCK:   -3.92 KCAL/MOL
REMARK 922        TOTAL FREE ENERGY PREDICTED BY IDOCK:   -5.53 KCAL/MOL
REMARK 923 INTER-LIGAND FREE ENERGY PREDICTED BY IDOCK:   -5.04 KCAL/MOL
REMARK 924 INTRA-LIGAND FREE ENERGY PREDICTED BY IDOCK:   -0.48 KCAL/MOL
REMARK 927      BINDING AFFINITY PREDICTED BY RF-SCORE:    0.00 PKD
ROOT
HETATM    1  C   UNL     1     -14.263  15.551  71.287  1.00  0.00    -0.187 C  
HETATM    2  N   UNL     1     -13.324  14.584  70.785  1.00  0.00    -0.483 N  
HETATM    3  C   UNL     1     -12.422  14.905  69.797  1.00  0.00    -0.185 C  
HETATM    4  H   UNL     1     -13.328  13.639  71.170  1.00  0.00     0.000 HD 
HETATM    5  O   UNL     1     -12.340  16.016  69.289  1.00  0.00    -0.128 OA 
ENDROOT
BRANCH   3   6
HETATM    6  C   UNL     1     -11.479  13.834  69.393  1.00  0.00    -0.341 A  
HETATM    7  C   UNL     1     -10.421  14.055  68.513  1.00  0.00    -0.249 A  
HETATM    8  F   UNL     1     -10.185  15.278  68.014  1.00  0.00    -0.223 F  
HETATM    9  C   UNL     1      -9.580  13.014  68.110  1.00  0.00    -0.227 A  
HETATM   10  C   UNL     1      -9.804  11.711  68.558  1.00  0.00    -0.193 A  
HETATM   11  C   UNL     1     -10.841  11.506  69.485  1.00  0.00    -0.121 A  
HETATM   12  C   UNL     1     -11.670  12.550  69.903  1.00  0.00    -0.327 A  
BRANCH  10  13
HETATM   13  N   UNL     1      -9.002  10.612  68.140  1.00  0.00    -0.136 N  
HETATM   14  C   UNL     1      -9.502   9.382  67.642  1.00  0.00    -0.132 C  
HETATM   15  N   UNL     1      -8.575   8.396  67.964  1.00  0.00    -0.134 N  
HETATM   16  S   UNL     1     -10.851   9.269  66.641  1.00  0.00     0.358 S  
HETATM   17  C   UNL     1      -6.875  11.129  66.970  1.00  0.00    -0.119 C  
HETATM   18  C   UNL     1      -7.363   9.022  68.210  1.00  0.00    -0.082 C  
HETATM   19  C   UNL     1      -6.932  11.083  69.515  1.00  0.00    -0.126 C  
HETATM   20  C   UNL     1      -7.554  10.553  68.221  1.00  0.00    -0.096 C  
HETATM   21  O   UNL     1      -6.256   8.510  68.342  1.00  0.00    -0.051 OA 
BRANCH  15  22
HETATM   22  C   UNL     1      -8.799   6.975  68.070  1.00  0.00    -0.124 A  
HETATM   23  C   UNL     1      -9.003   4.922  69.400  1.00  0.00    -0.133 A  
HETATM   24  C   UNL     1      -8.787   6.308  69.301  1.00  0.00    -0.123 A  
HETATM   25  C   UNL     1      -9.226   4.140  68.262  1.00  0.00    -0.195 A  
HETATM   26  C   UNL     1      -9.288   4.769  67.017  1.00  0.00    -0.144 A  
HETATM   27  C   UNL     1      -9.379   2.725  68.437  1.00  0.00    -0.192 C  
HETATM   28  C   UNL     1      -9.119   6.178  66.956  1.00  0.00    -0.119 A  
HETATM   29  N   UNL     1      -9.494   1.581  68.612  1.00  0.00    -0.171 NA 
HETATM   30  C   UNL     1      -9.518   4.040  65.712  1.00  0.00    -0.178 C  
HETATM   31  F   UNL     1      -8.527   4.295  64.813  1.00  0.00    -0.108 F  
HETATM   32  F   UNL     1     -10.675   4.432  65.109  1.00  0.00    -0.276 F  
HETATM   33  F   UNL     1      -9.586   2.690  65.807  1.00  0.00    -0.098 F  
ENDBRANCH  15  22
ENDBRANCH  10  13
ENDBRANCH   3   6
TORSDOF 3
ENDMDL
MODEL      116
REMARK 921   NORMALIZED FREE ENERGY PREDICTED BY IDOCK:   -3.77 KCAL/MOL
REMARK 922        TOTAL FREE ENERGY PREDICTED BY IDOCK:   -5.35 KCAL/MOL
REMARK 923 INTER-LIGAND FREE ENERGY PREDICTED BY IDOCK:   -4.83 KCAL/MOL
REMARK 924 INTRA-LIGAND FREE ENERGY PREDICTED BY IDOCK:   -0.53 KCAL/MOL
REMARK 927      BINDING AFFINITY PREDICTED BY RF-SCORE:    0.00 PKD
ROOT
HETATM    1  C   UNL     1      -8.266   1.919  62.967  1.00  0.00    -0.064 C  
HETATM    2  N   UNL     1      -8.303   3.185  63.648  1.00  0.00    -0.086 N  
HETATM    3  C   UNL     1      -8.393   3.261  65.019  1.00  0.00    -0.094 C  
HETATM    4  H   UNL     1      -8.262   4.046  63.102  1.00  0.00     0.000 HD 
HETATM    5  O   UNL     1      -8.434   2.279  65.750  1.00  0.00    -0.090 OA 
ENDROOT
BRANCH   3   6
HETATM    6  C   UNL     1      -8.382   4.623  65.606  1.00  0.00    -0.116 A  
HETATM    7  C   UNL     1      -8.265   5.775  64.832  1.00  0.00    -0.137 A  
HETATM    8  F   UNL     1      -8.192   5.701  63.494  1.00  0.00    -0.109 F  
HETATM    9  C   UNL     1      -8.206   7.043  65.418  1.00  0.00    -0.133 A  
HETATM   10  C   UNL     1      -8.231   7.181  66.806  1.00  0.00    -0.114 A  
HETATM   11  C   UNL     1      -8.402   6.018  67.578  1.00  0.00    -0.108 A  
HETATM   12  C   UNL     1      -8.480   4.752  66.991  1.00  0.00    -0.105 A  
BRANCH  10  13
HETATM   13  N   UNL     1      -8.129   8.447  67.449  1.00  0.00    -0.105 N  
HETATM   14  C   UNL     1      -9.129   9.451  67.434  1.00  0.00    -0.126 C  
HETATM   15  N   UNL     1      -8.486  10.680  67.545  1.00  0.00    -0.121 N  
HETATM   16  S   UNL     1     -10.777   9.117  67.516  1.00  0.00    -0.090 S  
HETATM   17  C   UNL     1      -6.969   8.524  69.642  1.00  0.00    -0.047 C  
HETATM   18  C   UNL     1      -7.228  10.450  68.080  1.00  0.00    -0.084 C  
HETATM   19  C   UNL     1      -5.609   8.668  67.495  1.00  0.00    -0.039 C  
HETATM   20  C   UNL     1      -6.962   8.932  68.162  1.00  0.00    -0.077 C  
HETATM   21  O   UNL     1      -6.421  11.269  68.508  1.00  0.00    -0.049 OA 
BRANCH  15  22
HETATM   22  C   UNL     1      -8.984  11.976  67.155  1.00  0.00    -0.185 A  
HETATM   23  C   UNL     1      -9.826  13.535  65.457  1.00  0.00    -0.165 A  
HETATM   24  C   UNL     1      -9.343  12.271  65.833  1.00  0.00    -0.098 A  
HETATM   25  C   UNL     1      -9.956  14.569  66.389  1.00  0.00    -0.304 A  
HETATM   26  C   UNL     1      -9.652  14.309  67.727  1.00  0.00    -0.221 A  
HETATM   27  C   UNL     1     -10.400  15.850  65.919  1.00  0.00    -0.365 C  
HETATM   28  C   UNL     1      -9.217  13.006  68.085  1.00  0.00    -0.212 A  
HETATM   29  N   UNL     1     -10.756  16.876  65.504  1.00  0.00    -0.465 NA 
HETATM   30  C   UNL     1      -9.746  15.338  68.831  1.00  0.00    -0.220 C  
HETATM   31  F   UNL     1      -8.566  15.469  69.498  1.00  0.00    -0.229 F  
HETATM   32  F   UNL     1     -10.666  14.988  69.772  1.00  0.00    -0.240 F  
HETATM   33  F   UNL     1     -10.080  16.589  68.431  1.00  0.00    -0.225 F  
ENDBRANCH  15  22
ENDBRANCH  10  13
ENDBRANCH   3   6
TORSDOF 3
ENDMDL
MODEL      117
REMARK 921   NORMALIZED FREE ENERGY PREDICTED BY IDOCK:   -3.72 KCAL/MOL
REMARK 922        TOTAL FREE ENERGY PREDICTED BY IDOCK:   -5.29 KCAL/MOL
REMARK 923 INTER-LIGAND FREE ENERGY PREDICTED BY IDOCK:   -4.64 KCAL/MOL
REMARK 924 INTRA-LIGAND FREE ENERGY PREDICTED BY IDOCK:   -0.66 KCAL/MOL
REMARK 927      BINDING AFFINITY PREDICTED BY RF-SCORE:    0.00 PKD
ROOT
HETATM    1  C   UNL     1     -10.460  18.101  66.494  1.00  0.00    -0.341 C  
HETATM    2  N   UNL     1     -10.050  16.727  66.615  1.00  0.00    -0.289 N  
HETATM    3  C   UNL     1     -10.015  16.093  67.835  1.00  0.00    -0.239 C  
HETATM    4  H   UNL     1      -9.780  16.212  65.777  1.00  0.00     0.000 HD 
HETATM    5  O   UNL     1     -10.335  16.631  68.888  1.00  0.00    -0.260 OA 
ENDROOT
BRANCH   3   6
HETATM    6  C   UNL     1      -9.614  14.665  67.825  1.00  0.00    -0.213 A  
HETATM    7  C   UNL     1     -10.425  13.659  67.304  1.00  0.00    -0.260 A  
HETATM    8  F   UNL     1     -11.611  13.950  66.746  1.00  0.00    -0.322 F  
HETATM    9  C   UNL     1     -10.042  12.316  67.355  1.00  0.00    -0.207 A  
HETATM   10  C   UNL     1      -8.842  11.946  67.964  1.00  0.00    -0.177 A  
HETATM   11  C   UNL     1      -8.005  12.971  68.441  1.00  0.00    -0.135 A  
HETATM   12  C   UNL     1      -8.380  14.315  68.372  1.00  0.00    -0.164 A  
BRANCH  10  13
HETATM   13  N   UNL     1      -8.432  10.588  68.079  1.00  0.00    -0.118 N  
HETATM   14  C   UNL     1      -7.684   9.877  67.107  1.00  0.00    -0.092 C  
HETATM   15  N   UNL     1      -8.033   8.535  67.214  1.00  0.00    -0.101 N  
HETATM   16  S   UNL     1      -6.444  10.572  66.204  1.00  0.00    -0.131 S  
HETATM   17  C   UNL     1      -7.761   9.785  70.330  1.00  0.00    -0.187 C  
HETATM   18  C   UNL     1      -8.584   8.342  68.470  1.00  0.00    -0.136 C  
HETATM   19  C   UNL     1     -10.219   9.765  69.669  1.00  0.00    -0.254 C  
HETATM   20  C   UNL     1      -8.771   9.701  69.177  1.00  0.00    -0.151 C  
HETATM   21  O   UNL     1      -8.847   7.283  69.032  1.00  0.00    -0.132 OA 
BRANCH  15  22
HETATM   22  C   UNL     1      -7.897   7.505  66.213  1.00  0.00    -0.102 A  
HETATM   23  C   UNL     1      -8.101   6.714  63.898  1.00  0.00    -0.012 A  
HETATM   24  C   UNL     1      -8.232   7.721  64.870  1.00  0.00    -0.111 A  
HETATM   25  C   UNL     1      -7.641   5.437  64.234  1.00  0.00    -0.076 A  
HETATM   26  C   UNL     1      -7.254   5.189  65.553  1.00  0.00    -0.068 A  
HETATM   27  C   UNL     1      -7.589   4.445  63.199  1.00  0.00    -0.058 C  
HETATM   28  C   UNL     1      -7.347   6.242  66.500  1.00  0.00    -0.081 A  
HETATM   29  N   UNL     1      -7.566   3.663  62.339  1.00  0.00    -0.055 NA 
HETATM   30  C   UNL     1      -6.743   3.853  66.047  1.00  0.00    -0.049 C  
HETATM   31  F   UNL     1      -7.476   3.394  67.098  1.00  0.00    -0.066 F  
HETATM   32  F   UNL     1      -5.461   3.936  66.497  1.00  0.00    -0.011 F  
HETATM   33  F   UNL     1      -6.753   2.854  65.131  1.00  0.00    -0.036 F  
ENDBRANCH  15  22
ENDBRANCH  10  13
ENDBRANCH   3   6
TORSDOF 3
ENDMDL
MODEL      118
REMARK 921   NORMALIZED FREE ENERGY PREDICTED BY IDOCK:   -3.67 KCAL/MOL
REMARK 922        TOTAL FREE ENERGY PREDICTED BY IDOCK:   -5.23 KCAL/MOL
REMARK 923 INTER-LIGAND FREE ENERGY PREDICTED BY IDOCK:   -4.75 KCAL/MOL
REMARK 924 INTRA-LIGAND FREE ENERGY PREDICTED BY IDOCK:   -0.48 KCAL/MOL
REMARK 927      BINDING AFFINITY PREDICTED BY RF-SCORE:    0.00 PKD
ROOT
HETATM    1  C   UNL     1      -6.981   3.709  62.779  1.00  0.00    -0.036 C  
HETATM    2  N   UNL     1      -7.039   4.784  63.733  1.00  0.00    -0.048 N  
HETATM    3  C   UNL     1      -7.780   5.919  63.492  1.00  0.00    -0.095 C  
HETATM    4  H   UNL     1      -6.519   4.704  64.607  1.00  0.00     0.000 HD 
HETATM    5  O   UNL     1      -8.442   6.092  62.476  1.00  0.00    -0.087 OA 
ENDROOT
BRANCH   3   6
HETATM    6  C   UNL     1      -7.793   6.938  64.568  1.00  0.00    -0.115 A  
HETATM    7  C   UNL     1      -8.316   6.689  65.835  1.00  0.00    -0.137 A  
HETATM    8  F   UNL     1      -8.809   5.481  66.151  1.00  0.00    -0.122 F  
HETATM    9  C   UNL     1      -8.362   7.687  66.813  1.00  0.00    -0.125 A  
HETATM   10  C   UNL     1      -7.908   8.975  66.529  1.00  0.00    -0.100 A  
HETATM   11  C   UNL     1      -7.333   9.205  65.267  1.00  0.00    -0.092 A  
HETATM   12  C   UNL     1      -7.271   8.202  64.295  1.00  0.00    -0.089 A  
BRANCH  10  13
HETATM   13  N   UNL     1      -7.975  10.034  67.478  1.00  0.00    -0.106 N  
HETATM   14  C   UNL     1      -8.988  11.026  67.523  1.00  0.00    -0.137 C  
HETATM   15  N   UNL     1      -8.420  12.175  68.063  1.00  0.00    -0.162 N  
HETATM   16  S   UNL     1     -10.608  10.708  67.195  1.00  0.00    -0.263 S  
HETATM   17  C   UNL     1      -7.262   9.533  69.802  1.00  0.00    -0.084 C  
HETATM   18  C   UNL     1      -7.282  11.797  68.756  1.00  0.00    -0.113 C  
HETATM   19  C   UNL     1      -5.520  10.197  68.068  1.00  0.00    -0.038 C  
HETATM   20  C   UNL     1      -6.984  10.304  68.503  1.00  0.00    -0.066 C  
HETATM   21  O   UNL     1      -6.601  12.468  69.526  1.00  0.00    -0.106 OA 
BRANCH  15  22
HETATM   22  C   UNL     1      -8.879  13.536  67.923  1.00  0.00    -0.190 A  
HETATM   23  C   UNL     1      -9.116  15.825  68.775  1.00  0.00    -0.213 A  
HETATM   24  C   UNL     1      -8.665  14.501  68.915  1.00  0.00    -0.105 A  
HETATM   25  C   UNL     1      -9.818  16.236  67.638  1.00  0.00    -0.238 A  
HETATM   26  C   UNL     1     -10.017  15.319  66.604  1.00  0.00    -0.264 A  
HETATM   27  C   UNL     1     -10.297  17.588  67.594  1.00  0.00    -0.360 C  
HETATM   28  C   UNL     1      -9.502  14.004  66.752  1.00  0.00    -0.292 A  
HETATM   29  N   UNL     1     -10.677  18.687  67.592  1.00  0.00    -0.417 NA 
HETATM   30  C   UNL     1     -10.761  15.635  65.326  1.00  0.00    -0.425 C  
HETATM   31  F   UNL     1     -11.789  14.767  65.116  1.00  0.00    -0.353 F  
HETATM   32  F   UNL     1      -9.957  15.527  64.232  1.00  0.00     0.349 F  
HETATM   33  F   UNL     1     -11.310  16.872  65.264  1.00  0.00    -0.119 F  
ENDBRANCH  15  22
ENDBRANCH  10  13
ENDBRANCH   3   6
TORSDOF 3
ENDMDL
MODEL      119
REMARK 921   NORMALIZED FREE ENERGY PREDICTED BY IDOCK:   -3.62 KCAL/MOL
REMARK 922        TOTAL FREE ENERGY PREDICTED BY IDOCK:   -5.17 KCAL/MOL
REMARK 923 INTER-LIGAND FREE ENERGY PREDICTED BY IDOCK:   -4.61 KCAL/MOL
REMARK 924 INTRA-LIGAND FREE ENERGY PREDICTED BY IDOCK:   -0.57 KCAL/MOL
REMARK 927      BINDING AFFINITY PREDICTED BY RF-SCORE:    0.00 PKD
ROOT
HETATM    1  C   UNL     1      -5.917  16.949  69.217  1.00  0.00    -0.190 C  
HETATM    2  N   UNL     1      -6.416  15.612  69.393  1.00  0.00    -0.146 N  
HETATM    3  C   UNL     1      -6.327  14.674  68.389  1.00  0.00    -0.100 C  
HETATM    4  H   UNL     1      -6.846  15.352  70.281  1.00  0.00     0.000 HD 
HETATM    5  O   UNL     1      -5.817  14.897  67.298  1.00  0.00    -0.310 OA 
ENDROOT
BRANCH   3   6
HETATM    6  C   UNL     1      -6.840  13.320  68.704  1.00  0.00    -0.099 A  
HETATM    7  C   UNL     1      -6.241  12.489  69.649  1.00  0.00    -0.126 A  
HETATM    8  F   UNL     1      -5.175  12.902  70.352  1.00  0.00    -0.084 F  
HETATM    9  C   UNL     1      -6.717  11.196  69.888  1.00  0.00    -0.098 A  
HETATM   10  C   UNL     1      -7.793  10.693  69.155  1.00  0.00    -0.142 A  
HETATM   11  C   UNL     1      -8.425  11.555  68.241  1.00  0.00    -0.159 A  
HETATM   12  C   UNL     1      -7.960  12.854  68.016  1.00  0.00    -0.158 A  
BRANCH  10  13
HETATM   13  N   UNL     1      -8.284   9.369  69.332  1.00  0.00    -0.110 N  
HETATM   14  C   UNL     1      -7.833   8.231  68.616  1.00  0.00    -0.120 C  
HETATM   15  N   UNL     1      -8.898   7.338  68.543  1.00  0.00    -0.129 N  
HETATM   16  S   UNL     1      -6.223   7.984  68.189  1.00  0.00    -0.047 S  
HETATM   17  C   UNL     1      -8.871   8.666  71.639  1.00  0.00    -0.292 C  
HETATM   18  C   UNL     1      -9.793   7.667  69.548  1.00  0.00    -0.178 C  
HETATM   19  C   UNL     1     -10.586   9.913  70.229  1.00  0.00    -0.359 C  
HETATM   20  C   UNL     1      -9.366   8.988  70.221  1.00  0.00    -0.198 C  
HETATM   21  O   UNL     1     -10.760   7.025  69.946  1.00  0.00    -0.224 OA 
BRANCH  15  22
HETATM   22  C   UNL     1      -9.092   6.272  67.590  1.00  0.00    -0.117 A  
HETATM   23  C   UNL     1     -10.423   5.147  65.862  1.00  0.00    -0.172 A  
HETATM   24  C   UNL     1     -10.236   6.189  66.787  1.00  0.00    -0.264 A  
HETATM   25  C   UNL     1      -9.474   4.131  65.712  1.00  0.00    -0.177 A  
HETATM   26  C   UNL     1      -8.297   4.197  66.461  1.00  0.00    -0.104 A  
HETATM   27  C   UNL     1      -9.762   3.071  64.791  1.00  0.00    -0.078 C  
HETATM   28  C   UNL     1      -8.114   5.290  67.349  1.00  0.00    -0.100 A  
HETATM   29  N   UNL     1     -10.028   2.223  64.040  1.00  0.00    -0.130 NA 
HETATM   30  C   UNL     1      -7.195   3.162  66.396  1.00  0.00    -0.070 C  
HETATM   31  F   UNL     1      -6.915   2.650  67.626  1.00  0.00    -0.045 F  
HETATM   32  F   UNL     1      -6.027   3.695  65.942  1.00  0.00    -0.023 F  
HETATM   33  F   UNL     1      -7.450   2.093  65.604  1.00  0.00    -0.061 F  
ENDBRANCH  15  22
ENDBRANCH  10  13
ENDBRANCH   3   6
TORSDOF 3
ENDMDL
MODEL      120
REMARK 921   NORMALIZED FREE ENERGY PREDICTED BY IDOCK:   -3.51 KCAL/MOL
REMARK 922        TOTAL FREE ENERGY PREDICTED BY IDOCK:   -5.05 KCAL/MOL
REMARK 923 INTER-LIGAND FREE ENERGY PREDICTED BY IDOCK:   -5.24 KCAL/MOL
REMARK 924 INTRA-LIGAND FREE ENERGY PREDICTED BY IDOCK:    0.19 KCAL/MOL
REMARK 927      BINDING AFFINITY PREDICTED BY RF-SCORE:    0.00 PKD
ROOT
HETATM    1  C   UNL     1      -9.411   1.844  68.066  1.00  0.00    -0.143 C  
HETATM    2  N   UNL     1      -9.090   3.235  68.241  1.00  0.00    -0.143 N  
HETATM    3  C   UNL     1      -9.338   4.159  67.252  1.00  0.00    -0.176 C  
HETATM    4  H   UNL     1      -8.670   3.543  69.118  1.00  0.00     0.000 HD 
HETATM    5  O   UNL     1      -9.850   3.879  66.176  1.00  0.00    -0.189 OA 
ENDROOT
BRANCH   3   6
HETATM    6  C   UNL     1      -9.001   5.568  67.568  1.00  0.00    -0.107 A  
HETATM    7  C   UNL     1      -9.742   6.646  67.088  1.00  0.00    -0.142 A  
HETATM    8  F   UNL     1     -10.835   6.448  66.333  1.00  0.00    -0.282 F  
HETATM    9  C   UNL     1      -9.370   7.965  67.359  1.00  0.00    -0.169 A  
HETATM   10  C   UNL     1      -8.218   8.235  68.098  1.00  0.00    -0.128 A  
HETATM   11  C   UNL     1      -7.504   7.143  68.624  1.00  0.00    -0.102 A  
HETATM   12  C   UNL     1      -7.888   5.824  68.367  1.00  0.00    -0.101 A  
BRANCH  10  13
HETATM   13  N   UNL     1      -7.774   9.562  68.363  1.00  0.00    -0.085 N  
HETATM   14  C   UNL     1      -8.610  10.638  68.752  1.00  0.00    -0.150 C  
HETATM   15  N   UNL     1      -8.023  11.811  68.286  1.00  0.00    -0.140 N  
HETATM   16  S   UNL     1      -9.920  10.462  69.796  1.00  0.00    -0.033 S  
HETATM   17  C   UNL     1      -5.575   9.829  69.482  1.00  0.00    -0.034 C  
HETATM   18  C   UNL     1      -6.683  11.545  68.052  1.00  0.00    -0.059 C  
HETATM   19  C   UNL     1      -5.674   9.568  66.952  1.00  0.00    -0.051 C  
HETATM   20  C   UNL     1      -6.410  10.035  68.210  1.00  0.00    -0.053 C  
HETATM   21  O   UNL     1      -5.779  12.342  67.817  1.00  0.00    -0.072 OA 
BRANCH  15  22
HETATM   22  C   UNL     1      -8.661  13.081  68.043  1.00  0.00    -0.186 A  
HETATM   23  C   UNL     1      -8.761  15.256  66.910  1.00  0.00    -0.288 A  
HETATM   24  C   UNL     1      -8.138  14.018  67.142  1.00  0.00    -0.121 A  
HETATM   25  C   UNL     1      -9.931  15.617  67.586  1.00  0.00    -0.237 A  
HETATM   26  C   UNL     1     -10.512  14.698  68.461  1.00  0.00    -0.247 A  
HETATM   27  C   UNL     1     -10.476  16.921  67.340  1.00  0.00    -0.310 C  
HETATM   28  C   UNL     1      -9.888  13.434  68.634  1.00  0.00    -0.116 A  
HETATM   29  N   UNL     1     -10.889  17.987  67.123  1.00  0.00    -0.252 NA 
HETATM   30  C   UNL     1     -11.772  14.965  69.255  1.00  0.00    -0.316 C  
HETATM   31  F   UNL     1     -11.571  14.786  70.590  1.00  0.00    -0.283 F  
HETATM   32  F   UNL     1     -12.776  14.110  68.913  1.00  0.00    -0.200 F  
HETATM   33  F   UNL     1     -12.284  16.213  69.126  1.00  0.00    -0.320 F  
ENDBRANCH  15  22
ENDBRANCH  10  13
ENDBRANCH   3   6
TORSDOF 3
ENDMDL
MODEL      121
REMARK 921   NORMALIZED FREE ENERGY PREDICTED BY IDOCK:   -3.51 KCAL/MOL
REMARK 922        TOTAL FREE ENERGY PREDICTED BY IDOCK:   -5.04 KCAL/MOL
REMARK 923 INTER-LIGAND FREE ENERGY PREDICTED BY IDOCK:   -3.94 KCAL/MOL
REMARK 924 INTRA-LIGAND FREE ENERGY PREDICTED BY IDOCK:   -1.10 KCAL/MOL
REMARK 927      BINDING AFFINITY PREDICTED BY RF-SCORE:    0.00 PKD
ROOT
HETATM    1  C   UNL     1      -7.640   1.480  63.526  1.00  0.00    -0.054 C  
HETATM    2  N   UNL     1      -7.980   2.505  64.477  1.00  0.00    -0.077 N  
HETATM    3  C   UNL     1      -7.009   3.208  65.152  1.00  0.00    -0.056 C  
HETATM    4  H   UNL     1      -8.962   2.714  64.654  1.00  0.00     0.000 HD 
HETATM    5  O   UNL     1      -5.808   3.030  64.991  1.00  0.00    -0.017 OA 
ENDROOT
BRANCH   3   6
HETATM    6  C   UNL     1      -7.484   4.266  66.076  1.00  0.00    -0.085 A  
HETATM    7  C   UNL     1      -7.228   5.620  65.867  1.00  0.00    -0.072 A  
HETATM    8  F   UNL     1      -6.558   6.033  64.780  1.00  0.00    -0.035 F  
HETATM    9  C   UNL     1      -7.644   6.590  66.783  1.00  0.00    -0.091 A  
HETATM   10  C   UNL     1      -8.304   6.217  67.954  1.00  0.00    -0.118 A  
HETATM   11  C   UNL     1      -8.605   4.855  68.134  1.00  0.00    -0.104 A  
HETATM   12  C   UNL     1      -8.205   3.888  67.208  1.00  0.00    -0.098 A  
BRANCH  10  13
HETATM   13  N   UNL     1      -8.707   7.165  68.937  1.00  0.00    -0.128 N  
HETATM   14  C   UNL     1      -9.819   8.037  68.820  1.00  0.00    -0.172 C  
HETATM   15  N   UNL     1      -9.530   9.180  69.559  1.00  0.00    -0.162 N  
HETATM   16  S   UNL     1     -11.276   7.587  68.107  1.00  0.00     0.587 S  
HETATM   17  C   UNL     1      -8.466   6.513  71.320  1.00  0.00    -0.126 C  
HETATM   18  C   UNL     1      -8.534   8.854  70.466  1.00  0.00    -0.177 C  
HETATM   19  C   UNL     1      -6.481   7.521  70.085  1.00  0.00    -0.034 C  
HETATM   20  C   UNL     1      -8.007   7.433  70.180  1.00  0.00    -0.112 C  
HETATM   21  O   UNL     1      -8.127   9.513  71.418  1.00  0.00    -0.252 OA 
BRANCH  15  22
HETATM   22  C   UNL     1     -10.110  10.493  69.417  1.00  0.00    -0.209 A  
HETATM   23  C   UNL     1     -11.911  12.107  69.838  1.00  0.00    -0.392 A  
HETATM   24  C   UNL     1     -11.347  10.827  69.982  1.00  0.00    -0.397 A  
HETATM   25  C   UNL     1     -11.262  13.107  69.107  1.00  0.00    -0.303 A  
HETATM   26  C   UNL     1     -10.006  12.832  68.562  1.00  0.00    -0.168 A  
HETATM   27  C   UNL     1     -11.927  14.369  68.955  1.00  0.00    -0.307 C  
HETATM   28  C   UNL     1      -9.440  11.547  68.769  1.00  0.00    -0.099 A  
HETATM   29  N   UNL     1     -12.494  15.378  68.846  1.00  0.00     0.063 NA 
HETATM   30  C   UNL     1      -9.203  13.823  67.748  1.00  0.00    -0.206 C  
HETATM   31  F   UNL     1      -8.874  13.319  66.527  1.00  0.00    -0.210 F  
HETATM   32  F   UNL     1      -8.022  14.134  68.351  1.00  0.00    -0.115 F  
HETATM   33  F   UNL     1      -9.819  15.005  67.501  1.00  0.00    -0.213 F  
ENDBRANCH  15  22
ENDBRANCH  10  13
ENDBRANCH   3   6
TORSDOF 3
ENDMDL
MODEL      122
REMARK 921   NORMALIZED FREE ENERGY PREDICTED BY IDOCK:   -3.50 KCAL/MOL
REMARK 922        TOTAL FREE ENERGY PREDICTED BY IDOCK:   -5.03 KCAL/MOL
REMARK 923 INTER-LIGAND FREE ENERGY PREDICTED BY IDOCK:   -4.74 KCAL/MOL
REMARK 924 INTRA-LIGAND FREE ENERGY PREDICTED BY IDOCK:   -0.29 KCAL/MOL
REMARK 927      BINDING AFFINITY PREDICTED BY RF-SCORE:    0.00 PKD
ROOT
HETATM    1  C   UNL     1      -7.309  19.592  68.065  1.00  0.00    -0.281 C  
HETATM    2  N   UNL     1      -7.491  18.185  67.828  1.00  0.00    -0.211 N  
HETATM    3  C   UNL     1      -6.627  17.250  68.351  1.00  0.00    -0.174 C  
HETATM    4  H   UNL     1      -8.278  17.873  67.258  1.00  0.00     0.000 HD 
HETATM    5  O   UNL     1      -5.665  17.536  69.055  1.00  0.00    -0.172 OA 
ENDROOT
BRANCH   3   6
HETATM    6  C   UNL     1      -6.943  15.830  68.070  1.00  0.00    -0.137 A  
HETATM    7  C   UNL     1      -8.117  15.431  67.434  1.00  0.00    -0.180 A  
HETATM    8  F   UNL     1      -9.012  16.337  67.011  1.00  0.00    -0.193 F  
HETATM    9  C   UNL     1      -8.411  14.080  67.229  1.00  0.00    -0.220 A  
HETATM   10  C   UNL     1      -7.542  13.090  67.688  1.00  0.00    -0.160 A  
HETATM   11  C   UNL     1      -6.335  13.501  68.281  1.00  0.00    -0.104 A  
HETATM   12  C   UNL     1      -6.032  14.852  68.470  1.00  0.00    -0.095 A  
BRANCH  10  13
HETATM   13  N   UNL     1      -7.820  11.702  67.541  1.00  0.00    -0.129 N  
HETATM   14  C   UNL     1      -8.639  10.939  68.411  1.00  0.00    -0.146 C  
HETATM   15  N   UNL     1      -8.171   9.629  68.381  1.00  0.00    -0.105 N  
HETATM   16  S   UNL     1     -10.047  11.535  69.116  1.00  0.00     0.129 S  
HETATM   17  C   UNL     1      -8.097  10.830  65.234  1.00  0.00    -0.021 C  
HETATM   18  C   UNL     1      -7.432   9.474  67.218  1.00  0.00    -0.091 C  
HETATM   19  C   UNL     1      -5.764  11.019  66.236  1.00  0.00    -0.143 C  
HETATM   20  C   UNL     1      -7.257  10.838  66.520  1.00  0.00    -0.139 C  
HETATM   21  O   UNL     1      -7.007   8.436  66.720  1.00  0.00    -0.071 OA 
BRANCH  15  22
HETATM   22  C   UNL     1      -8.364   8.599  69.372  1.00  0.00    -0.114 A  
HETATM   23  C   UNL     1      -7.825   7.562  71.530  1.00  0.00    -0.086 A  
HETATM   24  C   UNL     1      -7.636   8.569  70.568  1.00  0.00    -0.074 A  
HETATM   25  C   UNL     1      -8.745   6.528  71.326  1.00  0.00    -0.130 A  
HETATM   26  C   UNL     1      -9.523   6.541  70.167  1.00  0.00    -0.164 A  
HETATM   27  C   UNL     1      -8.840   5.504  72.327  1.00  0.00    -0.132 C  
HETATM   28  C   UNL     1      -9.347   7.601  69.240  1.00  0.00    -0.148 A  
HETATM   29  N   UNL     1      -8.888   4.687  73.153  1.00  0.00    -0.111 NA 
HETATM   30  C   UNL     1     -10.549   5.482  69.826  1.00  0.00    -0.318 C  
HETATM   31  F   UNL     1     -10.307   4.924  68.607  1.00  0.00    -0.230 F  
HETATM   32  F   UNL     1     -11.806   6.000  69.754  1.00  0.00    -0.424 F  
HETATM   33  F   UNL     1     -10.622   4.444  70.694  1.00  0.00    -0.162 F  
ENDBRANCH  15  22
ENDBRANCH  10  13
ENDBRANCH   3   6
TORSDOF 3
ENDMDL
MODEL      123
REMARK 921   NORMALIZED FREE ENERGY PREDICTED BY IDOCK:   -3.48 KCAL/MOL
REMARK 922        TOTAL FREE ENERGY PREDICTED BY IDOCK:   -5.01 KCAL/MOL
REMARK 923 INTER-LIGAND FREE ENERGY PREDICTED BY IDOCK:   -4.81 KCAL/MOL
REMARK 924 INTRA-LIGAND FREE ENERGY PREDICTED BY IDOCK:   -0.20 KCAL/MOL
REMARK 927      BINDING AFFINITY PREDICTED BY RF-SCORE:    0.00 PKD
ROOT
HETATM    1  C   UNL     1      -6.308   3.873  72.652  1.00  0.00    -0.017 C  
HETATM    2  N   UNL     1      -6.620   4.776  71.577  1.00  0.00    -0.033 N  
HETATM    3  C   UNL     1      -6.760   6.128  71.792  1.00  0.00    -0.063 C  
HETATM    4  H   UNL     1      -6.741   4.406  70.634  1.00  0.00     0.000 HD 
HETATM    5  O   UNL     1      -6.619   6.658  72.888  1.00  0.00    -0.066 OA 
ENDROOT
BRANCH   3   6
HETATM    6  C   UNL     1      -7.042   6.960  70.598  1.00  0.00    -0.068 A  
HETATM    7  C   UNL     1      -8.239   7.652  70.428  1.00  0.00    -0.122 A  
HETATM    8  F   UNL     1      -9.191   7.623  71.374  1.00  0.00    -0.135 F  
HETATM    9  C   UNL     1      -8.498   8.387  69.267  1.00  0.00    -0.125 A  
HETATM   10  C   UNL     1      -7.567   8.417  68.229  1.00  0.00    -0.098 A  
HETATM   11  C   UNL     1      -6.340   7.759  68.428  1.00  0.00    -0.045 A  
HETATM   12  C   UNL     1      -6.074   7.040  69.597  1.00  0.00    -0.030 A  
BRANCH  10  13
HETATM   13  N   UNL     1      -7.804   9.114  67.011  1.00  0.00    -0.101 N  
HETATM   14  C   UNL     1      -7.692  10.517  66.839  1.00  0.00    -0.114 C  
HETATM   15  N   UNL     1      -8.581  10.885  65.834  1.00  0.00    -0.176 N  
HETATM   16  S   UNL     1      -6.501  11.447  67.581  1.00  0.00    -0.069 S  
HETATM   17  C   UNL     1      -7.101   8.005  64.904  1.00  0.00    -0.071 C  
HETATM   18  C   UNL     1      -8.872   9.751  65.093  1.00  0.00    -0.181 C  
HETATM   19  C   UNL     1      -9.377   7.467  65.909  1.00  0.00     0.040 C  
HETATM   20  C   UNL     1      -8.263   8.507  65.774  1.00  0.00    -0.125 C  
HETATM   21  O   UNL     1      -9.459   9.673  64.018  1.00  0.00    -0.177 OA 
BRANCH  15  22
HETATM   22  C   UNL     1      -9.148  12.189  65.592  1.00  0.00     0.140 A  
HETATM   23  C   UNL     1     -10.587  13.703  64.304  1.00  0.00    -0.245 A  
HETATM   24  C   UNL     1     -10.039  12.431  64.538  1.00  0.00    -0.276 A  
HETATM   25  C   UNL     1     -10.254  14.796  65.110  1.00  0.00    -0.410 A  
HETATM   26  C   UNL     1      -9.404  14.593  66.198  1.00  0.00    -0.265 A  
HETATM   27  C   UNL     1     -10.809  16.076  64.773  1.00  0.00    -0.294 C  
HETATM   28  C   UNL     1      -8.908  13.285  66.441  1.00  0.00     0.101 A  
HETATM   29  N   UNL     1     -11.269  17.100  64.470  1.00  0.00    -1.012 NA 
HETATM   30  C   UNL     1      -8.963  15.689  67.143  1.00  0.00    -0.214 C  
HETATM   31  F   UNL     1      -7.606  15.772  67.217  1.00  0.00    -0.158 F  
HETATM   32  F   UNL     1      -9.389  15.462  68.416  1.00  0.00    -0.180 F  
HETATM   33  F   UNL     1      -9.388  16.935  66.824  1.00  0.00    -0.222 F  
ENDBRANCH  15  22
ENDBRANCH  10  13
ENDBRANCH   3   6
TORSDOF 3
ENDMDL
MODEL      124
REMARK 921   NORMALIZED FREE ENERGY PREDICTED BY IDOCK:   -3.33 KCAL/MOL
REMARK 922        TOTAL FREE ENERGY PREDICTED BY IDOCK:   -4.83 KCAL/MOL
REMARK 923 INTER-LIGAND FREE ENERGY PREDICTED BY IDOCK:   -4.23 KCAL/MOL
REMARK 924 INTRA-LIGAND FREE ENERGY PREDICTED BY IDOCK:   -0.59 KCAL/MOL
REMARK 927      BINDING AFFINITY PREDICTED BY RF-SCORE:    0.00 PKD
ROOT
HETATM    1  C   UNL     1     -11.588  14.105  64.226  1.00  0.00    -0.309 C  
HETATM    2  N   UNL     1     -10.912  12.876  64.548  1.00  0.00    -0.330 N  
HETATM    3  C   UNL     1     -10.286  12.697  65.760  1.00  0.00    -0.272 C  
HETATM    4  H   UNL     1     -10.896  12.121  63.862  1.00  0.00     0.000 HD 
HETATM    5  O   UNL     1     -10.267  13.545  66.644  1.00  0.00    -0.265 OA 
ENDROOT
BRANCH   3   6
HETATM    6  C   UNL     1      -9.659  11.374  65.989  1.00  0.00    -0.247 A  
HETATM    7  C   UNL     1      -9.788  10.314  65.093  1.00  0.00    -0.321 A  
HETATM    8  F   UNL     1     -10.469  10.462  63.946  1.00  0.00    -0.350 F  
HETATM    9  C   UNL     1      -9.228   9.062  65.361  1.00  0.00    -0.241 A  
HETATM   10  C   UNL     1      -8.549   8.833  66.558  1.00  0.00    -0.118 A  
HETATM   11  C   UNL     1      -8.377   9.921  67.433  1.00  0.00    -0.118 A  
HETATM   12  C   UNL     1      -8.921  11.178  67.156  1.00  0.00    -0.145 A  
BRANCH  10  13
HETATM   13  N   UNL     1      -8.001   7.563  66.894  1.00  0.00    -0.114 N  
HETATM   14  C   UNL     1      -8.565   6.653  67.823  1.00  0.00    -0.121 C  
HETATM   15  N   UNL     1      -7.519   5.916  68.371  1.00  0.00    -0.084 N  
HETATM   16  S   UNL     1     -10.222   6.405  67.986  1.00  0.00    -0.185 S  
HETATM   17  C   UNL     1      -6.926   6.264  65.073  1.00  0.00    -0.052 C  
HETATM   18  C   UNL     1      -6.440   6.010  67.506  1.00  0.00    -0.047 C  
HETATM   19  C   UNL     1      -5.575   8.015  66.335  1.00  0.00    -0.032 C  
HETATM   20  C   UNL     1      -6.747   7.032  66.391  1.00  0.00    -0.053 C  
HETATM   21  O   UNL     1      -5.396   5.365  67.518  1.00  0.00    -0.007 OA 
BRANCH  15  22
HETATM   22  C   UNL     1      -7.504   5.201  69.623  1.00  0.00    -0.061 A  
HETATM   23  C   UNL     1      -7.535   3.109  70.906  1.00  0.00    -0.037 A  
HETATM   24  C   UNL     1      -7.546   3.802  69.684  1.00  0.00    -0.052 A  
HETATM   25  C   UNL     1      -7.495   3.790  72.126  1.00  0.00    -0.057 A  
HETATM   26  C   UNL     1      -7.409   5.184  72.114  1.00  0.00    -0.091 A  
HETATM   27  C   UNL     1      -7.545   3.016  73.333  1.00  0.00    -0.052 C  
HETATM   28  C   UNL     1      -7.369   5.853  70.862  1.00  0.00    -0.086 A  
HETATM   29  N   UNL     1      -7.594   2.360  74.292  1.00  0.00    -0.041 NA 
HETATM   30  C   UNL     1      -7.364   6.039  73.361  1.00  0.00    -0.089 C  
HETATM   31  F   UNL     1      -8.354   6.974  73.364  1.00  0.00    -0.120 F  
HETATM   32  F   UNL     1      -6.197   6.735  73.456  1.00  0.00    -0.060 F  
HETATM   33  F   UNL     1      -7.493   5.366  74.530  1.00  0.00    -0.081 F  
ENDBRANCH  15  22
ENDBRANCH  10  13
ENDBRANCH   3   6
TORSDOF 3
ENDMDL
MODEL      125
REMARK 921   NORMALIZED FREE ENERGY PREDICTED BY IDOCK:   -3.33 KCAL/MOL
REMARK 922        TOTAL FREE ENERGY PREDICTED BY IDOCK:   -4.83 KCAL/MOL
REMARK 923 INTER-LIGAND FREE ENERGY PREDICTED BY IDOCK:   -3.72 KCAL/MOL
REMARK 924 INTRA-LIGAND FREE ENERGY PREDICTED BY IDOCK:   -1.11 KCAL/MOL
REMARK 927      BINDING AFFINITY PREDICTED BY RF-SCORE:    0.00 PKD
ROOT
HETATM    1  C   UNL     1      -5.469   1.470  63.739  1.00  0.00    -0.004 C  
HETATM    2  N   UNL     1      -5.845   2.439  64.734  1.00  0.00    -0.017 N  
HETATM    3  C   UNL     1      -7.058   3.086  64.683  1.00  0.00    -0.054 C  
HETATM    4  H   UNL     1      -5.198   2.650  65.494  1.00  0.00     0.000 HD 
HETATM    5  O   UNL     1      -7.898   2.884  63.815  1.00  0.00    -0.077 OA 
ENDROOT
BRANCH   3   6
HETATM    6  C   UNL     1      -7.347   4.032  65.788  1.00  0.00    -0.076 A  
HETATM    7  C   UNL     1      -7.792   3.615  67.040  1.00  0.00    -0.080 A  
HETATM    8  F   UNL     1      -7.948   2.310  67.315  1.00  0.00    -0.064 F  
HETATM    9  C   UNL     1      -8.106   4.534  68.045  1.00  0.00    -0.091 A  
HETATM   10  C   UNL     1      -8.009   5.904  67.804  1.00  0.00    -0.098 A  
HETATM   11  C   UNL     1      -7.509   6.317  66.556  1.00  0.00    -0.086 A  
HETATM   12  C   UNL     1      -7.178   5.397  65.558  1.00  0.00    -0.068 A  
BRANCH  10  13
HETATM   13  N   UNL     1      -8.359   6.878  68.782  1.00  0.00    -0.121 N  
HETATM   14  C   UNL     1      -9.483   7.739  68.707  1.00  0.00    -0.149 C  
HETATM   15  N   UNL     1      -9.158   8.906  69.393  1.00  0.00    -0.144 N  
HETATM   16  S   UNL     1     -10.977   7.260  68.098  1.00  0.00     0.085 S  
HETATM   17  C   UNL     1      -7.968   6.298  71.163  1.00  0.00    -0.116 C  
HETATM   18  C   UNL     1      -8.107   8.613  70.246  1.00  0.00    -0.109 C  
HETATM   19  C   UNL     1      -6.070   7.282  69.780  1.00  0.00    -0.027 C  
HETATM   20  C   UNL     1      -7.586   7.187  69.971  1.00  0.00    -0.091 C  
HETATM   21  O   UNL     1      -7.648   9.302  71.152  1.00  0.00    -0.261 OA 
BRANCH  15  22
HETATM   22  C   UNL     1      -9.757  10.210  69.249  1.00  0.00    -0.224 A  
HETATM   23  C   UNL     1      -9.884  12.411  68.171  1.00  0.00    -0.213 A  
HETATM   24  C   UNL     1      -9.300  11.140  68.306  1.00  0.00    -0.176 A  
HETATM   25  C   UNL     1     -10.946  12.813  68.987  1.00  0.00    -0.241 A  
HETATM   26  C   UNL     1     -11.462  11.903  69.912  1.00  0.00    -0.264 A  
HETATM   27  C   UNL     1     -11.451  14.146  68.829  1.00  0.00    -0.299 C  
HETATM   28  C   UNL     1     -10.886  10.608  69.988  1.00  0.00    -0.280 A  
HETATM   29  N   UNL     1     -11.833  15.234  68.681  1.00  0.00    -0.334 NA 
HETATM   30  C   UNL     1     -12.604  12.212  70.855  1.00  0.00    -0.247 C  
HETATM   31  F   UNL     1     -12.255  11.995  72.153  1.00  0.00     0.139 F  
HETATM   32  F   UNL     1     -13.683  11.414  70.623  1.00  0.00     0.384 F  
HETATM   33  F   UNL     1     -13.065  13.485  70.809  1.00  0.00    -0.312 F  
ENDBRANCH  15  22
ENDBRANCH  10  13
ENDBRANCH   3   6
TORSDOF 3
ENDMDL
MODEL      126
REMARK 921   NORMALIZED FREE ENERGY PREDICTED BY IDOCK:   -3.32 KCAL/MOL
REMARK 922        TOTAL FREE ENERGY PREDICTED BY IDOCK:   -4.82 KCAL/MOL
REMARK 923 INTER-LIGAND FREE ENERGY PREDICTED BY IDOCK:   -3.71 KCAL/MOL
REMARK 924 INTRA-LIGAND FREE ENERGY PREDICTED BY IDOCK:   -1.11 KCAL/MOL
REMARK 927      BINDING AFFINITY PREDICTED BY RF-SCORE:    0.00 PKD
ROOT
HETATM    1  C   UNL     1      -5.507   3.610  66.094  1.00  0.00    -0.017 C  
HETATM    2  N   UNL     1      -6.272   4.768  66.469  1.00  0.00    -0.031 N  
HETATM    3  C   UNL     1      -7.225   5.302  65.631  1.00  0.00    -0.068 C  
HETATM    4  H   UNL     1      -6.105   5.204  67.376  1.00  0.00     0.000 HD 
HETATM    5  O   UNL     1      -7.497   4.836  64.532  1.00  0.00    -0.069 OA 
ENDROOT
BRANCH   3   6
HETATM    6  C   UNL     1      -7.975   6.472  66.147  1.00  0.00    -0.110 A  
HETATM    7  C   UNL     1      -7.400   7.733  66.289  1.00  0.00    -0.079 A  
HETATM    8  F   UNL     1      -6.127   7.954  65.923  1.00  0.00    -0.037 F  
HETATM    9  C   UNL     1      -8.117   8.805  66.827  1.00  0.00    -0.104 A  
HETATM   10  C   UNL     1      -9.429   8.626  67.268  1.00  0.00    -0.156 A  
HETATM   11  C   UNL     1     -10.020   7.365  67.074  1.00  0.00    -0.301 A  
HETATM   12  C   UNL     1      -9.308   6.298  66.519  1.00  0.00    -0.173 A  
BRANCH  10  13
HETATM   13  N   UNL     1     -10.184   9.675  67.863  1.00  0.00    -0.185 N  
HETATM   14  C   UNL     1     -10.552  10.883  67.217  1.00  0.00    -0.251 C  
HETATM   15  N   UNL     1     -10.655  11.864  68.197  1.00  0.00    -0.201 N  
HETATM   16  S   UNL     1     -11.002  10.964  65.596  1.00  0.00     0.138 S  
HETATM   17  C   UNL     1     -12.005   9.031  69.421  1.00  0.00     1.131 C  
HETATM   18  C   UNL     1     -10.822  11.226  69.416  1.00  0.00    -0.189 C  
HETATM   19  C   UNL     1      -9.622   9.243  70.292  1.00  0.00    -0.276 C  
HETATM   20  C   UNL     1     -10.637   9.704  69.242  1.00  0.00    -0.219 C  
HETATM   21  O   UNL     1     -11.136  11.717  70.496  1.00  0.00     0.409 OA 
BRANCH  15  22
HETATM   22  C   UNL     1     -10.575  13.294  68.027  1.00  0.00    -0.240 A  
HETATM   23  C   UNL     1     -11.600  15.458  67.489  1.00  0.00    -0.176 A  
HETATM   24  C   UNL     1     -11.684  14.065  67.657  1.00  0.00    -0.412 A  
HETATM   25  C   UNL     1     -10.392  16.139  67.670  1.00  0.00    -0.288 A  
HETATM   26  C   UNL     1      -9.270  15.417  68.081  1.00  0.00    -0.186 A  
HETATM   27  C   UNL     1     -10.372  17.552  67.424  1.00  0.00    -0.351 C  
HETATM   28  C   UNL     1      -9.399  14.020  68.294  1.00  0.00    -0.208 A  
HETATM   29  N   UNL     1     -10.387  18.695  67.210  1.00  0.00    -0.379 NA 
HETATM   30  C   UNL     1      -7.906  16.032  68.308  1.00  0.00    -0.144 C  
HETATM   31  F   UNL     1      -6.947  15.413  67.564  1.00  0.00    -0.146 F  
HETATM   32  F   UNL     1      -7.505  15.910  69.604  1.00  0.00    -0.211 F  
HETATM   33  F   UNL     1      -7.807  17.350  68.009  1.00  0.00    -0.187 F  
ENDBRANCH  15  22
ENDBRANCH  10  13
ENDBRANCH   3   6
TORSDOF 3
ENDMDL
MODEL      127
REMARK 921   NORMALIZED FREE ENERGY PREDICTED BY IDOCK:   -3.29 KCAL/MOL
REMARK 922        TOTAL FREE ENERGY PREDICTED BY IDOCK:   -4.79 KCAL/MOL
REMARK 923 INTER-LIGAND FREE ENERGY PREDICTED BY IDOCK:   -5.51 KCAL/MOL
REMARK 924 INTRA-LIGAND FREE ENERGY PREDICTED BY IDOCK:    0.72 KCAL/MOL
REMARK 927      BINDING AFFINITY PREDICTED BY RF-SCORE:    0.00 PKD
ROOT
HETATM    1  C   UNL     1     -10.243   1.824  72.415  1.00  0.00    -0.155 C  
HETATM    2  N   UNL     1     -10.047   3.153  71.898  1.00  0.00    -0.131 N  
HETATM    3  C   UNL     1      -9.065   3.979  72.395  1.00  0.00    -0.114 C  
HETATM    4  H   UNL     1     -10.650   3.490  71.148  1.00  0.00     0.000 HD 
HETATM    5  O   UNL     1      -8.291   3.651  73.286  1.00  0.00    -0.082 OA 
ENDROOT
BRANCH   3   6
HETATM    6  C   UNL     1      -8.937   5.309  71.754  1.00  0.00    -0.147 A  
HETATM    7  C   UNL     1     -10.037   6.043  71.315  1.00  0.00    -0.192 A  
HETATM    8  F   UNL     1     -11.285   5.583  71.490  1.00  0.00    -0.306 F  
HETATM    9  C   UNL     1      -9.881   7.272  70.667  1.00  0.00    -0.179 A  
HETATM   10  C   UNL     1      -8.607   7.780  70.415  1.00  0.00    -0.137 A  
HETATM   11  C   UNL     1      -7.504   7.060  70.906  1.00  0.00    -0.082 A  
HETATM   12  C   UNL     1      -7.661   5.841  71.571  1.00  0.00    -0.099 A  
BRANCH  10  13
HETATM   13  N   UNL     1      -8.398   9.005  69.719  1.00  0.00    -0.121 N  
HETATM   14  C   UNL     1      -9.423   9.890  69.301  1.00  0.00    -0.209 C  
HETATM   15  N   UNL     1      -8.966  10.548  68.164  1.00  0.00    -0.134 N  
HETATM   16  S   UNL     1     -10.803  10.204  70.214  1.00  0.00    -0.293 S  
HETATM   17  C   UNL     1      -6.406  10.347  70.344  1.00  0.00    -0.127 C  
HETATM   18  C   UNL     1      -7.584  10.451  68.149  1.00  0.00    -0.091 C  
HETATM   19  C   UNL     1      -6.174   8.473  68.637  1.00  0.00    -0.046 C  
HETATM   20  C   UNL     1      -7.111   9.504  69.272  1.00  0.00    -0.058 C  
HETATM   21  O   UNL     1      -6.787  11.046  67.430  1.00  0.00    -0.074 OA 
BRANCH  15  22
HETATM   22  C   UNL     1      -9.752  11.196  67.143  1.00  0.00    -0.177 A  
HETATM   23  C   UNL     1     -11.513  12.760  66.451  1.00  0.00    -0.409 A  
HETATM   24  C   UNL     1     -10.747  12.133  67.449  1.00  0.00    -0.268 A  
HETATM   25  C   UNL     1     -11.325  12.461  65.098  1.00  0.00    -0.367 A  
HETATM   26  C   UNL     1     -10.316  11.565  64.743  1.00  0.00    -0.341 A  
HETATM   27  C   UNL     1     -12.185  13.098  64.142  1.00  0.00    -0.398 C  
HETATM   28  C   UNL     1      -9.523  10.989  65.770  1.00  0.00    -0.242 A  
HETATM   29  N   UNL     1     -12.901  13.625  63.393  1.00  0.00    -0.384 NA 
HETATM   30  C   UNL     1     -10.012  11.154  63.319  1.00  0.00    -0.379 C  
HETATM   31  F   UNL     1     -10.062   9.802  63.165  1.00  0.00     0.126 F  
HETATM   32  F   UNL     1      -8.757  11.524  62.941  1.00  0.00    -0.197 F  
HETATM   33  F   UNL     1     -10.848  11.659  62.379  1.00  0.00     0.303 F  
ENDBRANCH  15  22
ENDBRANCH  10  13
ENDBRANCH   3   6
TORSDOF 3
ENDMDL
MODEL      128
REMARK 921   NORMALIZED FREE ENERGY PREDICTED BY IDOCK:   -3.28 KCAL/MOL
REMARK 922        TOTAL FREE ENERGY PREDICTED BY IDOCK:   -4.77 KCAL/MOL
REMARK 923 INTER-LIGAND FREE ENERGY PREDICTED BY IDOCK:   -4.78 KCAL/MOL
REMARK 924 INTRA-LIGAND FREE ENERGY PREDICTED BY IDOCK:    0.01 KCAL/MOL
REMARK 927      BINDING AFFINITY PREDICTED BY RF-SCORE:    0.00 PKD
ROOT
HETATM    1  C   UNL     1     -10.515   2.074  63.576  1.00  0.00    -0.139 C  
HETATM    2  N   UNL     1     -10.369   3.186  64.477  1.00  0.00    -0.404 N  
HETATM    3  C   UNL     1      -9.129   3.675  64.820  1.00  0.00    -0.134 C  
HETATM    4  H   UNL     1     -11.204   3.622  64.870  1.00  0.00     0.000 HD 
HETATM    5  O   UNL     1      -8.078   3.220  64.386  1.00  0.00    -0.085 OA 
ENDROOT
BRANCH   3   6
HETATM    6  C   UNL     1      -9.111   4.849  65.725  1.00  0.00    -0.148 A  
HETATM    7  C   UNL     1      -8.916   6.150  65.267  1.00  0.00     0.122 A  
HETATM    8  F   UNL     1      -8.770   6.404  63.957  1.00  0.00     0.078 F  
HETATM    9  C   UNL     1      -8.852   7.232  66.150  1.00  0.00    -0.181 A  
HETATM   10  C   UNL     1      -8.951   7.026  67.526  1.00  0.00    -0.117 A  
HETATM   11  C   UNL     1      -9.200   5.718  67.978  1.00  0.00    -0.109 A  
HETATM   12  C   UNL     1      -9.282   4.639  67.093  1.00  0.00    -0.140 A  
BRANCH  10  13
HETATM   13  N   UNL     1      -8.847   8.090  68.466  1.00  0.00    -0.134 N  
HETATM   14  C   UNL     1      -9.927   8.626  69.213  1.00  0.00    -0.195 C  
HETATM   15  N   UNL     1      -9.633   9.961  69.470  1.00  0.00    -0.212 N  
HETATM   16  S   UNL     1     -11.173   7.685  69.843  1.00  0.00    -0.004 S  
HETATM   17  C   UNL     1      -6.800   8.182  69.866  1.00  0.00    -0.044 C  
HETATM   18  C   UNL     1      -8.265  10.126  69.324  1.00  0.00    -0.156 C  
HETATM   19  C   UNL     1      -6.786   9.234  67.547  1.00  0.00    -0.077 C  
HETATM   20  C   UNL     1      -7.637   8.836  68.757  1.00  0.00    -0.095 C  
HETATM   21  O   UNL     1      -7.577  11.093  69.639  1.00  0.00    -0.018 OA 
BRANCH  15  22
HETATM   22  C   UNL     1     -10.555  11.021  69.795  1.00  0.00    -0.001 A  
HETATM   23  C   UNL     1     -12.504  11.878  71.016  1.00  0.00    -0.390 A  
HETATM   24  C   UNL     1     -11.606  10.843  70.703  1.00  0.00    -0.341 A  
HETATM   25  C   UNL     1     -12.397  13.137  70.418  1.00  0.00    -0.351 A  
HETATM   26  C   UNL     1     -11.338  13.374  69.539  1.00  0.00    -0.248 A  
HETATM   27  C   UNL     1     -13.385  14.124  70.742  1.00  0.00    -0.072 C  
HETATM   28  C   UNL     1     -10.416  12.325  69.284  1.00  0.00     0.149 A  
HETATM   29  N   UNL     1     -14.206  14.900  71.022  1.00  0.00    -0.239 NA 
HETATM   30  C   UNL     1     -11.111  14.688  68.824  1.00  0.00    -0.260 C  
HETATM   31  F   UNL     1     -11.044  14.519  67.474  1.00  0.00    -0.274 F  
HETATM   32  F   UNL     1      -9.930  15.263  69.184  1.00  0.00    -0.195 F  
HETATM   33  F   UNL     1     -12.062  15.631  69.027  1.00  0.00    -0.362 F  
ENDBRANCH  15  22
ENDBRANCH  10  13
ENDBRANCH   3   6
TORSDOF 3
ENDMDL
MODEL      129
REMARK 921   NORMALIZED FREE ENERGY PREDICTED BY IDOCK:   -3.18 KCAL/MOL
REMARK 922        TOTAL FREE ENERGY PREDICTED BY IDOCK:   -4.65 KCAL/MOL
REMARK 923 INTER-LIGAND FREE ENERGY PREDICTED BY IDOCK:   -4.57 KCAL/MOL
REMARK 924 INTRA-LIGAND FREE ENERGY PREDICTED BY IDOCK:   -0.08 KCAL/MOL
REMARK 927      BINDING AFFINITY PREDICTED BY RF-SCORE:    0.00 PKD
ROOT
HETATM    1  C   UNL     1      -6.522  16.594  69.398  1.00  0.00    -0.220 C  
HETATM    2  N   UNL     1      -7.017  15.245  69.332  1.00  0.00    -0.165 N  
HETATM    3  C   UNL     1      -6.588  14.370  68.359  1.00  0.00    -0.104 C  
HETATM    4  H   UNL     1      -7.700  14.930  70.020  1.00  0.00     0.000 HD 
HETATM    5  O   UNL     1      -5.762  14.661  67.503  1.00  0.00    -0.337 OA 
ENDROOT
BRANCH   3   6
HETATM    6  C   UNL     1      -7.141  12.996  68.420  1.00  0.00    -0.103 A  
HETATM    7  C   UNL     1      -6.934  12.148  69.506  1.00  0.00     0.113 A  
HETATM    8  F   UNL     1      -6.242  12.561  70.579  1.00  0.00    -0.150 F  
HETATM    9  C   UNL     1      -7.424  10.839  69.512  1.00  0.00    -0.113 A  
HETATM   10  C   UNL     1      -8.111  10.337  68.406  1.00  0.00    -0.109 A  
HETATM   11  C   UNL     1      -8.361  11.214  67.335  1.00  0.00    -0.135 A  
HETATM   12  C   UNL     1      -7.887  12.529  67.338  1.00  0.00    -0.175 A  
BRANCH  10  13
HETATM   13  N   UNL     1      -8.589   8.998  68.348  1.00  0.00    -0.129 N  
HETATM   14  C   UNL     1      -9.472   8.407  69.286  1.00  0.00    -0.155 C  
HETATM   15  N   UNL     1      -9.196   7.043  69.315  1.00  0.00    -0.140 N  
HETATM   16  S   UNL     1     -10.751   9.235  70.003  1.00  0.00    -0.242 S  
HETATM   17  C   UNL     1      -9.082   8.057  66.104  1.00  0.00    -0.224 C  
HETATM   18  C   UNL     1      -8.536   6.723  68.139  1.00  0.00    -0.121 C  
HETATM   19  C   UNL     1      -6.706   7.959  67.015  1.00  0.00    -0.068 C  
HETATM   20  C   UNL     1      -8.197   8.010  67.359  1.00  0.00    -0.123 C  
HETATM   21  O   UNL     1      -8.283   5.611  67.687  1.00  0.00    -0.102 OA 
BRANCH  15  22
HETATM   22  C   UNL     1      -9.492   6.104  70.368  1.00  0.00    -0.161 A  
HETATM   23  C   UNL     1     -10.710   5.466  72.402  1.00  0.00    -0.286 A  
HETATM   24  C   UNL     1     -10.426   6.382  71.375  1.00  0.00    -0.257 A  
HETATM   25  C   UNL     1     -10.057   4.231  72.473  1.00  0.00    -0.233 A  
HETATM   26  C   UNL     1      -9.150   3.893  71.467  1.00  0.00    -0.170 A  
HETATM   27  C   UNL     1     -10.357   3.374  73.583  1.00  0.00    -0.152 C  
HETATM   28  C   UNL     1      -8.924   4.818  70.414  1.00  0.00    -0.147 A  
HETATM   29  N   UNL     1     -10.617   2.704  74.498  1.00  0.00    -0.142 NA 
HETATM   30  C   UNL     1      -8.375   2.594  71.429  1.00  0.00    -0.062 C  
HETATM   31  F   UNL     1      -7.033   2.812  71.356  1.00  0.00    -0.029 F  
HETATM   32  F   UNL     1      -8.690   1.849  70.333  1.00  0.00    -0.074 F  
HETATM   33  F   UNL     1      -8.555   1.780  72.498  1.00  0.00    -0.057 F  
ENDBRANCH  15  22
ENDBRANCH  10  13
ENDBRANCH   3   6
TORSDOF 3
ENDMDL
MODEL      130
REMARK 921   NORMALIZED FREE ENERGY PREDICTED BY IDOCK:   -3.11 KCAL/MOL
REMARK 922        TOTAL FREE ENERGY PREDICTED BY IDOCK:   -4.57 KCAL/MOL
REMARK 923 INTER-LIGAND FREE ENERGY PREDICTED BY IDOCK:   -3.61 KCAL/MOL
REMARK 924 INTRA-LIGAND FREE ENERGY PREDICTED BY IDOCK:   -0.96 KCAL/MOL
REMARK 927      BINDING AFFINITY PREDICTED BY RF-SCORE:    0.00 PKD
ROOT
HETATM    1  C   UNL     1      -6.080   1.490  69.268  1.00  0.00    -0.024 C  
HETATM    2  N   UNL     1      -6.705   2.786  69.283  1.00  0.00    -0.033 N  
HETATM    3  C   UNL     1      -6.619   3.638  68.205  1.00  0.00    -0.045 C  
HETATM    4  H   UNL     1      -7.223   3.081  70.111  1.00  0.00     0.000 HD 
HETATM    5  O   UNL     1      -6.028   3.360  67.168  1.00  0.00    -0.023 OA 
ENDROOT
BRANCH   3   6
HETATM    6  C   UNL     1      -7.338   4.928  68.326  1.00  0.00    -0.066 A  
HETATM    7  C   UNL     1      -6.803   6.029  68.991  1.00  0.00    -0.062 A  
HETATM    8  F   UNL     1      -5.575   5.978  69.531  1.00  0.00    -0.010 F  
HETATM    9  C   UNL     1      -7.527   7.217  69.133  1.00  0.00    -0.094 A  
HETATM   10  C   UNL     1      -8.826   7.316  68.635  1.00  0.00    -0.129 A  
HETATM   11  C   UNL     1      -9.340   6.219  67.919  1.00  0.00    -0.114 A  
HETATM   12  C   UNL     1      -8.608   5.039  67.761  1.00  0.00    -0.103 A  
BRANCH  10  13
HETATM   13  N   UNL     1      -9.617   8.488  68.794  1.00  0.00    -0.148 N  
HETATM   14  C   UNL     1      -9.641   9.584  67.895  1.00  0.00    -0.133 C  
HETATM   15  N   UNL     1      -9.943  10.723  68.635  1.00  0.00    -0.174 N  
HETATM   16  S   UNL     1      -9.554   9.410  66.222  1.00  0.00    -0.254 S  
HETATM   17  C   UNL     1     -11.889   8.211  69.755  1.00  0.00     0.696 C  
HETATM   18  C   UNL     1     -10.545  10.310  69.814  1.00  0.00    -0.271 C  
HETATM   19  C   UNL     1      -9.886   8.448  71.309  1.00  0.00    -0.255 C  
HETATM   20  C   UNL     1     -10.471   8.774  69.932  1.00  0.00    -0.221 C  
HETATM   21  O   UNL     1     -11.127  10.994  70.650  1.00  0.00     0.028 OA 
BRANCH  15  22
HETATM   22  C   UNL     1      -9.668  12.097  68.294  1.00  0.00    -0.216 A  
HETATM   23  C   UNL     1      -8.196  14.061  68.296  1.00  0.00    -0.153 A  
HETATM   24  C   UNL     1      -8.460  12.721  68.628  1.00  0.00     0.050 A  
HETATM   25  C   UNL     1      -9.143  14.841  67.625  1.00  0.00    -0.185 A  
HETATM   26  C   UNL     1     -10.345  14.249  67.234  1.00  0.00    -0.260 A  
HETATM   27  C   UNL     1      -8.825  16.217  67.372  1.00  0.00    -0.186 C  
HETATM   28  C   UNL     1     -10.560  12.878  67.536  1.00  0.00    -0.234 A  
HETATM   29  N   UNL     1      -8.540  17.329  67.188  1.00  0.00    -0.202 NA 
HETATM   30  C   UNL     1     -11.452  14.981  66.507  1.00  0.00    -0.239 C  
HETATM   31  F   UNL     1     -12.635  14.890  67.173  1.00  0.00    -0.082 F  
HETATM   32  F   UNL     1     -11.680  14.457  65.271  1.00  0.00    -0.328 F  
HETATM   33  F   UNL     1     -11.242  16.306  66.316  1.00  0.00    -0.141 F  
ENDBRANCH  15  22
ENDBRANCH  10  13
ENDBRANCH   3   6
TORSDOF 3
ENDMDL
MODEL      131
REMARK 921   NORMALIZED FREE ENERGY PREDICTED BY IDOCK:   -3.07 KCAL/MOL
REMARK 922        TOTAL FREE ENERGY PREDICTED BY IDOCK:   -4.53 KCAL/MOL
REMARK 923 INTER-LIGAND FREE ENERGY PREDICTED BY IDOCK:   -5.16 KCAL/MOL
REMARK 924 INTRA-LIGAND FREE ENERGY PREDICTED BY IDOCK:    0.64 KCAL/MOL
REMARK 927      BINDING AFFINITY PREDICTED BY RF-SCORE:    0.00 PKD
ROOT
HETATM    1  C   UNL     1     -12.004  16.339  72.522  1.00  0.00    -0.554 C  
HETATM    2  N   UNL     1     -11.500  15.204  71.797  1.00  0.00    -0.481 N  
HETATM    3  C   UNL     1     -12.178  14.682  70.719  1.00  0.00    -0.324 C  
HETATM    4  H   UNL     1     -10.620  14.777  72.087  1.00  0.00     0.000 HD 
HETATM    5  O   UNL     1     -13.233  15.139  70.296  1.00  0.00    -0.180 OA 
ENDROOT
BRANCH   3   6
HETATM    6  C   UNL     1     -11.537  13.537  70.029  1.00  0.00    -0.234 A  
HETATM    7  C   UNL     1     -10.478  13.693  69.137  1.00  0.00     0.010 A  
HETATM    8  F   UNL     1      -9.961  14.906  68.888  1.00  0.00    -0.206 F  
HETATM    9  C   UNL     1      -9.928  12.600  68.461  1.00  0.00    -0.166 A  
HETATM   10  C   UNL     1     -10.454  11.320  68.643  1.00  0.00    -0.203 A  
HETATM   11  C   UNL     1     -11.488  11.163  69.583  1.00  0.00    -0.383 A  
HETATM   12  C   UNL     1     -12.025  12.254  70.272  1.00  0.00    -0.373 A  
BRANCH  10  13
HETATM   13  N   UNL     1      -9.956  10.184  67.944  1.00  0.00    -0.158 N  
HETATM   14  C   UNL     1      -9.924   8.863  68.456  1.00  0.00    -0.177 C  
HETATM   15  N   UNL     1      -8.849   8.212  67.857  1.00  0.00    -0.131 N  
HETATM   16  S   UNL     1     -11.145   8.212  69.415  1.00  0.00     0.217 S  
HETATM   17  C   UNL     1     -10.377  10.072  65.500  1.00  0.00    -0.146 C  
HETATM   18  C   UNL     1      -8.529   8.905  66.701  1.00  0.00    -0.119 C  
HETATM   19  C   UNL     1      -8.357  11.354  66.371  1.00  0.00    -0.140 C  
HETATM   20  C   UNL     1      -9.344  10.213  66.628  1.00  0.00    -0.162 C  
HETATM   21  O   UNL     1      -7.775   8.564  65.794  1.00  0.00    -0.093 OA 
BRANCH  15  22
HETATM   22  C   UNL     1      -8.145   7.047  68.335  1.00  0.00    -0.124 A  
HETATM   23  C   UNL     1      -6.083   5.920  69.044  1.00  0.00    -0.031 A  
HETATM   24  C   UNL     1      -6.766   7.058  68.580  1.00  0.00    -0.064 A  
HETATM   25  C   UNL     1      -6.753   4.713  69.268  1.00  0.00    -0.045 A  
HETATM   26  C   UNL     1      -8.136   4.668  69.079  1.00  0.00    -0.077 A  
HETATM   27  C   UNL     1      -5.978   3.580  69.685  1.00  0.00    -0.023 C  
HETATM   28  C   UNL     1      -8.805   5.848  68.662  1.00  0.00    -0.111 A  
HETATM   29  N   UNL     1      -5.321   2.679  70.016  1.00  0.00    -0.011 NA 
HETATM   30  C   UNL     1      -8.977   3.427  69.283  1.00  0.00    -0.117 C  
HETATM   31  F   UNL     1      -9.694   3.119  68.168  1.00  0.00    -0.245 F  
HETATM   32  F   UNL     1      -9.892   3.594  70.278  1.00  0.00    -0.258 F  
HETATM   33  F   UNL     1      -8.286   2.304  69.596  1.00  0.00    -0.056 F  
ENDBRANCH  15  22
ENDBRANCH  10  13
ENDBRANCH   3   6
TORSDOF 3
ENDMDL
MODEL      132
REMARK 921   NORMALIZED FREE ENERGY PREDICTED BY IDOCK:   -3.02 KCAL/MOL
REMARK 922        TOTAL FREE ENERGY PREDICTED BY IDOCK:   -4.47 KCAL/MOL
REMARK 923 INTER-LIGAND FREE ENERGY PREDICTED BY IDOCK:   -4.58 KCAL/MOL
REMARK 924 INTRA-LIGAND FREE ENERGY PREDICTED BY IDOCK:    0.11 KCAL/MOL
REMARK 927      BINDING AFFINITY PREDICTED BY RF-SCORE:    0.00 PKD
ROOT
HETATM    1  C   UNL     1      -9.999   3.400  73.748  1.00  0.00    -0.118 C  
HETATM    2  N   UNL     1      -9.857   4.341  72.669  1.00  0.00    -0.143 N  
HETATM    3  C   UNL     1      -9.007   4.100  71.613  1.00  0.00    -0.119 C  
HETATM    4  H   UNL     1     -10.398   5.206  72.687  1.00  0.00     0.000 HD 
HETATM    5  O   UNL     1      -8.331   3.085  71.506  1.00  0.00    -0.062 OA 
ENDROOT
BRANCH   3   6
HETATM    6  C   UNL     1      -8.978   5.126  70.544  1.00  0.00    -0.165 A  
HETATM    7  C   UNL     1      -8.047   5.108  69.507  1.00  0.00    -0.083 A  
HETATM    8  F   UNL     1      -7.142   4.121  69.413  1.00  0.00    -0.046 F  
HETATM    9  C   UNL     1      -8.012   6.118  68.542  1.00  0.00    -0.108 A  
HETATM   10  C   UNL     1      -8.896   7.194  68.613  1.00  0.00    -0.126 A  
HETATM   11  C   UNL     1      -9.867   7.179  69.631  1.00  0.00    -0.162 A  
HETATM   12  C   UNL     1      -9.914   6.159  70.585  1.00  0.00    -0.229 A  
BRANCH  10  13
HETATM   13  N   UNL     1      -8.869   8.268  67.679  1.00  0.00    -0.136 N  
HETATM   14  C   UNL     1      -8.443   9.589  67.968  1.00  0.00    -0.119 C  
HETATM   15  N   UNL     1      -9.138  10.445  67.120  1.00  0.00    -0.139 N  
HETATM   16  S   UNL     1      -7.150   9.941  68.988  1.00  0.00    -0.071 S  
HETATM   17  C   UNL     1      -8.237   7.731  65.340  1.00  0.00    -0.140 C  
HETATM   18  C   UNL     1      -9.600   9.695  66.051  1.00  0.00    -0.242 C  
HETATM   19  C   UNL     1     -10.656   7.454  66.084  1.00  0.00     1.015 C  
HETATM   20  C   UNL     1      -9.336   8.196  66.307  1.00  0.00    -0.196 C  
HETATM   21  O   UNL     1     -10.092  10.091  64.999  1.00  0.00    -0.323 OA 
BRANCH  15  22
HETATM   22  C   UNL     1      -9.388  11.854  67.300  1.00  0.00    -0.177 A  
HETATM   23  C   UNL     1      -9.135  13.939  68.569  1.00  0.00    -0.143 A  
HETATM   24  C   UNL     1      -8.887  12.567  68.396  1.00  0.00    -0.123 A  
HETATM   25  C   UNL     1      -9.913  14.657  67.655  1.00  0.00    -0.227 A  
HETATM   26  C   UNL     1     -10.399  13.997  66.524  1.00  0.00    -0.285 A  
HETATM   27  C   UNL     1     -10.172  16.041  67.930  1.00  0.00    -0.258 C  
HETATM   28  C   UNL     1     -10.086  12.623  66.350  1.00  0.00    -0.263 A  
HETATM   29  N   UNL     1     -10.368  17.158  68.185  1.00  0.00    -0.331 NA 
HETATM   30  C   UNL     1     -11.253  14.655  65.464  1.00  0.00    -0.343 C  
HETATM   31  F   UNL     1     -12.426  13.988  65.280  1.00  0.00    -0.395 F  
HETATM   32  F   UNL     1     -10.637  14.662  64.249  1.00  0.00    -0.297 F  
HETATM   33  F   UNL     1     -11.600  15.941  65.714  1.00  0.00    -0.031 F  
ENDBRANCH  15  22
ENDBRANCH  10  13
ENDBRANCH   3   6
TORSDOF 3
ENDMDL
MODEL      133
REMARK 921   NORMALIZED FREE ENERGY PREDICTED BY IDOCK:   -2.94 KCAL/MOL
REMARK 922        TOTAL FREE ENERGY PREDICTED BY IDOCK:   -4.37 KCAL/MOL
REMARK 923 INTER-LIGAND FREE ENERGY PREDICTED BY IDOCK:   -4.30 KCAL/MOL
REMARK 924 INTRA-LIGAND FREE ENERGY PREDICTED BY IDOCK:   -0.06 KCAL/MOL
REMARK 927      BINDING AFFINITY PREDICTED BY RF-SCORE:    0.00 PKD
ROOT
HETATM    1  C   UNL     1      -5.649   4.235  65.855  1.00  0.00    -0.017 C  
HETATM    2  N   UNL     1      -6.426   5.370  66.275  1.00  0.00    -0.042 N  
HETATM    3  C   UNL     1      -7.481   5.836  65.523  1.00  0.00    -0.077 C  
HETATM    4  H   UNL     1      -6.190   5.840  67.149  1.00  0.00     0.000 HD 
HETATM    5  O   UNL     1      -7.840   5.325  64.470  1.00  0.00    -0.088 OA 
ENDROOT
BRANCH   3   6
HETATM    6  C   UNL     1      -8.230   6.988  66.081  1.00  0.00    -0.125 A  
HETATM    7  C   UNL     1      -9.468   6.850  66.706  1.00  0.00    -0.165 A  
HETATM    8  F   UNL     1     -10.028   5.641  66.863  1.00  0.00    -0.133 F  
HETATM    9  C   UNL     1     -10.174   7.961  67.176  1.00  0.00    -0.360 A  
HETATM   10  C   UNL     1      -9.664   9.248  67.000  1.00  0.00    -0.185 A  
HETATM   11  C   UNL     1      -8.391   9.375  66.416  1.00  0.00    -0.116 A  
HETATM   12  C   UNL     1      -7.677   8.262  65.963  1.00  0.00    -0.093 A  
BRANCH  10  13
HETATM   13  N   UNL     1     -10.367  10.411  67.422  1.00  0.00    -0.214 N  
HETATM   14  C   UNL     1     -10.668  11.525  66.598  1.00  0.00    -0.268 C  
HETATM   15  N   UNL     1     -10.726  12.646  67.419  1.00  0.00    -0.227 N  
HETATM   16  S   UNL     1     -11.105  11.385  64.978  1.00  0.00    -0.078 S  
HETATM   17  C   UNL     1     -12.227  10.100  69.035  1.00  0.00     0.609 C  
HETATM   18  C   UNL     1     -10.932  12.207  68.717  1.00  0.00    -0.232 C  
HETATM   19  C   UNL     1      -9.841  10.320  69.895  1.00  0.00    -0.153 C  
HETATM   20  C   UNL     1     -10.825  10.669  68.775  1.00  0.00    -0.229 C  
HETATM   21  O   UNL     1     -11.226  12.870  69.708  1.00  0.00    -0.099 OA 
BRANCH  15  22
HETATM   22  C   UNL     1     -10.571  14.029  67.038  1.00  0.00    -0.279 A  
HETATM   23  C   UNL     1     -10.254  15.769  65.337  1.00  0.00    -0.380 A  
HETATM   24  C   UNL     1     -10.408  14.421  65.704  1.00  0.00    -0.360 A  
HETATM   25  C   UNL     1     -10.241  16.785  66.297  1.00  0.00    -0.341 A  
HETATM   26  C   UNL     1     -10.442  16.445  67.636  1.00  0.00    -0.302 A  
HETATM   27  C   UNL     1     -10.020  18.130  65.851  1.00  0.00    -0.097 C  
HETATM   28  C   UNL     1     -10.648  15.081  67.970  1.00  0.00    -0.250 A  
HETATM   29  N   UNL     1      -9.833  19.209  65.458  1.00  0.00    -0.176 NA 
HETATM   30  C   UNL     1     -10.446  17.446  68.771  1.00  0.00    -0.333 C  
HETATM   31  F   UNL     1      -9.540  17.117  69.732  1.00  0.00     0.061 F  
HETATM   32  F   UNL     1     -11.653  17.493  69.400  1.00  0.00     0.795 F  
HETATM   33  F   UNL     1     -10.159  18.723  68.419  1.00  0.00    -0.350 F  
ENDBRANCH  15  22
ENDBRANCH  10  13
ENDBRANCH   3   6
TORSDOF 3
ENDMDL
MODEL      134
REMARK 921   NORMALIZED FREE ENERGY PREDICTED BY IDOCK:   -2.93 KCAL/MOL
REMARK 922        TOTAL FREE ENERGY PREDICTED BY IDOCK:   -4.35 KCAL/MOL
REMARK 923 INTER-LIGAND FREE ENERGY PREDICTED BY IDOCK:   -3.60 KCAL/MOL
REMARK 924 INTRA-LIGAND FREE ENERGY PREDICTED BY IDOCK:   -0.76 KCAL/MOL
REMARK 927      BINDING AFFINITY PREDICTED BY RF-SCORE:    0.00 PKD
ROOT
HETATM    1  C   UNL     1      -6.733  17.422  68.892  1.00  0.00    -0.226 C  
HETATM    2  N   UNL     1      -7.027  16.027  69.084  1.00  0.00    -0.176 N  
HETATM    3  C   UNL     1      -6.474  15.059  68.277  1.00  0.00    -0.116 C  
HETATM    4  H   UNL     1      -7.659  15.749  69.835  1.00  0.00     0.000 HD 
HETATM    5  O   UNL     1      -5.698  15.302  67.361  1.00  0.00    -0.333 OA 
ENDROOT
BRANCH   3   6
HETATM    6  C   UNL     1      -6.822  13.654  68.600  1.00  0.00    -0.097 A  
HETATM    7  C   UNL     1      -6.283  12.977  69.691  1.00  0.00    -0.113 A  
HETATM    8  F   UNL     1      -5.437  13.591  70.533  1.00  0.00    -0.100 F  
HETATM    9  C   UNL     1      -6.589  11.636  69.941  1.00  0.00    -0.030 A  
HETATM   10  C   UNL     1      -7.425  10.930  69.075  1.00  0.00    -0.124 A  
HETATM   11  C   UNL     1      -8.007  11.634  68.005  1.00  0.00    -0.132 A  
HETATM   12  C   UNL     1      -7.714  12.980  67.767  1.00  0.00    -0.151 A  
BRANCH  10  13
HETATM   13  N   UNL     1      -7.731   9.553  69.263  1.00  0.00    -0.081 N  
HETATM   14  C   UNL     1      -6.933   8.472  68.808  1.00  0.00    -0.063 C  
HETATM   15  N   UNL     1      -7.786   7.399  68.566  1.00  0.00    -0.120 N  
HETATM   16  S   UNL     1      -5.250   8.493  68.827  1.00  0.00    -0.033 S  
HETATM   17  C   UNL     1      -8.790   8.900  71.410  1.00  0.00    -0.283 C  
HETATM   18  C   UNL     1      -8.956   7.624  69.274  1.00  0.00    -0.135 C  
HETATM   19  C   UNL     1     -10.244   9.729  69.492  1.00  0.00    -0.238 C  
HETATM   20  C   UNL     1      -8.936   9.040  69.888  1.00  0.00    -0.164 C  
HETATM   21  O   UNL     1      -9.880   6.845  69.483  1.00  0.00    -0.158 OA 
BRANCH  15  22
HETATM   22  C   UNL     1      -7.551   6.259  67.714  1.00  0.00    -0.101 A  
HETATM   23  C   UNL     1      -7.318   3.840  67.373  1.00  0.00    -0.067 A  
HETATM   24  C   UNL     1      -7.551   4.948  68.206  1.00  0.00    -0.078 A  
HETATM   25  C   UNL     1      -7.060   4.001  66.008  1.00  0.00    -0.067 A  
HETATM   26  C   UNL     1      -7.092   5.287  65.465  1.00  0.00    -0.067 A  
HETATM   27  C   UNL     1      -6.774   2.827  65.234  1.00  0.00    -0.040 C  
HETATM   28  C   UNL     1      -7.383   6.381  66.323  1.00  0.00    -0.080 A  
HETATM   29  N   UNL     1      -6.540   1.858  64.636  1.00  0.00    -0.022 NA 
HETATM   30  C   UNL     1      -6.827   5.597  64.009  1.00  0.00    -0.049 C  
HETATM   31  F   UNL     1      -5.825   6.508  63.864  1.00  0.00    -0.027 F  
HETATM   32  F   UNL     1      -7.916   6.144  63.401  1.00  0.00    -0.100 F  
HETATM   33  F   UNL     1      -6.468   4.536  63.246  1.00  0.00    -0.024 F  
ENDBRANCH  15  22
ENDBRANCH  10  13
ENDBRANCH   3   6
TORSDOF 3
ENDMDL
MODEL      135
REMARK 921   NORMALIZED FREE ENERGY PREDICTED BY IDOCK:   -2.88 KCAL/MOL
REMARK 922        TOTAL FREE ENERGY PREDICTED BY IDOCK:   -4.31 KCAL/MOL
REMARK 923 INTER-LIGAND FREE ENERGY PREDICTED BY IDOCK:   -4.12 KCAL/MOL
REMARK 924 INTRA-LIGAND FREE ENERGY PREDICTED BY IDOCK:   -0.19 KCAL/MOL
REMARK 927      BINDING AFFINITY PREDICTED BY RF-SCORE:    0.00 PKD
ROOT
HETATM    1  C   UNL     1      -8.349   4.188  71.992  1.00  0.00    -0.104 C  
HETATM    2  N   UNL     1      -8.423   5.330  71.120  1.00  0.00    -0.121 N  
HETATM    3  C   UNL     1      -8.217   6.607  71.590  1.00  0.00    -0.111 C  
HETATM    4  H   UNL     1      -8.632   5.190  70.131  1.00  0.00     0.000 HD 
HETATM    5  O   UNL     1      -7.949   6.864  72.757  1.00  0.00    -0.103 OA 
ENDROOT
BRANCH   3   6
HETATM    6  C   UNL     1      -8.279   7.697  70.587  1.00  0.00    -0.113 A  
HETATM    7  C   UNL     1      -7.347   7.829  69.559  1.00  0.00    -0.088 A  
HETATM    8  F   UNL     1      -6.355   6.938  69.412  1.00  0.00    -0.033 F  
HETATM    9  C   UNL     1      -7.402   8.897  68.659  1.00  0.00    -0.077 A  
HETATM   10  C   UNL     1      -8.382   9.881  68.790  1.00  0.00    -0.116 A  
HETATM   11  C   UNL     1      -9.350   9.713  69.796  1.00  0.00    -0.238 A  
HETATM   12  C   UNL     1      -9.306   8.635  70.684  1.00  0.00    -0.218 A  
BRANCH  10  13
HETATM   13  N   UNL     1      -8.451  11.010  67.925  1.00  0.00    -0.125 N  
HETATM   14  C   UNL     1      -7.960  12.303  68.233  1.00  0.00    -0.163 C  
HETATM   15  N   UNL     1      -8.740  13.221  67.535  1.00  0.00    -0.190 N  
HETATM   16  S   UNL     1      -6.538  12.572  69.094  1.00  0.00    -0.083 S  
HETATM   17  C   UNL     1      -8.140  10.608  65.496  1.00  0.00    -0.129 C  
HETATM   18  C   UNL     1      -9.353  12.544  66.493  1.00  0.00    -0.233 C  
HETATM   19  C   UNL     1     -10.448  10.322  66.532  1.00  0.00    -0.241 C  
HETATM   20  C   UNL     1      -9.093  11.029  66.623  1.00  0.00    -0.166 C  
HETATM   21  O   UNL     1      -9.967  13.013  65.539  1.00  0.00    -0.276 OA 
BRANCH  15  22
HETATM   22  C   UNL     1      -8.931  14.620  67.829  1.00  0.00    -0.181 A  
HETATM   23  C   UNL     1      -8.666  16.565  69.301  1.00  0.00    -0.060 A  
HETATM   24  C   UNL     1      -8.475  15.202  69.018  1.00  0.00    -0.214 A  
HETATM   25  C   UNL     1      -9.340  17.404  68.408  1.00  0.00    -0.285 A  
HETATM   26  C   UNL     1      -9.775  16.877  67.191  1.00  0.00    -0.253 A  
HETATM   27  C   UNL     1      -9.548  18.770  68.793  1.00  0.00    -0.364 C  
HETATM   28  C   UNL     1      -9.519  15.509  66.910  1.00  0.00    -0.244 A  
HETATM   29  N   UNL     1      -9.705  19.870  69.137  1.00  0.00    -0.246 NA 
HETATM   30  C   UNL     1     -10.517  17.674  66.141  1.00  0.00    -0.295 C  
HETATM   31  F   UNL     1     -11.706  17.094  65.818  1.00  0.00     0.760 F  
HETATM   32  F   UNL     1      -9.816  17.756  64.977  1.00  0.00     0.618 F  
HETATM   33  F   UNL     1     -10.816  18.950  66.486  1.00  0.00    -0.426 F  
ENDBRANCH  15  22
ENDBRANCH  10  13
ENDBRANCH   3   6
TORSDOF 3
ENDMDL
MODEL      136
REMARK 921   NORMALIZED FREE ENERGY PREDICTED BY IDOCK:   -2.80 KCAL/MOL
REMARK 922        TOTAL FREE ENERGY PREDICTED BY IDOCK:   -4.21 KCAL/MOL
REMARK 923 INTER-LIGAND FREE ENERGY PREDICTED BY IDOCK:   -3.95 KCAL/MOL
REMARK 924 INTRA-LIGAND FREE ENERGY PREDICTED BY IDOCK:   -0.26 KCAL/MOL
REMARK 927      BINDING AFFINITY PREDICTED BY RF-SCORE:    0.00 PKD
ROOT
HETATM    1  C   UNL     1      -9.830  16.703  65.865  1.00  0.00    -0.273 C  
HETATM    2  N   UNL     1      -9.524  15.337  66.196  1.00  0.00    -0.306 N  
HETATM    3  C   UNL     1      -8.369  15.002  66.864  1.00  0.00    -0.212 C  
HETATM    4  H   UNL     1     -10.178  14.601  65.930  1.00  0.00     0.000 HD 
HETATM    5  O   UNL     1      -7.537  15.822  67.232  1.00  0.00    -0.170 OA 
ENDROOT
BRANCH   3   6
HETATM    6  C   UNL     1      -8.186  13.566  67.184  1.00  0.00    -0.126 A  
HETATM    7  C   UNL     1      -9.184  12.615  66.978  1.00  0.00    -0.212 A  
HETATM    8  F   UNL     1     -10.362  12.961  66.436  1.00  0.00    -0.252 F  
HETATM    9  C   UNL     1      -9.000  11.277  67.337  1.00  0.00    -0.144 A  
HETATM   10  C   UNL     1      -7.815  10.866  67.947  1.00  0.00    -0.109 A  
HETATM   11  C   UNL     1      -6.793  11.819  68.104  1.00  0.00    -0.066 A  
HETATM   12  C   UNL     1      -6.970  13.153  67.727  1.00  0.00    -0.145 A  
BRANCH  10  13
HETATM   13  N   UNL     1      -7.600   9.524  68.371  1.00  0.00    -0.081 N  
HETATM   14  C   UNL     1      -6.854   8.553  67.655  1.00  0.00    -0.071 C  
HETATM   15  N   UNL     1      -7.385   7.306  67.971  1.00  0.00    -0.094 N  
HETATM   16  S   UNL     1      -5.447   8.911  66.803  1.00  0.00    -0.040 S  
HETATM   17  C   UNL     1      -7.277   9.131  70.800  1.00  0.00    -0.112 C  
HETATM   18  C   UNL     1      -8.085   7.435  69.160  1.00  0.00    -0.120 C  
HETATM   19  C   UNL     1      -9.635   9.241  69.846  1.00  0.00    -0.217 C  
HETATM   20  C   UNL     1      -8.165   8.922  69.564  1.00  0.00    -0.107 C  
HETATM   21  O   UNL     1      -8.541   6.548  69.874  1.00  0.00    -0.136 OA 
BRANCH  15  22
HETATM   22  C   UNL     1      -7.282   6.085  67.210  1.00  0.00    -0.076 A  
HETATM   23  C   UNL     1      -6.221   3.920  66.750  1.00  0.00    -0.032 A  
HETATM   24  C   UNL     1      -6.320   5.107  67.495  1.00  0.00    -0.040 A  
HETATM   25  C   UNL     1      -7.075   3.667  65.672  1.00  0.00    -0.066 A  
HETATM   26  C   UNL     1      -8.077   4.594  65.378  1.00  0.00    -0.107 A  
HETATM   27  C   UNL     1      -6.875   2.460  64.922  1.00  0.00    -0.047 C  
HETATM   28  C   UNL     1      -8.186   5.758  66.182  1.00  0.00    -0.111 A  
HETATM   29  N   UNL     1      -6.683   1.477  64.332  1.00  0.00    -0.022 NA 
HETATM   30  C   UNL     1      -9.061   4.442  64.239  1.00  0.00    -0.151 C  
HETATM   31  F   UNL     1      -9.035   5.519  63.406  1.00  0.00    -0.022 F  
HETATM   32  F   UNL     1     -10.344   4.351  64.686  1.00  0.00    -0.188 F  
HETATM   33  F   UNL     1      -8.866   3.362  63.444  1.00  0.00    -0.092 F  
ENDBRANCH  15  22
ENDBRANCH  10  13
ENDBRANCH   3   6
TORSDOF 3
ENDMDL
MODEL      137
REMARK 921   NORMALIZED FREE ENERGY PREDICTED BY IDOCK:   -2.78 KCAL/MOL
REMARK 922        TOTAL FREE ENERGY PREDICTED BY IDOCK:   -4.19 KCAL/MOL
REMARK 923 INTER-LIGAND FREE ENERGY PREDICTED BY IDOCK:   -4.98 KCAL/MOL
REMARK 924 INTRA-LIGAND FREE ENERGY PREDICTED BY IDOCK:    0.79 KCAL/MOL
REMARK 927      BINDING AFFINITY PREDICTED BY RF-SCORE:    0.00 PKD
ROOT
HETATM    1  C   UNL     1     -11.382   1.493  62.838  1.00  0.00    -0.264 C  
HETATM    2  N   UNL     1     -10.884   2.613  63.591  1.00  0.00    -0.418 N  
HETATM    3  C   UNL     1      -9.720   2.528  64.320  1.00  0.00    -0.121 C  
HETATM    4  H   UNL     1     -11.406   3.489  63.585  1.00  0.00     0.000 HD 
HETATM    5  O   UNL     1      -9.026   1.520  64.373  1.00  0.00    -0.093 OA 
ENDROOT
BRANCH   3   6
HETATM    6  C   UNL     1      -9.290   3.762  65.021  1.00  0.00    -0.157 A  
HETATM    7  C   UNL     1     -10.191   4.724  65.473  1.00  0.00    -0.135 A  
HETATM    8  F   UNL     1     -11.514   4.553  65.322  1.00  0.00    -0.302 F  
HETATM    9  C   UNL     1      -9.752   5.902  66.085  1.00  0.00    -0.084 A  
HETATM   10  C   UNL     1      -8.388   6.157  66.228  1.00  0.00    -0.124 A  
HETATM   11  C   UNL     1      -7.487   5.159  65.817  1.00  0.00    -0.082 A  
HETATM   12  C   UNL     1      -7.927   3.973  65.223  1.00  0.00    -0.097 A  
BRANCH  10  13
HETATM   13  N   UNL     1      -7.894   7.362  66.804  1.00  0.00    -0.108 N  
HETATM   14  C   UNL     1      -8.661   8.270  67.576  1.00  0.00    -0.129 C  
HETATM   15  N   UNL     1      -8.110   9.536  67.397  1.00  0.00    -0.110 N  
HETATM   16  S   UNL     1      -9.843   7.784  68.672  1.00  0.00    -0.173 S  
HETATM   17  C   UNL     1      -5.576   7.336  67.690  1.00  0.00    -0.029 C  
HETATM   18  C   UNL     1      -6.812   9.369  66.943  1.00  0.00    -0.080 C  
HETATM   19  C   UNL     1      -5.972   7.801  65.219  1.00  0.00    -0.038 C  
HETATM   20  C   UNL     1      -6.549   7.880  66.635  1.00  0.00    -0.058 C  
HETATM   21  O   UNL     1      -5.927  10.214  66.840  1.00  0.00    -0.053 OA 
BRANCH  15  22
HETATM   22  C   UNL     1      -8.750  10.813  67.599  1.00  0.00    -0.126 A  
HETATM   23  C   UNL     1     -10.759  12.214  67.742  1.00  0.00    -0.241 A  
HETATM   24  C   UNL     1     -10.141  10.967  67.548  1.00  0.00    -0.208 A  
HETATM   25  C   UNL     1     -10.007  13.368  67.982  1.00  0.00    -0.239 A  
HETATM   26  C   UNL     1      -8.619  13.254  68.085  1.00  0.00    -0.177 A  
HETATM   27  C   UNL     1     -10.706  14.614  68.113  1.00  0.00    -0.242 C  
HETATM   28  C   UNL     1      -8.027  11.972  67.937  1.00  0.00    -0.147 A  
HETATM   29  N   UNL     1     -11.302  15.608  68.207  1.00  0.00    -0.350 NA 
HETATM   30  C   UNL     1      -7.691  14.422  68.337  1.00  0.00    -0.132 C  
HETATM   31  F   UNL     1      -6.735  14.521  67.373  1.00  0.00    -0.188 F  
HETATM   32  F   UNL     1      -7.018  14.290  69.514  1.00  0.00    -0.125 F  
HETATM   33  F   UNL     1      -8.289  15.638  68.385  1.00  0.00    -0.148 F  
ENDBRANCH  15  22
ENDBRANCH  10  13
ENDBRANCH   3   6
TORSDOF 3
ENDMDL
MODEL      138
REMARK 921   NORMALIZED FREE ENERGY PREDICTED BY IDOCK:   -2.65 KCAL/MOL
REMARK 922        TOTAL FREE ENERGY PREDICTED BY IDOCK:   -4.03 KCAL/MOL
REMARK 923 INTER-LIGAND FREE ENERGY PREDICTED BY IDOCK:   -3.60 KCAL/MOL
REMARK 924 INTRA-LIGAND FREE ENERGY PREDICTED BY IDOCK:   -0.43 KCAL/MOL
REMARK 927      BINDING AFFINITY PREDICTED BY RF-SCORE:    0.00 PKD
ROOT
HETATM    1  C   UNL     1     -11.120   3.326  73.349  1.00  0.00    -0.180 C  
HETATM    2  N   UNL     1     -11.109   4.563  72.614  1.00  0.00    -0.072 N  
HETATM    3  C   UNL     1      -9.931   5.146  72.206  1.00  0.00    -0.180 C  
HETATM    4  H   UNL     1     -11.994   5.018  72.391  1.00  0.00     0.000 HD 
HETATM    5  O   UNL     1      -8.826   4.662  72.421  1.00  0.00    -0.117 OA 
ENDROOT
BRANCH   3   6
HETATM    6  C   UNL     1     -10.052   6.398  71.421  1.00  0.00    -0.214 A  
HETATM    7  C   UNL     1     -10.215   6.406  70.038  1.00  0.00    -0.180 A  
HETATM    8  F   UNL     1     -10.307   5.258  69.348  1.00  0.00    -0.270 F  
HETATM    9  C   UNL     1     -10.274   7.603  69.319  1.00  0.00    -0.210 A  
HETATM   10  C   UNL     1     -10.138   8.828  69.974  1.00  0.00    -0.190 A  
HETATM   11  C   UNL     1     -10.026   8.813  71.376  1.00  0.00    -0.354 A  
HETATM   12  C   UNL     1      -9.986   7.616  72.096  1.00  0.00    -0.232 A  
BRANCH  10  13
HETATM   13  N   UNL     1     -10.147  10.070  69.279  1.00  0.00    -0.200 N  
HETATM   14  C   UNL     1      -8.995  10.826  68.946  1.00  0.00    -0.153 C  
HETATM   15  N   UNL     1      -9.372  12.165  68.909  1.00  0.00     0.105 N  
HETATM   16  S   UNL     1      -7.542  10.130  68.457  1.00  0.00    -0.091 S  
HETATM   17  C   UNL     1     -11.826  10.357  67.474  1.00  0.00     1.118 C  
HETATM   18  C   UNL     1     -10.748  12.210  68.748  1.00  0.00    -0.219 C  
HETATM   19  C   UNL     1     -12.477  10.848  69.885  1.00  0.00    -0.292 C  
HETATM   20  C   UNL     1     -11.338  10.789  68.864  1.00  0.00    -0.284 C  
HETATM   21  O   UNL     1     -11.452  13.180  68.483  1.00  0.00    -0.260 OA 
BRANCH  15  22
HETATM   22  C   UNL     1      -8.525  13.324  69.045  1.00  0.00     0.409 A  
HETATM   23  C   UNL     1      -6.465  14.404  69.827  1.00  0.00    -0.150 A  
HETATM   24  C   UNL     1      -7.286  13.271  69.694  1.00  0.00     0.445 A  
HETATM   25  C   UNL     1      -6.860  15.649  69.327  1.00  0.00    -0.164 A  
HETATM   26  C   UNL     1      -8.069  15.740  68.635  1.00  0.00    -0.161 A  
HETATM   27  C   UNL     1      -5.995  16.771  69.553  1.00  0.00    -0.210 C  
HETATM   28  C   UNL     1      -8.851  14.567  68.470  1.00  0.00    -0.182 A  
HETATM   29  N   UNL     1      -5.276  17.661  69.758  1.00  0.00    -0.186 NA 
HETATM   30  C   UNL     1      -8.612  17.025  68.049  1.00  0.00    -0.217 C  
HETATM   31  F   UNL     1      -9.863  17.298  68.512  1.00  0.00    -0.251 F  
HETATM   32  F   UNL     1      -8.726  16.955  66.694  1.00  0.00    -0.208 F  
HETATM   33  F   UNL     1      -7.878  18.135  68.305  1.00  0.00    -0.252 F  
ENDBRANCH  15  22
ENDBRANCH  10  13
ENDBRANCH   3   6
TORSDOF 3
ENDMDL
MODEL      139
REMARK 921   NORMALIZED FREE ENERGY PREDICTED BY IDOCK:   -2.65 KCAL/MOL
REMARK 922        TOTAL FREE ENERGY PREDICTED BY IDOCK:   -4.03 KCAL/MOL
REMARK 923 INTER-LIGAND FREE ENERGY PREDICTED BY IDOCK:   -3.05 KCAL/MOL
REMARK 924 INTRA-LIGAND FREE ENERGY PREDICTED BY IDOCK:   -0.98 KCAL/MOL
REMARK 927      BINDING AFFINITY PREDICTED BY RF-SCORE:    0.00 PKD
ROOT
HETATM    1  C   UNL     1      -6.937   1.508  65.692  1.00  0.00    -0.042 C  
HETATM    2  N   UNL     1      -7.113   2.934  65.626  1.00  0.00    -0.060 N  
HETATM    3  C   UNL     1      -6.395   3.785  66.435  1.00  0.00    -0.033 C  
HETATM    4  H   UNL     1      -7.785   3.323  64.964  1.00  0.00     0.000 HD 
HETATM    5  O   UNL     1      -5.561   3.404  67.247  1.00  0.00    -0.020 OA 
ENDROOT
BRANCH   3   6
HETATM    6  C   UNL     1      -6.637   5.235  66.245  1.00  0.00    -0.052 A  
HETATM    7  C   UNL     1      -7.720   5.899  66.816  1.00  0.00    -0.100 A  
HETATM    8  F   UNL     1      -8.588   5.248  67.607  1.00  0.00    -0.106 F  
HETATM    9  C   UNL     1      -7.951   7.257  66.577  1.00  0.00    -0.115 A  
HETATM   10  C   UNL     1      -7.111   7.977  65.727  1.00  0.00    -0.063 A  
HETATM   11  C   UNL     1      -5.990   7.313  65.196  1.00  0.00    -0.037 A  
HETATM   12  C   UNL     1      -5.749   5.960  65.451  1.00  0.00    -0.024 A  
BRANCH  10  13
HETATM   13  N   UNL     1      -7.331   9.349  65.418  1.00  0.00    -0.094 N  
HETATM   14  C   UNL     1      -7.166  10.425  66.327  1.00  0.00    -0.127 C  
HETATM   15  N   UNL     1      -8.048  11.431  65.943  1.00  0.00     0.043 N  
HETATM   16  S   UNL     1      -5.934  10.487  67.473  1.00  0.00    -0.052 S  
HETATM   17  C   UNL     1      -6.687  10.127  63.151  1.00  0.00    -0.133 C  
HETATM   18  C   UNL     1      -8.388  11.210  64.619  1.00  0.00     0.366 C  
HETATM   19  C   UNL     1      -8.975   9.070  63.516  1.00  0.00     0.113 C  
HETATM   20  C   UNL     1      -7.822   9.853  64.149  1.00  0.00    -0.142 C  
HETATM   21  O   UNL     1      -8.986  11.958  63.851  1.00  0.00     0.321 OA 
BRANCH  15  22
HETATM   22  C   UNL     1      -8.567  12.505  66.754  1.00  0.00    -0.109 A  
HETATM   23  C   UNL     1      -8.263  14.587  68.018  1.00  0.00    -0.145 A  
HETATM   24  C   UNL     1      -7.754  13.543  67.226  1.00  0.00    -0.093 A  
HETATM   25  C   UNL     1      -9.611  14.627  68.385  1.00  0.00    -0.217 A  
HETATM   26  C   UNL     1     -10.468  13.637  67.901  1.00  0.00    -0.249 A  
HETATM   27  C   UNL     1     -10.045  15.692  69.243  1.00  0.00    -0.258 C  
HETATM   28  C   UNL     1      -9.935  12.625  67.060  1.00  0.00    -0.220 A  
HETATM   29  N   UNL     1     -10.363  16.564  69.944  1.00  0.00    -0.158 NA 
HETATM   30  C   UNL     1     -11.944  13.563  68.226  1.00  0.00    -0.342 C  
HETATM   31  F   UNL     1     -12.279  12.360  68.768  1.00  0.00    -0.318 F  
HETATM   32  F   UNL     1     -12.715  13.694  67.111  1.00  0.00    -0.246 F  
HETATM   33  F   UNL     1     -12.392  14.495  69.101  1.00  0.00    -0.336 F  
ENDBRANCH  15  22
ENDBRANCH  10  13
ENDBRANCH   3   6
TORSDOF 3
ENDMDL
MODEL      140
REMARK 921   NORMALIZED FREE ENERGY PREDICTED BY IDOCK:   -2.54 KCAL/MOL
REMARK 922        TOTAL FREE ENERGY PREDICTED BY IDOCK:   -3.90 KCAL/MOL
REMARK 923 INTER-LIGAND FREE ENERGY PREDICTED BY IDOCK:   -3.24 KCAL/MOL
REMARK 924 INTRA-LIGAND FREE ENERGY PREDICTED BY IDOCK:   -0.65 KCAL/MOL
REMARK 927      BINDING AFFINITY PREDICTED BY RF-SCORE:    0.00 PKD
ROOT
HETATM    1  C   UNL     1      -6.944   1.580  65.679  1.00  0.00    -0.042 C  
HETATM    2  N   UNL     1      -7.139   3.005  65.632  1.00  0.00    -0.060 N  
HETATM    3  C   UNL     1      -7.676   3.691  66.698  1.00  0.00    -0.081 C  
HETATM    4  H   UNL     1      -6.873   3.517  64.792  1.00  0.00     0.000 HD 
HETATM    5  O   UNL     1      -8.010   3.157  67.748  1.00  0.00    -0.074 OA 
ENDROOT
BRANCH   3   6
HETATM    6  C   UNL     1      -7.789   5.161  66.545  1.00  0.00    -0.103 A  
HETATM    7  C   UNL     1      -9.012   5.809  66.382  1.00  0.00    -0.137 A  
HETATM    8  F   UNL     1     -10.163   5.119  66.392  1.00  0.00    -0.180 F  
HETATM    9  C   UNL     1      -9.083   7.191  66.188  1.00  0.00    -0.155 A  
HETATM   10  C   UNL     1      -7.918   7.956  66.121  1.00  0.00    -0.104 A  
HETATM   11  C   UNL     1      -6.692   7.304  66.339  1.00  0.00    -0.060 A  
HETATM   12  C   UNL     1      -6.622   5.924  66.551  1.00  0.00    -0.055 A  
BRANCH  10  13
HETATM   13  N   UNL     1      -7.939   9.359  65.881  1.00  0.00    -0.105 N  
HETATM   14  C   UNL     1      -7.766  10.358  66.872  1.00  0.00    -0.111 C  
HETATM   15  N   UNL     1      -8.471  11.483  66.457  1.00  0.00    -0.172 N  
HETATM   16  S   UNL     1      -6.687  10.209  68.157  1.00  0.00    -0.062 S  
HETATM   17  C   UNL     1      -6.933  10.171  63.762  1.00  0.00    -0.105 C  
HETATM   18  C   UNL     1      -8.667  11.375  65.089  1.00  0.00     0.188 C  
HETATM   19  C   UNL     1      -9.355   9.384  63.785  1.00  0.00     0.206 C  
HETATM   20  C   UNL     1      -8.207   9.986  64.600  1.00  0.00    -0.163 C  
HETATM   21  O   UNL     1      -9.075  12.230  64.309  1.00  0.00     0.485 OA 
BRANCH  15  22
HETATM   22  C   UNL     1      -8.960  12.569  67.271  1.00  0.00    -0.192 A  
HETATM   23  C   UNL     1     -10.754  13.680  68.524  1.00  0.00    -0.269 A  
HETATM   24  C   UNL     1     -10.281  12.619  67.734  1.00  0.00    -0.222 A  
HETATM   25  C   UNL     1      -9.924  14.750  68.873  1.00  0.00    -0.233 A  
HETATM   26  C   UNL     1      -8.587  14.722  68.470  1.00  0.00    -0.168 A  
HETATM   27  C   UNL     1     -10.494  15.825  69.633  1.00  0.00    -0.289 C  
HETATM   28  C   UNL     1      -8.126  13.610  67.718  1.00  0.00    -0.173 A  
HETATM   29  N   UNL     1     -10.988  16.683  70.243  1.00  0.00    -0.203 NA 
HETATM   30  C   UNL     1      -7.588  15.816  68.778  1.00  0.00    -0.173 C  
HETATM   31  F   UNL     1      -7.010  16.300  67.644  1.00  0.00    -0.120 F  
HETATM   32  F   UNL     1      -6.564  15.363  69.552  1.00  0.00    -0.124 F  
HETATM   33  F   UNL     1      -8.092  16.897  69.421  1.00  0.00    -0.185 F  
ENDBRANCH  15  22
ENDBRANCH  10  13
ENDBRANCH   3   6
TORSDOF 3
ENDMDL
MODEL      141
REMARK 921   NORMALIZED FREE ENERGY PREDICTED BY IDOCK:   -2.52 KCAL/MOL
REMARK 922        TOTAL FREE ENERGY PREDICTED BY IDOCK:   -3.88 KCAL/MOL
REMARK 923 INTER-LIGAND FREE ENERGY PREDICTED BY IDOCK:   -4.50 KCAL/MOL
REMARK 924 INTRA-LIGAND FREE ENERGY PREDICTED BY IDOCK:    0.62 KCAL/MOL
REMARK 927      BINDING AFFINITY PREDICTED BY RF-SCORE:    0.00 PKD
ROOT
HETATM    1  C   UNL     1     -10.455  18.103  66.498  1.00  0.00    -0.341 C  
HETATM    2  N   UNL     1      -9.954  16.771  66.707  1.00  0.00    -0.271 N  
HETATM    3  C   UNL     1      -9.837  16.237  67.970  1.00  0.00    -0.236 C  
HETATM    4  H   UNL     1      -9.679  16.210  65.900  1.00  0.00     0.000 HD 
HETATM    5  O   UNL     1     -10.156  16.835  68.990  1.00  0.00    -0.257 OA 
ENDROOT
BRANCH   3   6
HETATM    6  C   UNL     1      -9.346  14.841  68.052  1.00  0.00    -0.196 A  
HETATM    7  C   UNL     1     -10.126  13.745  67.688  1.00  0.00    -0.242 A  
HETATM    8  F   UNL     1     -11.367  13.914  67.204  1.00  0.00    -0.293 F  
HETATM    9  C   UNL     1      -9.654  12.437  67.825  1.00  0.00    -0.202 A  
HETATM   10  C   UNL     1      -8.390  12.195  68.365  1.00  0.00    -0.143 A  
HETATM   11  C   UNL     1      -7.588  13.307  68.682  1.00  0.00    -0.094 A  
HETATM   12  C   UNL     1      -8.054  14.615  68.526  1.00  0.00    -0.146 A  
BRANCH  10  13
HETATM   13  N   UNL     1      -7.884  10.880  68.566  1.00  0.00    -0.118 N  
HETATM   14  C   UNL     1      -8.678   9.728  68.797  1.00  0.00    -0.128 C  
HETATM   15  N   UNL     1      -7.921   8.850  69.567  1.00  0.00    -0.090 N  
HETATM   16  S   UNL     1     -10.154   9.454  68.036  1.00  0.00    -0.202 S  
HETATM   17  C   UNL     1      -5.890  10.210  67.248  1.00  0.00    -0.050 C  
HETATM   18  C   UNL     1      -6.589   9.203  69.420  1.00  0.00    -0.044 C  
HETATM   19  C   UNL     1      -5.584  11.467  69.441  1.00  0.00    -0.051 C  
HETATM   20  C   UNL     1      -6.478  10.524  68.631  1.00  0.00    -0.051 C  
HETATM   21  O   UNL     1      -5.593   8.579  69.773  1.00  0.00    -0.029 OA 
BRANCH  15  22
HETATM   22  C   UNL     1      -8.396   7.778  70.406  1.00  0.00    -0.123 A  
HETATM   23  C   UNL     1      -9.958   6.881  72.074  1.00  0.00    -0.179 A  
HETATM   24  C   UNL     1      -9.499   7.928  71.255  1.00  0.00    -0.184 A  
HETATM   25  C   UNL     1      -9.317   5.638  72.088  1.00  0.00    -0.160 A  
HETATM   26  C   UNL     1      -8.239   5.429  71.226  1.00  0.00    -0.120 A  
HETATM   27  C   UNL     1      -9.807   4.638  72.993  1.00  0.00    -0.143 C  
HETATM   28  C   UNL     1      -7.833   6.488  70.373  1.00  0.00    -0.110 A  
HETATM   29  N   UNL     1     -10.224   3.852  73.742  1.00  0.00    -0.140 NA 
HETATM   30  C   UNL     1      -7.459   4.135  71.147  1.00  0.00    -0.048 C  
HETATM   31  F   UNL     1      -6.128   4.338  71.350  1.00  0.00    -0.014 F  
HETATM   32  F   UNL     1      -7.562   3.556  69.918  1.00  0.00    -0.044 F  
HETATM   33  F   UNL     1      -7.824   3.183  72.039  1.00  0.00    -0.050 F  
ENDBRANCH  15  22
ENDBRANCH  10  13
ENDBRANCH   3   6
TORSDOF 3
ENDMDL
MODEL      142
REMARK 921   NORMALIZED FREE ENERGY PREDICTED BY IDOCK:   -2.48 KCAL/MOL
REMARK 922        TOTAL FREE ENERGY PREDICTED BY IDOCK:   -3.83 KCAL/MOL
REMARK 923 INTER-LIGAND FREE ENERGY PREDICTED BY IDOCK:   -4.50 KCAL/MOL
REMARK 924 INTRA-LIGAND FREE ENERGY PREDICTED BY IDOCK:    0.67 KCAL/MOL
REMARK 927      BINDING AFFINITY PREDICTED BY RF-SCORE:    0.00 PKD
ROOT
HETATM    1  C   UNL     1      -5.316   2.048  72.996  1.00  0.00     0.000 C  
HETATM    2  N   UNL     1      -5.750   2.869  71.897  1.00  0.00    -0.008 N  
HETATM    3  C   UNL     1      -6.012   4.210  72.063  1.00  0.00    -0.012 C  
HETATM    4  H   UNL     1      -5.867   2.449  70.975  1.00  0.00     0.000 HD 
HETATM    5  O   UNL     1      -5.887   4.798  73.130  1.00  0.00    -0.015 OA 
ENDROOT
BRANCH   3   6
HETATM    6  C   UNL     1      -6.414   4.958  70.848  1.00  0.00    -0.027 A  
HETATM    7  C   UNL     1      -7.312   4.449  69.912  1.00  0.00    -0.050 A  
HETATM    8  F   UNL     1      -7.891   3.252  70.094  1.00  0.00    -0.044 F  
HETATM    9  C   UNL     1      -7.632   5.156  68.750  1.00  0.00    -0.078 A  
HETATM   10  C   UNL     1      -7.028   6.385  68.482  1.00  0.00    -0.080 A  
HETATM   11  C   UNL     1      -6.162   6.917  69.454  1.00  0.00    -0.034 A  
HETATM   12  C   UNL     1      -5.858   6.218  70.626  1.00  0.00    -0.019 A  
BRANCH  10  13
HETATM   13  N   UNL     1      -7.288   7.120  67.291  1.00  0.00    -0.089 N  
HETATM   14  C   UNL     1      -7.523   8.517  67.230  1.00  0.00    -0.093 C  
HETATM   15  N   UNL     1      -8.348   8.753  66.135  1.00  0.00    -0.119 N  
HETATM   16  S   UNL     1      -6.712   9.634  68.195  1.00  0.00    -0.062 S  
HETATM   17  C   UNL     1      -6.072   6.437  65.238  1.00  0.00    -0.030 C  
HETATM   18  C   UNL     1      -8.243   7.662  65.287  1.00  0.00    -0.135 C  
HETATM   19  C   UNL     1      -8.236   5.254  65.870  1.00  0.00    -0.117 C  
HETATM   20  C   UNL     1      -7.420   6.546  65.964  1.00  0.00    -0.081 C  
HETATM   21  O   UNL     1      -8.655   7.550  64.136  1.00  0.00     0.170 OA 
BRANCH  15  22
HETATM   22  C   UNL     1      -9.200   9.893  65.901  1.00  0.00    -0.176 A  
HETATM   23  C   UNL     1     -10.131  11.614  64.421  1.00  0.00    -0.322 A  
HETATM   24  C   UNL     1      -9.302  10.502  64.644  1.00  0.00    -0.294 A  
HETATM   25  C   UNL     1     -10.886  12.176  65.455  1.00  0.00    -0.324 A  
HETATM   26  C   UNL     1     -10.848  11.576  66.715  1.00  0.00    -0.330 A  
HETATM   27  C   UNL     1     -11.663  13.346  65.165  1.00  0.00    -0.321 C  
HETATM   28  C   UNL     1     -10.042  10.421  66.896  1.00  0.00    -0.269 A  
HETATM   29  N   UNL     1     -12.277  14.297  64.898  1.00  0.00    -0.425 NA 
HETATM   30  C   UNL     1     -11.612  12.085  67.918  1.00  0.00    -0.337 C  
HETATM   31  F   UNL     1     -10.785  12.324  68.973  1.00  0.00    -0.227 F  
HETATM   32  F   UNL     1     -12.524  11.176  68.360  1.00  0.00    -0.215 F  
HETATM   33  F   UNL     1     -12.297  13.238  67.723  1.00  0.00    -0.337 F  
ENDBRANCH  15  22
ENDBRANCH  10  13
ENDBRANCH   3   6
TORSDOF 3
ENDMDL
MODEL      143
REMARK 921   NORMALIZED FREE ENERGY PREDICTED BY IDOCK:   -2.29 KCAL/MOL
REMARK 922        TOTAL FREE ENERGY PREDICTED BY IDOCK:   -3.61 KCAL/MOL
REMARK 923 INTER-LIGAND FREE ENERGY PREDICTED BY IDOCK:   -4.68 KCAL/MOL
REMARK 924 INTRA-LIGAND FREE ENERGY PREDICTED BY IDOCK:    1.07 KCAL/MOL
REMARK 927      BINDING AFFINITY PREDICTED BY RF-SCORE:    0.00 PKD
ROOT
HETATM    1  C   UNL     1      -6.535   2.013  72.771  1.00  0.00    -0.010 C  
HETATM    2  N   UNL     1      -6.876   3.047  71.832  1.00  0.00    -0.025 N  
HETATM    3  C   UNL     1      -7.748   4.059  72.164  1.00  0.00    -0.075 C  
HETATM    4  H   UNL     1      -6.462   3.031  70.900  1.00  0.00     0.000 HD 
HETATM    5  O   UNL     1      -8.280   4.162  73.263  1.00  0.00    -0.089 OA 
ENDROOT
BRANCH   3   6
HETATM    6  C   UNL     1      -7.989   5.089  71.125  1.00  0.00    -0.101 A  
HETATM    7  C   UNL     1      -9.240   5.299  70.549  1.00  0.00    -0.146 A  
HETATM    8  F   UNL     1     -10.308   4.589  70.944  1.00  0.00    -0.275 F  
HETATM    9  C   UNL     1      -9.425   6.242  69.534  1.00  0.00    -0.151 A  
HETATM   10  C   UNL     1      -8.344   6.978  69.048  1.00  0.00    -0.126 A  
HETATM   11  C   UNL     1      -7.096   6.798  69.669  1.00  0.00    -0.068 A  
HETATM   12  C   UNL     1      -6.915   5.869  70.697  1.00  0.00    -0.062 A  
BRANCH  10  13
HETATM   13  N   UNL     1      -8.476   7.917  67.986  1.00  0.00    -0.123 N  
HETATM   14  C   UNL     1      -7.873   9.200  67.954  1.00  0.00    -0.100 C  
HETATM   15  N   UNL     1      -8.693  10.026  67.191  1.00  0.00    -0.128 N  
HETATM   16  S   UNL     1      -6.327   9.511  68.545  1.00  0.00    -0.048 S  
HETATM   17  C   UNL     1      -8.547   7.022  65.672  1.00  0.00    -0.121 C  
HETATM   18  C   UNL     1      -9.490   9.213  66.401  1.00  0.00    -0.227 C  
HETATM   19  C   UNL     1     -10.691   7.142  67.041  1.00  0.00    -0.420 C  
HETATM   20  C   UNL     1      -9.299   7.736  66.805  1.00  0.00    -0.180 C  
HETATM   21  O   UNL     1     -10.211   9.535  65.461  1.00  0.00    -0.174 OA 
BRANCH  15  22
HETATM   22  C   UNL     1      -8.761  11.466  67.213  1.00  0.00    -0.148 A  
HETATM   23  C   UNL     1      -9.858  13.578  66.613  1.00  0.00    -0.279 A  
HETATM   24  C   UNL     1      -9.797  12.174  66.591  1.00  0.00    -0.224 A  
HETATM   25  C   UNL     1      -8.869  14.337  67.247  1.00  0.00    -0.224 A  
HETATM   26  C   UNL     1      -7.840  13.673  67.917  1.00  0.00    -0.159 A  
HETATM   27  C   UNL     1      -8.968  15.766  67.176  1.00  0.00    -0.214 C  
HETATM   28  C   UNL     1      -7.835  12.253  67.923  1.00  0.00    -0.146 A  
HETATM   29  N   UNL     1      -9.073  16.922  67.095  1.00  0.00    -0.213 NA 
HETATM   30  C   UNL     1      -6.710  14.375  68.637  1.00  0.00    -0.090 C  
HETATM   31  F   UNL     1      -5.494  13.967  68.181  1.00  0.00    -0.087 F  
HETATM   32  F   UNL     1      -6.714  14.103  69.972  1.00  0.00    -0.137 F  
HETATM   33  F   UNL     1      -6.705  15.726  68.532  1.00  0.00    -0.110 F  
ENDBRANCH  15  22
ENDBRANCH  10  13
ENDBRANCH   3   6
TORSDOF 3
ENDMDL
MODEL      144
REMARK 921   NORMALIZED FREE ENERGY PREDICTED BY IDOCK:   -2.00 KCAL/MOL
REMARK 922        TOTAL FREE ENERGY PREDICTED BY IDOCK:   -3.27 KCAL/MOL
REMARK 923 INTER-LIGAND FREE ENERGY PREDICTED BY IDOCK:   -3.00 KCAL/MOL
REMARK 924 INTRA-LIGAND FREE ENERGY PREDICTED BY IDOCK:   -0.27 KCAL/MOL
REMARK 927      BINDING AFFINITY PREDICTED BY RF-SCORE:    0.00 PKD
ROOT
HETATM    1  C   UNL     1      -6.651   1.699  68.644  1.00  0.00    -0.029 C  
HETATM    2  N   UNL     1      -7.456   2.849  68.959  1.00  0.00    -0.048 N  
HETATM    3  C   UNL     1      -7.751   3.802  68.011  1.00  0.00    -0.066 C  
HETATM    4  H   UNL     1      -7.818   2.959  69.907  1.00  0.00     0.000 HD 
HETATM    5  O   UNL     1      -7.369   3.741  66.849  1.00  0.00    -0.069 OA 
ENDROOT
BRANCH   3   6
HETATM    6  C   UNL     1      -8.623   4.918  68.448  1.00  0.00    -0.101 A  
HETATM    7  C   UNL     1      -8.165   5.965  69.246  1.00  0.00    -0.113 A  
HETATM    8  F   UNL     1      -6.880   6.025  69.630  1.00  0.00    -0.054 F  
HETATM    9  C   UNL     1      -9.024   6.976  69.685  1.00  0.00    -0.141 A  
HETATM   10  C   UNL     1     -10.380   6.943  69.357  1.00  0.00    -0.204 A  
HETATM   11  C   UNL     1     -10.824   5.913  68.508  1.00  0.00    -0.323 A  
HETATM   12  C   UNL     1      -9.961   4.912  68.054  1.00  0.00    -0.175 A  
BRANCH  10  13
HETATM   13  N   UNL     1     -11.301   7.925  69.817  1.00  0.00     0.012 N  
HETATM   14  C   UNL     1     -11.468   9.214  69.250  1.00  0.00     0.404 C  
HETATM   15  N   UNL     1     -11.890  10.064  70.268  1.00  0.00    -0.241 N  
HETATM   16  S   UNL     1     -11.390   9.514  67.595  1.00  0.00     0.921 S  
HETATM   17  C   UNL     1     -13.507   7.131  70.630  1.00  0.00     0.479 C  
HETATM   18  C   UNL     1     -12.419   9.279  71.280  1.00  0.00    -0.316 C  
HETATM   19  C   UNL     1     -11.520   7.170  72.221  1.00  0.00    -0.309 C  
HETATM   20  C   UNL     1     -12.163   7.787  70.976  1.00  0.00    -0.215 C  
HETATM   21  O   UNL     1     -13.063   9.635  72.262  1.00  0.00    -0.414 OA 
BRANCH  15  22
HETATM   22  C   UNL     1     -11.784  11.502  70.318  1.00  0.00    -0.289 A  
HETATM   23  C   UNL     1     -12.326  13.664  71.344  1.00  0.00    -0.301 A  
HETATM   24  C   UNL     1     -12.430  12.263  71.300  1.00  0.00    -0.281 A  
HETATM   25  C   UNL     1     -11.580  14.367  70.392  1.00  0.00    -0.288 A  
HETATM   26  C   UNL     1     -10.884  13.646  69.420  1.00  0.00    -0.054 A  
HETATM   27  C   UNL     1     -11.570  15.799  70.467  1.00  0.00    -0.375 C  
HETATM   28  C   UNL     1     -10.965  12.228  69.434  1.00  0.00    -0.092 A  
HETATM   29  N   UNL     1     -11.586  16.959  70.552  1.00  0.00     0.560 NA 
HETATM   30  C   UNL     1     -10.046  14.283  68.334  1.00  0.00    -0.243 C  
HETATM   31  F   UNL     1     -10.443  13.882  67.094  1.00  0.00    -0.261 F  
HETATM   32  F   UNL     1      -8.734  13.931  68.434  1.00  0.00    -0.164 F  
HETATM   33  F   UNL     1     -10.067  15.637  68.304  1.00  0.00    -0.211 F  
ENDBRANCH  15  22
ENDBRANCH  10  13
ENDBRANCH   3   6
TORSDOF 3
ENDMDL
MODEL      145
REMARK 921   NORMALIZED FREE ENERGY PREDICTED BY IDOCK:   -1.78 KCAL/MOL
REMARK 922        TOTAL FREE ENERGY PREDICTED BY IDOCK:   -3.01 KCAL/MOL
REMARK 923 INTER-LIGAND FREE ENERGY PREDICTED BY IDOCK:   -3.09 KCAL/MOL
REMARK 924 INTRA-LIGAND FREE ENERGY PREDICTED BY IDOCK:    0.07 KCAL/MOL
REMARK 927      BINDING AFFINITY PREDICTED BY RF-SCORE:    0.00 PKD
ROOT
HETATM    1  C   UNL     1      -5.190  18.998  70.469  1.00  0.00    -0.220 C  
HETATM    2  N   UNL     1      -5.797  17.829  69.891  1.00  0.00    -0.247 N  
HETATM    3  C   UNL     1      -7.159  17.739  69.715  1.00  0.00     0.438 C  
HETATM    4  H   UNL     1      -5.205  17.049  69.605  1.00  0.00     0.000 HD 
HETATM    5  O   UNL     1      -7.941  18.632  70.018  1.00  0.00     0.937 OA 
ENDROOT
BRANCH   3   6
HETATM    6  C   UNL     1      -7.661  16.501  69.073  1.00  0.00    -0.233 A  
HETATM    7  C   UNL     1      -7.219  16.068  67.824  1.00  0.00    -0.143 A  
HETATM    8  F   UNL     1      -6.277  16.750  67.153  1.00  0.00    -0.143 F  
HETATM    9  C   UNL     1      -7.749  14.924  67.220  1.00  0.00    -0.227 A  
HETATM   10  C   UNL     1      -8.763  14.201  67.847  1.00  0.00    -0.182 A  
HETATM   11  C   UNL     1      -9.167  14.612  69.130  1.00  0.00    -0.039 A  
HETATM   12  C   UNL     1      -8.624  15.746  69.741  1.00  0.00     0.123 A  
BRANCH  10  13
HETATM   13  N   UNL     1      -9.364  13.055  67.252  1.00  0.00    -0.212 N  
HETATM   14  C   UNL     1      -9.082  11.711  67.604  1.00  0.00    -0.174 C  
HETATM   15  N   UNL     1      -9.290  10.932  66.471  1.00  0.00    -0.170 N  
HETATM   16  S   UNL     1      -8.797  11.210  69.186  1.00  0.00     0.174 S  
HETATM   17  C   UNL     1     -11.760  13.218  66.624  1.00  0.00    -0.425 C  
HETATM   18  C   UNL     1     -10.107  11.649  65.611  1.00  0.00    -0.240 C  
HETATM   19  C   UNL     1      -9.977  14.049  65.007  1.00  0.00    -0.216 C  
HETATM   20  C   UNL     1     -10.306  13.082  66.148  1.00  0.00    -0.278 C  
HETATM   21  O   UNL     1     -10.677  11.256  64.598  1.00  0.00    -0.321 OA 
BRANCH  15  22
HETATM   22  C   UNL     1      -8.747   9.627  66.185  1.00  0.00    -0.136 A  
HETATM   23  C   UNL     1      -7.800   7.985  64.626  1.00  0.00    -0.140 A  
HETATM   24  C   UNL     1      -8.326   9.259  64.901  1.00  0.00    -0.164 A  
HETATM   25  C   UNL     1      -7.686   7.015  65.627  1.00  0.00    -0.102 A  
HETATM   26  C   UNL     1      -8.053   7.352  66.931  1.00  0.00    -0.120 A  
HETATM   27  C   UNL     1      -7.195   5.720  65.258  1.00  0.00    -0.070 C  
HETATM   28  C   UNL     1      -8.531   8.664  67.188  1.00  0.00    -0.114 A  
HETATM   29  N   UNL     1      -6.798   4.678  64.925  1.00  0.00    -0.052 NA 
HETATM   30  C   UNL     1      -7.983   6.397  68.102  1.00  0.00    -0.109 C  
HETATM   31  F   UNL     1      -9.187   6.279  68.727  1.00  0.00    -0.126 F  
HETATM   32  F   UNL     1      -7.112   6.828  69.056  1.00  0.00    -0.075 F  
HETATM   33  F   UNL     1      -7.605   5.132  67.797  1.00  0.00    -0.081 F  
ENDBRANCH  15  22
ENDBRANCH  10  13
ENDBRANCH   3   6
TORSDOF 3
ENDMDL
MODEL      146
REMARK 921   NORMALIZED FREE ENERGY PREDICTED BY IDOCK:   -1.66 KCAL/MOL
REMARK 922        TOTAL FREE ENERGY PREDICTED BY IDOCK:   -2.87 KCAL/MOL
REMARK 923 INTER-LIGAND FREE ENERGY PREDICTED BY IDOCK:   -2.12 KCAL/MOL
REMARK 924 INTRA-LIGAND FREE ENERGY PREDICTED BY IDOCK:   -0.75 KCAL/MOL
REMARK 927      BINDING AFFINITY PREDICTED BY RF-SCORE:    0.00 PKD
ROOT
HETATM    1  C   UNL     1      -7.279   3.098  72.369  1.00  0.00    -0.043 C  
HETATM    2  N   UNL     1      -7.308   4.419  71.801  1.00  0.00    -0.066 N  
HETATM    3  C   UNL     1      -7.818   5.490  72.498  1.00  0.00    -0.103 C  
HETATM    4  H   UNL     1      -6.942   4.565  70.860  1.00  0.00     0.000 HD 
HETATM    5  O   UNL     1      -8.265   5.406  73.636  1.00  0.00    -0.112 OA 
ENDROOT
BRANCH   3   6
HETATM    6  C   UNL     1      -7.755   6.808  71.821  1.00  0.00    -0.096 A  
HETATM    7  C   UNL     1      -7.161   7.926  72.403  1.00  0.00    -0.087 A  
HETATM    8  F   UNL     1      -6.578   7.846  73.609  1.00  0.00    -0.076 F  
HETATM    9  C   UNL     1      -7.163   9.168  71.762  1.00  0.00     0.141 A  
HETATM   10  C   UNL     1      -7.794   9.324  70.528  1.00  0.00    -0.153 A  
HETATM   11  C   UNL     1      -8.346   8.181  69.923  1.00  0.00    -0.123 A  
HETATM   12  C   UNL     1      -8.327   6.935  70.556  1.00  0.00    -0.129 A  
BRANCH  10  13
HETATM   13  N   UNL     1      -7.861  10.579  69.858  1.00  0.00    -0.053 N  
HETATM   14  C   UNL     1      -9.036  11.144  69.301  1.00  0.00     0.182 C  
HETATM   15  N   UNL     1      -8.646  11.942  68.230  1.00  0.00    -0.160 N  
HETATM   16  S   UNL     1     -10.553  11.017  70.020  1.00  0.00     0.418 S  
HETATM   17  C   UNL     1      -6.442  12.417  70.733  1.00  0.00     1.142 C  
HETATM   18  C   UNL     1      -7.305  12.248  68.400  1.00  0.00    -0.109 C  
HETATM   19  C   UNL     1      -5.458  10.746  69.085  1.00  0.00    -0.041 C  
HETATM   20  C   UNL     1      -6.727  11.442  69.582  1.00  0.00    -0.105 C  
HETATM   21  O   UNL     1      -6.629  13.070  67.790  1.00  0.00    -0.113 OA 
BRANCH  15  22
HETATM   22  C   UNL     1      -9.447  12.368  67.109  1.00  0.00    -0.198 A  
HETATM   23  C   UNL     1     -11.261  13.714  66.149  1.00  0.00    -0.309 A  
HETATM   24  C   UNL     1     -10.480  13.304  67.244  1.00  0.00    -0.247 A  
HETATM   25  C   UNL     1     -11.049  13.191  64.870  1.00  0.00    -0.335 A  
HETATM   26  C   UNL     1     -10.002  12.287  64.680  1.00  0.00    -0.212 A  
HETATM   27  C   UNL     1     -11.923  13.614  63.815  1.00  0.00    -0.377 C  
HETATM   28  C   UNL     1      -9.197  11.932  65.795  1.00  0.00    -0.110 A  
HETATM   29  N   UNL     1     -12.653  13.972  62.983  1.00  0.00    -0.404 NA 
HETATM   30  C   UNL     1      -9.669  11.645  63.351  1.00  0.00    -0.348 C  
HETATM   31  F   UNL     1      -9.664  10.286  63.438  1.00  0.00    -0.317 F  
HETATM   32  F   UNL     1      -8.426  11.993  62.918  1.00  0.00     0.251 F  
HETATM   33  F   UNL     1     -10.515  11.943  62.336  1.00  0.00     0.171 F  
ENDBRANCH  15  22
ENDBRANCH  10  13
ENDBRANCH   3   6
TORSDOF 3
ENDMDL
MODEL      147
REMARK 921   NORMALIZED FREE ENERGY PREDICTED BY IDOCK:   -1.23 KCAL/MOL
REMARK 922        TOTAL FREE ENERGY PREDICTED BY IDOCK:   -2.36 KCAL/MOL
REMARK 923 INTER-LIGAND FREE ENERGY PREDICTED BY IDOCK:   -2.16 KCAL/MOL
REMARK 924 INTRA-LIGAND FREE ENERGY PREDICTED BY IDOCK:   -0.20 KCAL/MOL
REMARK 927      BINDING AFFINITY PREDICTED BY RF-SCORE:    0.00 PKD
ROOT
HETATM    1  C   UNL     1      -7.918   3.028  68.230  1.00  0.00    -0.061 C  
HETATM    2  N   UNL     1      -8.013   4.355  67.683  1.00  0.00    -0.092 N  
HETATM    3  C   UNL     1      -9.111   4.756  66.957  1.00  0.00    -0.118 C  
HETATM    4  H   UNL     1      -7.249   5.014  67.838  1.00  0.00     0.000 HD 
HETATM    5  O   UNL     1     -10.076   4.035  66.736  1.00  0.00    -0.138 OA 
ENDROOT
BRANCH   3   6
HETATM    6  C   UNL     1      -9.110   6.160  66.481  1.00  0.00    -0.156 A  
HETATM    7  C   UNL     1      -8.744   6.515  65.184  1.00  0.00     0.100 A  
HETATM    8  F   UNL     1      -8.406   5.579  64.284  1.00  0.00    -0.124 F  
HETATM    9  C   UNL     1      -8.703   7.852  64.779  1.00  0.00     0.183 A  
HETATM   10  C   UNL     1      -8.999   8.873  65.683  1.00  0.00    -0.201 A  
HETATM   11  C   UNL     1      -9.417   8.505  66.975  1.00  0.00    -0.223 A  
HETATM   12  C   UNL     1      -9.476   7.167  67.373  1.00  0.00    -0.156 A  
BRANCH  10  13
HETATM   13  N   UNL     1      -8.927  10.250  65.330  1.00  0.00    -0.174 N  
HETATM   14  C   UNL     1      -7.977  11.173  65.835  1.00  0.00     0.010 C  
HETATM   15  N   UNL     1      -8.573  12.430  65.825  1.00  0.00     0.530 N  
HETATM   16  S   UNL     1      -6.369  10.774  66.133  1.00  0.00    -0.123 S  
HETATM   17  C   UNL     1      -9.434  10.853  62.976  1.00  0.00    -0.369 C  
HETATM   18  C   UNL     1      -9.631  12.387  64.932  1.00  0.00     0.113 C  
HETATM   19  C   UNL     1     -11.337  10.613  64.650  1.00  0.00     1.072 C  
HETATM   20  C   UNL     1      -9.855  10.938  64.451  1.00  0.00    -0.309 C  
HETATM   21  O   UNL     1     -10.293  13.322  64.491  1.00  0.00    -0.397 OA 
BRANCH  15  22
HETATM   22  C   UNL     1      -8.210  13.585  66.610  1.00  0.00     0.376 A  
HETATM   23  C   UNL     1      -6.819  14.681  68.309  1.00  0.00    -0.116 A  
HETATM   24  C   UNL     1      -7.167  13.555  67.544  1.00  0.00    -0.165 A  
HETATM   25  C   UNL     1      -7.515  15.888  68.182  1.00  0.00    -0.132 A  
HETATM   26  C   UNL     1      -8.535  15.977  67.232  1.00  0.00    -0.206 A  
HETATM   27  C   UNL     1      -7.140  16.975  69.038  1.00  0.00    -0.233 C  
HETATM   28  C   UNL     1      -8.827  14.838  66.437  1.00  0.00    -0.152 A  
HETATM   29  N   UNL     1      -6.816  17.835  69.751  1.00  0.00     0.075 NA 
HETATM   30  C   UNL     1      -9.365  17.220  66.998  1.00  0.00    -0.251 C  
HETATM   31  F   UNL     1     -10.697  16.964  67.122  1.00  0.00    -0.318 F  
HETATM   32  F   UNL     1      -9.198  17.710  65.738  1.00  0.00    -0.145 F  
HETATM   33  F   UNL     1      -9.111  18.253  67.837  1.00  0.00    -0.262 F  
ENDBRANCH  15  22
ENDBRANCH  10  13
ENDBRANCH   3   6
TORSDOF 3
ENDMDL
MODEL      148
REMARK 921   NORMALIZED FREE ENERGY PREDICTED BY IDOCK:    0.51 KCAL/MOL
REMARK 922        TOTAL FREE ENERGY PREDICTED BY IDOCK:   -0.31 KCAL/MOL
REMARK 923 INTER-LIGAND FREE ENERGY PREDICTED BY IDOCK:   -0.86 KCAL/MOL
REMARK 924 INTRA-LIGAND FREE ENERGY PREDICTED BY IDOCK:    0.55 KCAL/MOL
REMARK 927      BINDING AFFINITY PREDICTED BY RF-SCORE:    0.00 PKD
ROOT
HETATM    1  C   UNL     1     -10.089  16.776  64.459  1.00  0.00     2.360 C  
HETATM    2  N   UNL     1     -10.159  15.548  65.205  1.00  0.00    -0.338 N  
HETATM    3  C   UNL     1      -9.178  15.199  66.105  1.00  0.00    -0.283 C  
HETATM    4  H   UNL     1     -10.953  14.924  65.065  1.00  0.00     0.000 HD 
HETATM    5  O   UNL     1      -8.198  15.894  66.343  1.00  0.00    -0.283 OA 
ENDROOT
BRANCH   3   6
HETATM    6  C   UNL     1      -9.382  13.929  66.843  1.00  0.00    -0.265 A  
HETATM    7  C   UNL     1     -10.510  13.129  66.667  1.00  0.00    -0.277 A  
HETATM    8  F   UNL     1     -11.459  13.464  65.780  1.00  0.00    -0.311 F  
HETATM    9  C   UNL     1     -10.699  11.964  67.415  1.00  0.00    -0.271 A  
HETATM   10  C   UNL     1      -9.770  11.589  68.386  1.00  0.00    -0.202 A  
HETATM   11  C   UNL     1      -8.610  12.372  68.521  1.00  0.00    -0.060 A  
HETATM   12  C   UNL     1      -8.412  13.527  67.760  1.00  0.00    -0.184 A  
BRANCH  10  13
HETATM   13  N   UNL     1      -9.943  10.435  69.202  1.00  0.00    -0.213 N  
HETATM   14  C   UNL     1      -8.959   9.438  69.422  1.00  0.00    -0.157 C  
HETATM   15  N   UNL     1      -9.626   8.242  69.664  1.00  0.00    -0.167 N  
HETATM   16  S   UNL     1      -7.318   9.779  69.590  1.00  0.00    -0.121 S  
HETATM   17  C   UNL     1     -11.279  10.694  71.278  1.00  0.00     0.620 C  
HETATM   18  C   UNL     1     -10.920   8.553  70.051  1.00  0.00    -0.196 C  
HETATM   19  C   UNL     1     -12.461  10.227  69.072  1.00  0.00     0.909 C  
HETATM   20  C   UNL     1     -11.171  10.066  69.881  1.00  0.00    -0.275 C  
HETATM   21  O   UNL     1     -11.771   7.809  70.530  1.00  0.00    -0.223 OA 
BRANCH  15  22
HETATM   22  C   UNL     1      -9.116   6.901  69.517  1.00  0.00    -0.142 A  
HETATM   23  C   UNL     1      -7.853   4.974  70.364  1.00  0.00    -0.073 A  
HETATM   24  C   UNL     1      -8.351   6.280  70.513  1.00  0.00    -0.129 A  
HETATM   25  C   UNL     1      -8.088   4.237  69.199  1.00  0.00    -0.070 A  
HETATM   26  C   UNL     1      -8.881   4.799  68.197  1.00  0.00    -0.116 A  
HETATM   27  C   UNL     1      -7.498   2.933  69.097  1.00  0.00    -0.047 C  
HETATM   28  C   UNL     1      -9.414   6.099  68.400  1.00  0.00    -0.119 A  
HETATM   29  N   UNL     1      -7.000   1.883  69.043  1.00  0.00    -0.036 NA 
HETATM   30  C   UNL     1      -9.207   4.110  66.891  1.00  0.00    -0.156 C  
HETATM   31  F   UNL     1      -8.849   4.871  65.820  1.00  0.00    -0.120 F  
HETATM   32  F   UNL     1     -10.543   3.886  66.756  1.00  0.00     0.169 F  
HETATM   33  F   UNL     1      -8.607   2.910  66.703  1.00  0.00    -0.089 F  
ENDBRANCH  15  22
ENDBRANCH  10  13
ENDBRANCH   3   6
TORSDOF 3
ENDMDL
MODEL      149
REMARK 921   NORMALIZED FREE ENERGY PREDICTED BY IDOCK:    0.77 KCAL/MOL
REMARK 922        TOTAL FREE ENERGY PREDICTED BY IDOCK:   -0.01 KCAL/MOL
REMARK 923 INTER-LIGAND FREE ENERGY PREDICTED BY IDOCK:    0.41 KCAL/MOL
REMARK 924 INTRA-LIGAND FREE ENERGY PREDICTED BY IDOCK:   -0.42 KCAL/MOL
REMARK 927      BINDING AFFINITY PREDICTED BY RF-SCORE:    0.00 PKD
ROOT
HETATM    1  C   UNL     1      -6.440   3.359  67.115  1.00  0.00    -0.037 C  
HETATM    2  N   UNL     1      -6.643   4.777  67.247  1.00  0.00    -0.049 N  
HETATM    3  C   UNL     1      -6.016   5.503  68.234  1.00  0.00    -0.017 C  
HETATM    4  H   UNL     1      -7.266   5.254  66.595  1.00  0.00     0.000 HD 
HETATM    5  O   UNL     1      -5.245   5.013  69.049  1.00  0.00     0.000 OA 
ENDROOT
BRANCH   3   6
HETATM    6  C   UNL     1      -6.274   6.963  68.242  1.00  0.00    -0.034 A  
HETATM    7  C   UNL     1      -6.336   7.711  69.416  1.00  0.00    -0.035 A  
HETATM    8  F   UNL     1      -6.125   7.135  70.610  1.00  0.00    -0.030 F  
HETATM    9  C   UNL     1      -6.633   9.076  69.395  1.00  0.00    -0.044 A  
HETATM   10  C   UNL     1      -6.908   9.721  68.189  1.00  0.00    -0.069 A  
HETATM   11  C   UNL     1      -6.792   8.973  67.004  1.00  0.00    -0.077 A  
HETATM   12  C   UNL     1      -6.477   7.611  67.024  1.00  0.00    -0.054 A  
BRANCH  10  13
HETATM   13  N   UNL     1      -7.258  11.099  68.122  1.00  0.00    -0.077 N  
HETATM   14  C   UNL     1      -8.583  11.603  68.100  1.00  0.00    -0.158 C  
HETATM   15  N   UNL     1      -8.559  12.803  67.396  1.00  0.00    -0.184 N  
HETATM   16  S   UNL     1      -9.842  10.935  68.996  1.00  0.00    -0.140 S  
HETATM   17  C   UNL     1      -5.828  12.703  69.365  1.00  0.00    -0.094 C  
HETATM   18  C   UNL     1      -7.253  13.266  67.398  1.00  0.00    -0.108 C  
HETATM   19  C   UNL     1      -5.166  11.989  67.012  1.00  0.00    -0.079 C  
HETATM   20  C   UNL     1      -6.317  12.198  68.000  1.00  0.00    -0.068 C  
HETATM   21  O   UNL     1      -6.836  14.368  67.055  1.00  0.00    -0.073 OA 
BRANCH  15  22
HETATM   22  C   UNL     1      -9.661  13.463  66.738  1.00  0.00    -0.262 A  
HETATM   23  C   UNL     1     -11.747  13.397  65.447  1.00  0.00    -0.354 A  
HETATM   24  C   UNL     1     -10.677  12.750  66.089  1.00  0.00    -0.297 A  
HETATM   25  C   UNL     1     -11.837  14.792  65.415  1.00  0.00    -0.249 A  
HETATM   26  C   UNL     1     -10.870  15.543  66.086  1.00  0.00    -0.295 A  
HETATM   27  C   UNL     1     -12.926  15.380  64.690  1.00  0.00     0.930 C  
HETATM   28  C   UNL     1      -9.830  14.859  66.770  1.00  0.00    -0.254 A  
HETATM   29  N   UNL     1     -13.817  15.826  64.089  1.00  0.00     1.857 NA 
HETATM   30  C   UNL     1     -10.850  17.055  66.124  1.00  0.00     0.020 C  
HETATM   31  F   UNL     1      -9.665  17.553  65.674  1.00  0.00    -0.159 F  
HETATM   32  F   UNL     1     -10.993  17.531  67.392  1.00  0.00    -0.320 F  
HETATM   33  F   UNL     1     -11.808  17.666  65.386  1.00  0.00     1.221 F  
ENDBRANCH  15  22
ENDBRANCH  10  13
ENDBRANCH   3   6
TORSDOF 3
ENDMDL
MODEL      150
REMARK 921   NORMALIZED FREE ENERGY PREDICTED BY IDOCK:    1.61 KCAL/MOL
REMARK 922        TOTAL FREE ENERGY PREDICTED BY IDOCK:    0.97 KCAL/MOL
REMARK 923 INTER-LIGAND FREE ENERGY PREDICTED BY IDOCK:   -0.04 KCAL/MOL
REMARK 924 INTRA-LIGAND FREE ENERGY PREDICTED BY IDOCK:    1.01 KCAL/MOL
REMARK 927      BINDING AFFINITY PREDICTED BY RF-SCORE:    0.00 PKD
ROOT
HETATM    1  C   UNL     1      -7.498   3.084  73.143  1.00  0.00    -0.047 C  
HETATM    2  N   UNL     1      -7.990   4.277  72.509  1.00  0.00    -0.087 N  
HETATM    3  C   UNL     1      -8.130   5.456  73.206  1.00  0.00    -0.111 C  
HETATM    4  H   UNL     1      -8.241   4.250  71.520  1.00  0.00     0.000 HD 
HETATM    5  O   UNL     1      -7.840   5.580  74.390  1.00  0.00    -0.101 OA 
ENDROOT
BRANCH   3   6
HETATM    6  C   UNL     1      -8.608   6.627  72.433  1.00  0.00    -0.124 A  
HETATM    7  C   UNL     1      -9.753   7.341  72.779  1.00  0.00    -0.162 A  
HETATM    8  F   UNL     1     -10.465   7.014  73.869  1.00  0.00    -0.342 F  
HETATM    9  C   UNL     1     -10.209   8.409  72.000  1.00  0.00    -0.364 A  
HETATM   10  C   UNL     1      -9.538   8.766  70.831  1.00  0.00    -0.221 A  
HETATM   11  C   UNL     1      -8.354   8.075  70.516  1.00  0.00    -0.123 A  
HETATM   12  C   UNL     1      -7.889   7.020  71.305  1.00  0.00    -0.099 A  
BRANCH  10  13
HETATM   13  N   UNL     1      -9.989   9.817  69.983  1.00  0.00    -0.242 N  
HETATM   14  C   UNL     1      -9.229  10.406  68.941  1.00  0.00    -0.177 C  
HETATM   15  N   UNL     1      -9.660  11.722  68.805  1.00  0.00    -0.105 N  
HETATM   16  S   UNL     1      -8.194   9.531  67.942  1.00  0.00    -0.114 S  
HETATM   17  C   UNL     1     -12.374   9.787  69.297  1.00  0.00     1.072 C  
HETATM   18  C   UNL     1     -10.920  11.812  69.374  1.00  0.00    -0.125 C  
HETATM   19  C   UNL     1     -11.716  10.851  71.514  1.00  0.00     0.499 C  
HETATM   20  C   UNL     1     -11.268  10.493  70.095  1.00  0.00    -0.315 C  
HETATM   21  O   UNL     1     -11.724  12.738  69.302  1.00  0.00    -0.289 OA 
BRANCH  15  22
HETATM   22  C   UNL     1      -8.946  12.829  68.218  1.00  0.00    -0.175 A  
HETATM   23  C   UNL     1      -7.431  13.758  66.525  1.00  0.00     1.618 A  
HETATM   24  C   UNL     1      -8.128  12.677  67.092  1.00  0.00    -0.141 A  
HETATM   25  C   UNL     1      -7.512  15.041  67.075  1.00  0.00    -0.021 A  
HETATM   26  C   UNL     1      -8.349  15.249  68.173  1.00  0.00    -0.149 A  
HETATM   27  C   UNL     1      -6.726  16.081  66.476  1.00  0.00     0.629 C  
HETATM   28  C   UNL     1      -9.081  14.148  68.690  1.00  0.00    -0.138 A  
HETATM   29  N   UNL     1      -6.072  16.900  65.972  1.00  0.00     0.007 NA 
HETATM   30  C   UNL     1      -8.522  16.584  68.862  1.00  0.00    -0.235 C  
HETATM   31  F   UNL     1      -8.250  16.500  70.194  1.00  0.00     0.596 F  
HETATM   32  F   UNL     1      -9.803  17.037  68.774  1.00  0.00    -0.232 F  
HETATM   33  F   UNL     1      -7.739  17.586  68.392  1.00  0.00    -0.218 F  
ENDBRANCH  15  22
ENDBRANCH  10  13
ENDBRANCH   3   6
TORSDOF 3
ENDMDL
MODEL      151
REMARK 921   NORMALIZED FREE ENERGY PREDICTED BY IDOCK:    2.74 KCAL/MOL
REMARK 922        TOTAL FREE ENERGY PREDICTED BY IDOCK:    2.30 KCAL/MOL
REMARK 923 INTER-LIGAND FREE ENERGY PREDICTED BY IDOCK:    1.83 KCAL/MOL
REMARK 924 INTRA-LIGAND FREE ENERGY PREDICTED BY IDOCK:    0.47 KCAL/MOL
REMARK 927      BINDING AFFINITY PREDICTED BY RF-SCORE:    0.00 PKD
ROOT
HETATM    1  C   UNL     1      -8.237  19.261  64.725  1.00  0.00     2.973 C  
HETATM    2  N   UNL     1      -8.515  18.023  65.404  1.00  0.00     1.040 N  
HETATM    3  C   UNL     1      -8.091  17.802  66.695  1.00  0.00    -0.258 C  
HETATM    4  H   UNL     1      -9.037  17.294  64.919  1.00  0.00     0.000 HD 
HETATM    5  O   UNL     1      -7.470  18.627  67.355  1.00  0.00    -0.218 OA 
ENDROOT
BRANCH   3   6
HETATM    6  C   UNL     1      -8.473  16.504  67.301  1.00  0.00    -0.201 A  
HETATM    7  C   UNL     1      -7.661  15.829  68.209  1.00  0.00    -0.127 A  
HETATM    8  F   UNL     1      -6.491  16.353  68.609  1.00  0.00    -0.122 F  
HETATM    9  C   UNL     1      -8.024  14.581  68.724  1.00  0.00    -0.142 A  
HETATM   10  C   UNL     1      -9.205  13.964  68.311  1.00  0.00    -0.207 A  
HETATM   11  C   UNL     1     -10.045  14.674  67.435  1.00  0.00    -0.232 A  
HETATM   12  C   UNL     1      -9.690  15.930  66.935  1.00  0.00    -0.241 A  
BRANCH  10  13
HETATM   13  N   UNL     1      -9.595  12.676  68.774  1.00  0.00     0.007 N  
HETATM   14  C   UNL     1      -8.740  11.549  68.864  1.00  0.00     0.039 C  
HETATM   15  N   UNL     1      -9.528  10.414  68.697  1.00  0.00    -0.159 N  
HETATM   16  S   UNL     1      -7.126  11.648  69.335  1.00  0.00     0.064 S  
HETATM   17  C   UNL     1     -11.225  12.578  70.643  1.00  0.00     1.412 C  
HETATM   18  C   UNL     1     -10.839  10.769  68.971  1.00  0.00    -0.235 C  
HETATM   19  C   UNL     1     -12.068  12.796  68.251  1.00  0.00    -0.152 C  
HETATM   20  C   UNL     1     -10.942  12.297  69.160  1.00  0.00    -0.162 C  
HETATM   21  O   UNL     1     -11.810  10.034  69.122  1.00  0.00     0.024 OA 
BRANCH  15  22
HETATM   22  C   UNL     1      -9.105   9.099  68.283  1.00  0.00    -0.132 A  
HETATM   23  C   UNL     1      -9.113   7.243  66.677  1.00  0.00    -0.181 A  
HETATM   24  C   UNL     1      -9.525   8.526  67.076  1.00  0.00    -0.223 A  
HETATM   25  C   UNL     1      -8.270   6.469  67.482  1.00  0.00    -0.121 A  
HETATM   26  C   UNL     1      -7.792   7.016  68.674  1.00  0.00    -0.119 A  
HETATM   27  C   UNL     1      -7.941   5.146  67.035  1.00  0.00    -0.100 C  
HETATM   28  C   UNL     1      -8.183   8.335  69.023  1.00  0.00    -0.119 A  
HETATM   29  N   UNL     1      -7.697   4.077  66.648  1.00  0.00    -0.088 NA 
HETATM   30  C   UNL     1      -6.880   6.285  69.634  1.00  0.00    -0.065 C  
HETATM   31  F   UNL     1      -7.407   6.237  70.888  1.00  0.00    -0.071 F  
HETATM   32  F   UNL     1      -5.675   6.907  69.761  1.00  0.00    -0.017 F  
HETATM   33  F   UNL     1      -6.603   5.000  69.305  1.00  0.00    -0.039 F  
ENDBRANCH  15  22
ENDBRANCH  10  13
ENDBRANCH   3   6
TORSDOF 3
ENDMDL
MODEL      152
REMARK 921   NORMALIZED FREE ENERGY PREDICTED BY IDOCK:    2.99 KCAL/MOL
REMARK 922        TOTAL FREE ENERGY PREDICTED BY IDOCK:    2.60 KCAL/MOL
REMARK 923 INTER-LIGAND FREE ENERGY PREDICTED BY IDOCK:    2.11 KCAL/MOL
REMARK 924 INTRA-LIGAND FREE ENERGY PREDICTED BY IDOCK:    0.49 KCAL/MOL
REMARK 927      BINDING AFFINITY PREDICTED BY RF-SCORE:    0.00 PKD
ROOT
HETATM    1  C   UNL     1     -12.818   5.918  71.165  1.00  0.00     1.799 C  
HETATM    2  N   UNL     1     -12.154   7.172  70.932  1.00  0.00    -0.440 N  
HETATM    3  C   UNL     1     -10.931   7.231  70.304  1.00  0.00    -0.260 C  
HETATM    4  H   UNL     1     -12.599   8.037  71.240  1.00  0.00     0.000 HD 
HETATM    5  O   UNL     1     -10.332   6.245  69.892  1.00  0.00    -0.174 OA 
ENDROOT
BRANCH   3   6
HETATM    6  C   UNL     1     -10.366   8.585  70.086  1.00  0.00    -0.214 A  
HETATM    7  C   UNL     1     -11.156   9.732  70.041  1.00  0.00    -0.267 A  
HETATM    8  F   UNL     1     -12.483   9.662  70.231  1.00  0.00    -0.169 F  
HETATM    9  C   UNL     1     -10.602  10.988  69.782  1.00  0.00    -0.055 A  
HETATM   10  C   UNL     1      -9.236  11.119  69.529  1.00  0.00     0.488 A  
HETATM   11  C   UNL     1      -8.437   9.965  69.628  1.00  0.00    -0.198 A  
HETATM   12  C   UNL     1      -8.990   8.712  69.905  1.00  0.00    -0.149 A  
BRANCH  10  13
HETATM   13  N   UNL     1      -8.633  12.370  69.217  1.00  0.00     0.697 N  
HETATM   14  C   UNL     1      -9.315  13.612  69.167  1.00  0.00     0.447 C  
HETATM   15  N   UNL     1      -8.649  14.415  68.246  1.00  0.00    -0.164 N  
HETATM   16  S   UNL     1     -10.540  14.039  70.240  1.00  0.00     1.158 S  
HETATM   17  C   UNL     1      -6.330  12.769  70.052  1.00  0.00     0.013 C  
HETATM   18  C   UNL     1      -7.370  13.905  68.091  1.00  0.00    -0.123 C  
HETATM   19  C   UNL     1      -6.674  11.539  67.849  1.00  0.00    -0.065 C  
HETATM   20  C   UNL     1      -7.246  12.560  68.837  1.00  0.00    -0.050 C  
HETATM   21  O   UNL     1      -6.411  14.416  67.521  1.00  0.00    -0.295 OA 
BRANCH  15  22
HETATM   22  C   UNL     1      -9.167  15.556  67.532  1.00  0.00    -0.198 A  
HETATM   23  C   UNL     1      -9.330  17.979  67.177  1.00  0.00    -0.259 A  
HETATM   24  C   UNL     1      -8.820  16.869  67.873  1.00  0.00    -0.218 A  
HETATM   25  C   UNL     1     -10.225  17.820  66.114  1.00  0.00    -0.339 A  
HETATM   26  C   UNL     1     -10.566  16.527  65.712  1.00  0.00    -0.307 A  
HETATM   27  C   UNL     1     -10.748  19.001  65.491  1.00  0.00    -0.039 C  
HETATM   28  C   UNL     1      -9.993  15.426  66.401  1.00  0.00    -0.295 A  
HETATM   29  N   UNL     1     -11.158  19.978  65.011  1.00  0.00     0.024 NA 
HETATM   30  C   UNL     1     -11.524  16.218  64.583  1.00  0.00    -0.167 C  
HETATM   31  F   UNL     1     -12.545  15.417  64.996  1.00  0.00     0.044 F  
HETATM   32  F   UNL     1     -10.912  15.545  63.569  1.00  0.00     0.764 F  
HETATM   33  F   UNL     1     -12.114  17.296  64.012  1.00  0.00     1.120 F  
ENDBRANCH  15  22
ENDBRANCH  10  13
ENDBRANCH   3   6
TORSDOF 3
ENDMDL
MODEL      153
REMARK 921   NORMALIZED FREE ENERGY PREDICTED BY IDOCK:    4.14 KCAL/MOL
REMARK 922        TOTAL FREE ENERGY PREDICTED BY IDOCK:    3.95 KCAL/MOL
REMARK 923 INTER-LIGAND FREE ENERGY PREDICTED BY IDOCK:    3.12 KCAL/MOL
REMARK 924 INTRA-LIGAND FREE ENERGY PREDICTED BY IDOCK:    0.83 KCAL/MOL
REMARK 927      BINDING AFFINITY PREDICTED BY RF-SCORE:    0.00 PKD
ROOT
HETATM    1  C   UNL     1      -8.068   2.253  69.584  1.00  0.00    -0.041 C  
HETATM    2  N   UNL     1      -7.919   3.601  69.104  1.00  0.00    -0.054 N  
HETATM    3  C   UNL     1      -8.999   4.446  68.990  1.00  0.00    -0.108 C  
HETATM    4  H   UNL     1      -6.992   3.937  68.841  1.00  0.00     0.000 HD 
HETATM    5  O   UNL     1     -10.142   4.129  69.294  1.00  0.00    -0.057 OA 
ENDROOT
BRANCH   3   6
HETATM    6  C   UNL     1      -8.711   5.823  68.522  1.00  0.00    -0.111 A  
HETATM    7  C   UNL     1      -7.876   6.696  69.216  1.00  0.00    -0.110 A  
HETATM    8  F   UNL     1      -7.257   6.307  70.341  1.00  0.00    -0.071 F  
HETATM    9  C   UNL     1      -7.665   8.006  68.777  1.00  0.00    -0.108 A  
HETATM   10  C   UNL     1      -8.317   8.483  67.639  1.00  0.00    -0.129 A  
HETATM   11  C   UNL     1      -9.117   7.582  66.915  1.00  0.00    -0.166 A  
HETATM   12  C   UNL     1      -9.313   6.266  67.344  1.00  0.00    -0.117 A  
BRANCH  10  13
HETATM   13  N   UNL     1      -8.168   9.822  67.179  1.00  0.00    -0.120 N  
HETATM   14  C   UNL     1      -8.113  10.968  68.011  1.00  0.00    -0.121 C  
HETATM   15  N   UNL     1      -8.621  12.038  67.280  1.00  0.00    -0.169 N  
HETATM   16  S   UNL     1      -7.333  10.992  69.503  1.00  0.00     0.003 S  
HETATM   17  C   UNL     1      -6.689  10.199  65.222  1.00  0.00    -0.122 C  
HETATM   18  C   UNL     1      -8.545  11.703  65.938  1.00  0.00     0.065 C  
HETATM   19  C   UNL     1      -9.123   9.552  64.852  1.00  0.00    -0.276 C  
HETATM   20  C   UNL     1      -8.117  10.228  65.787  1.00  0.00    -0.149 C  
HETATM   21  O   UNL     1      -8.712  12.428  64.962  1.00  0.00     0.916 OA 
BRANCH  15  22
HETATM   22  C   UNL     1      -9.169  13.272  67.786  1.00  0.00    -0.209 A  
HETATM   23  C   UNL     1      -9.693  15.656  67.534  1.00  0.00    -0.222 A  
HETATM   24  C   UNL     1      -9.161  14.455  67.036  1.00  0.00    -0.246 A  
HETATM   25  C   UNL     1     -10.245  15.729  68.817  1.00  0.00    -0.217 A  
HETATM   26  C   UNL     1     -10.313  14.565  69.584  1.00  0.00     0.043 A  
HETATM   27  C   UNL     1     -10.715  17.004  69.277  1.00  0.00    -0.226 C  
HETATM   28  C   UNL     1      -9.816  13.355  69.033  1.00  0.00     0.209 A  
HETATM   29  N   UNL     1     -11.081  18.052  69.623  1.00  0.00     1.434 NA 
HETATM   30  C   UNL     1     -10.881  14.508  70.985  1.00  0.00     0.674 C  
HETATM   31  F   UNL     1      -9.983  13.993  71.870  1.00  0.00     3.691 F  
HETATM   32  F   UNL     1     -11.975  13.700  71.056  1.00  0.00    -0.386 F  
HETATM   33  F   UNL     1     -11.263  15.700  71.505  1.00  0.00    -0.379 F  
ENDBRANCH  15  22
ENDBRANCH  10  13
ENDBRANCH   3   6
TORSDOF 3
ENDMDL
MODEL      154
REMARK 921   NORMALIZED FREE ENERGY PREDICTED BY IDOCK:    5.09 KCAL/MOL
REMARK 922        TOTAL FREE ENERGY PREDICTED BY IDOCK:    5.07 KCAL/MOL
REMARK 923 INTER-LIGAND FREE ENERGY PREDICTED BY IDOCK:    4.63 KCAL/MOL
REMARK 924 INTRA-LIGAND FREE ENERGY PREDICTED BY IDOCK:    0.44 KCAL/MOL
REMARK 927      BINDING AFFINITY PREDICTED BY RF-SCORE:    0.00 PKD
ROOT
HETATM    1  C   UNL     1     -12.089   2.053  63.193  1.00  0.00     1.922 C  
HETATM    2  N   UNL     1     -11.277   2.959  63.961  1.00  0.00    -0.231 N  
HETATM    3  C   UNL     1     -11.360   4.321  63.787  1.00  0.00     0.819 C  
HETATM    4  H   UNL     1     -10.625   2.582  64.649  1.00  0.00     0.000 HD 
HETATM    5  O   UNL     1     -12.122   4.858  62.993  1.00  0.00     1.921 OA 
ENDROOT
BRANCH   3   6
HETATM    6  C   UNL     1     -10.501   5.151  64.666  1.00  0.00     1.024 A  
HETATM    7  C   UNL     1      -9.163   5.417  64.379  1.00  0.00     0.356 A  
HETATM    8  F   UNL     1      -8.596   4.953  63.254  1.00  0.00    -0.111 F  
HETATM    9  C   UNL     1      -8.365   6.160  65.252  1.00  0.00    -0.144 A  
HETATM   10  C   UNL     1      -8.885   6.629  66.459  1.00  0.00    -0.139 A  
HETATM   11  C   UNL     1     -10.249   6.402  66.718  1.00  0.00    -0.259 A  
HETATM   12  C   UNL     1     -11.052   5.675  65.834  1.00  0.00     0.628 A  
BRANCH  10  13
HETATM   13  N   UNL     1      -8.099   7.351  67.400  1.00  0.00    -0.112 N  
HETATM   14  C   UNL     1      -8.534   8.491  68.122  1.00  0.00    -0.134 C  
HETATM   15  N   UNL     1      -7.412   9.271  68.384  1.00  0.00    -0.078 N  
HETATM   16  S   UNL     1     -10.097   8.662  68.725  1.00  0.00    -0.199 S  
HETATM   17  C   UNL     1      -6.561   6.044  68.845  1.00  0.00    -0.051 C  
HETATM   18  C   UNL     1      -6.298   8.456  68.269  1.00  0.00    -0.051 C  
HETATM   19  C   UNL     1      -5.797   6.768  66.526  1.00  0.00    -0.025 C  
HETATM   20  C   UNL     1      -6.709   7.076  67.717  1.00  0.00    -0.071 C  
HETATM   21  O   UNL     1      -5.140   8.699  68.598  1.00  0.00    -0.029 OA 
BRANCH  15  22
HETATM   22  C   UNL     1      -7.369  10.680  68.689  1.00  0.00    -0.094 A  
HETATM   23  C   UNL     1      -6.562  12.566  70.036  1.00  0.00     0.212 A  
HETATM   24  C   UNL     1      -6.600  11.193  69.741  1.00  0.00    -0.138 A  
HETATM   25  C   UNL     1      -7.309  13.488  69.296  1.00  0.00     0.158 A  
HETATM   26  C   UNL     1      -8.058  13.028  68.210  1.00  0.00    -0.151 A  
HETATM   27  C   UNL     1      -7.266  14.865  69.693  1.00  0.00    -0.166 C  
HETATM   28  C   UNL     1      -8.033  11.641  67.904  1.00  0.00    -0.132 A  
HETATM   29  N   UNL     1      -7.214  15.973  70.045  1.00  0.00     0.213 NA 
HETATM   30  C   UNL     1      -8.910  13.917  67.333  1.00  0.00    -0.207 C  
HETATM   31  F   UNL     1     -10.201  13.486  67.284  1.00  0.00    -0.234 F  
HETATM   32  F   UNL     1      -8.473  13.926  66.043  1.00  0.00     0.306 F  
HETATM   33  F   UNL     1      -8.974  15.217  67.713  1.00  0.00    -0.170 F  
ENDBRANCH  15  22
ENDBRANCH  10  13
ENDBRANCH   3   6
TORSDOF 3
ENDMDL
MODEL      155
REMARK 921   NORMALIZED FREE ENERGY PREDICTED BY IDOCK:    5.76 KCAL/MOL
REMARK 922        TOTAL FREE ENERGY PREDICTED BY IDOCK:    5.85 KCAL/MOL
REMARK 923 INTER-LIGAND FREE ENERGY PREDICTED BY IDOCK:    4.82 KCAL/MOL
REMARK 924 INTRA-LIGAND FREE ENERGY PREDICTED BY IDOCK:    1.04 KCAL/MOL
REMARK 927      BINDING AFFINITY PREDICTED BY RF-SCORE:    0.00 PKD
ROOT
HETATM    1  C   UNL     1     -10.629   3.216  63.445  1.00  0.00    -0.246 C  
HETATM    2  N   UNL     1     -10.602   4.342  64.340  1.00  0.00    -0.482 N  
HETATM    3  C   UNL     1      -9.842   4.330  65.487  1.00  0.00    -0.215 C  
HETATM    4  H   UNL     1     -11.159   5.168  64.119  1.00  0.00     0.000 HD 
HETATM    5  O   UNL     1      -9.136   3.386  65.822  1.00  0.00    -0.141 OA 
ENDROOT
BRANCH   3   6
HETATM    6  C   UNL     1      -9.866   5.565  66.307  1.00  0.00    -0.173 A  
HETATM    7  C   UNL     1      -8.929   5.825  67.305  1.00  0.00    -0.112 A  
HETATM    8  F   UNL     1      -7.925   4.967  67.546  1.00  0.00    -0.093 F  
HETATM    9  C   UNL     1      -9.008   6.974  68.096  1.00  0.00    -0.127 A  
HETATM   10  C   UNL     1     -10.055   7.879  67.924  1.00  0.00    -0.191 A  
HETATM   11  C   UNL     1     -10.967   7.638  66.881  1.00  0.00     0.073 A  
HETATM   12  C   UNL     1     -10.877   6.498  66.077  1.00  0.00     1.112 A  
BRANCH  10  13
HETATM   13  N   UNL     1     -10.202   9.040  68.735  1.00  0.00    -0.203 N  
HETATM   14  C   UNL     1     -10.670  10.298  68.280  1.00  0.00    -0.237 C  
HETATM   15  N   UNL     1     -10.080  11.275  69.076  1.00  0.00    -0.172 N  
HETATM   16  S   UNL     1     -11.902  10.471  67.145  1.00  0.00     1.973 S  
HETATM   17  C   UNL     1     -10.973   8.711  71.071  1.00  0.00    -0.314 C  
HETATM   18  C   UNL     1      -9.660  10.665  70.248  1.00  0.00     0.948 C  
HETATM   19  C   UNL     1      -8.496   8.495  70.523  1.00  0.00    -0.143 C  
HETATM   20  C   UNL     1      -9.832   9.135  70.135  1.00  0.00    -0.198 C  
HETATM   21  O   UNL     1      -9.265  11.194  71.282  1.00  0.00     5.216 OA 
BRANCH  15  22
HETATM   22  C   UNL     1      -9.887  12.670  68.765  1.00  0.00     0.029 A  
HETATM   23  C   UNL     1     -10.718  14.823  67.931  1.00  0.00    -0.259 A  
HETATM   24  C   UNL     1     -10.911  13.465  68.235  1.00  0.00    -0.275 A  
HETATM   25  C   UNL     1      -9.480  15.442  68.131  1.00  0.00    -0.202 A  
HETATM   26  C   UNL     1      -8.442  14.700  68.697  1.00  0.00    -0.164 A  
HETATM   27  C   UNL     1      -9.343  16.816  67.741  1.00  0.00    -0.233 C  
HETATM   28  C   UNL     1      -8.684  13.345  69.044  1.00  0.00     0.404 A  
HETATM   29  N   UNL     1      -9.263  17.928  67.409  1.00  0.00    -0.251 NA 
HETATM   30  C   UNL     1      -7.057  15.248  68.962  1.00  0.00    -0.141 C  
HETATM   31  F   UNL     1      -6.096  14.494  68.361  1.00  0.00    -0.078 F  
HETATM   32  F   UNL     1      -6.756  15.243  70.290  1.00  0.00    -0.157 F  
HETATM   33  F   UNL     1      -6.845  16.517  68.536  1.00  0.00    -0.133 F  
ENDBRANCH  15  22
ENDBRANCH  10  13
ENDBRANCH   3   6
TORSDOF 3
ENDMDL
MODEL      156
REMARK 921   NORMALIZED FREE ENERGY PREDICTED BY IDOCK:    5.98 KCAL/MOL
REMARK 922        TOTAL FREE ENERGY PREDICTED BY IDOCK:    6.11 KCAL/MOL
REMARK 923 INTER-LIGAND FREE ENERGY PREDICTED BY IDOCK:    6.94 KCAL/MOL
REMARK 924 INTRA-LIGAND FREE ENERGY PREDICTED BY IDOCK:   -0.83 KCAL/MOL
REMARK 927      BINDING AFFINITY PREDICTED BY RF-SCORE:    0.00 PKD
ROOT
HETATM    1  C   UNL     1     -11.469   3.628  69.518  1.00  0.00     8.725 C  
HETATM    2  N   UNL     1     -10.828   4.893  69.278  1.00  0.00     0.502 N  
HETATM    3  C   UNL     1     -11.029   5.970  70.111  1.00  0.00    -0.359 C  
HETATM    4  H   UNL     1     -10.211   4.995  68.472  1.00  0.00     0.000 HD 
HETATM    5  O   UNL     1     -11.742   5.933  71.106  1.00  0.00    -0.126 OA 
ENDROOT
BRANCH   3   6
HETATM    6  C   UNL     1     -10.281   7.207  69.781  1.00  0.00    -0.215 A  
HETATM    7  C   UNL     1      -9.188   7.648  70.524  1.00  0.00    -0.159 A  
HETATM    8  F   UNL     1      -8.735   6.937  71.569  1.00  0.00    -0.121 F  
HETATM    9  C   UNL     1      -8.535   8.845  70.219  1.00  0.00    -0.168 A  
HETATM   10  C   UNL     1      -8.989   9.651  69.174  1.00  0.00    -0.154 A  
HETATM   11  C   UNL     1     -10.060   9.175  68.396  1.00  0.00    -0.220 A  
HETATM   12  C   UNL     1     -10.700   7.968  68.690  1.00  0.00    -0.066 A  
BRANCH  10  13
HETATM   13  N   UNL     1      -8.385  10.900  68.855  1.00  0.00    -0.150 N  
HETATM   14  C   UNL     1      -9.041  12.155  68.892  1.00  0.00     0.243 C  
HETATM   15  N   UNL     1      -8.428  12.973  67.948  1.00  0.00    -0.172 N  
HETATM   16  S   UNL     1     -10.176  12.572  70.064  1.00  0.00     2.539 S  
HETATM   17  C   UNL     1      -6.019  11.229  69.529  1.00  0.00    -0.076 C  
HETATM   18  C   UNL     1      -7.175  12.444  67.684  1.00  0.00    -0.130 C  
HETATM   19  C   UNL     1      -6.548  10.074  67.323  1.00  0.00    -0.069 C  
HETATM   20  C   UNL     1      -7.025  11.075  68.380  1.00  0.00    -0.071 C  
HETATM   21  O   UNL     1      -6.249  12.954  67.060  1.00  0.00    -0.242 OA 
BRANCH  15  22
HETATM   22  C   UNL     1      -8.973  14.145  67.307  1.00  0.00    -0.214 A  
HETATM   23  C   UNL     1     -10.797  15.316  66.157  1.00  0.00    -0.320 A  
HETATM   24  C   UNL     1     -10.271  14.173  66.782  1.00  0.00    -0.262 A  
HETATM   25  C   UNL     1     -10.037  16.481  66.016  1.00  0.00    -0.368 A  
HETATM   26  C   UNL     1      -8.752  16.513  66.562  1.00  0.00    -0.317 A  
HETATM   27  C   UNL     1     -10.622  17.587  65.314  1.00  0.00     0.132 C  
HETATM   28  C   UNL     1      -8.268  15.361  67.235  1.00  0.00    -0.222 A  
HETATM   29  N   UNL     1     -11.122  18.463  64.735  1.00  0.00    -0.060 NA 
HETATM   30  C   UNL     1      -7.827  17.707  66.476  1.00  0.00    -0.272 C  
HETATM   31  F   UNL     1      -6.632  17.376  65.914  1.00  0.00    -0.253 F  
HETATM   32  F   UNL     1      -7.531  18.208  67.707  1.00  0.00    -0.202 F  
HETATM   33  F   UNL     1      -8.295  18.752  65.751  1.00  0.00    -0.215 F  
ENDBRANCH  15  22
ENDBRANCH  10  13
ENDBRANCH   3   6
TORSDOF 3
ENDMDL
MODEL      157
REMARK 921   NORMALIZED FREE ENERGY PREDICTED BY IDOCK:    6.25 KCAL/MOL
REMARK 922        TOTAL FREE ENERGY PREDICTED BY IDOCK:    6.43 KCAL/MOL
REMARK 923 INTER-LIGAND FREE ENERGY PREDICTED BY IDOCK:    5.95 KCAL/MOL
REMARK 924 INTRA-LIGAND FREE ENERGY PREDICTED BY IDOCK:    0.47 KCAL/MOL
REMARK 927      BINDING AFFINITY PREDICTED BY RF-SCORE:    0.00 PKD
ROOT
HETATM    1  C   UNL     1      -7.511   6.159  68.790  1.00  0.00    -0.087 C  
HETATM    2  N   UNL     1      -7.501   7.591  68.650  1.00  0.00    -0.099 N  
HETATM    3  C   UNL     1      -7.892   8.200  67.479  1.00  0.00    -0.110 C  
HETATM    4  H   UNL     1      -7.198   8.167  69.435  1.00  0.00     0.000 HD 
HETATM    5  O   UNL     1      -8.281   7.586  66.493  1.00  0.00    -0.115 OA 
ENDROOT
BRANCH   3   6
HETATM    6  C   UNL     1      -7.876   9.683  67.471  1.00  0.00    -0.095 A  
HETATM    7  C   UNL     1      -8.826  10.449  68.143  1.00  0.00    -0.132 A  
HETATM    8  F   UNL     1      -9.792   9.866  68.870  1.00  0.00    -0.155 F  
HETATM    9  C   UNL     1      -8.816  11.845  68.075  1.00  0.00    -0.177 A  
HETATM   10  C   UNL     1      -7.865  12.507  67.298  1.00  0.00    -0.160 A  
HETATM   11  C   UNL     1      -6.879  11.730  66.665  1.00  0.00     0.020 A  
HETATM   12  C   UNL     1      -6.878  10.335  66.749  1.00  0.00    -0.088 A  
BRANCH  10  13
HETATM   13  N   UNL     1      -7.843  13.924  67.162  1.00  0.00    -0.093 N  
HETATM   14  C   UNL     1      -6.841  14.778  67.690  1.00  0.00    -0.182 C  
HETATM   15  N   UNL     1      -7.439  16.007  67.952  1.00  0.00    -0.125 N  
HETATM   16  S   UNL     1      -5.207  14.375  67.725  1.00  0.00     0.093 S  
HETATM   17  C   UNL     1      -8.637  14.878  65.013  1.00  0.00     4.085 C  
HETATM   18  C   UNL     1      -8.598  16.080  67.197  1.00  0.00    -0.194 C  
HETATM   19  C   UNL     1     -10.319  14.333  66.844  1.00  0.00    -0.268 C  
HETATM   20  C   UNL     1      -8.874  14.720  66.522  1.00  0.00    -0.188 C  
HETATM   21  O   UNL     1      -9.313  17.057  66.993  1.00  0.00    -0.230 OA 
BRANCH  15  22
HETATM   22  C   UNL     1      -6.987  17.032  68.861  1.00  0.00    -0.219 A  
HETATM   23  C   UNL     1      -5.255  18.042  70.275  1.00  0.00    -0.243 A  
HETATM   24  C   UNL     1      -5.690  17.043  69.387  1.00  0.00    -0.179 A  
HETATM   25  C   UNL     1      -6.110  19.068  70.688  1.00  0.00     0.055 A  
HETATM   26  C   UNL     1      -7.400  19.122  70.155  1.00  0.00     0.660 A  
HETATM   27  C   UNL     1      -5.613  20.018  71.641  1.00  0.00    -0.408 C  
HETATM   28  C   UNL     1      -7.792  18.129  69.219  1.00  0.00     0.132 A  
HETATM   29  N   UNL     1      -5.182  20.767  72.419  1.00  0.00    -0.347 NA 
HETATM   30  C   UNL     1      -8.423  20.175  70.521  1.00  0.00     1.665 C  
HETATM   31  F   UNL     1      -9.578  19.616  70.976  1.00  0.00     0.856 F  
HETATM   32  F   UNL     1      -8.777  20.932  69.445  1.00  0.00     1.165 F  
HETATM   33  F   UNL     1      -8.036  21.049  71.481  1.00  0.00     1.116 F  
ENDBRANCH  15  22
ENDBRANCH  10  13
ENDBRANCH   3   6
TORSDOF 3
ENDMDL
MODEL      158
REMARK 921   NORMALIZED FREE ENERGY PREDICTED BY IDOCK:    6.25 KCAL/MOL
REMARK 922        TOTAL FREE ENERGY PREDICTED BY IDOCK:    6.43 KCAL/MOL
REMARK 923 INTER-LIGAND FREE ENERGY PREDICTED BY IDOCK:    6.27 KCAL/MOL
REMARK 924 INTRA-LIGAND FREE ENERGY PREDICTED BY IDOCK:    0.17 KCAL/MOL
REMARK 927      BINDING AFFINITY PREDICTED BY RF-SCORE:    0.00 PKD
ROOT
HETATM    1  C   UNL     1      -9.820  19.300  68.249  1.00  0.00    -0.400 C  
HETATM    2  N   UNL     1      -9.572  17.884  68.288  1.00  0.00    -0.299 N  
HETATM    3  C   UNL     1      -8.636  17.342  69.139  1.00  0.00     0.065 C  
HETATM    4  H   UNL     1     -10.101  17.268  67.671  1.00  0.00     0.000 HD 
HETATM    5  O   UNL     1      -7.966  18.007  69.920  1.00  0.00     0.901 OA 
ENDROOT
BRANCH   3   6
HETATM    6  C   UNL     1      -8.500  15.866  69.115  1.00  0.00    -0.254 A  
HETATM    7  C   UNL     1      -7.802  15.190  68.117  1.00  0.00    -0.125 A  
HETATM    8  F   UNL     1      -7.181  15.862  67.135  1.00  0.00    -0.183 F  
HETATM    9  C   UNL     1      -7.734  13.794  68.093  1.00  0.00    -0.140 A  
HETATM   10  C   UNL     1      -8.398  13.038  69.060  1.00  0.00     0.422 A  
HETATM   11  C   UNL     1      -9.057  13.728  70.094  1.00  0.00     2.764 A  
HETATM   12  C   UNL     1      -9.108  15.124  70.128  1.00  0.00     0.494 A  
BRANCH  10  13
HETATM   13  N   UNL     1      -8.396  11.615  69.051  1.00  0.00     0.054 N  
HETATM   14  C   UNL     1      -7.684  10.807  68.128  1.00  0.00    -0.102 C  
HETATM   15  N   UNL     1      -8.392   9.618  67.985  1.00  0.00    -0.117 N  
HETATM   16  S   UNL     1      -6.149  11.193  67.553  1.00  0.00    -0.057 S  
HETATM   17  C   UNL     1      -8.428  10.458  71.247  1.00  0.00     3.436 C  
HETATM   18  C   UNL     1      -9.215   9.482  69.091  1.00  0.00    -0.163 C  
HETATM   19  C   UNL     1     -10.619  11.205  70.186  1.00  0.00     0.461 C  
HETATM   20  C   UNL     1      -9.172  10.770  69.940  1.00  0.00     0.637 C  
HETATM   21  O   UNL     1      -9.857   8.498  69.446  1.00  0.00    -0.178 OA 
BRANCH  15  22
HETATM   22  C   UNL     1      -8.337   8.685  66.886  1.00  0.00    -0.108 A  
HETATM   23  C   UNL     1      -8.583   8.149  64.504  1.00  0.00     0.074 A  
HETATM   24  C   UNL     1      -8.636   9.062  65.571  1.00  0.00    -0.190 A  
HETATM   25  C   UNL     1      -8.243   6.809  64.712  1.00  0.00    -0.052 A  
HETATM   26  C   UNL     1      -7.895   6.397  66.000  1.00  0.00    -0.103 A  
HETATM   27  C   UNL     1      -8.268   5.924  63.583  1.00  0.00    -0.049 C  
HETATM   28  C   UNL     1      -7.906   7.355  67.048  1.00  0.00    -0.116 A  
HETATM   29  N   UNL     1      -8.304   5.232  62.649  1.00  0.00    -0.110 NA 
HETATM   30  C   UNL     1      -7.512   4.979  66.359  1.00  0.00    -0.087 C  
HETATM   31  F   UNL     1      -8.295   4.485  67.358  1.00  0.00    -0.102 F  
HETATM   32  F   UNL     1      -6.233   4.901  66.819  1.00  0.00    -0.028 F  
HETATM   33  F   UNL     1      -7.600   4.080  65.348  1.00  0.00    -0.076 F  
ENDBRANCH  15  22
ENDBRANCH  10  13
ENDBRANCH   3   6
TORSDOF 3
ENDMDL
MODEL      159
REMARK 921   NORMALIZED FREE ENERGY PREDICTED BY IDOCK:    6.34 KCAL/MOL
REMARK 922        TOTAL FREE ENERGY PREDICTED BY IDOCK:    6.53 KCAL/MOL
REMARK 923 INTER-LIGAND FREE ENERGY PREDICTED BY IDOCK:    6.18 KCAL/MOL
REMARK 924 INTRA-LIGAND FREE ENERGY PREDICTED BY IDOCK:    0.35 KCAL/MOL
REMARK 927      BINDING AFFINITY PREDICTED BY RF-SCORE:    0.00 PKD
ROOT
HETATM    1  C   UNL     1      -7.994   3.431  69.655  1.00  0.00    -0.049 C  
HETATM    2  N   UNL     1      -7.797   4.819  69.331  1.00  0.00    -0.063 N  
HETATM    3  C   UNL     1      -8.719   5.520  68.587  1.00  0.00    -0.108 C  
HETATM    4  H   UNL     1      -6.957   5.294  69.660  1.00  0.00     0.000 HD 
HETATM    5  O   UNL     1      -9.759   5.033  68.163  1.00  0.00    -0.136 OA 
ENDROOT
BRANCH   3   6
HETATM    6  C   UNL     1      -8.423   6.954  68.353  1.00  0.00    -0.123 A  
HETATM    7  C   UNL     1      -8.792   7.619  67.185  1.00  0.00    -0.125 A  
HETATM    8  F   UNL     1      -9.475   6.985  66.219  1.00  0.00    -0.204 F  
HETATM    9  C   UNL     1      -8.453   8.958  66.972  1.00  0.00    -0.112 A  
HETATM   10  C   UNL     1      -7.704   9.657  67.919  1.00  0.00    -0.087 A  
HETATM   11  C   UNL     1      -7.380   8.996  69.117  1.00  0.00    -0.072 A  
HETATM   12  C   UNL     1      -7.735   7.662  69.338  1.00  0.00    -0.107 A  
BRANCH  10  13
HETATM   13  N   UNL     1      -7.298  11.007  67.725  1.00  0.00    -0.091 N  
HETATM   14  C   UNL     1      -7.413  12.039  68.691  1.00  0.00    -0.113 C  
HETATM   15  N   UNL     1      -7.562  13.238  68.002  1.00  0.00    -0.129 N  
HETATM   16  S   UNL     1      -7.155  11.798  70.337  1.00  0.00     2.013 S  
HETATM   17  C   UNL     1      -5.241  11.402  66.394  1.00  0.00    -0.116 C  
HETATM   18  C   UNL     1      -7.089  13.045  66.714  1.00  0.00     0.803 C  
HETATM   19  C   UNL     1      -7.474  11.119  65.204  1.00  0.00     0.559 C  
HETATM   20  C   UNL     1      -6.766  11.553  66.490  1.00  0.00    -0.019 C  
HETATM   21  O   UNL     1      -6.868  13.889  65.850  1.00  0.00     4.225 OA 
BRANCH  15  22
HETATM   22  C   UNL     1      -8.133  14.471  68.488  1.00  0.00    -0.148 A  
HETATM   23  C   UNL     1     -10.007  15.754  69.417  1.00  0.00    -0.274 A  
HETATM   24  C   UNL     1      -9.454  14.551  68.947  1.00  0.00    -0.144 A  
HETATM   25  C   UNL     1      -9.262  16.938  69.434  1.00  0.00     0.139 A  
HETATM   26  C   UNL     1      -7.927  16.896  69.026  1.00  0.00    -0.169 A  
HETATM   27  C   UNL     1      -9.913  18.138  69.873  1.00  0.00     0.825 C  
HETATM   28  C   UNL     1      -7.381  15.654  68.607  1.00  0.00    -0.127 A  
HETATM   29  N   UNL     1     -10.472  19.094  70.228  1.00  0.00     1.159 NA 
HETATM   30  C   UNL     1      -7.015  18.102  68.992  1.00  0.00    -0.254 C  
HETATM   31  F   UNL     1      -6.475  18.289  67.756  1.00  0.00    -0.181 F  
HETATM   32  F   UNL     1      -5.959  17.963  69.841  1.00  0.00    -0.221 F  
HETATM   33  F   UNL     1      -7.601  19.281  69.316  1.00  0.00    -0.373 F  
ENDBRANCH  15  22
ENDBRANCH  10  13
ENDBRANCH   3   6
TORSDOF 3
ENDMDL
MODEL      160
REMARK 921   NORMALIZED FREE ENERGY PREDICTED BY IDOCK:    8.05 KCAL/MOL
REMARK 922        TOTAL FREE ENERGY PREDICTED BY IDOCK:    8.54 KCAL/MOL
REMARK 923 INTER-LIGAND FREE ENERGY PREDICTED BY IDOCK:    7.81 KCAL/MOL
REMARK 924 INTRA-LIGAND FREE ENERGY PREDICTED BY IDOCK:    0.73 KCAL/MOL
REMARK 927      BINDING AFFINITY PREDICTED BY RF-SCORE:    0.00 PKD
ROOT
HETATM    1  C   UNL     1      -9.820  19.301  68.251  1.00  0.00    -0.400 C  
HETATM    2  N   UNL     1      -9.585  17.883  68.305  1.00  0.00    -0.299 N  
HETATM    3  C   UNL     1      -8.651  17.342  69.159  1.00  0.00     0.040 C  
HETATM    4  H   UNL     1     -10.122  17.265  67.697  1.00  0.00     0.000 HD 
HETATM    5  O   UNL     1      -7.972  18.009  69.930  1.00  0.00     0.901 OA 
ENDROOT
BRANCH   3   6
HETATM    6  C   UNL     1      -8.529  15.864  69.151  1.00  0.00    -0.254 A  
HETATM    7  C   UNL     1      -7.842  15.170  68.157  1.00  0.00    -0.125 A  
HETATM    8  F   UNL     1      -7.220  15.826  67.165  1.00  0.00    -0.188 F  
HETATM    9  C   UNL     1      -7.788  13.774  68.149  1.00  0.00    -0.149 A  
HETATM   10  C   UNL     1      -8.454  13.035  69.127  1.00  0.00     0.639 A  
HETATM   11  C   UNL     1      -9.101  13.743  70.156  1.00  0.00     2.764 A  
HETATM   12  C   UNL     1      -9.139  15.140  70.175  1.00  0.00     0.494 A  
BRANCH  10  13
HETATM   13  N   UNL     1      -8.465  11.612  69.134  1.00  0.00     0.180 N  
HETATM   14  C   UNL     1      -7.767  10.787  68.216  1.00  0.00    -0.109 C  
HETATM   15  N   UNL     1      -8.486   9.603  68.091  1.00  0.00    -0.118 N  
HETATM   16  S   UNL     1      -6.232  11.152  67.627  1.00  0.00    -0.056 S  
HETATM   17  C   UNL     1      -8.493  10.481  71.343  1.00  0.00     4.564 C  
HETATM   18  C   UNL     1      -9.303   9.488  69.204  1.00  0.00    -0.163 C  
HETATM   19  C   UNL     1     -10.684  11.236  70.289  1.00  0.00     0.659 C  
HETATM   20  C   UNL     1      -9.243  10.785  70.038  1.00  0.00     0.862 C  
HETATM   21  O   UNL     1      -9.952   8.514  69.574  1.00  0.00    -0.185 OA 
BRANCH  15  22
HETATM   22  C   UNL     1      -8.447   8.657  67.003  1.00  0.00    -0.110 A  
HETATM   23  C   UNL     1      -8.823   6.410  66.091  1.00  0.00    -0.158 A  
HETATM   24  C   UNL     1      -8.865   7.329  67.153  1.00  0.00    -0.125 A  
HETATM   25  C   UNL     1      -8.342   6.779  64.830  1.00  0.00    -0.025 A  
HETATM   26  C   UNL     1      -7.954   8.104  64.622  1.00  0.00    -0.149 A  
HETATM   27  C   UNL     1      -8.274   5.771  63.813  1.00  0.00    -0.074 C  
HETATM   28  C   UNL     1      -8.059   9.023  65.700  1.00  0.00    -0.115 A  
HETATM   29  N   UNL     1      -8.226   4.929  63.012  1.00  0.00    -0.094 NA 
HETATM   30  C   UNL     1      -7.414   8.631  63.311  1.00  0.00    -0.106 C  
HETATM   31  F   UNL     1      -6.196   9.218  63.470  1.00  0.00    -0.086 F  
HETATM   32  F   UNL     1      -8.221   9.591  62.780  1.00  0.00    -0.128 F  
HETATM   33  F   UNL     1      -7.249   7.703  62.338  1.00  0.00    -0.075 F  
ENDBRANCH  15  22
ENDBRANCH  10  13
ENDBRANCH   3   6
TORSDOF 3
ENDMDL
MODEL      161
REMARK 921   NORMALIZED FREE ENERGY PREDICTED BY IDOCK:   11.84 KCAL/MOL
REMARK 922        TOTAL FREE ENERGY PREDICTED BY IDOCK:   13.00 KCAL/MOL
REMARK 923 INTER-LIGAND FREE ENERGY PREDICTED BY IDOCK:   12.93 KCAL/MOL
REMARK 924 INTRA-LIGAND FREE ENERGY PREDICTED BY IDOCK:    0.07 KCAL/MOL
REMARK 927      BINDING AFFINITY PREDICTED BY RF-SCORE:    0.00 PKD
ROOT
HETATM    1  C   UNL     1      -8.774  19.480  69.176  1.00  0.00    -0.079 C  
HETATM    2  N   UNL     1      -8.571  18.067  68.992  1.00  0.00    -0.089 N  
HETATM    3  C   UNL     1      -7.851  17.321  69.896  1.00  0.00     1.360 C  
HETATM    4  H   UNL     1      -8.971  17.609  68.172  1.00  0.00     0.000 HD 
HETATM    5  O   UNL     1      -7.348  17.787  70.911  1.00  0.00     3.270 OA 
ENDROOT
BRANCH   3   6
HETATM    6  C   UNL     1      -7.746  15.869  69.616  1.00  0.00     0.001 A  
HETATM    7  C   UNL     1      -7.931  15.331  68.344  1.00  0.00    -0.131 A  
HETATM    8  F   UNL     1      -8.182  16.125  67.291  1.00  0.00    -0.159 F  
HETATM    9  C   UNL     1      -7.878  13.952  68.121  1.00  0.00    -0.147 A  
HETATM   10  C   UNL     1      -7.667  13.073  69.184  1.00  0.00     0.317 A  
HETATM   11  C   UNL     1      -7.428  13.625  70.455  1.00  0.00     2.124 A  
HETATM   12  C   UNL     1      -7.464  15.005  70.674  1.00  0.00     0.986 A  
BRANCH  10  13
HETATM   13  N   UNL     1      -7.648  11.660  69.013  1.00  0.00    -0.075 N  
HETATM   14  C   UNL     1      -7.931  10.712  70.029  1.00  0.00     0.411 C  
HETATM   15  N   UNL     1      -7.210   9.560  69.735  1.00  0.00    -0.073 N  
HETATM   16  S   UNL     1      -9.123  10.937  71.197  1.00  0.00     6.500 S  
HETATM   17  C   UNL     1      -8.464  10.760  66.848  1.00  0.00    -0.131 C  
HETATM   18  C   UNL     1      -6.884   9.599  68.389  1.00  0.00    -0.061 C  
HETATM   19  C   UNL     1      -6.043  11.515  67.063  1.00  0.00    -0.131 C  
HETATM   20  C   UNL     1      -7.272  10.969  67.793  1.00  0.00    -0.091 C  
HETATM   21  O   UNL     1      -6.420   8.702  67.691  1.00  0.00    -0.059 OA 
BRANCH  15  22
HETATM   22  C   UNL     1      -6.819   8.508  70.641  1.00  0.00    -0.041 A  
HETATM   23  C   UNL     1      -5.191   7.466  72.154  1.00  0.00    -0.036 A  
HETATM   24  C   UNL     1      -5.569   8.495  71.274  1.00  0.00    -0.035 A  
HETATM   25  C   UNL     1      -6.046   6.394  72.428  1.00  0.00    -0.039 A  
HETATM   26  C   UNL     1      -7.319   6.388  71.853  1.00  0.00    -0.092 A  
HETATM   27  C   UNL     1      -5.568   5.353  73.290  1.00  0.00    -0.023 C  
HETATM   28  C   UNL     1      -7.692   7.468  71.010  1.00  0.00    -0.089 A  
HETATM   29  N   UNL     1      -5.147   4.523  73.988  1.00  0.00    -0.008 NA 
HETATM   30  C   UNL     1      -8.336   5.288  72.064  1.00  0.00    -0.122 C  
HETATM   31  F   UNL     1      -8.756   4.759  70.881  1.00  0.00    -0.103 F  
HETATM   32  F   UNL     1      -9.458   5.748  72.683  1.00  0.00    -0.148 F  
HETATM   33  F   UNL     1      -7.908   4.236  72.803  1.00  0.00    -0.075 F  
ENDBRANCH  15  22
ENDBRANCH  10  13
ENDBRANCH   3   6
TORSDOF 3
ENDMDL
MODEL      162
REMARK 921   NORMALIZED FREE ENERGY PREDICTED BY IDOCK:   13.71 KCAL/MOL
REMARK 922        TOTAL FREE ENERGY PREDICTED BY IDOCK:   15.20 KCAL/MOL
REMARK 923 INTER-LIGAND FREE ENERGY PREDICTED BY IDOCK:   14.47 KCAL/MOL
REMARK 924 INTRA-LIGAND FREE ENERGY PREDICTED BY IDOCK:    0.73 KCAL/MOL
REMARK 927      BINDING AFFINITY PREDICTED BY RF-SCORE:    0.00 PKD
ROOT
HETATM    1  C   UNL     1     -11.145  20.639  63.806  1.00  0.00     5.114 C  
HETATM    2  N   UNL     1     -10.398  19.799  64.703  1.00  0.00     1.877 N  
HETATM    3  C   UNL     1     -10.808  18.519  64.998  1.00  0.00     1.269 C  
HETATM    4  H   UNL     1      -9.545  20.160  65.130  1.00  0.00     0.000 HD 
HETATM    5  O   UNL     1     -11.811  18.002  64.521  1.00  0.00     1.686 OA 
ENDROOT
BRANCH   3   6
HETATM    6  C   UNL     1      -9.932  17.738  65.904  1.00  0.00    -0.132 A  
HETATM    7  C   UNL     1      -8.949  18.329  66.695  1.00  0.00    -0.288 A  
HETATM    8  F   UNL     1      -8.775  19.660  66.697  1.00  0.00    -0.297 F  
HETATM    9  C   UNL     1      -8.104  17.561  67.501  1.00  0.00    -0.213 A  
HETATM   10  C   UNL     1      -8.205  16.169  67.506  1.00  0.00    -0.150 A  
HETATM   11  C   UNL     1      -9.233  15.583  66.746  1.00  0.00    -0.272 A  
HETATM   12  C   UNL     1     -10.090  16.353  65.955  1.00  0.00    -0.370 A  
BRANCH  10  13
HETATM   13  N   UNL     1      -7.338  15.344  68.276  1.00  0.00    -0.109 N  
HETATM   14  C   UNL     1      -6.862  14.069  67.879  1.00  0.00    -0.164 C  
HETATM   15  N   UNL     1      -6.643  13.328  69.036  1.00  0.00    -0.101 N  
HETATM   16  S   UNL     1      -6.435  13.693  66.294  1.00  0.00     4.929 S  
HETATM   17  C   UNL     1      -5.563  16.469  69.596  1.00  0.00    -0.165 C  
HETATM   18  C   UNL     1      -6.520  14.220  70.089  1.00  0.00    -0.110 C  
HETATM   19  C   UNL     1      -7.897  16.219  70.582  1.00  0.00     2.912 C  
HETATM   20  C   UNL     1      -6.860  15.647  69.612  1.00  0.00    -0.173 C  
HETATM   21  O   UNL     1      -6.139  13.997  71.235  1.00  0.00    -0.198 OA 
BRANCH  15  22
HETATM   22  C   UNL     1      -6.583  11.893  69.167  1.00  0.00    -0.103 A  
HETATM   23  C   UNL     1      -6.472   9.861  70.539  1.00  0.00    -0.116 A  
HETATM   24  C   UNL     1      -6.534  11.259  70.415  1.00  0.00     0.114 A  
HETATM   25  C   UNL     1      -6.441   9.033  69.412  1.00  0.00    -0.044 A  
HETATM   26  C   UNL     1      -6.531   9.619  68.147  1.00  0.00    -0.057 A  
HETATM   27  C   UNL     1      -6.318   7.619  69.617  1.00  0.00    -0.031 C  
HETATM   28  C   UNL     1      -6.646  11.031  68.057  1.00  0.00    -0.062 A  
HETATM   29  N   UNL     1      -6.213   6.478  69.817  1.00  0.00    -0.036 NA 
HETATM   30  C   UNL     1      -6.505   8.839  66.851  1.00  0.00    -0.061 C  
HETATM   31  F   UNL     1      -5.518   9.279  66.022  1.00  0.00    -0.038 F  
HETATM   32  F   UNL     1      -7.665   8.979  66.153  1.00  0.00    -0.093 F  
HETATM   33  F   UNL     1      -6.306   7.505  66.981  1.00  0.00    -0.045 F  
ENDBRANCH  15  22
ENDBRANCH  10  13
ENDBRANCH   3   6
TORSDOF 3
ENDMDL
MODEL      163
REMARK 921   NORMALIZED FREE ENERGY PREDICTED BY IDOCK:   14.64 KCAL/MOL
REMARK 922        TOTAL FREE ENERGY PREDICTED BY IDOCK:   16.29 KCAL/MOL
REMARK 923 INTER-LIGAND FREE ENERGY PREDICTED BY IDOCK:   15.78 KCAL/MOL
REMARK 924 INTRA-LIGAND FREE ENERGY PREDICTED BY IDOCK:    0.51 KCAL/MOL
REMARK 927      BINDING AFFINITY PREDICTED BY RF-SCORE:    0.00 PKD
ROOT
HETATM    1  C   UNL     1      -7.234   4.941  70.794  1.00  0.00    -0.059 C  
HETATM    2  N   UNL     1      -7.838   6.228  70.578  1.00  0.00    -0.104 N  
HETATM    3  C   UNL     1      -7.147   7.254  69.975  1.00  0.00    -0.066 C  
HETATM    4  H   UNL     1      -8.801   6.384  70.878  1.00  0.00     0.000 HD 
HETATM    5  O   UNL     1      -5.994   7.150  69.574  1.00  0.00    -0.025 OA 
ENDROOT
BRANCH   3   6
HETATM    6  C   UNL     1      -7.891   8.520  69.772  1.00  0.00    -0.094 A  
HETATM    7  C   UNL     1      -8.661   9.110  70.772  1.00  0.00    -0.219 A  
HETATM    8  F   UNL     1      -8.734   8.565  71.996  1.00  0.00    -0.194 F  
HETATM    9  C   UNL     1      -9.393  10.277  70.535  1.00  0.00     0.705 A  
HETATM   10  C   UNL     1      -9.394  10.864  69.269  1.00  0.00    -0.006 A  
HETATM   11  C   UNL     1      -8.574  10.294  68.280  1.00  0.00    -0.122 A  
HETATM   12  C   UNL     1      -7.828   9.137  68.523  1.00  0.00    -0.101 A  
BRANCH  10  13
HETATM   13  N   UNL     1     -10.159  12.027  68.968  1.00  0.00     0.002 N  
HETATM   14  C   UNL     1      -9.637  13.227  68.424  1.00  0.00    -0.185 C  
HETATM   15  N   UNL     1     -10.441  14.271  68.873  1.00  0.00    -0.246 N  
HETATM   16  S   UNL     1      -8.421  13.263  67.261  1.00  0.00    -0.182 S  
HETATM   17  C   UNL     1     -12.449  11.687  68.074  1.00  0.00     1.101 C  
HETATM   18  C   UNL     1     -11.654  13.729  69.264  1.00  0.00    -0.312 C  
HETATM   19  C   UNL     1     -12.069  11.678  70.591  1.00  0.00    -0.432 C  
HETATM   20  C   UNL     1     -11.577  12.188  69.234  1.00  0.00    -0.318 C  
HETATM   21  O   UNL     1     -12.696  14.316  69.541  1.00  0.00    -0.127 OA 
BRANCH  15  22
HETATM   22  C   UNL     1     -10.101  15.670  68.964  1.00  0.00    -0.227 A  
HETATM   23  C   UNL     1      -9.198  17.733  67.989  1.00  0.00    -0.273 A  
HETATM   24  C   UNL     1      -9.530  16.370  67.894  1.00  0.00    -0.223 A  
HETATM   25  C   UNL     1      -9.410  18.451  69.170  1.00  0.00    -0.020 A  
HETATM   26  C   UNL     1     -10.017  17.804  70.248  1.00  0.00     1.576 A  
HETATM   27  C   UNL     1      -8.992  19.822  69.209  1.00  0.00     0.143 C  
HETATM   28  C   UNL     1     -10.390  16.442  70.104  1.00  0.00     0.095 A  
HETATM   29  N   UNL     1      -8.636  20.930  69.210  1.00  0.00     1.894 NA 
HETATM   30  C   UNL     1     -10.298  18.465  71.580  1.00  0.00     3.824 C  
HETATM   31  F   UNL     1      -9.736  17.775  72.611  1.00  0.00     6.501 F  
HETATM   32  F   UNL     1     -11.632  18.512  71.850  1.00  0.00     2.259 F  
HETATM   33  F   UNL     1      -9.847  19.737  71.703  1.00  0.00     1.217 F  
ENDBRANCH  15  22
ENDBRANCH  10  13
ENDBRANCH   3   6
TORSDOF 3
ENDMDL
MODEL      164
REMARK 921   NORMALIZED FREE ENERGY PREDICTED BY IDOCK:   20.21 KCAL/MOL
REMARK 922        TOTAL FREE ENERGY PREDICTED BY IDOCK:   22.84 KCAL/MOL
REMARK 923 INTER-LIGAND FREE ENERGY PREDICTED BY IDOCK:   23.07 KCAL/MOL
REMARK 924 INTRA-LIGAND FREE ENERGY PREDICTED BY IDOCK:   -0.23 KCAL/MOL
REMARK 927      BINDING AFFINITY PREDICTED BY RF-SCORE:    0.00 PKD
ROOT
HETATM    1  C   UNL     1     -13.928   6.721  70.349  1.00  0.00     2.580 C  
HETATM    2  N   UNL     1     -13.559   8.111  70.334  1.00  0.00     0.575 N  
HETATM    3  C   UNL     1     -12.258   8.511  70.542  1.00  0.00     0.225 C  
HETATM    4  H   UNL     1     -14.276   8.816  70.165  1.00  0.00     0.000 HD 
HETATM    5  O   UNL     1     -11.334   7.732  70.740  1.00  0.00    -0.276 OA 
ENDROOT
BRANCH   3   6
HETATM    6  C   UNL     1     -11.996   9.968  70.463  1.00  0.00    -0.357 A  
HETATM    7  C   UNL     1     -13.014  10.911  70.340  1.00  0.00    -0.103 A  
HETATM    8  F   UNL     1     -14.303  10.535  70.325  1.00  0.00     1.001 F  
HETATM    9  C   UNL     1     -12.733  12.274  70.215  1.00  0.00     0.108 A  
HETATM   10  C   UNL     1     -11.412  12.722  70.178  1.00  0.00     0.084 A  
HETATM   11  C   UNL     1     -10.391  11.771  70.354  1.00  0.00     2.498 A  
HETATM   12  C   UNL     1     -10.674  10.410  70.498  1.00  0.00    -0.096 A  
BRANCH  10  13
HETATM   13  N   UNL     1     -11.076  14.095  70.007  1.00  0.00    -0.057 N  
HETATM   14  C   UNL     1     -10.873  14.735  68.759  1.00  0.00    -0.255 C  
HETATM   15  N   UNL     1      -9.970  15.773  68.966  1.00  0.00    -0.220 N  
HETATM   16  S   UNL     1     -11.787  14.396  67.386  1.00  0.00    -0.373 S  
HETATM   17  C   UNL     1     -12.107  15.726  71.569  1.00  0.00    -0.517 C  
HETATM   18  C   UNL     1      -9.978  16.074  70.318  1.00  0.00     0.358 C  
HETATM   19  C   UNL     1      -9.971  14.515  72.243  1.00  0.00     4.995 C  
HETATM   20  C   UNL     1     -10.824  15.036  71.084  1.00  0.00     0.065 C  
HETATM   21  O   UNL     1      -9.473  17.038  70.886  1.00  0.00     3.348 OA 
BRANCH  15  22
HETATM   22  C   UNL     1      -9.131  16.421  67.987  1.00  0.00    -0.200 A  
HETATM   23  C   UNL     1      -6.921  16.955  67.063  1.00  0.00    -0.235 A  
HETATM   24  C   UNL     1      -7.735  16.319  68.017  1.00  0.00    -0.154 A  
HETATM   25  C   UNL     1      -7.473  17.736  66.044  1.00  0.00    -0.284 A  
HETATM   26  C   UNL     1      -8.863  17.832  65.950  1.00  0.00     0.120 A  
HETATM   27  C   UNL     1      -6.576  18.401  65.143  1.00  0.00     0.035 C  
HETATM   28  C   UNL     1      -9.660  17.134  66.896  1.00  0.00    -0.268 A  
HETATM   29  N   UNL     1      -5.822  18.932  64.434  1.00  0.00    -0.373 NA 
HETATM   30  C   UNL     1      -9.585  18.646  64.899  1.00  0.00     3.430 C  
HETATM   31  F   UNL     1     -10.437  19.547  65.461  1.00  0.00    -0.486 F  
HETATM   32  F   UNL     1     -10.354  17.863  64.092  1.00  0.00     2.813 F  
HETATM   33  F   UNL     1      -8.787  19.364  64.072  1.00  0.00     5.085 F  
ENDBRANCH  15  22
ENDBRANCH  10  13
ENDBRANCH   3   6
TORSDOF 3
ENDMDL
MODEL      165
REMARK 921   NORMALIZED FREE ENERGY PREDICTED BY IDOCK:   27.84 KCAL/MOL
REMARK 922        TOTAL FREE ENERGY PREDICTED BY IDOCK:   31.81 KCAL/MOL
REMARK 923 INTER-LIGAND FREE ENERGY PREDICTED BY IDOCK:   32.04 KCAL/MOL
REMARK 924 INTRA-LIGAND FREE ENERGY PREDICTED BY IDOCK:   -0.23 KCAL/MOL
REMARK 927      BINDING AFFINITY PREDICTED BY RF-SCORE:    0.00 PKD
ROOT
HETATM    1  C   UNL     1      -7.540  17.897  64.654  1.00  0.00     4.608 C  
HETATM    2  N   UNL     1      -7.916  16.509  64.618  1.00  0.00     5.992 N  
HETATM    3  C   UNL     1      -7.827  15.711  65.736  1.00  0.00     2.221 C  
HETATM    4  H   UNL     1      -8.257  16.107  63.744  1.00  0.00     0.000 HD 
HETATM    5  O   UNL     1      -7.441  16.114  66.826  1.00  0.00    -0.225 OA 
ENDROOT
BRANCH   3   6
HETATM    6  C   UNL     1      -8.282  14.308  65.582  1.00  0.00     3.149 A  
HETATM    7  C   UNL     1      -7.504  13.218  65.966  1.00  0.00     3.270 A  
HETATM    8  F   UNL     1      -6.301  13.397  66.534  1.00  0.00     0.947 F  
HETATM    9  C   UNL     1      -7.938  11.905  65.761  1.00  0.00     0.782 A  
HETATM   10  C   UNL     1      -9.158  11.655  65.133  1.00  0.00     0.096 A  
HETATM   11  C   UNL     1      -9.961  12.760  64.796  1.00  0.00    -0.158 A  
HETATM   12  C   UNL     1      -9.535  14.072  65.018  1.00  0.00     0.632 A  
BRANCH  10  13
HETATM   13  N   UNL     1      -9.622  10.337  64.863  1.00  0.00    -0.278 N  
HETATM   14  C   UNL     1     -10.280   9.498  65.796  1.00  0.00    -0.037 C  
HETATM   15  N   UNL     1      -9.988   8.182  65.451  1.00  0.00     1.047 N  
HETATM   16  S   UNL     1     -11.391  10.065  66.928  1.00  0.00     1.024 S  
HETATM   17  C   UNL     1     -10.562   9.896  62.608  1.00  0.00     2.499 C  
HETATM   18  C   UNL     1      -9.585   8.175  64.125  1.00  0.00     2.657 C  
HETATM   19  C   UNL     1      -8.047   9.740  62.975  1.00  0.00    -0.146 C  
HETATM   20  C   UNL     1      -9.434   9.622  63.613  1.00  0.00     0.181 C  
HETATM   21  O   UNL     1      -9.419   7.209  63.385  1.00  0.00     2.261 OA 
BRANCH  15  22
HETATM   22  C   UNL     1     -10.045   7.014  66.295  1.00  0.00     0.163 A  
HETATM   23  C   UNL     1     -10.061   4.579  66.602  1.00  0.00    -0.238 A  
HETATM   24  C   UNL     1     -10.002   5.714  65.775  1.00  0.00     0.137 A  
HETATM   25  C   UNL     1     -10.182   4.697  67.990  1.00  0.00    -0.008 A  
HETATM   26  C   UNL     1     -10.185   5.974  68.556  1.00  0.00    -0.227 A  
HETATM   27  C   UNL     1     -10.295   3.494  68.762  1.00  0.00     1.414 C  
HETATM   28  C   UNL     1     -10.070   7.100  67.700  1.00  0.00    -0.229 A  
HETATM   29  N   UNL     1     -10.391   2.500  69.358  1.00  0.00     1.440 NA 
HETATM   30  C   UNL     1     -10.314   6.239  70.040  1.00  0.00    -0.199 C  
HETATM   31  F   UNL     1     -11.358   7.070  70.312  1.00  0.00    -0.283 F  
HETATM   32  F   UNL     1      -9.209   6.858  70.541  1.00  0.00    -0.153 F  
HETATM   33  F   UNL     1     -10.509   5.142  70.811  1.00  0.00    -0.297 F  
ENDBRANCH  15  22
ENDBRANCH  10  13
ENDBRANCH   3   6
TORSDOF 3
ENDMDL
MODEL      166
REMARK 921   NORMALIZED FREE ENERGY PREDICTED BY IDOCK:   27.88 KCAL/MOL
REMARK 922        TOTAL FREE ENERGY PREDICTED BY IDOCK:   31.85 KCAL/MOL
REMARK 923 INTER-LIGAND FREE ENERGY PREDICTED BY IDOCK:   31.37 KCAL/MOL
REMARK 924 INTRA-LIGAND FREE ENERGY PREDICTED BY IDOCK:    0.48 KCAL/MOL
REMARK 927      BINDING AFFINITY PREDICTED BY RF-SCORE:    0.00 PKD
ROOT
HETATM    1  C   UNL     1      -7.567   4.321  69.452  1.00  0.00    -0.054 C  
HETATM    2  N   UNL     1      -7.679   5.753  69.542  1.00  0.00    -0.090 N  
HETATM    3  C   UNL     1      -7.010   6.466  70.511  1.00  0.00    -0.064 C  
HETATM    4  H   UNL     1      -8.267   6.250  68.873  1.00  0.00     0.000 HD 
HETATM    5  O   UNL     1      -6.275   5.951  71.344  1.00  0.00    -0.040 OA 
ENDROOT
BRANCH   3   6
HETATM    6  C   UNL     1      -7.174   7.939  70.476  1.00  0.00    -0.053 A  
HETATM    7  C   UNL     1      -6.569   8.741  69.511  1.00  0.00    -0.044 A  
HETATM    8  F   UNL     1      -5.827   8.199  68.532  1.00  0.00    -0.035 F  
HETATM    9  C   UNL     1      -6.699  10.132  69.534  1.00  0.00    -0.066 A  
HETATM   10  C   UNL     1      -7.419  10.757  70.553  1.00  0.00     1.199 A  
HETATM   11  C   UNL     1      -8.070   9.939  71.494  1.00  0.00     1.800 A  
HETATM   12  C   UNL     1      -7.955   8.546  71.459  1.00  0.00    -0.169 A  
BRANCH  10  13
HETATM   13  N   UNL     1      -7.542  12.172  70.644  1.00  0.00     3.727 N  
HETATM   14  C   UNL     1      -8.759  12.893  70.543  1.00  0.00     6.497 C  
HETATM   15  N   UNL     1      -8.457  14.148  70.024  1.00  0.00     1.231 N  
HETATM   16  S   UNL     1     -10.214  12.344  71.187  1.00  0.00     8.797 S  
HETATM   17  C   UNL     1      -6.064  13.347  72.255  1.00  0.00     1.287 C  
HETATM   18  C   UNL     1      -7.108  14.379  70.239  1.00  0.00     0.284 C  
HETATM   19  C   UNL     1      -5.208  12.822  69.915  1.00  0.00    -0.087 C  
HETATM   20  C   UNL     1      -6.436  13.102  70.785  1.00  0.00     0.812 C  
HETATM   21  O   UNL     1      -6.485  15.428  70.106  1.00  0.00    -0.143 OA 
BRANCH  15  22
HETATM   22  C   UNL     1      -9.346  15.060  69.346  1.00  0.00    -0.116 A  
HETATM   23  C   UNL     1     -11.457  15.549  68.194  1.00  0.00    -0.332 A  
HETATM   24  C   UNL     1     -10.595  14.658  68.856  1.00  0.00    -0.253 A  
HETATM   25  C   UNL     1     -11.096  16.883  67.979  1.00  0.00    -0.190 A  
HETATM   26  C   UNL     1      -9.878  17.339  68.488  1.00  0.00    -0.307 A  
HETATM   27  C   UNL     1     -12.003  17.717  67.244  1.00  0.00     2.574 C  
HETATM   28  C   UNL     1      -9.053  16.428  69.199  1.00  0.00    -0.202 A  
HETATM   29  N   UNL     1     -12.756  18.364  66.640  1.00  0.00     6.666 NA 
HETATM   30  C   UNL     1      -9.369  18.754  68.322  1.00  0.00    -0.337 C  
HETATM   31  F   UNL     1      -8.137  18.779  67.743  1.00  0.00    -0.251 F  
HETATM   32  F   UNL     1      -9.228  19.385  69.520  1.00  0.00    -0.271 F  
HETATM   33  F   UNL     1     -10.146  19.564  67.563  1.00  0.00    -0.399 F  
ENDBRANCH  15  22
ENDBRANCH  10  13
ENDBRANCH   3   6
TORSDOF 3
ENDMDL
MODEL      167
REMARK 921   NORMALIZED FREE ENERGY PREDICTED BY IDOCK:   28.09 KCAL/MOL
REMARK 922        TOTAL FREE ENERGY PREDICTED BY IDOCK:   32.10 KCAL/MOL
REMARK 923 INTER-LIGAND FREE ENERGY PREDICTED BY IDOCK:   31.58 KCAL/MOL
REMARK 924 INTRA-LIGAND FREE ENERGY PREDICTED BY IDOCK:    0.52 KCAL/MOL
REMARK 927      BINDING AFFINITY PREDICTED BY RF-SCORE:    0.00 PKD
ROOT
HETATM    1  C   UNL     1      -9.267  18.399  63.281  1.00  0.00    20.429 C  
HETATM    2  N   UNL     1      -9.626  17.628  64.442  1.00  0.00     5.452 N  
HETATM    3  C   UNL     1      -8.720  17.379  65.447  1.00  0.00     1.405 C  
HETATM    4  H   UNL     1     -10.573  17.259  64.522  1.00  0.00     0.000 HD 
HETATM    5  O   UNL     1      -7.567  17.794  65.438  1.00  0.00    -0.326 OA 
ENDROOT
BRANCH   3   6
HETATM    6  C   UNL     1      -9.220  16.608  66.610  1.00  0.00    -0.277 A  
HETATM    7  C   UNL     1      -8.691  15.373  66.979  1.00  0.00    -0.229 A  
HETATM    8  F   UNL     1      -7.662  14.836  66.305  1.00  0.00     0.366 F  
HETATM    9  C   UNL     1      -9.219  14.645  68.049  1.00  0.00    -0.197 A  
HETATM   10  C   UNL     1     -10.318  15.129  68.758  1.00  0.00    -0.236 A  
HETATM   11  C   UNL     1     -10.814  16.399  68.414  1.00  0.00    -0.342 A  
HETATM   12  C   UNL     1     -10.274  17.135  67.356  1.00  0.00    -0.321 A  
BRANCH  10  13
HETATM   13  N   UNL     1     -10.917  14.403  69.826  1.00  0.00    -0.169 N  
HETATM   14  C   UNL     1     -10.688  13.033  70.110  1.00  0.00     1.358 C  
HETATM   15  N   UNL     1     -11.840  12.534  70.709  1.00  0.00     0.022 N  
HETATM   16  S   UNL     1      -9.183  12.294  69.947  1.00  0.00     3.284 S  
HETATM   17  C   UNL     1     -11.264  15.603  71.971  1.00  0.00    -0.261 C  
HETATM   18  C   UNL     1     -12.555  13.610  71.209  1.00  0.00    -0.351 C  
HETATM   19  C   UNL     1     -13.010  15.792  70.127  1.00  0.00     0.240 C  
HETATM   20  C   UNL     1     -11.906  14.932  70.748  1.00  0.00    -0.312 C  
HETATM   21  O   UNL     1     -13.522  13.597  71.964  1.00  0.00    -0.406 OA 
BRANCH  15  22
HETATM   22  C   UNL     1     -12.270  11.159  70.787  1.00  0.00    -0.385 A  
HETATM   23  C   UNL     1     -13.849   9.364  70.233  1.00  0.00     1.076 A  
HETATM   24  C   UNL     1     -13.432  10.703  70.152  1.00  0.00     0.682 A  
HETATM   25  C   UNL     1     -13.123   8.421  70.969  1.00  0.00     0.077 A  
HETATM   26  C   UNL     1     -11.934   8.820  71.583  1.00  0.00    -0.399 A  
HETATM   27  C   UNL     1     -13.643   7.087  71.053  1.00  0.00     0.116 C  
HETATM   28  C   UNL     1     -11.512  10.168  71.438  1.00  0.00    -0.234 A  
HETATM   29  N   UNL     1     -14.093   6.016  71.106  1.00  0.00     2.070 NA 
HETATM   30  C   UNL     1     -11.060   7.903  72.409  1.00  0.00    -0.333 C  
HETATM   31  F   UNL     1     -10.849   8.402  73.658  1.00  0.00     0.242 F  
HETATM   32  F   UNL     1      -9.824   7.749  71.858  1.00  0.00    -0.177 F  
HETATM   33  F   UNL     1     -11.545   6.651  72.593  1.00  0.00    -0.281 F  
ENDBRANCH  15  22
ENDBRANCH  10  13
ENDBRANCH   3   6
TORSDOF 3
ENDMDL
MODEL      168
REMARK 921   NORMALIZED FREE ENERGY PREDICTED BY IDOCK:   28.65 KCAL/MOL
REMARK 922        TOTAL FREE ENERGY PREDICTED BY IDOCK:   32.75 KCAL/MOL
REMARK 923 INTER-LIGAND FREE ENERGY PREDICTED BY IDOCK:   31.92 KCAL/MOL
REMARK 924 INTRA-LIGAND FREE ENERGY PREDICTED BY IDOCK:    0.83 KCAL/MOL
REMARK 927      BINDING AFFINITY PREDICTED BY RF-SCORE:    0.00 PKD
ROOT
HETATM    1  C   UNL     1      -8.775  19.480  69.179  1.00  0.00    -0.079 C  
HETATM    2  N   UNL     1      -8.579  18.065  69.008  1.00  0.00    -0.089 N  
HETATM    3  C   UNL     1      -7.854  17.326  69.915  1.00  0.00     1.360 C  
HETATM    4  H   UNL     1      -8.987  17.600  68.198  1.00  0.00     0.000 HD 
HETATM    5  O   UNL     1      -7.341  17.802  70.921  1.00  0.00     3.270 OA 
ENDROOT
BRANCH   3   6
HETATM    6  C   UNL     1      -7.756  15.871  69.651  1.00  0.00     0.001 A  
HETATM    7  C   UNL     1      -7.955  15.319  68.387  1.00  0.00    -0.131 A  
HETATM    8  F   UNL     1      -8.212  16.103  67.327  1.00  0.00    -0.159 F  
HETATM    9  C   UNL     1      -7.908  13.938  68.179  1.00  0.00    -0.147 A  
HETATM   10  C   UNL     1      -7.691  13.070  69.249  1.00  0.00     0.461 A  
HETATM   11  C   UNL     1      -7.439  13.635  70.512  1.00  0.00     2.124 A  
HETATM   12  C   UNL     1      -7.468  15.018  70.716  1.00  0.00     1.215 A  
BRANCH  10  13
HETATM   13  N   UNL     1      -7.679  11.655  69.094  1.00  0.00     0.001 N  
HETATM   14  C   UNL     1      -8.735  10.887  68.542  1.00  0.00    -0.153 C  
HETATM   15  N   UNL     1      -8.683   9.627  69.130  1.00  0.00    -0.142 N  
HETATM   16  S   UNL     1      -9.672  11.402  67.242  1.00  0.00    -0.186 S  
HETATM   17  C   UNL     1      -5.524  10.593  68.471  1.00  0.00    -0.040 C  
HETATM   18  C   UNL     1      -7.408   9.454  69.643  1.00  0.00    -0.077 C  
HETATM   19  C   UNL     1      -6.029  11.068  70.920  1.00  0.00     0.056 C  
HETATM   20  C   UNL     1      -6.614  10.773  69.537  1.00  0.00    -0.099 C  
HETATM   21  O   UNL     1      -6.892   8.425  70.070  1.00  0.00    -0.042 OA 
BRANCH  15  22
HETATM   22  C   UNL     1      -9.748   8.660  69.240  1.00  0.00    -0.173 A  
HETATM   23  C   UNL     1     -12.129   8.092  69.410  1.00  0.00     1.715 A  
HETATM   24  C   UNL     1     -11.095   9.037  69.300  1.00  0.00     0.037 A  
HETATM   25  C   UNL     1     -11.856   6.722  69.480  1.00  0.00     0.037 A  
HETATM   26  C   UNL     1     -10.530   6.297  69.380  1.00  0.00    -0.298 A  
HETATM   27  C   UNL     1     -12.960   5.822  69.650  1.00  0.00     7.349 C  
HETATM   28  C   UNL     1      -9.511   7.273  69.216  1.00  0.00    -0.153 A  
HETATM   29  N   UNL     1     -13.876   5.120  69.795  1.00  0.00    14.864 NA 
HETATM   30  C   UNL     1     -10.099   4.848  69.445  1.00  0.00    -0.200 C  
HETATM   31  F   UNL     1      -9.174   4.643  70.422  1.00  0.00    -0.135 F  
HETATM   32  F   UNL     1      -9.510   4.442  68.286  1.00  0.00    -0.154 F  
HETATM   33  F   UNL     1     -11.092   3.959  69.689  1.00  0.00     1.886 F  
ENDBRANCH  15  22
ENDBRANCH  10  13
ENDBRANCH   3   6
TORSDOF 3
ENDMDL
MODEL      169
REMARK 921   NORMALIZED FREE ENERGY PREDICTED BY IDOCK:   32.29 KCAL/MOL
REMARK 922        TOTAL FREE ENERGY PREDICTED BY IDOCK:   37.03 KCAL/MOL
REMARK 923 INTER-LIGAND FREE ENERGY PREDICTED BY IDOCK:   36.29 KCAL/MOL
REMARK 924 INTRA-LIGAND FREE ENERGY PREDICTED BY IDOCK:    0.74 KCAL/MOL
REMARK 927      BINDING AFFINITY PREDICTED BY RF-SCORE:    0.00 PKD
ROOT
HETATM    1  C   UNL     1      -7.511   6.159  68.790  1.00  0.00    -0.087 C  
HETATM    2  N   UNL     1      -7.501   7.591  68.650  1.00  0.00    -0.099 N  
HETATM    3  C   UNL     1      -7.892   8.200  67.479  1.00  0.00    -0.110 C  
HETATM    4  H   UNL     1      -7.198   8.167  69.435  1.00  0.00     0.000 HD 
HETATM    5  O   UNL     1      -8.281   7.586  66.493  1.00  0.00    -0.115 OA 
ENDROOT
BRANCH   3   6
HETATM    6  C   UNL     1      -7.876   9.683  67.471  1.00  0.00    -0.095 A  
HETATM    7  C   UNL     1      -8.583  10.438  66.537  1.00  0.00    -0.130 A  
HETATM    8  F   UNL     1      -9.349   9.844  65.610  1.00  0.00    -0.188 F  
HETATM    9  C   UNL     1      -8.507  11.834  66.523  1.00  0.00    -0.125 A  
HETATM   10  C   UNL     1      -7.690  12.506  67.432  1.00  0.00    -0.167 A  
HETATM   11  C   UNL     1      -7.022  11.741  68.404  1.00  0.00    -0.080 A  
HETATM   12  C   UNL     1      -7.112  10.347  68.430  1.00  0.00    -0.078 A  
BRANCH  10  13
HETATM   13  N   UNL     1      -7.547  13.922  67.427  1.00  0.00    -0.170 N  
HETATM   14  C   UNL     1      -8.031  14.794  68.435  1.00  0.00    -0.138 C  
HETATM   15  N   UNL     1      -8.311  16.015  67.830  1.00  0.00    -0.149 N  
HETATM   16  S   UNL     1      -8.003  14.416  70.076  1.00  0.00     1.012 S  
HETATM   17  C   UNL     1      -5.427  14.853  66.534  1.00  0.00     2.988 C  
HETATM   18  C   UNL     1      -7.603  16.067  66.640  1.00  0.00    -0.165 C  
HETATM   19  C   UNL     1      -7.326  14.292  64.934  1.00  0.00    13.363 C  
HETATM   20  C   UNL     1      -6.945  14.700  66.359  1.00  0.00     2.834 C  
HETATM   21  O   UNL     1      -7.423  17.031  65.903  1.00  0.00    -0.296 OA 
BRANCH  15  22
HETATM   22  C   UNL     1      -9.197  17.051  68.301  1.00  0.00    -0.255 A  
HETATM   23  C   UNL     1     -10.537  18.095  70.072  1.00  0.00     1.322 A  
HETATM   24  C   UNL     1      -9.671  17.085  69.618  1.00  0.00     0.296 A  
HETATM   25  C   UNL     1     -10.978  19.111  69.218  1.00  0.00     1.629 A  
HETATM   26  C   UNL     1     -10.497  19.141  67.908  1.00  0.00    -0.492 A  
HETATM   27  C   UNL     1     -11.907  20.072  69.738  1.00  0.00     6.323 C  
HETATM   28  C   UNL     1      -9.582  18.138  67.494  1.00  0.00    -0.280 A  
HETATM   29  N   UNL     1     -12.664  20.832  70.188  1.00  0.00     7.685 NA 
HETATM   30  C   UNL     1     -10.898  20.181  66.884  1.00  0.00     0.047 C  
HETATM   31  F   UNL     1     -11.402  19.606  65.757  1.00  0.00    -0.291 F  
HETATM   32  F   UNL     1      -9.834  20.926  66.476  1.00  0.00    -0.433 F  
HETATM   33  F   UNL     1     -11.839  21.066  67.295  1.00  0.00     2.737 F  
ENDBRANCH  15  22
ENDBRANCH  10  13
ENDBRANCH   3   6
TORSDOF 3
ENDMDL
MODEL      170
REMARK 921   NORMALIZED FREE ENERGY PREDICTED BY IDOCK:   32.96 KCAL/MOL
REMARK 922        TOTAL FREE ENERGY PREDICTED BY IDOCK:   37.82 KCAL/MOL
REMARK 923 INTER-LIGAND FREE ENERGY PREDICTED BY IDOCK:   37.37 KCAL/MOL
REMARK 924 INTRA-LIGAND FREE ENERGY PREDICTED BY IDOCK:    0.45 KCAL/MOL
REMARK 927      BINDING AFFINITY PREDICTED BY RF-SCORE:    0.00 PKD
ROOT
HETATM    1  C   UNL     1      -6.886   5.886  69.081  1.00  0.00    -0.062 C  
HETATM    2  N   UNL     1      -6.930   7.317  68.934  1.00  0.00    -0.075 N  
HETATM    3  C   UNL     1      -7.349   7.906  67.763  1.00  0.00    -0.096 C  
HETATM    4  H   UNL     1      -6.645   7.907  69.716  1.00  0.00     0.000 HD 
HETATM    5  O   UNL     1      -7.720   7.274  66.782  1.00  0.00    -0.104 OA 
ENDROOT
BRANCH   3   6
HETATM    6  C   UNL     1      -7.388   9.388  67.749  1.00  0.00    -0.083 A  
HETATM    7  C   UNL     1      -8.129  10.113  66.818  1.00  0.00    -0.119 A  
HETATM    8  F   UNL     1      -8.881   9.487  65.899  1.00  0.00    -0.146 F  
HETATM    9  C   UNL     1      -8.105  11.510  66.797  1.00  0.00    -0.158 A  
HETATM   10  C   UNL     1      -7.306  12.217  67.696  1.00  0.00    -0.122 A  
HETATM   11  C   UNL     1      -6.602  11.481  68.666  1.00  0.00    -0.064 A  
HETATM   12  C   UNL     1      -6.641  10.084  68.699  1.00  0.00    -0.049 A  
BRANCH  10  13
HETATM   13  N   UNL     1      -7.215  13.637  67.684  1.00  0.00    -0.161 N  
HETATM   14  C   UNL     1      -7.719  14.495  68.695  1.00  0.00    -0.137 C  
HETATM   15  N   UNL     1      -8.050  15.702  68.088  1.00  0.00    -0.134 N  
HETATM   16  S   UNL     1      -7.656  14.125  70.336  1.00  0.00     1.679 S  
HETATM   17  C   UNL     1      -5.142  14.641  66.761  1.00  0.00     1.968 C  
HETATM   18  C   UNL     1      -7.359  15.775  66.890  1.00  0.00    -0.139 C  
HETATM   19  C   UNL     1      -7.038  14.004  65.187  1.00  0.00    12.226 C  
HETATM   20  C   UNL     1      -6.655  14.431  66.606  1.00  0.00     2.328 C  
HETATM   21  O   UNL     1      -7.224  16.742  66.146  1.00  0.00    -0.194 OA 
BRANCH  15  22
HETATM   22  C   UNL     1      -8.968  16.707  68.566  1.00  0.00    -0.235 A  
HETATM   23  C   UNL     1      -9.775  19.024  68.639  1.00  0.00    -0.468 A  
HETATM   24  C   UNL     1      -8.880  18.047  68.169  1.00  0.00    -0.277 A  
HETATM   25  C   UNL     1     -10.791  18.701  69.544  1.00  0.00     1.504 A  
HETATM   26  C   UNL     1     -10.943  17.370  69.935  1.00  0.00     0.797 A  
HETATM   27  C   UNL     1     -11.627  19.763  70.024  1.00  0.00     5.673 C  
HETATM   28  C   UNL     1     -10.057  16.397  69.401  1.00  0.00    -0.243 A  
HETATM   29  N   UNL     1     -12.284  20.647  70.399  1.00  0.00     7.255 NA 
HETATM   30  C   UNL     1     -11.997  16.890  70.909  1.00  0.00     1.572 C  
HETATM   31  F   UNL     1     -11.443  16.220  71.957  1.00  0.00    -0.472 F  
HETATM   32  F   UNL     1     -12.863  16.015  70.327  1.00  0.00    -0.359 F  
HETATM   33  F   UNL     1     -12.762  17.862  71.460  1.00  0.00     6.267 F  
ENDBRANCH  15  22
ENDBRANCH  10  13
ENDBRANCH   3   6
TORSDOF 3
ENDMDL
MODEL      171
REMARK 921   NORMALIZED FREE ENERGY PREDICTED BY IDOCK:   44.96 KCAL/MOL
REMARK 922        TOTAL FREE ENERGY PREDICTED BY IDOCK:   51.93 KCAL/MOL
REMARK 923 INTER-LIGAND FREE ENERGY PREDICTED BY IDOCK:   51.75 KCAL/MOL
REMARK 924 INTRA-LIGAND FREE ENERGY PREDICTED BY IDOCK:    0.18 KCAL/MOL
REMARK 927      BINDING AFFINITY PREDICTED BY RF-SCORE:    0.00 PKD
ROOT
HETATM    1  C   UNL     1      -5.464  19.992  69.015  1.00  0.00    -0.218 C  
HETATM    2  N   UNL     1      -6.439  18.951  69.206  1.00  0.00    -0.280 N  
HETATM    3  C   UNL     1      -7.569  19.157  69.964  1.00  0.00     0.724 C  
HETATM    4  H   UNL     1      -6.289  18.041  68.771  1.00  0.00     0.000 HD 
HETATM    5  O   UNL     1      -7.833  20.220  70.512  1.00  0.00     0.698 OA 
ENDROOT
BRANCH   3   6
HETATM    6  C   UNL     1      -8.518  18.021  70.054  1.00  0.00     2.087 A  
HETATM    7  C   UNL     1      -8.760  17.334  71.242  1.00  0.00     8.435 A  
HETATM    8  F   UNL     1      -8.160  17.703  72.385  1.00  0.00    10.504 F  
HETATM    9  C   UNL     1      -9.621  16.234  71.285  1.00  0.00     3.848 A  
HETATM   10  C   UNL     1     -10.238  15.775  70.121  1.00  0.00    -0.159 A  
HETATM   11  C   UNL     1     -10.030  16.504  68.936  1.00  0.00    -0.262 A  
HETATM   12  C   UNL     1      -9.183  17.615  68.898  1.00  0.00    -0.143 A  
BRANCH  10  13
HETATM   13  N   UNL     1     -11.087  14.633  70.107  1.00  0.00    -0.184 N  
HETATM   14  C   UNL     1     -10.642  13.287  70.073  1.00  0.00     1.176 C  
HETATM   15  N   UNL     1     -11.622  12.541  69.424  1.00  0.00    -0.300 N  
HETATM   16  S   UNL     1      -9.286  12.740  70.909  1.00  0.00    10.658 S  
HETATM   17  C   UNL     1     -13.169  14.740  71.453  1.00  0.00    -0.442 C  
HETATM   18  C   UNL     1     -12.804  13.262  69.479  1.00  0.00     0.780 C  
HETATM   19  C   UNL     1     -13.152  15.683  69.089  1.00  0.00     1.422 C  
HETATM   20  C   UNL     1     -12.537  14.668  70.056  1.00  0.00    -0.230 C  
HETATM   21  O   UNL     1     -13.938  12.886  69.195  1.00  0.00     5.215 OA 
BRANCH  15  22
HETATM   22  C   UNL     1     -11.470  11.265  68.770  1.00  0.00    -0.293 A  
HETATM   23  C   UNL     1     -12.339   9.453  67.361  1.00  0.00     6.651 A  
HETATM   24  C   UNL     1     -12.489  10.698  67.995  1.00  0.00     2.240 A  
HETATM   25  C   UNL     1     -11.160   8.712  67.489  1.00  0.00     0.333 A  
HETATM   26  C   UNL     1     -10.100   9.257  68.217  1.00  0.00    -0.214 A  
HETATM   27  C   UNL     1     -11.102   7.423  66.862  1.00  0.00     0.221 C  
HETATM   28  C   UNL     1     -10.264  10.541  68.801  1.00  0.00    -0.205 A  
HETATM   29  N   UNL     1     -11.090   6.381  66.346  1.00  0.00     0.153 NA 
HETATM   30  C   UNL     1      -8.776   8.558  68.434  1.00  0.00    -0.143 C  
HETATM   31  F   UNL     1      -8.479   8.447  69.759  1.00  0.00    -0.117 F  
HETATM   32  F   UNL     1      -7.742   9.249  67.880  1.00  0.00    -0.086 F  
HETATM   33  F   UNL     1      -8.695   7.301  67.935  1.00  0.00    -0.122 F  
ENDBRANCH  15  22
ENDBRANCH  10  13
ENDBRANCH   3   6
TORSDOF 3
ENDMDL
MODEL      172
REMARK 921   NORMALIZED FREE ENERGY PREDICTED BY IDOCK:   48.32 KCAL/MOL
REMARK 922        TOTAL FREE ENERGY PREDICTED BY IDOCK:   55.87 KCAL/MOL
REMARK 923 INTER-LIGAND FREE ENERGY PREDICTED BY IDOCK:   54.28 KCAL/MOL
REMARK 924 INTRA-LIGAND FREE ENERGY PREDICTED BY IDOCK:    1.60 KCAL/MOL
REMARK 927      BINDING AFFINITY PREDICTED BY RF-SCORE:    0.00 PKD
ROOT
HETATM    1  C   UNL     1     -12.731   2.439  68.845  1.00  0.00    24.581 C  
HETATM    2  N   UNL     1     -12.118   3.684  68.464  1.00  0.00    14.362 N  
HETATM    3  C   UNL     1     -11.923   4.697  69.376  1.00  0.00     8.788 C  
HETATM    4  H   UNL     1     -11.822   3.819  67.498  1.00  0.00     0.000 HD 
HETATM    5  O   UNL     1     -12.237   4.614  70.557  1.00  0.00     5.761 OA 
ENDROOT
BRANCH   3   6
HETATM    6  C   UNL     1     -11.246   5.915  68.872  1.00  0.00    -0.124 A  
HETATM    7  C   UNL     1     -11.057   6.165  67.514  1.00  0.00    -0.215 A  
HETATM    8  F   UNL     1     -11.521   5.313  66.586  1.00  0.00     0.098 F  
HETATM    9  C   UNL     1     -10.368   7.298  67.071  1.00  0.00    -0.376 A  
HETATM   10  C   UNL     1      -9.822   8.196  67.988  1.00  0.00    -0.168 A  
HETATM   11  C   UNL     1     -10.061   7.965  69.355  1.00  0.00    -0.196 A  
HETATM   12  C   UNL     1     -10.766   6.842  69.796  1.00  0.00    -0.276 A  
BRANCH  10  13
HETATM   13  N   UNL     1      -9.075   9.339  67.585  1.00  0.00    -0.125 N  
HETATM   14  C   UNL     1      -8.948  10.535  68.336  1.00  0.00    -0.141 C  
HETATM   15  N   UNL     1      -8.762  11.575  67.431  1.00  0.00    -0.144 N  
HETATM   16  S   UNL     1      -8.808  10.563  70.014  1.00  0.00     0.732 S  
HETATM   17  C   UNL     1      -6.948   8.943  66.368  1.00  0.00    -0.079 C  
HETATM   18  C   UNL     1      -8.317  11.023  66.240  1.00  0.00    -0.166 C  
HETATM   19  C   UNL     1      -9.143   8.996  65.080  1.00  0.00    -0.171 C  
HETATM   20  C   UNL     1      -8.385   9.484  66.317  1.00  0.00    -0.115 C  
HETATM   21  O   UNL     1      -7.861  11.600  65.258  1.00  0.00     0.699 OA 
BRANCH  15  22
HETATM   22  C   UNL     1      -9.008  12.981  67.640  1.00  0.00    -0.192 A  
HETATM   23  C   UNL     1     -10.020  14.823  68.908  1.00  0.00    -0.233 A  
HETATM   24  C   UNL     1      -9.780  13.452  68.709  1.00  0.00     0.002 A  
HETATM   25  C   UNL     1      -9.508  15.783  68.030  1.00  0.00    -0.202 A  
HETATM   26  C   UNL     1      -8.698  15.363  66.974  1.00  0.00    -0.256 A  
HETATM   27  C   UNL     1      -9.845  17.158  68.264  1.00  0.00    -0.288 C  
HETATM   28  C   UNL     1      -8.429  13.976  66.831  1.00  0.00    -0.102 A  
HETATM   29  N   UNL     1     -10.141  18.262  68.478  1.00  0.00    -0.388 NA 
HETATM   30  C   UNL     1      -8.086  16.298  65.953  1.00  0.00     0.411 C  
HETATM   31  F   UNL     1      -8.424  15.944  64.683  1.00  0.00     2.819 F  
HETATM   32  F   UNL     1      -6.725  16.273  65.995  1.00  0.00     0.242 F  
HETATM   33  F   UNL     1      -8.439  17.600  66.076  1.00  0.00    -0.263 F  
ENDBRANCH  15  22
ENDBRANCH  10  13
ENDBRANCH   3   6
TORSDOF 3
ENDMDL
MODEL      173
REMARK 921   NORMALIZED FREE ENERGY PREDICTED BY IDOCK:   63.60 KCAL/MOL
REMARK 922        TOTAL FREE ENERGY PREDICTED BY IDOCK:   73.83 KCAL/MOL
REMARK 923 INTER-LIGAND FREE ENERGY PREDICTED BY IDOCK:   73.17 KCAL/MOL
REMARK 924 INTRA-LIGAND FREE ENERGY PREDICTED BY IDOCK:    0.66 KCAL/MOL
REMARK 927      BINDING AFFINITY PREDICTED BY RF-SCORE:    0.00 PKD
ROOT
HETATM    1  C   UNL     1     -13.835   4.841  63.877  1.00  0.00    14.732 C  
HETATM    2  N   UNL     1     -13.330   5.962  64.624  1.00  0.00     6.397 N  
HETATM    3  C   UNL     1     -11.978   6.181  64.764  1.00  0.00     7.661 C  
HETATM    4  H   UNL     1     -13.988   6.608  65.059  1.00  0.00     0.000 HD 
HETATM    5  O   UNL     1     -11.121   5.463  64.265  1.00  0.00     2.189 OA 
ENDROOT
BRANCH   3   6
HETATM    6  C   UNL     1     -11.582   7.392  65.522  1.00  0.00     7.586 A  
HETATM    7  C   UNL     1     -10.407   8.093  65.261  1.00  0.00     3.089 A  
HETATM    8  F   UNL     1      -9.585   7.714  64.269  1.00  0.00     1.456 F  
HETATM    9  C   UNL     1     -10.034   9.201  66.027  1.00  0.00    -0.293 A  
HETATM   10  C   UNL     1     -10.823   9.615  67.100  1.00  0.00    -0.114 A  
HETATM   11  C   UNL     1     -12.033   8.935  67.326  1.00  0.00     4.707 A  
HETATM   12  C   UNL     1     -12.415   7.839  66.547  1.00  0.00     9.612 A  
BRANCH  10  13
HETATM   13  N   UNL     1     -10.462  10.709  67.936  1.00  0.00    -0.194 N  
HETATM   14  C   UNL     1     -11.328  11.766  68.313  1.00  0.00    -0.282 C  
HETATM   15  N   UNL     1     -10.540  12.895  68.521  1.00  0.00    -0.251 N  
HETATM   16  S   UNL     1     -12.960  11.545  68.664  1.00  0.00     3.204 S  
HETATM   17  C   UNL     1      -8.917  10.246  69.822  1.00  0.00    -0.079 C  
HETATM   18  C   UNL     1      -9.240  12.467  68.736  1.00  0.00     0.137 C  
HETATM   19  C   UNL     1      -7.968  10.730  67.510  1.00  0.00    -0.110 C  
HETATM   20  C   UNL     1      -9.136  10.949  68.475  1.00  0.00    -0.173 C  
HETATM   21  O   UNL     1      -8.281  13.119  69.138  1.00  0.00     0.270 OA 
BRANCH  15  22
HETATM   22  C   UNL     1     -10.953  14.276  68.491  1.00  0.00    -0.252 A  
HETATM   23  C   UNL     1     -12.280  16.105  67.533  1.00  0.00     1.319 A  
HETATM   24  C   UNL     1     -11.883  14.757  67.560  1.00  0.00    -0.326 A  
HETATM   25  C   UNL     1     -11.749  17.037  68.430  1.00  0.00     0.725 A  
HETATM   26  C   UNL     1     -10.851  16.594  69.403  1.00  0.00    -0.295 A  
HETATM   27  C   UNL     1     -12.159  18.405  68.302  1.00  0.00     3.941 C  
HETATM   28  C   UNL     1     -10.510  15.216  69.439  1.00  0.00    -0.259 A  
HETATM   29  N   UNL     1     -12.506  19.507  68.168  1.00  0.00     3.988 NA 
HETATM   30  C   UNL     1     -10.202  17.498  70.428  1.00  0.00     1.445 C  
HETATM   31  F   UNL     1      -8.844  17.410  70.385  1.00  0.00     1.874 F  
HETATM   32  F   UNL     1     -10.555  17.158  71.699  1.00  0.00     1.117 F  
HETATM   33  F   UNL     1     -10.487  18.816  70.302  1.00  0.00     0.355 F  
ENDBRANCH  15  22
ENDBRANCH  10  13
ENDBRANCH   3   6
TORSDOF 3
ENDMDL
MODEL      174
REMARK 921   NORMALIZED FREE ENERGY PREDICTED BY IDOCK:  102.74 KCAL/MOL
REMARK 922        TOTAL FREE ENERGY PREDICTED BY IDOCK:  119.84 KCAL/MOL
REMARK 923 INTER-LIGAND FREE ENERGY PREDICTED BY IDOCK:  119.91 KCAL/MOL
REMARK 924 INTRA-LIGAND FREE ENERGY PREDICTED BY IDOCK:   -0.06 KCAL/MOL
REMARK 927      BINDING AFFINITY PREDICTED BY RF-SCORE:    0.00 PKD
ROOT
HETATM    1  C   UNL     1      -5.962  20.869  69.808  1.00  0.00     0.099 C  
HETATM    2  N   UNL     1      -6.827  19.788  70.201  1.00  0.00    -0.151 N  
HETATM    3  C   UNL     1      -7.675  19.902  71.279  1.00  0.00     1.817 C  
HETATM    4  H   UNL     1      -6.812  18.919  69.668  1.00  0.00     0.000 HD 
HETATM    5  O   UNL     1      -7.766  20.913  71.965  1.00  0.00     1.219 OA 
ENDROOT
BRANCH   3   6
HETATM    6  C   UNL     1      -8.546  18.735  71.559  1.00  0.00     7.579 A  
HETATM    7  C   UNL     1      -8.308  17.853  72.610  1.00  0.00    15.467 A  
HETATM    8  F   UNL     1      -7.280  18.047  73.452  1.00  0.00     5.202 F  
HETATM    9  C   UNL     1      -9.116  16.732  72.818  1.00  0.00    14.680 A  
HETATM   10  C   UNL     1     -10.171  16.451  71.949  1.00  0.00     3.837 A  
HETATM   11  C   UNL     1     -10.437  17.374  70.921  1.00  0.00     1.951 A  
HETATM   12  C   UNL     1      -9.640  18.505  70.725  1.00  0.00     3.413 A  
BRANCH  10  13
HETATM   13  N   UNL     1     -10.993  15.299  72.094  1.00  0.00    -0.063 N  
HETATM   14  C   UNL     1     -10.771  14.054  71.453  1.00  0.00     2.945 C  
HETATM   15  N   UNL     1     -12.013  13.449  71.278  1.00  0.00     0.103 N  
HETATM   16  S   UNL     1      -9.240  13.398  71.210  1.00  0.00    11.755 S  
HETATM   17  C   UNL     1     -11.971  14.867  74.334  1.00  0.00     0.015 C  
HETATM   18  C   UNL     1     -12.895  14.034  72.172  1.00  0.00    -0.320 C  
HETATM   19  C   UNL     1     -13.165  16.435  72.722  1.00  0.00     0.157 C  
HETATM   20  C   UNL     1     -12.221  15.238  72.865  1.00  0.00    -0.408 C  
HETATM   21  O   UNL     1     -14.027  13.670  72.473  1.00  0.00    -0.681 OA 
BRANCH  15  22
HETATM   22  C   UNL     1     -12.369  12.423  70.329  1.00  0.00    -0.188 A  
HETATM   23  C   UNL     1     -14.035  11.000  69.223  1.00  0.00     5.787 A  
HETATM   24  C   UNL     1     -13.692  12.002  70.147  1.00  0.00     3.130 A  
HETATM   25  C   UNL     1     -13.060  10.363  68.449  1.00  0.00     5.179 A  
HETATM   26  C   UNL     1     -11.733  10.780  68.566  1.00  0.00    -0.259 A  
HETATM   27  C   UNL     1     -13.480   9.309  67.571  1.00  0.00    17.411 C  
HETATM   28  C   UNL     1     -11.426  11.831  69.469  1.00  0.00    -0.363 A  
HETATM   29  N   UNL     1     -13.851   8.456  66.874  1.00  0.00    21.507 NA 
HETATM   30  C   UNL     1     -10.585  10.172  67.791  1.00  0.00    -0.256 C  
HETATM   31  F   UNL     1      -9.601   9.726  68.619  1.00  0.00    -0.143 F  
HETATM   32  F   UNL     1      -9.992  11.081  66.968  1.00  0.00    -0.196 F  
HETATM   33  F   UNL     1     -10.909   9.115  67.007  1.00  0.00    -0.319 F  
ENDBRANCH  15  22
ENDBRANCH  10  13
ENDBRANCH   3   6
TORSDOF 3
ENDMDL
