MODEL        1
REMARK 921   NORMALIZED FREE ENERGY PREDICTED BY IDOCK:   -6.65 KCAL/MOL
REMARK 922        TOTAL FREE ENERGY PREDICTED BY IDOCK:   -7.53 KCAL/MOL
REMARK 923 INTER-LIGAND FREE ENERGY PREDICTED BY IDOCK:   -7.04 KCAL/MOL
REMARK 924 INTRA-LIGAND FREE ENERGY PREDICTED BY IDOCK:   -0.49 KCAL/MOL
REMARK 927      BINDING AFFINITY PREDICTED BY RF-SCORE:    0.00 PKD
ROOT
HETATM    1  C   UNL     1     -12.536  15.751  74.566  1.00  0.00    -0.755 C  
HETATM    2  C   UNL     1     -12.480  15.443  73.099  1.00  0.00    -0.572 A  
HETATM    3  C   UNL     1     -11.744  16.232  72.209  1.00  0.00    -0.530 A  
HETATM    4  C   UNL     1     -11.743  15.949  70.836  1.00  0.00    -0.456 A  
HETATM    5  C   UNL     1     -12.477  14.871  70.325  1.00  0.00    -0.386 A  
HETATM    6  C   UNL     1     -13.221  14.098  71.225  1.00  0.00    -0.399 A  
HETATM    7  C   UNL     1     -13.209  14.364  72.595  1.00  0.00    -0.586 A  
ENDROOT
BRANCH   5   8
HETATM    8  C   UNL     1     -12.525  14.649  68.870  1.00  0.00     0.069 C  
HETATM    9  C   UNL     1     -11.699  13.856  68.175  1.00  0.00    -0.388 C  
HETATM   10  C   UNL     1     -10.485  13.037  68.568  1.00  0.00    -0.261 C  
HETATM   11  C   UNL     1     -10.944  11.559  68.507  1.00  0.00    -0.268 C  
HETATM   12  C   UNL     1     -11.062  11.282  66.989  1.00  0.00    -0.356 C  
HETATM   13  C   UNL     1     -10.645  12.630  66.351  1.00  0.00    -0.272 C  
HETATM   14  C   UNL     1     -10.287  12.541  64.886  1.00  0.00    -0.323 C  
HETATM   15  C   UNL     1      -9.560  13.173  67.326  1.00  0.00    -0.233 C  
HETATM   16  C   UNL     1     -11.797  13.581  66.695  1.00  0.00    -0.407 C  
HETATM   17  O   UNL     1     -12.656  14.011  65.949  1.00  0.00    -0.488 OA 
HETATM   18  C   UNL     1      -9.099  14.619  67.030  1.00  0.00    -0.254 C  
HETATM   19  C   UNL     1      -8.283  12.319  67.435  1.00  0.00    -0.178 C  
ENDBRANCH   5   8
TORSDOF 1
ENDMDL
MODEL        2
REMARK 921   NORMALIZED FREE ENERGY PREDICTED BY IDOCK:   -6.61 KCAL/MOL
REMARK 922        TOTAL FREE ENERGY PREDICTED BY IDOCK:   -7.49 KCAL/MOL
REMARK 923 INTER-LIGAND FREE ENERGY PREDICTED BY IDOCK:   -7.38 KCAL/MOL
REMARK 924 INTRA-LIGAND FREE ENERGY PREDICTED BY IDOCK:   -0.11 KCAL/MOL
REMARK 927      BINDING AFFINITY PREDICTED BY RF-SCORE:    0.00 PKD
ROOT
HETATM    1  C   UNL     1     -14.125  15.454  72.281  1.00  0.00    -0.660 C  
HETATM    2  C   UNL     1     -13.422  14.261  71.704  1.00  0.00    -0.456 A  
HETATM    3  C   UNL     1     -12.586  14.368  70.589  1.00  0.00    -0.424 A  
HETATM    4  C   UNL     1     -11.975  13.230  70.043  1.00  0.00    -0.399 A  
HETATM    5  C   UNL     1     -12.188  11.963  70.601  1.00  0.00    -0.424 A  
HETATM    6  C   UNL     1     -13.039  11.868  71.709  1.00  0.00    -0.465 A  
HETATM    7  C   UNL     1     -13.633  13.001  72.268  1.00  0.00    -0.643 A  
ENDROOT
BRANCH   5   8
HETATM    8  C   UNL     1     -11.601  10.777  69.955  1.00  0.00    -0.417 C  
HETATM    9  C   UNL     1     -11.435   9.579  70.532  1.00  0.00    -0.337 C  
HETATM   10  C   UNL     1     -11.685   9.068  71.937  1.00  0.00    -0.445 C  
HETATM   11  C   UNL     1     -12.924   8.146  71.829  1.00  0.00    -0.364 C  
HETATM   12  C   UNL     1     -12.377   6.892  71.106  1.00  0.00    -0.419 C  
HETATM   13  C   UNL     1     -10.881   7.232  70.893  1.00  0.00    -0.262 C  
HETATM   14  C   UNL     1     -10.011   6.041  70.567  1.00  0.00    -0.233 C  
HETATM   15  C   UNL     1     -10.515   8.067  72.155  1.00  0.00    -0.329 C  
HETATM   16  C   UNL     1     -10.896   8.350  69.843  1.00  0.00    -0.207 C  
HETATM   17  O   UNL     1     -10.580   8.274  68.671  1.00  0.00    -0.192 OA 
HETATM   18  C   UNL     1      -9.110   8.711  72.112  1.00  0.00    -0.301 C  
HETATM   19  C   UNL     1     -10.613   7.316  73.495  1.00  0.00    -0.408 C  
ENDBRANCH   5   8
TORSDOF 1
ENDMDL
MODEL        3
REMARK 921   NORMALIZED FREE ENERGY PREDICTED BY IDOCK:   -6.60 KCAL/MOL
REMARK 922        TOTAL FREE ENERGY PREDICTED BY IDOCK:   -7.48 KCAL/MOL
REMARK 923 INTER-LIGAND FREE ENERGY PREDICTED BY IDOCK:   -7.42 KCAL/MOL
REMARK 924 INTRA-LIGAND FREE ENERGY PREDICTED BY IDOCK:   -0.06 KCAL/MOL
REMARK 927      BINDING AFFINITY PREDICTED BY RF-SCORE:    0.00 PKD
ROOT
HETATM    1  C   UNL     1     -12.623  16.322  74.065  1.00  0.00    -0.633 C  
HETATM    2  C   UNL     1     -12.550  15.409  72.877  1.00  0.00    -0.524 A  
HETATM    3  C   UNL     1     -13.301  14.232  72.807  1.00  0.00    -0.621 A  
HETATM    4  C   UNL     1     -13.182  13.373  71.705  1.00  0.00    -0.495 A  
HETATM    5  C   UNL     1     -12.311  13.675  70.651  1.00  0.00    -0.440 A  
HETATM    6  C   UNL     1     -11.554  14.850  70.740  1.00  0.00    -0.345 A  
HETATM    7  C   UNL     1     -11.684  15.717  71.826  1.00  0.00    -0.562 A  
ENDROOT
BRANCH   5   8
HETATM    8  C   UNL     1     -12.144  12.713  69.548  1.00  0.00    -0.253 C  
HETATM    9  C   UNL     1     -11.495  12.950  68.399  1.00  0.00    -0.347 C  
HETATM   10  C   UNL     1     -10.828  14.186  67.829  1.00  0.00    -0.260 C  
HETATM   11  C   UNL     1      -9.307  13.909  67.904  1.00  0.00    -0.208 C  
HETATM   12  C   UNL     1      -9.078  12.858  66.792  1.00  0.00    -0.211 C  
HETATM   13  C   UNL     1     -10.494  12.661  66.196  1.00  0.00    -0.278 C  
HETATM   14  C   UNL     1     -10.513  11.991  64.842  1.00  0.00    -0.325 C  
HETATM   15  C   UNL     1     -11.135  14.075  66.309  1.00  0.00    -0.307 C  
HETATM   16  C   UNL     1     -11.270  11.939  67.303  1.00  0.00    -0.317 C  
HETATM   17  O   UNL     1     -11.613  10.772  67.333  1.00  0.00    -0.485 OA 
HETATM   18  C   UNL     1     -12.640  14.125  65.958  1.00  0.00    -0.407 C  
HETATM   19  C   UNL     1     -10.454  15.178  65.479  1.00  0.00    -0.400 C  
ENDBRANCH   5   8
TORSDOF 1
ENDMDL
MODEL        4
REMARK 921   NORMALIZED FREE ENERGY PREDICTED BY IDOCK:   -6.49 KCAL/MOL
REMARK 922        TOTAL FREE ENERGY PREDICTED BY IDOCK:   -7.36 KCAL/MOL
REMARK 923 INTER-LIGAND FREE ENERGY PREDICTED BY IDOCK:   -7.32 KCAL/MOL
REMARK 924 INTRA-LIGAND FREE ENERGY PREDICTED BY IDOCK:   -0.04 KCAL/MOL
REMARK 927      BINDING AFFINITY PREDICTED BY RF-SCORE:    0.00 PKD
ROOT
HETATM    1  C   UNL     1     -13.769  15.375  72.622  1.00  0.00    -0.640 C  
HETATM    2  C   UNL     1     -13.266  14.167  71.889  1.00  0.00    -0.468 A  
HETATM    3  C   UNL     1     -13.571  12.870  72.314  1.00  0.00    -0.611 A  
HETATM    4  C   UNL     1     -13.052  11.757  71.637  1.00  0.00    -0.443 A  
HETATM    5  C   UNL     1     -12.220  11.919  70.522  1.00  0.00    -0.426 A  
HETATM    6  C   UNL     1     -11.911  13.223  70.116  1.00  0.00    -0.388 A  
HETATM    7  C   UNL     1     -12.442  14.333  70.775  1.00  0.00    -0.428 A  
ENDROOT
BRANCH   5   8
HETATM    8  C   UNL     1     -11.622  10.733  69.883  1.00  0.00    -0.410 C  
HETATM    9  C   UNL     1     -11.458   9.536  70.463  1.00  0.00    -0.337 C  
HETATM   10  C   UNL     1     -11.722   9.026  71.866  1.00  0.00    -0.445 C  
HETATM   11  C   UNL     1     -12.956   8.099  71.745  1.00  0.00    -0.364 C  
HETATM   12  C   UNL     1     -12.396   6.847  71.029  1.00  0.00    -0.401 C  
HETATM   13  C   UNL     1     -10.899   7.193  70.832  1.00  0.00    -0.266 C  
HETATM   14  C   UNL     1     -10.022   6.004  70.516  1.00  0.00    -0.233 C  
HETATM   15  C   UNL     1     -10.550   8.030  72.097  1.00  0.00    -0.335 C  
HETATM   16  C   UNL     1     -10.907   8.309  69.781  1.00  0.00    -0.185 C  
HETATM   17  O   UNL     1     -10.578   8.233  68.612  1.00  0.00    -0.192 OA 
HETATM   18  C   UNL     1      -9.148   8.678  72.069  1.00  0.00    -0.311 C  
HETATM   19  C   UNL     1     -10.660   7.279  73.437  1.00  0.00    -0.435 C  
ENDBRANCH   5   8
TORSDOF 1
ENDMDL
MODEL        5
REMARK 921   NORMALIZED FREE ENERGY PREDICTED BY IDOCK:   -6.32 KCAL/MOL
REMARK 922        TOTAL FREE ENERGY PREDICTED BY IDOCK:   -7.18 KCAL/MOL
REMARK 923 INTER-LIGAND FREE ENERGY PREDICTED BY IDOCK:   -6.70 KCAL/MOL
REMARK 924 INTRA-LIGAND FREE ENERGY PREDICTED BY IDOCK:   -0.48 KCAL/MOL
REMARK 927      BINDING AFFINITY PREDICTED BY RF-SCORE:    0.00 PKD
ROOT
HETATM    1  C   UNL     1     -14.359  14.098  72.202  1.00  0.00    -0.606 C  
HETATM    2  C   UNL     1     -13.153  14.565  71.442  1.00  0.00    -0.423 A  
HETATM    3  C   UNL     1     -12.655  13.854  70.345  1.00  0.00    -0.350 A  
HETATM    4  C   UNL     1     -11.500  14.288  69.679  1.00  0.00    -0.334 A  
HETATM    5  C   UNL     1     -10.822  15.441  70.094  1.00  0.00    -0.328 A  
HETATM    6  C   UNL     1     -11.323  16.135  71.202  1.00  0.00    -0.368 A  
HETATM    7  C   UNL     1     -12.484  15.718  71.856  1.00  0.00    -0.527 A  
ENDROOT
BRANCH   5   8
HETATM    8  C   UNL     1      -9.565  15.825  69.428  1.00  0.00    -0.284 C  
HETATM    9  C   UNL     1      -9.406  16.875  68.611  1.00  0.00    -0.268 C  
HETATM   10  C   UNL     1     -10.370  17.907  68.060  1.00  0.00    -0.394 C  
HETATM   11  C   UNL     1     -10.032  19.226  68.798  1.00  0.00    -0.511 C  
HETATM   12  C   UNL     1      -8.684  19.653  68.171  1.00  0.00    -0.359 C  
HETATM   13  C   UNL     1      -8.407  18.536  67.134  1.00  0.00    -0.253 C  
HETATM   14  C   UNL     1      -7.365  18.891  66.100  1.00  0.00    -0.292 C  
HETATM   15  C   UNL     1      -9.827  18.154  66.624  1.00  0.00    -0.350 C  
HETATM   16  C   UNL     1      -8.100  17.300  67.987  1.00  0.00    -0.221 C  
HETATM   17  O   UNL     1      -7.019  16.773  68.172  1.00  0.00    -0.150 OA 
HETATM   18  C   UNL     1      -9.864  16.911  65.706  1.00  0.00    -0.166 C  
HETATM   19  C   UNL     1     -10.585  19.270  65.882  1.00  0.00    -0.521 C  
ENDBRANCH   5   8
TORSDOF 1
ENDMDL
MODEL        6
REMARK 921   NORMALIZED FREE ENERGY PREDICTED BY IDOCK:   -6.23 KCAL/MOL
REMARK 922        TOTAL FREE ENERGY PREDICTED BY IDOCK:   -7.08 KCAL/MOL
REMARK 923 INTER-LIGAND FREE ENERGY PREDICTED BY IDOCK:   -6.62 KCAL/MOL
REMARK 924 INTRA-LIGAND FREE ENERGY PREDICTED BY IDOCK:   -0.47 KCAL/MOL
REMARK 927      BINDING AFFINITY PREDICTED BY RF-SCORE:    0.00 PKD
ROOT
HETATM    1  C   UNL     1     -13.080  12.826  72.182  1.00  0.00    -0.454 C  
HETATM    2  C   UNL     1     -12.597  13.712  71.073  1.00  0.00    -0.441 A  
HETATM    3  C   UNL     1     -12.663  15.106  71.164  1.00  0.00    -0.452 A  
HETATM    4  C   UNL     1     -12.246  15.912  70.095  1.00  0.00    -0.244 A  
HETATM    5  C   UNL     1     -11.751  15.340  68.916  1.00  0.00    -0.362 A  
HETATM    6  C   UNL     1     -11.703  13.943  68.833  1.00  0.00    -0.373 A  
HETATM    7  C   UNL     1     -12.100  13.138  69.902  1.00  0.00    -0.357 A  
ENDROOT
BRANCH   5   8
HETATM    8  C   UNL     1     -11.400  16.209  67.779  1.00  0.00    -0.126 C  
HETATM    9  C   UNL     1     -10.315  16.992  67.704  1.00  0.00    -0.332 C  
HETATM   10  C   UNL     1      -9.202  17.308  68.684  1.00  0.00    -0.266 C  
HETATM   11  C   UNL     1      -7.948  16.585  68.134  1.00  0.00    -0.163 C  
HETATM   12  C   UNL     1      -7.559  17.430  66.898  1.00  0.00    -0.253 C  
HETATM   13  C   UNL     1      -8.629  18.550  66.886  1.00  0.00    -0.281 C  
HETATM   14  C   UNL     1      -8.273  19.742  66.029  1.00  0.00    -0.327 C  
HETATM   15  C   UNL     1      -8.903  18.806  68.397  1.00  0.00    -0.375 C  
HETATM   16  C   UNL     1      -9.926  17.827  66.510  1.00  0.00    -0.346 C  
HETATM   17  O   UNL     1     -10.522  17.870  65.449  1.00  0.00    -0.635 OA 
HETATM   18  C   UNL     1     -10.088  19.757  68.681  1.00  0.00    -0.546 C  
HETATM   19  C   UNL     1      -7.707  19.342  69.205  1.00  0.00    -0.287 C  
ENDBRANCH   5   8
TORSDOF 1
ENDMDL
MODEL        7
REMARK 921   NORMALIZED FREE ENERGY PREDICTED BY IDOCK:   -6.17 KCAL/MOL
REMARK 922        TOTAL FREE ENERGY PREDICTED BY IDOCK:   -7.02 KCAL/MOL
REMARK 923 INTER-LIGAND FREE ENERGY PREDICTED BY IDOCK:   -6.67 KCAL/MOL
REMARK 924 INTRA-LIGAND FREE ENERGY PREDICTED BY IDOCK:   -0.35 KCAL/MOL
REMARK 927      BINDING AFFINITY PREDICTED BY RF-SCORE:    0.00 PKD
ROOT
HETATM    1  C   UNL     1     -12.761  15.671  71.273  1.00  0.00    -0.537 C  
HETATM    2  C   UNL     1     -12.745  14.171  71.254  1.00  0.00    -0.434 A  
HETATM    3  C   UNL     1     -12.060  13.455  70.267  1.00  0.00    -0.419 A  
HETATM    4  C   UNL     1     -12.097  12.054  70.247  1.00  0.00    -0.395 A  
HETATM    5  C   UNL     1     -12.817  11.341  71.214  1.00  0.00    -0.491 A  
HETATM    6  C   UNL     1     -13.510  12.070  72.188  1.00  0.00    -0.338 A  
HETATM    7  C   UNL     1     -13.460  13.465  72.223  1.00  0.00    -0.683 A  
ENDROOT
BRANCH   5   8
HETATM    8  C   UNL     1     -12.907   9.874  71.117  1.00  0.00    -0.461 C  
HETATM    9  C   UNL     1     -11.866   9.030  71.081  1.00  0.00    -0.362 C  
HETATM   10  C   UNL     1     -10.366   9.246  71.050  1.00  0.00    -0.388 C  
HETATM   11  C   UNL     1      -9.857   8.824  72.451  1.00  0.00    -0.226 C  
HETATM   12  C   UNL     1      -9.977   7.282  72.426  1.00  0.00    -0.208 C  
HETATM   13  C   UNL     1     -10.530   6.993  71.009  1.00  0.00    -0.231 C  
HETATM   14  C   UNL     1     -10.378   5.558  70.562  1.00  0.00    -0.342 C  
HETATM   15  C   UNL     1      -9.870   8.095  70.130  1.00  0.00    -0.184 C  
HETATM   16  C   UNL     1     -11.967   7.526  71.051  1.00  0.00    -0.290 C  
HETATM   17  O   UNL     1     -12.999   6.882  71.092  1.00  0.00    -0.336 OA 
HETATM   18  C   UNL     1     -10.404   8.164  68.681  1.00  0.00    -0.224 C  
HETATM   19  C   UNL     1      -8.335   8.029  70.030  1.00  0.00    -0.123 C  
ENDBRANCH   5   8
TORSDOF 1
ENDMDL
MODEL        8
REMARK 921   NORMALIZED FREE ENERGY PREDICTED BY IDOCK:   -6.08 KCAL/MOL
REMARK 922        TOTAL FREE ENERGY PREDICTED BY IDOCK:   -6.93 KCAL/MOL
REMARK 923 INTER-LIGAND FREE ENERGY PREDICTED BY IDOCK:   -6.44 KCAL/MOL
REMARK 924 INTRA-LIGAND FREE ENERGY PREDICTED BY IDOCK:   -0.49 KCAL/MOL
REMARK 927      BINDING AFFINITY PREDICTED BY RF-SCORE:    0.00 PKD
ROOT
HETATM    1  C   UNL     1     -12.907  12.186  63.625  1.00  0.00    -0.464 C  
HETATM    2  C   UNL     1     -12.035  12.963  64.567  1.00  0.00    -0.452 A  
HETATM    3  C   UNL     1     -10.726  13.321  64.231  1.00  0.00    -0.408 A  
HETATM    4  C   UNL     1      -9.917  14.009  65.146  1.00  0.00    -0.257 A  
HETATM    5  C   UNL     1     -10.401  14.354  66.415  1.00  0.00    -0.289 A  
HETATM    6  C   UNL     1     -11.709  13.977  66.743  1.00  0.00    -0.430 A  
HETATM    7  C   UNL     1     -12.524  13.309  65.828  1.00  0.00    -0.480 A  
ENDROOT
BRANCH   5   8
HETATM    8  C   UNL     1      -9.501  15.001  67.385  1.00  0.00    -0.202 C  
HETATM    9  C   UNL     1      -9.267  16.318  67.472  1.00  0.00    -0.206 C  
HETATM   10  C   UNL     1      -9.728  17.503  66.647  1.00  0.00    -0.303 C  
HETATM   11  C   UNL     1     -10.745  18.258  67.538  1.00  0.00    -0.381 C  
HETATM   12  C   UNL     1      -9.854  18.923  68.615  1.00  0.00    -0.463 C  
HETATM   13  C   UNL     1      -8.425  18.482  68.212  1.00  0.00    -0.341 C  
HETATM   14  C   UNL     1      -7.321  19.295  68.845  1.00  0.00    -0.392 C  
HETATM   15  C   UNL     1      -8.485  18.436  66.657  1.00  0.00    -0.283 C  
HETATM   16  C   UNL     1      -8.397  16.979  68.511  1.00  0.00    -0.260 C  
HETATM   17  O   UNL     1      -7.826  16.413  69.425  1.00  0.00    -0.212 OA 
HETATM   18  C   UNL     1      -7.230  17.831  65.986  1.00  0.00    -0.322 C  
HETATM   19  C   UNL     1      -8.745  19.786  65.965  1.00  0.00    -0.296 C  
ENDBRANCH   5   8
TORSDOF 1
ENDMDL
MODEL        9
REMARK 921   NORMALIZED FREE ENERGY PREDICTED BY IDOCK:   -6.03 KCAL/MOL
REMARK 922        TOTAL FREE ENERGY PREDICTED BY IDOCK:   -6.88 KCAL/MOL
REMARK 923 INTER-LIGAND FREE ENERGY PREDICTED BY IDOCK:   -6.42 KCAL/MOL
REMARK 924 INTRA-LIGAND FREE ENERGY PREDICTED BY IDOCK:   -0.45 KCAL/MOL
REMARK 927      BINDING AFFINITY PREDICTED BY RF-SCORE:    0.00 PKD
ROOT
HETATM    1  C   UNL     1      -9.689   8.491  66.346  1.00  0.00    -0.328 C  
HETATM    2  C   UNL     1     -10.058   9.898  65.976  1.00  0.00    -0.314 A  
HETATM    3  C   UNL     1      -9.599  10.492  64.796  1.00  0.00    -0.342 A  
HETATM    4  C   UNL     1      -9.923  11.822  64.494  1.00  0.00    -0.273 A  
HETATM    5  C   UNL     1     -10.712  12.584  65.366  1.00  0.00    -0.312 A  
HETATM    6  C   UNL     1     -11.152  11.981  66.550  1.00  0.00    -0.362 A  
HETATM    7  C   UNL     1     -10.849  10.651  66.844  1.00  0.00    -0.267 A  
ENDROOT
BRANCH   5   8
HETATM    8  C   UNL     1     -10.964  14.004  65.064  1.00  0.00    -0.379 C  
HETATM    9  C   UNL     1     -10.467  15.045  65.746  1.00  0.00    -0.353 C  
HETATM   10  C   UNL     1      -9.616  15.146  66.996  1.00  0.00    -0.235 C  
HETATM   11  C   UNL     1      -8.217  15.600  66.510  1.00  0.00    -0.227 C  
HETATM   12  C   UNL     1      -8.434  17.083  66.128  1.00  0.00    -0.262 C  
HETATM   13  C   UNL     1      -9.931  17.316  66.450  1.00  0.00    -0.319 C  
HETATM   14  C   UNL     1     -10.328  18.770  66.548  1.00  0.00    -0.475 C  
HETATM   15  C   UNL     1     -10.178  16.416  67.695  1.00  0.00    -0.272 C  
HETATM   16  C   UNL     1     -10.675  16.496  65.390  1.00  0.00    -0.259 C  
HETATM   17  O   UNL     1     -11.285  16.910  64.422  1.00  0.00    -1.159 OA 
HETATM   18  C   UNL     1     -11.660  16.305  68.121  1.00  0.00    -0.072 C  
HETATM   19  C   UNL     1      -9.387  16.803  68.958  1.00  0.00    -0.212 C  
ENDBRANCH   5   8
TORSDOF 1
ENDMDL
MODEL       10
REMARK 921   NORMALIZED FREE ENERGY PREDICTED BY IDOCK:   -5.96 KCAL/MOL
REMARK 922        TOTAL FREE ENERGY PREDICTED BY IDOCK:   -6.80 KCAL/MOL
REMARK 923 INTER-LIGAND FREE ENERGY PREDICTED BY IDOCK:   -6.33 KCAL/MOL
REMARK 924 INTRA-LIGAND FREE ENERGY PREDICTED BY IDOCK:   -0.47 KCAL/MOL
REMARK 927      BINDING AFFINITY PREDICTED BY RF-SCORE:    0.00 PKD
ROOT
HETATM    1  C   UNL     1     -11.936  10.774  70.207  1.00  0.00    -0.438 C  
HETATM    2  C   UNL     1     -11.857  12.001  69.348  1.00  0.00    -0.384 A  
HETATM    3  C   UNL     1     -11.630  11.920  67.971  1.00  0.00    -0.401 A  
HETATM    4  C   UNL     1     -11.517  13.084  67.196  1.00  0.00    -0.379 A  
HETATM    5  C   UNL     1     -11.631  14.351  67.784  1.00  0.00    -0.384 A  
HETATM    6  C   UNL     1     -11.844  14.417  69.166  1.00  0.00    -0.359 A  
HETATM    7  C   UNL     1     -11.977  13.261  69.937  1.00  0.00    -0.400 A  
ENDROOT
BRANCH   5   8
HETATM    8  C   UNL     1     -11.423  15.555  66.961  1.00  0.00    -0.036 C  
HETATM    9  C   UNL     1     -10.358  16.365  67.022  1.00  0.00    -0.293 C  
HETATM   10  C   UNL     1      -9.134  16.394  67.917  1.00  0.00    -0.201 C  
HETATM   11  C   UNL     1      -7.955  15.942  67.021  1.00  0.00    -0.270 C  
HETATM   12  C   UNL     1      -7.722  17.158  66.093  1.00  0.00    -0.302 C  
HETATM   13  C   UNL     1      -8.789  18.175  66.570  1.00  0.00    -0.286 C  
HETATM   14  C   UNL     1      -8.544  19.594  66.115  1.00  0.00    -0.357 C  
HETATM   15  C   UNL     1      -8.877  17.916  68.103  1.00  0.00    -0.265 C  
HETATM   16  C   UNL     1     -10.121  17.558  66.129  1.00  0.00    -0.310 C  
HETATM   17  O   UNL     1     -10.841  17.916  65.217  1.00  0.00    -0.614 OA 
HETATM   18  C   UNL     1     -10.022  18.673  68.815  1.00  0.00    -0.427 C  
HETATM   19  C   UNL     1      -7.593  18.213  68.899  1.00  0.00    -0.227 C  
ENDBRANCH   5   8
TORSDOF 1
ENDMDL
MODEL       11
REMARK 921   NORMALIZED FREE ENERGY PREDICTED BY IDOCK:   -5.93 KCAL/MOL
REMARK 922        TOTAL FREE ENERGY PREDICTED BY IDOCK:   -6.77 KCAL/MOL
REMARK 923 INTER-LIGAND FREE ENERGY PREDICTED BY IDOCK:   -6.45 KCAL/MOL
REMARK 924 INTRA-LIGAND FREE ENERGY PREDICTED BY IDOCK:   -0.31 KCAL/MOL
REMARK 927      BINDING AFFINITY PREDICTED BY RF-SCORE:    0.00 PKD
ROOT
HETATM    1  C   UNL     1      -9.718   8.386  66.275  1.00  0.00    -0.278 C  
HETATM    2  C   UNL     1      -9.937   9.846  66.010  1.00  0.00    -0.338 A  
HETATM    3  C   UNL     1     -10.372  10.718  67.014  1.00  0.00    -0.275 A  
HETATM    4  C   UNL     1     -10.611  12.070  66.730  1.00  0.00    -0.260 A  
HETATM    5  C   UNL     1     -10.418  12.577  65.439  1.00  0.00    -0.308 A  
HETATM    6  C   UNL     1      -9.996  11.691  64.441  1.00  0.00    -0.298 A  
HETATM    7  C   UNL     1      -9.738  10.348  64.723  1.00  0.00    -0.383 A  
ENDROOT
BRANCH   5   8
HETATM    8  C   UNL     1     -10.758  13.982  65.152  1.00  0.00    -0.393 C  
HETATM    9  C   UNL     1     -10.320  15.045  65.839  1.00  0.00    -0.329 C  
HETATM   10  C   UNL     1      -9.466  15.187  67.084  1.00  0.00    -0.224 C  
HETATM   11  C   UNL     1      -8.101  15.729  66.592  1.00  0.00    -0.282 C  
HETATM   12  C   UNL     1      -8.410  17.200  66.225  1.00  0.00    -0.298 C  
HETATM   13  C   UNL     1      -9.916  17.338  66.560  1.00  0.00    -0.310 C  
HETATM   14  C   UNL     1     -10.400  18.765  66.675  1.00  0.00    -0.472 C  
HETATM   15  C   UNL     1     -10.099  16.414  67.799  1.00  0.00    -0.262 C  
HETATM   16  C   UNL     1     -10.618  16.484  65.498  1.00  0.00    -0.295 C  
HETATM   17  O   UNL     1     -11.259  16.868  64.538  1.00  0.00    -1.057 OA 
HETATM   18  C   UNL     1     -11.568  16.210  68.235  1.00  0.00    -0.181 C  
HETATM   19  C   UNL     1      -9.322  16.837  69.059  1.00  0.00    -0.212 C  
ENDBRANCH   5   8
TORSDOF 1
ENDMDL
MODEL       12
REMARK 921   NORMALIZED FREE ENERGY PREDICTED BY IDOCK:   -5.89 KCAL/MOL
REMARK 922        TOTAL FREE ENERGY PREDICTED BY IDOCK:   -6.73 KCAL/MOL
REMARK 923 INTER-LIGAND FREE ENERGY PREDICTED BY IDOCK:   -6.37 KCAL/MOL
REMARK 924 INTRA-LIGAND FREE ENERGY PREDICTED BY IDOCK:   -0.36 KCAL/MOL
REMARK 927      BINDING AFFINITY PREDICTED BY RF-SCORE:    0.00 PKD
ROOT
HETATM    1  C   UNL     1     -12.094  15.623  71.242  1.00  0.00    -0.463 C  
HETATM    2  C   UNL     1     -12.356  14.147  71.195  1.00  0.00    -0.447 A  
HETATM    3  C   UNL     1     -13.101  13.500  72.186  1.00  0.00    -0.487 A  
HETATM    4  C   UNL     1     -13.294  12.112  72.143  1.00  0.00    -0.438 A  
HETATM    5  C   UNL     1     -12.748  11.344  71.107  1.00  0.00    -0.479 A  
HETATM    6  C   UNL     1     -11.992  12.002  70.129  1.00  0.00    -0.401 A  
HETATM    7  C   UNL     1     -11.814  13.386  70.158  1.00  0.00    -0.342 A  
ENDROOT
BRANCH   5   8
HETATM    8  C   UNL     1     -12.896   9.879  71.133  1.00  0.00    -0.461 C  
HETATM    9  C   UNL     1     -11.889   8.994  71.110  1.00  0.00    -0.362 C  
HETATM   10  C   UNL     1     -10.386   9.146  70.983  1.00  0.00    -0.363 C  
HETATM   11  C   UNL     1      -9.816   8.815  72.384  1.00  0.00    -0.226 C  
HETATM   12  C   UNL     1      -9.992   7.281  72.490  1.00  0.00    -0.213 C  
HETATM   13  C   UNL     1     -10.634   6.905  71.132  1.00  0.00    -0.246 C  
HETATM   14  C   UNL     1     -10.559   5.435  70.794  1.00  0.00    -0.293 C  
HETATM   15  C   UNL     1      -9.984   7.907  70.134  1.00  0.00    -0.190 C  
HETATM   16  C   UNL     1     -12.046   7.497  71.206  1.00  0.00    -0.323 C  
HETATM   17  O   UNL     1     -13.096   6.900  71.354  1.00  0.00    -0.344 OA 
HETATM   18  C   UNL     1     -10.595   7.884  68.714  1.00  0.00    -0.154 C  
HETATM   19  C   UNL     1      -8.461   7.772  69.958  1.00  0.00    -0.135 C  
ENDBRANCH   5   8
TORSDOF 1
ENDMDL
MODEL       13
REMARK 921   NORMALIZED FREE ENERGY PREDICTED BY IDOCK:   -5.84 KCAL/MOL
REMARK 922        TOTAL FREE ENERGY PREDICTED BY IDOCK:   -6.67 KCAL/MOL
REMARK 923 INTER-LIGAND FREE ENERGY PREDICTED BY IDOCK:   -6.54 KCAL/MOL
REMARK 924 INTRA-LIGAND FREE ENERGY PREDICTED BY IDOCK:   -0.13 KCAL/MOL
REMARK 927      BINDING AFFINITY PREDICTED BY RF-SCORE:    0.00 PKD
ROOT
HETATM    1  C   UNL     1     -12.402   7.255  71.769  1.00  0.00    -0.375 C  
HETATM    2  C   UNL     1     -12.318   8.720  71.460  1.00  0.00    -0.380 A  
HETATM    3  C   UNL     1     -13.260   9.630  71.950  1.00  0.00    -0.538 A  
HETATM    4  C   UNL     1     -13.184  10.989  71.612  1.00  0.00    -0.461 A  
HETATM    5  C   UNL     1     -12.163  11.464  70.778  1.00  0.00    -0.475 A  
HETATM    6  C   UNL     1     -11.235  10.540  70.283  1.00  0.00    -0.391 A  
HETATM    7  C   UNL     1     -11.296   9.190  70.634  1.00  0.00    -0.323 A  
ENDROOT
BRANCH   5   8
HETATM    8  C   UNL     1     -12.158  12.880  70.371  1.00  0.00    -0.385 C  
HETATM    9  C   UNL     1     -11.677  13.356  69.214  1.00  0.00    -0.383 C  
HETATM   10  C   UNL     1     -10.965  12.701  68.047  1.00  0.00    -0.266 C  
HETATM   11  C   UNL     1     -11.994  12.682  66.891  1.00  0.00    -0.345 C  
HETATM   12  C   UNL     1     -12.069  14.164  66.452  1.00  0.00    -0.475 C  
HETATM   13  C   UNL     1     -11.064  14.864  67.400  1.00  0.00    -0.325 C  
HETATM   14  C   UNL     1     -10.636  16.240  66.948  1.00  0.00    -0.270 C  
HETATM   15  C   UNL     1      -9.952  13.794  67.604  1.00  0.00    -0.238 C  
HETATM   16  C   UNL     1     -11.737  14.798  68.776  1.00  0.00    -0.323 C  
HETATM   17  O   UNL     1     -12.259  15.707  69.394  1.00  0.00    -0.322 OA 
HETATM   18  C   UNL     1      -8.900  14.160  68.676  1.00  0.00    -0.132 C  
HETATM   19  C   UNL     1      -9.169  13.405  66.337  1.00  0.00    -0.131 C  
ENDBRANCH   5   8
TORSDOF 1
ENDMDL
MODEL       14
REMARK 921   NORMALIZED FREE ENERGY PREDICTED BY IDOCK:   -5.81 KCAL/MOL
REMARK 922        TOTAL FREE ENERGY PREDICTED BY IDOCK:   -6.65 KCAL/MOL
REMARK 923 INTER-LIGAND FREE ENERGY PREDICTED BY IDOCK:   -6.13 KCAL/MOL
REMARK 924 INTRA-LIGAND FREE ENERGY PREDICTED BY IDOCK:   -0.52 KCAL/MOL
REMARK 927      BINDING AFFINITY PREDICTED BY RF-SCORE:    0.00 PKD
ROOT
HETATM    1  C   UNL     1     -11.884  11.310  68.369  1.00  0.00    -0.331 C  
HETATM    2  C   UNL     1     -11.075  12.415  67.757  1.00  0.00    -0.292 A  
HETATM    3  C   UNL     1      -9.690  12.499  67.939  1.00  0.00    -0.205 A  
HETATM    4  C   UNL     1      -8.963  13.566  67.392  1.00  0.00    -0.219 A  
HETATM    5  C   UNL     1      -9.604  14.568  66.652  1.00  0.00    -0.291 A  
HETATM    6  C   UNL     1     -10.992  14.478  66.490  1.00  0.00    -0.321 A  
HETATM    7  C   UNL     1     -11.717  13.407  67.016  1.00  0.00    -0.426 A  
ENDROOT
BRANCH   5   8
HETATM    8  C   UNL     1      -8.827  15.720  66.163  1.00  0.00    -0.346 C  
HETATM    9  C   UNL     1      -8.729  16.909  66.773  1.00  0.00    -0.261 C  
HETATM   10  C   UNL     1      -9.372  17.483  68.020  1.00  0.00    -0.272 C  
HETATM   11  C   UNL     1      -8.241  17.549  69.077  1.00  0.00    -0.065 C  
HETATM   12  C   UNL     1      -7.357  18.719  68.583  1.00  0.00    -0.335 C  
HETATM   13  C   UNL     1      -8.088  19.199  67.305  1.00  0.00    -0.286 C  
HETATM   14  C   UNL     1      -7.677  20.573  66.831  1.00  0.00    -0.323 C  
HETATM   15  C   UNL     1      -9.592  18.974  67.641  1.00  0.00    -0.362 C  
HETATM   16  C   UNL     1      -7.877  18.060  66.301  1.00  0.00    -0.253 C  
HETATM   17  O   UNL     1      -7.143  18.050  65.331  1.00  0.00    -0.496 OA 
HETATM   18  C   UNL     1     -10.553  19.193  66.450  1.00  0.00    -0.522 C  
HETATM   19  C   UNL     1     -10.141  19.814  68.808  1.00  0.00    -0.523 C  
ENDBRANCH   5   8
TORSDOF 1
ENDMDL
MODEL       15
REMARK 921   NORMALIZED FREE ENERGY PREDICTED BY IDOCK:   -5.80 KCAL/MOL
REMARK 922        TOTAL FREE ENERGY PREDICTED BY IDOCK:   -6.63 KCAL/MOL
REMARK 923 INTER-LIGAND FREE ENERGY PREDICTED BY IDOCK:   -6.20 KCAL/MOL
REMARK 924 INTRA-LIGAND FREE ENERGY PREDICTED BY IDOCK:   -0.43 KCAL/MOL
REMARK 927      BINDING AFFINITY PREDICTED BY RF-SCORE:    0.00 PKD
ROOT
HETATM    1  C   UNL     1     -10.955   8.277  72.541  1.00  0.00    -0.424 C  
HETATM    2  C   UNL     1     -11.211   9.328  71.501  1.00  0.00    -0.457 A  
HETATM    3  C   UNL     1     -12.386  10.087  71.496  1.00  0.00    -0.513 A  
HETATM    4  C   UNL     1     -12.620  11.033  70.487  1.00  0.00    -0.390 A  
HETATM    5  C   UNL     1     -11.684  11.240  69.466  1.00  0.00    -0.415 A  
HETATM    6  C   UNL     1     -10.519  10.463  69.475  1.00  0.00    -0.274 A  
HETATM    7  C   UNL     1     -10.273   9.535  70.488  1.00  0.00    -0.349 A  
ENDROOT
BRANCH   5   8
HETATM    8  C   UNL     1     -11.996  12.178  68.374  1.00  0.00    -0.257 C  
HETATM    9  C   UNL     1     -11.270  13.255  68.042  1.00  0.00    -0.307 C  
HETATM   10  C   UNL     1     -10.033  13.890  68.646  1.00  0.00    -0.189 C  
HETATM   11  C   UNL     1      -8.883  13.585  67.654  1.00  0.00    -0.202 C  
HETATM   12  C   UNL     1      -9.188  14.513  66.455  1.00  0.00    -0.264 C  
HETATM   13  C   UNL     1     -10.473  15.255  66.900  1.00  0.00    -0.289 C  
HETATM   14  C   UNL     1     -10.779  16.502  66.105  1.00  0.00    -0.155 C  
HETATM   15  C   UNL     1     -10.288  15.409  68.438  1.00  0.00    -0.229 C  
HETATM   16  C   UNL     1     -11.558  14.172  66.880  1.00  0.00    -0.391 C  
HETATM   17  O   UNL     1     -12.459  14.037  66.074  1.00  0.00    -0.468 OA 
HETATM   18  C   UNL     1     -11.530  15.954  69.181  1.00  0.00    -0.377 C  
HETATM   19  C   UNL     1      -9.097  16.281  68.877  1.00  0.00    -0.250 C  
ENDBRANCH   5   8
TORSDOF 1
ENDMDL
MODEL       16
REMARK 921   NORMALIZED FREE ENERGY PREDICTED BY IDOCK:   -5.75 KCAL/MOL
REMARK 922        TOTAL FREE ENERGY PREDICTED BY IDOCK:   -6.58 KCAL/MOL
REMARK 923 INTER-LIGAND FREE ENERGY PREDICTED BY IDOCK:   -6.33 KCAL/MOL
REMARK 924 INTRA-LIGAND FREE ENERGY PREDICTED BY IDOCK:   -0.25 KCAL/MOL
REMARK 927      BINDING AFFINITY PREDICTED BY RF-SCORE:    0.00 PKD
ROOT
HETATM    1  C   UNL     1     -12.480   8.390  72.205  1.00  0.00    -0.417 C  
HETATM    2  C   UNL     1     -12.316   9.681  71.460  1.00  0.00    -0.477 A  
HETATM    3  C   UNL     1     -11.325   9.848  70.488  1.00  0.00    -0.399 A  
HETATM    4  C   UNL     1     -11.165  11.080  69.836  1.00  0.00    -0.327 A  
HETATM    5  C   UNL     1     -11.994  12.167  70.142  1.00  0.00    -0.394 A  
HETATM    6  C   UNL     1     -12.973  11.989  71.127  1.00  0.00    -0.252 A  
HETATM    7  C   UNL     1     -13.149  10.760  71.764  1.00  0.00    -0.573 A  
ENDROOT
BRANCH   5   8
HETATM    8  C   UNL     1     -11.747  13.471  69.503  1.00  0.00    -0.382 C  
HETATM    9  C   UNL     1     -11.509  13.666  68.199  1.00  0.00    -0.348 C  
HETATM   10  C   UNL     1     -11.343  12.717  67.028  1.00  0.00    -0.377 C  
HETATM   11  C   UNL     1     -12.627  12.879  66.178  1.00  0.00     0.126 C  
HETATM   12  C   UNL     1     -12.447  14.266  65.516  1.00  0.00    -0.434 C  
HETATM   13  C   UNL     1     -11.073  14.737  66.053  1.00  0.00    -0.330 C  
HETATM   14  C   UNL     1     -10.458  15.876  65.275  1.00  0.00    -0.403 C  
HETATM   15  C   UNL     1     -10.255  13.418  66.167  1.00  0.00    -0.301 C  
HETATM   16  C   UNL     1     -11.325  15.010  67.540  1.00  0.00    -0.333 C  
HETATM   17  O   UNL     1     -11.405  16.090  68.096  1.00  0.00    -0.342 OA 
HETATM   18  C   UNL     1      -8.887  13.571  66.869  1.00  0.00    -0.194 C  
HETATM   19  C   UNL     1      -9.986  12.691  64.836  1.00  0.00    -0.169 C  
ENDBRANCH   5   8
TORSDOF 1
ENDMDL
MODEL       17
REMARK 921   NORMALIZED FREE ENERGY PREDICTED BY IDOCK:   -5.72 KCAL/MOL
REMARK 922        TOTAL FREE ENERGY PREDICTED BY IDOCK:   -6.54 KCAL/MOL
REMARK 923 INTER-LIGAND FREE ENERGY PREDICTED BY IDOCK:   -6.32 KCAL/MOL
REMARK 924 INTRA-LIGAND FREE ENERGY PREDICTED BY IDOCK:   -0.23 KCAL/MOL
REMARK 927      BINDING AFFINITY PREDICTED BY RF-SCORE:    0.00 PKD
ROOT
HETATM    1  C   UNL     1     -13.858   8.687  72.442  1.00  0.00    -0.418 C  
HETATM    2  C   UNL     1     -12.881   9.453  71.600  1.00  0.00    -0.461 A  
HETATM    3  C   UNL     1     -13.012  10.830  71.391  1.00  0.00    -0.535 A  
HETATM    4  C   UNL     1     -12.110  11.515  70.565  1.00  0.00    -0.472 A  
HETATM    5  C   UNL     1     -11.060  10.838  69.932  1.00  0.00    -0.339 A  
HETATM    6  C   UNL     1     -10.949   9.457  70.138  1.00  0.00    -0.282 A  
HETATM    7  C   UNL     1     -11.832   8.775  70.976  1.00  0.00    -0.315 A  
ENDROOT
BRANCH   5   8
HETATM    8  C   UNL     1     -10.180  11.568  69.003  1.00  0.00    -0.109 C  
HETATM    9  C   UNL     1     -10.579  12.486  68.111  1.00  0.00    -0.239 C  
HETATM   10  C   UNL     1     -11.945  13.006  67.709  1.00  0.00    -0.344 C  
HETATM   11  C   UNL     1     -12.029  14.441  68.286  1.00  0.00    -0.323 C  
HETATM   12  C   UNL     1     -11.077  15.250  67.374  1.00  0.00    -0.326 C  
HETATM   13  C   UNL     1     -10.564  14.190  66.369  1.00  0.00    -0.280 C  
HETATM   14  C   UNL     1      -9.930  14.766  65.125  1.00  0.00    -0.279 C  
HETATM   15  C   UNL     1     -11.788  13.246  66.181  1.00  0.00    -0.437 C  
HETATM   16  C   UNL     1      -9.665  13.278  67.211  1.00  0.00    -0.231 C  
HETATM   17  O   UNL     1      -8.449  13.217  67.201  1.00  0.00    -0.192 OA 
HETATM   18  C   UNL     1     -11.492  11.968  65.363  1.00  0.00    -0.361 C  
HETATM   19  C   UNL     1     -13.032  13.894  65.547  1.00  0.00    -0.375 C  
ENDBRANCH   5   8
TORSDOF 1
ENDMDL
MODEL       18
REMARK 921   NORMALIZED FREE ENERGY PREDICTED BY IDOCK:   -5.71 KCAL/MOL
REMARK 922        TOTAL FREE ENERGY PREDICTED BY IDOCK:   -6.54 KCAL/MOL
REMARK 923 INTER-LIGAND FREE ENERGY PREDICTED BY IDOCK:   -6.16 KCAL/MOL
REMARK 924 INTRA-LIGAND FREE ENERGY PREDICTED BY IDOCK:   -0.38 KCAL/MOL
REMARK 927      BINDING AFFINITY PREDICTED BY RF-SCORE:    0.00 PKD
ROOT
HETATM    1  C   UNL     1     -12.459  15.593  74.505  1.00  0.00    -0.749 C  
HETATM    2  C   UNL     1     -12.448  15.273  73.040  1.00  0.00    -0.532 A  
HETATM    3  C   UNL     1     -11.837  16.117  72.107  1.00  0.00    -0.626 A  
HETATM    4  C   UNL     1     -11.879  15.817  70.738  1.00  0.00    -0.438 A  
HETATM    5  C   UNL     1     -12.532  14.667  70.275  1.00  0.00    -0.401 A  
HETATM    6  C   UNL     1     -13.151  13.838  71.218  1.00  0.00    -0.370 A  
HETATM    7  C   UNL     1     -13.095  14.123  72.584  1.00  0.00    -0.564 A  
ENDROOT
BRANCH   5   8
HETATM    8  C   UNL     1     -12.632  14.423  68.826  1.00  0.00     0.345 C  
HETATM    9  C   UNL     1     -11.598  14.262  67.989  1.00  0.00    -0.364 C  
HETATM   10  C   UNL     1     -10.096  14.340  68.181  1.00  0.00    -0.232 C  
HETATM   11  C   UNL     1      -9.589  12.880  68.090  1.00  0.00    -0.223 C  
HETATM   12  C   UNL     1      -9.721  12.548  66.584  1.00  0.00    -0.244 C  
HETATM   13  C   UNL     1     -10.277  13.861  65.980  1.00  0.00    -0.317 C  
HETATM   14  C   UNL     1     -10.136  13.966  64.480  1.00  0.00     0.019 C  
HETATM   15  C   UNL     1      -9.609  14.970  66.846  1.00  0.00    -0.251 C  
HETATM   16  C   UNL     1     -11.710  13.945  66.519  1.00  0.00    -0.393 C  
HETATM   17  O   UNL     1     -12.746  13.757  65.910  1.00  0.00    -0.467 OA 
HETATM   18  C   UNL     1     -10.143  16.396  66.582  1.00  0.00    -0.290 C  
HETATM   19  C   UNL     1      -8.075  15.051  66.747  1.00  0.00    -0.061 C  
ENDBRANCH   5   8
TORSDOF 1
ENDMDL
MODEL       19
REMARK 921   NORMALIZED FREE ENERGY PREDICTED BY IDOCK:   -5.64 KCAL/MOL
REMARK 922        TOTAL FREE ENERGY PREDICTED BY IDOCK:   -6.47 KCAL/MOL
REMARK 923 INTER-LIGAND FREE ENERGY PREDICTED BY IDOCK:   -6.19 KCAL/MOL
REMARK 924 INTRA-LIGAND FREE ENERGY PREDICTED BY IDOCK:   -0.27 KCAL/MOL
REMARK 927      BINDING AFFINITY PREDICTED BY RF-SCORE:    0.00 PKD
ROOT
HETATM    1  C   UNL     1     -11.385  14.256  66.564  1.00  0.00    -0.351 C  
HETATM    2  C   UNL     1     -11.541  13.256  67.671  1.00  0.00    -0.386 A  
HETATM    3  C   UNL     1     -11.465  11.879  67.435  1.00  0.00    -0.393 A  
HETATM    4  C   UNL     1     -11.658  10.964  68.479  1.00  0.00    -0.360 A  
HETATM    5  C   UNL     1     -11.929  11.406  69.781  1.00  0.00    -0.422 A  
HETATM    6  C   UNL     1     -12.016  12.787  70.001  1.00  0.00    -0.371 A  
HETATM    7  C   UNL     1     -11.805  13.701  68.968  1.00  0.00    -0.393 A  
ENDROOT
BRANCH   5   8
HETATM    8  C   UNL     1     -12.211  10.421  70.839  1.00  0.00    -0.484 C  
HETATM    9  C   UNL     1     -11.479   9.330  71.101  1.00  0.00    -0.403 C  
HETATM   10  C   UNL     1     -10.263   8.719  70.433  1.00  0.00    -0.228 C  
HETATM   11  C   UNL     1      -9.083   8.978  71.402  1.00  0.00    -0.271 C  
HETATM   12  C   UNL     1      -9.355   7.998  72.568  1.00  0.00    -0.289 C  
HETATM   13  C   UNL     1     -10.655   7.279  72.130  1.00  0.00    -0.242 C  
HETATM   14  C   UNL     1     -10.942   6.000  72.879  1.00  0.00    -0.303 C  
HETATM   15  C   UNL     1     -10.518   7.192  70.582  1.00  0.00    -0.226 C  
HETATM   16  C   UNL     1     -11.735   8.363  72.230  1.00  0.00    -0.385 C  
HETATM   17  O   UNL     1     -12.611   8.465  73.068  1.00  0.00    -0.191 OA 
HETATM   18  C   UNL     1     -11.783   6.683  69.854  1.00  0.00    -0.333 C  
HETATM   19  C   UNL     1      -9.344   6.338  70.070  1.00  0.00    -0.164 C  
ENDBRANCH   5   8
TORSDOF 1
ENDMDL
MODEL       20
REMARK 921   NORMALIZED FREE ENERGY PREDICTED BY IDOCK:   -5.61 KCAL/MOL
REMARK 922        TOTAL FREE ENERGY PREDICTED BY IDOCK:   -6.43 KCAL/MOL
REMARK 923 INTER-LIGAND FREE ENERGY PREDICTED BY IDOCK:   -6.02 KCAL/MOL
REMARK 924 INTRA-LIGAND FREE ENERGY PREDICTED BY IDOCK:   -0.41 KCAL/MOL
REMARK 927      BINDING AFFINITY PREDICTED BY RF-SCORE:    0.00 PKD
ROOT
HETATM    1  C   UNL     1      -9.897  10.356  65.866  1.00  0.00    -0.294 C  
HETATM    2  C   UNL     1     -10.197  11.823  65.770  1.00  0.00    -0.276 A  
HETATM    3  C   UNL     1     -10.205  12.493  64.543  1.00  0.00    -0.332 A  
HETATM    4  C   UNL     1     -10.445  13.874  64.485  1.00  0.00    -0.334 A  
HETATM    5  C   UNL     1     -10.683  14.610  65.652  1.00  0.00    -0.340 A  
HETATM    6  C   UNL     1     -10.658  13.929  66.875  1.00  0.00    -0.280 A  
HETATM    7  C   UNL     1     -10.439  12.552  66.936  1.00  0.00    -0.244 A  
ENDROOT
BRANCH   5   8
HETATM    8  C   UNL     1     -10.848  16.072  65.568  1.00  0.00    -0.301 C  
HETATM    9  C   UNL     1     -10.039  16.980  66.130  1.00  0.00    -0.332 C  
HETATM   10  C   UNL     1      -8.826  16.862  67.031  1.00  0.00    -0.231 C  
HETATM   11  C   UNL     1      -7.614  17.248  66.147  1.00  0.00    -0.318 C  
HETATM   12  C   UNL     1      -7.763  18.779  65.981  1.00  0.00    -0.228 C  
HETATM   13  C   UNL     1      -9.039  19.100  66.799  1.00  0.00    -0.348 C  
HETATM   14  C   UNL     1      -9.207  20.561  67.142  1.00  0.00    -0.485 C  
HETATM   15  C   UNL     1      -8.979  18.085  67.978  1.00  0.00    -0.274 C  
HETATM   16  C   UNL     1     -10.176  18.475  65.982  1.00  0.00    -0.345 C  
HETATM   17  O   UNL     1     -11.010  19.049  65.309  1.00  0.00    -0.511 OA 
HETATM   18  C   UNL     1     -10.247  18.052  68.861  1.00  0.00    -0.320 C  
HETATM   19  C   UNL     1      -7.784  18.253  68.935  1.00  0.00    -0.223 C  
ENDBRANCH   5   8
TORSDOF 1
ENDMDL
MODEL       21
REMARK 921   NORMALIZED FREE ENERGY PREDICTED BY IDOCK:   -5.55 KCAL/MOL
REMARK 922        TOTAL FREE ENERGY PREDICTED BY IDOCK:   -6.37 KCAL/MOL
REMARK 923 INTER-LIGAND FREE ENERGY PREDICTED BY IDOCK:   -6.31 KCAL/MOL
REMARK 924 INTRA-LIGAND FREE ENERGY PREDICTED BY IDOCK:   -0.06 KCAL/MOL
REMARK 927      BINDING AFFINITY PREDICTED BY RF-SCORE:    0.00 PKD
ROOT
HETATM    1  C   UNL     1     -13.164  10.080  72.190  1.00  0.00    -0.489 C  
HETATM    2  C   UNL     1     -12.818  11.348  71.468  1.00  0.00    -0.508 A  
HETATM    3  C   UNL     1     -12.117  11.338  70.258  1.00  0.00    -0.459 A  
HETATM    4  C   UNL     1     -11.768  12.540  69.626  1.00  0.00    -0.372 A  
HETATM    5  C   UNL     1     -12.114  13.775  70.189  1.00  0.00    -0.429 A  
HETATM    6  C   UNL     1     -12.804  13.771  71.408  1.00  0.00    -0.449 A  
HETATM    7  C   UNL     1     -13.170  12.576  72.031  1.00  0.00    -0.524 A  
ENDROOT
BRANCH   5   8
HETATM    8  C   UNL     1     -11.660  15.020  69.546  1.00  0.00    -0.337 C  
HETATM    9  C   UNL     1     -10.595  15.137  68.741  1.00  0.00    -0.236 C  
HETATM   10  C   UNL     1      -9.526  14.158  68.298  1.00  0.00    -0.211 C  
HETATM   11  C   UNL     1      -9.832  13.853  66.811  1.00  0.00    -0.274 C  
HETATM   12  C   UNL     1      -9.419  15.156  66.085  1.00  0.00    -0.354 C  
HETATM   13  C   UNL     1      -8.911  16.056  67.238  1.00  0.00    -0.207 C  
HETATM   14  C   UNL     1      -8.082  17.236  66.788  1.00  0.00    -0.280 C  
HETATM   15  C   UNL     1      -8.253  15.047  68.224  1.00  0.00    -0.146 C  
HETATM   16  C   UNL     1     -10.177  16.400  68.032  1.00  0.00    -0.264 C  
HETATM   17  O   UNL     1     -10.767  17.464  68.066  1.00  0.00    -0.387 OA 
HETATM   18  C   UNL     1      -7.824  15.661  69.577  1.00  0.00    -0.180 C  
HETATM   19  C   UNL     1      -7.027  14.293  67.677  1.00  0.00    -0.202 C  
ENDBRANCH   5   8
TORSDOF 1
ENDMDL
MODEL       22
REMARK 921   NORMALIZED FREE ENERGY PREDICTED BY IDOCK:   -5.55 KCAL/MOL
REMARK 922        TOTAL FREE ENERGY PREDICTED BY IDOCK:   -6.36 KCAL/MOL
REMARK 923 INTER-LIGAND FREE ENERGY PREDICTED BY IDOCK:   -5.84 KCAL/MOL
REMARK 924 INTRA-LIGAND FREE ENERGY PREDICTED BY IDOCK:   -0.52 KCAL/MOL
REMARK 927      BINDING AFFINITY PREDICTED BY RF-SCORE:    0.00 PKD
ROOT
HETATM    1  C   UNL     1      -7.845  20.839  66.898  1.00  0.00    -0.200 C  
HETATM    2  C   UNL     1      -8.655  19.698  67.439  1.00  0.00    -0.353 A  
HETATM    3  C   UNL     1      -8.111  18.771  68.334  1.00  0.00    -0.371 A  
HETATM    4  C   UNL     1      -8.875  17.688  68.792  1.00  0.00    -0.208 A  
HETATM    5  C   UNL     1     -10.198  17.511  68.365  1.00  0.00    -0.372 A  
HETATM    6  C   UNL     1     -10.725  18.439  67.458  1.00  0.00    -0.399 A  
HETATM    7  C   UNL     1      -9.974  19.530  67.016  1.00  0.00    -0.489 A  
ENDROOT
BRANCH   5   8
HETATM    8  C   UNL     1     -10.947  16.319  68.795  1.00  0.00    -0.343 C  
HETATM    9  C   UNL     1     -10.828  15.092  68.269  1.00  0.00    -0.262 C  
HETATM   10  C   UNL     1     -10.025  14.543  67.107  1.00  0.00    -0.252 C  
HETATM   11  C   UNL     1      -8.896  13.697  67.746  1.00  0.00    -0.190 C  
HETATM   12  C   UNL     1      -9.638  12.443  68.266  1.00  0.00    -0.211 C  
HETATM   13  C   UNL     1     -11.107  12.706  67.855  1.00  0.00    -0.285 C  
HETATM   14  C   UNL     1     -11.991  11.481  67.881  1.00  0.00    -0.145 C  
HETATM   15  C   UNL     1     -10.976  13.471  66.505  1.00  0.00    -0.295 C  
HETATM   16  C   UNL     1     -11.549  13.862  68.760  1.00  0.00    -0.335 C  
HETATM   17  O   UNL     1     -12.300  13.812  69.716  1.00  0.00    -0.319 OA 
HETATM   18  C   UNL     1     -12.306  14.035  65.956  1.00  0.00    -0.504 C  
HETATM   19  C   UNL     1     -10.329  12.675  65.356  1.00  0.00    -0.311 C  
ENDBRANCH   5   8
TORSDOF 1
ENDMDL
MODEL       23
REMARK 921   NORMALIZED FREE ENERGY PREDICTED BY IDOCK:   -5.53 KCAL/MOL
REMARK 922        TOTAL FREE ENERGY PREDICTED BY IDOCK:   -6.34 KCAL/MOL
REMARK 923 INTER-LIGAND FREE ENERGY PREDICTED BY IDOCK:   -5.90 KCAL/MOL
REMARK 924 INTRA-LIGAND FREE ENERGY PREDICTED BY IDOCK:   -0.44 KCAL/MOL
REMARK 927      BINDING AFFINITY PREDICTED BY RF-SCORE:    0.00 PKD
ROOT
HETATM    1  C   UNL     1     -10.092  19.302  66.117  1.00  0.00    -0.517 C  
HETATM    2  C   UNL     1     -10.408  17.875  66.454  1.00  0.00    -0.365 A  
HETATM    3  C   UNL     1     -10.544  16.898  65.463  1.00  0.00    -0.215 A  
HETATM    4  C   UNL     1     -10.883  15.580  65.801  1.00  0.00    -0.337 A  
HETATM    5  C   UNL     1     -11.090  15.213  67.137  1.00  0.00    -0.335 A  
HETATM    6  C   UNL     1     -10.965  16.204  68.118  1.00  0.00    -0.341 A  
HETATM    7  C   UNL     1     -10.608  17.512  67.787  1.00  0.00    -0.375 A  
ENDROOT
BRANCH   5   8
HETATM    8  C   UNL     1     -11.527  13.842  67.454  1.00  0.00    -0.374 C  
HETATM    9  C   UNL     1     -10.788  12.735  67.303  1.00  0.00    -0.277 C  
HETATM   10  C   UNL     1      -9.404  12.489  66.737  1.00  0.00    -0.230 C  
HETATM   11  C   UNL     1      -8.508  12.166  67.958  1.00  0.00    -0.170 C  
HETATM   12  C   UNL     1      -8.961  10.745  68.370  1.00  0.00    -0.153 C  
HETATM   13  C   UNL     1     -10.058  10.409  67.330  1.00  0.00    -0.237 C  
HETATM   14  C   UNL     1     -10.404   8.941  67.242  1.00  0.00    -0.350 C  
HETATM   15  C   UNL     1      -9.557  11.111  66.034  1.00  0.00    -0.248 C  
HETATM   16  C   UNL     1     -11.219  11.343  67.694  1.00  0.00    -0.283 C  
HETATM   17  O   UNL     1     -12.271  11.048  68.229  1.00  0.00    -0.582 OA 
HETATM   18  C   UNL     1     -10.571  11.100  64.867  1.00  0.00    -0.356 C  
HETATM   19  C   UNL     1      -8.229  10.578  65.466  1.00  0.00    -0.162 C  
ENDBRANCH   5   8
TORSDOF 1
ENDMDL
MODEL       24
REMARK 921   NORMALIZED FREE ENERGY PREDICTED BY IDOCK:   -5.39 KCAL/MOL
REMARK 922        TOTAL FREE ENERGY PREDICTED BY IDOCK:   -6.20 KCAL/MOL
REMARK 923 INTER-LIGAND FREE ENERGY PREDICTED BY IDOCK:   -5.69 KCAL/MOL
REMARK 924 INTRA-LIGAND FREE ENERGY PREDICTED BY IDOCK:   -0.51 KCAL/MOL
REMARK 927      BINDING AFFINITY PREDICTED BY RF-SCORE:    0.00 PKD
ROOT
HETATM    1  C   UNL     1     -11.052   6.291  69.092  1.00  0.00    -0.457 C  
HETATM    2  C   UNL     1     -10.477   7.628  68.731  1.00  0.00    -0.208 A  
HETATM    3  C   UNL     1     -10.149   8.575  69.706  1.00  0.00    -0.197 A  
HETATM    4  C   UNL     1      -9.653   9.835  69.340  1.00  0.00    -0.218 A  
HETATM    5  C   UNL     1      -9.475  10.172  67.992  1.00  0.00    -0.156 A  
HETATM    6  C   UNL     1      -9.821   9.219  67.026  1.00  0.00    -0.257 A  
HETATM    7  C   UNL     1     -10.295   7.957  67.387  1.00  0.00    -0.349 A  
ENDROOT
BRANCH   5   8
HETATM    8  C   UNL     1      -9.033  11.531  67.635  1.00  0.00    -0.160 C  
HETATM    9  C   UNL     1      -9.835  12.534  67.251  1.00  0.00    -0.204 C  
HETATM   10  C   UNL     1     -11.326  12.620  66.991  1.00  0.00    -0.377 C  
HETATM   11  C   UNL     1     -11.906  13.440  68.169  1.00  0.00    -0.396 C  
HETATM   12  C   UNL     1     -11.428  14.882  67.873  1.00  0.00    -0.357 C  
HETATM   13  C   UNL     1     -10.637  14.727  66.551  1.00  0.00    -0.299 C  
HETATM   14  C   UNL     1     -10.389  16.024  65.818  1.00  0.00    -0.398 C  
HETATM   15  C   UNL     1     -11.411  13.608  65.794  1.00  0.00    -0.326 C  
HETATM   16  C   UNL     1      -9.383  13.942  66.953  1.00  0.00    -0.258 C  
HETATM   17  O   UNL     1      -8.245  14.360  67.057  1.00  0.00    -0.189 OA 
HETATM   18  C   UNL     1     -10.718  13.109  64.505  1.00  0.00    -0.416 C  
HETATM   19  C   UNL     1     -12.860  13.954  65.406  1.00  0.00    -0.466 C  
ENDBRANCH   5   8
TORSDOF 1
ENDMDL
MODEL       25
REMARK 921   NORMALIZED FREE ENERGY PREDICTED BY IDOCK:   -5.38 KCAL/MOL
REMARK 922        TOTAL FREE ENERGY PREDICTED BY IDOCK:   -6.18 KCAL/MOL
REMARK 923 INTER-LIGAND FREE ENERGY PREDICTED BY IDOCK:   -6.20 KCAL/MOL
REMARK 924 INTRA-LIGAND FREE ENERGY PREDICTED BY IDOCK:    0.02 KCAL/MOL
REMARK 927      BINDING AFFINITY PREDICTED BY RF-SCORE:    0.00 PKD
ROOT
HETATM    1  C   UNL     1     -11.921  11.036  69.394  1.00  0.00    -0.408 C  
HETATM    2  C   UNL     1     -11.685  12.518  69.374  1.00  0.00    -0.383 A  
HETATM    3  C   UNL     1     -10.856  13.118  68.421  1.00  0.00    -0.283 A  
HETATM    4  C   UNL     1     -10.617  14.499  68.451  1.00  0.00    -0.244 A  
HETATM    5  C   UNL     1     -11.204  15.308  69.432  1.00  0.00    -0.291 A  
HETATM    6  C   UNL     1     -12.021  14.692  70.389  1.00  0.00    -0.375 A  
HETATM    7  C   UNL     1     -12.277  13.321  70.350  1.00  0.00    -0.404 A  
ENDROOT
BRANCH   5   8
HETATM    8  C   UNL     1     -10.867  16.741  69.489  1.00  0.00    -0.225 C  
HETATM    9  C   UNL     1     -10.170  17.414  68.564  1.00  0.00    -0.369 C  
HETATM   10  C   UNL     1      -9.472  16.989  67.288  1.00  0.00    -0.240 C  
HETATM   11  C   UNL     1     -10.342  17.544  66.134  1.00  0.00    -0.330 C  
HETATM   12  C   UNL     1     -10.067  19.066  66.177  1.00  0.00    -0.462 C  
HETATM   13  C   UNL     1      -9.060  19.209  67.345  1.00  0.00    -0.333 C  
HETATM   14  C   UNL     1      -8.315  20.523  67.367  1.00  0.00    -0.351 C  
HETATM   15  C   UNL     1      -8.216  17.904  67.259  1.00  0.00    -0.225 C  
HETATM   16  C   UNL     1      -9.888  18.896  68.596  1.00  0.00    -0.407 C  
HETATM   17  O   UNL     1     -10.285  19.676  69.441  1.00  0.00    -0.328 OA 
HETATM   18  C   UNL     1      -7.244  17.690  68.442  1.00  0.00    -0.236 C  
HETATM   19  C   UNL     1      -7.385  17.738  65.973  1.00  0.00    -0.307 C  
ENDBRANCH   5   8
TORSDOF 1
ENDMDL
MODEL       26
REMARK 921   NORMALIZED FREE ENERGY PREDICTED BY IDOCK:   -5.37 KCAL/MOL
REMARK 922        TOTAL FREE ENERGY PREDICTED BY IDOCK:   -6.18 KCAL/MOL
REMARK 923 INTER-LIGAND FREE ENERGY PREDICTED BY IDOCK:   -5.78 KCAL/MOL
REMARK 924 INTRA-LIGAND FREE ENERGY PREDICTED BY IDOCK:   -0.40 KCAL/MOL
REMARK 927      BINDING AFFINITY PREDICTED BY RF-SCORE:    0.00 PKD
ROOT
HETATM    1  C   UNL     1     -13.560  15.831  72.927  1.00  0.00    -0.660 C  
HETATM    2  C   UNL     1     -13.054  14.782  71.982  1.00  0.00    -0.421 A  
HETATM    3  C   UNL     1     -12.216  15.102  70.909  1.00  0.00    -0.398 A  
HETATM    4  C   UNL     1     -11.792  14.109  70.014  1.00  0.00    -0.388 A  
HETATM    5  C   UNL     1     -12.197  12.777  70.175  1.00  0.00    -0.320 A  
HETATM    6  C   UNL     1     -13.048  12.474  71.245  1.00  0.00    -0.223 A  
HETATM    7  C   UNL     1     -13.456  13.456  72.149  1.00  0.00    -0.646 A  
ENDROOT
BRANCH   5   8
HETATM    8  C   UNL     1     -11.806  11.773  69.171  1.00  0.00    -0.389 C  
HETATM    9  C   UNL     1     -11.175  10.619  69.430  1.00  0.00    -0.329 C  
HETATM   10  C   UNL     1     -10.618  10.012  70.702  1.00  0.00    -0.272 C  
HETATM   11  C   UNL     1     -11.573   8.846  71.059  1.00  0.00    -0.347 C  
HETATM   12  C   UNL     1     -11.240   7.771  69.998  1.00  0.00    -0.126 C  
HETATM   13  C   UNL     1     -10.122   8.437  69.158  1.00  0.00    -0.206 C  
HETATM   14  C   UNL     1      -9.331   7.478  68.301  1.00  0.00    -0.141 C  
HETATM   15  C   UNL     1      -9.338   9.283  70.204  1.00  0.00    -0.258 C  
HETATM   16  C   UNL     1     -10.839   9.564  68.405  1.00  0.00    -0.137 C  
HETATM   17  O   UNL     1     -11.125   9.604  67.223  1.00  0.00    -0.151 OA 
HETATM   18  C   UNL     1      -8.266  10.218  69.599  1.00  0.00    -0.146 C  
HETATM   19  C   UNL     1      -8.639   8.477  71.315  1.00  0.00    -0.219 C  
ENDBRANCH   5   8
TORSDOF 1
ENDMDL
MODEL       27
REMARK 921   NORMALIZED FREE ENERGY PREDICTED BY IDOCK:   -5.35 KCAL/MOL
REMARK 922        TOTAL FREE ENERGY PREDICTED BY IDOCK:   -6.15 KCAL/MOL
REMARK 923 INTER-LIGAND FREE ENERGY PREDICTED BY IDOCK:   -5.66 KCAL/MOL
REMARK 924 INTRA-LIGAND FREE ENERGY PREDICTED BY IDOCK:   -0.49 KCAL/MOL
REMARK 927      BINDING AFFINITY PREDICTED BY RF-SCORE:    0.00 PKD
ROOT
HETATM    1  C   UNL     1     -11.942  12.601  65.574  1.00  0.00    -0.509 C  
HETATM    2  C   UNL     1     -11.408  13.968  65.886  1.00  0.00    -0.317 A  
HETATM    3  C   UNL     1     -11.314  14.438  67.200  1.00  0.00    -0.356 A  
HETATM    4  C   UNL     1     -10.853  15.736  67.462  1.00  0.00    -0.315 A  
HETATM    5  C   UNL     1     -10.475  16.588  66.417  1.00  0.00    -0.275 A  
HETATM    6  C   UNL     1     -10.587  16.110  65.106  1.00  0.00    -0.366 A  
HETATM    7  C   UNL     1     -11.027  14.812  64.841  1.00  0.00    -0.425 A  
ENDROOT
BRANCH   5   8
HETATM    8  C   UNL     1     -10.075  17.973  66.718  1.00  0.00    -0.357 C  
HETATM    9  C   UNL     1      -8.814  18.420  66.798  1.00  0.00    -0.283 C  
HETATM   10  C   UNL     1      -7.468  17.729  66.698  1.00  0.00    -0.264 C  
HETATM   11  C   UNL     1      -6.875  18.170  65.337  1.00  0.00    -0.008 C  
HETATM   12  C   UNL     1      -6.480  19.646  65.579  1.00  0.00    -0.286 C  
HETATM   13  C   UNL     1      -6.881  19.882  67.056  1.00  0.00    -0.236 C  
HETATM   14  C   UNL     1      -6.257  21.106  67.683  1.00  0.00    -0.426 C  
HETATM   15  C   UNL     1      -6.604  18.506  67.731  1.00  0.00    -0.214 C  
HETATM   16  C   UNL     1      -8.413  19.854  67.039  1.00  0.00    -0.328 C  
HETATM   17  O   UNL     1      -9.176  20.795  67.154  1.00  0.00    -0.338 OA 
HETATM   18  C   UNL     1      -7.103  18.397  69.190  1.00  0.00    -0.219 C  
HETATM   19  C   UNL     1      -5.131  18.058  67.736  1.00  0.00    -0.142 C  
ENDBRANCH   5   8
TORSDOF 1
ENDMDL
MODEL       28
REMARK 921   NORMALIZED FREE ENERGY PREDICTED BY IDOCK:   -5.32 KCAL/MOL
REMARK 922        TOTAL FREE ENERGY PREDICTED BY IDOCK:   -6.13 KCAL/MOL
REMARK 923 INTER-LIGAND FREE ENERGY PREDICTED BY IDOCK:   -5.60 KCAL/MOL
REMARK 924 INTRA-LIGAND FREE ENERGY PREDICTED BY IDOCK:   -0.52 KCAL/MOL
REMARK 927      BINDING AFFINITY PREDICTED BY RF-SCORE:    0.00 PKD
ROOT
HETATM    1  C   UNL     1     -11.807  12.234  64.738  1.00  0.00    -0.428 C  
HETATM    2  C   UNL     1     -11.235  11.747  66.037  1.00  0.00    -0.352 A  
HETATM    3  C   UNL     1     -10.297  10.711  66.085  1.00  0.00    -0.291 A  
HETATM    4  C   UNL     1      -9.810  10.244  67.315  1.00  0.00    -0.222 A  
HETATM    5  C   UNL     1     -10.251  10.806  68.520  1.00  0.00    -0.192 A  
HETATM    6  C   UNL     1     -11.201  11.833  68.458  1.00  0.00    -0.306 A  
HETATM    7  C   UNL     1     -11.672  12.313  67.235  1.00  0.00    -0.394 A  
ENDROOT
BRANCH   5   8
HETATM    8  C   UNL     1      -9.786  10.239  69.798  1.00  0.00    -0.201 C  
HETATM    9  C   UNL     1     -10.319   9.177  70.418  1.00  0.00    -0.269 C  
HETATM   10  C   UNL     1     -11.518   8.301  70.114  1.00  0.00     0.010 C  
HETATM   11  C   UNL     1     -10.934   6.946  69.644  1.00  0.00    -0.298 C  
HETATM   12  C   UNL     1     -10.381   6.322  70.947  1.00  0.00    -0.253 C  
HETATM   13  C   UNL     1     -10.722   7.385  72.020  1.00  0.00    -0.254 C  
HETATM   14  C   UNL     1     -10.656   6.879  73.442  1.00  0.00    -0.372 C  
HETATM   15  C   UNL     1     -12.076   7.976  71.529  1.00  0.00    -0.330 C  
HETATM   16  C   UNL     1      -9.796   8.561  71.692  1.00  0.00    -0.247 C  
HETATM   17  O   UNL     1      -8.805   8.921  72.300  1.00  0.00    -0.397 OA 
HETATM   18  C   UNL     1     -12.562   9.211  72.321  1.00  0.00    -0.425 C  
HETATM   19  C   UNL     1     -13.255   6.986  71.494  1.00  0.00    -0.382 C  
ENDBRANCH   5   8
TORSDOF 1
ENDMDL
MODEL       29
REMARK 921   NORMALIZED FREE ENERGY PREDICTED BY IDOCK:   -5.28 KCAL/MOL
REMARK 922        TOTAL FREE ENERGY PREDICTED BY IDOCK:   -6.09 KCAL/MOL
REMARK 923 INTER-LIGAND FREE ENERGY PREDICTED BY IDOCK:   -5.78 KCAL/MOL
REMARK 924 INTRA-LIGAND FREE ENERGY PREDICTED BY IDOCK:   -0.31 KCAL/MOL
REMARK 927      BINDING AFFINITY PREDICTED BY RF-SCORE:    0.00 PKD
ROOT
HETATM    1  C   UNL     1     -12.030  12.308  64.488  1.00  0.00    -0.459 C  
HETATM    2  C   UNL     1     -11.681  13.523  65.296  1.00  0.00    -0.341 A  
HETATM    3  C   UNL     1     -11.011  14.614  64.732  1.00  0.00    -0.399 A  
HETATM    4  C   UNL     1     -10.658  15.719  65.519  1.00  0.00    -0.424 A  
HETATM    5  C   UNL     1     -10.969  15.757  66.884  1.00  0.00    -0.207 A  
HETATM    6  C   UNL     1     -11.628  14.652  67.439  1.00  0.00    -0.408 A  
HETATM    7  C   UNL     1     -11.999  13.559  66.654  1.00  0.00    -0.452 A  
ENDROOT
BRANCH   5   8
HETATM    8  C   UNL     1     -10.511  16.893  67.703  1.00  0.00    -0.332 C  
HETATM    9  C   UNL     1      -9.268  17.394  67.712  1.00  0.00    -0.248 C  
HETATM   10  C   UNL     1      -7.984  16.979  67.021  1.00  0.00    -0.234 C  
HETATM   11  C   UNL     1      -7.736  18.050  65.931  1.00  0.00    -0.130 C  
HETATM   12  C   UNL     1      -7.297  19.293  66.742  1.00  0.00    -0.229 C  
HETATM   13  C   UNL     1      -7.332  18.790  68.206  1.00  0.00    -0.295 C  
HETATM   14  C   UNL     1      -6.578  19.661  69.182  1.00  0.00    -0.369 C  
HETATM   15  C   UNL     1      -6.899  17.299  68.088  1.00  0.00    -0.182 C  
HETATM   16  C   UNL     1      -8.824  18.600  68.502  1.00  0.00    -0.331 C  
HETATM   17  O   UNL     1      -9.538  19.295  69.200  1.00  0.00    -0.374 OA 
HETATM   18  C   UNL     1      -7.034  16.487  69.396  1.00  0.00    -0.202 C  
HETATM   19  C   UNL     1      -5.467  17.065  67.572  1.00  0.00    -0.160 C  
ENDBRANCH   5   8
TORSDOF 1
ENDMDL
MODEL       30
REMARK 921   NORMALIZED FREE ENERGY PREDICTED BY IDOCK:   -5.25 KCAL/MOL
REMARK 922        TOTAL FREE ENERGY PREDICTED BY IDOCK:   -6.05 KCAL/MOL
REMARK 923 INTER-LIGAND FREE ENERGY PREDICTED BY IDOCK:   -6.01 KCAL/MOL
REMARK 924 INTRA-LIGAND FREE ENERGY PREDICTED BY IDOCK:   -0.05 KCAL/MOL
REMARK 927      BINDING AFFINITY PREDICTED BY RF-SCORE:    0.00 PKD
ROOT
HETATM    1  C   UNL     1     -10.265  12.124  63.911  1.00  0.00    -0.426 C  
HETATM    2  C   UNL     1     -10.569  11.758  65.334  1.00  0.00    -0.325 A  
HETATM    3  C   UNL     1     -10.208  10.516  65.867  1.00  0.00    -0.311 A  
HETATM    4  C   UNL     1     -10.541  10.182  67.187  1.00  0.00    -0.308 A  
HETATM    5  C   UNL     1     -11.241  11.083  68.000  1.00  0.00    -0.372 A  
HETATM    6  C   UNL     1     -11.608  12.317  67.450  1.00  0.00    -0.425 A  
HETATM    7  C   UNL     1     -11.260  12.661  66.142  1.00  0.00    -0.350 A  
ENDROOT
BRANCH   5   8
HETATM    8  C   UNL     1     -11.651  10.672  69.354  1.00  0.00    -0.352 C  
HETATM    9  C   UNL     1     -11.089   9.691  70.074  1.00  0.00    -0.293 C  
HETATM   10  C   UNL     1      -9.991   8.690  69.771  1.00  0.00    -0.190 C  
HETATM   11  C   UNL     1      -8.770   9.150  70.605  1.00  0.00    -0.272 C  
HETATM   12  C   UNL     1      -9.168   8.786  72.055  1.00  0.00    -0.294 C  
HETATM   13  C   UNL     1     -10.569   8.148  71.887  1.00  0.00    -0.324 C  
HETATM   14  C   UNL     1     -11.034   7.345  73.079  1.00  0.00    -0.422 C  
HETATM   15  C   UNL     1     -10.471   7.414  70.518  1.00  0.00    -0.227 C  
HETATM   16  C   UNL     1     -11.470   9.321  71.485  1.00  0.00    -0.384 C  
HETATM   17  O   UNL     1     -12.307   9.884  72.166  1.00  0.00    -0.292 OA 
HETATM   18  C   UNL     1     -11.811   6.840  70.002  1.00  0.00    -0.265 C  
HETATM   19  C   UNL     1      -9.449   6.264  70.456  1.00  0.00    -0.175 C  
ENDBRANCH   5   8
TORSDOF 1
ENDMDL
MODEL       31
REMARK 921   NORMALIZED FREE ENERGY PREDICTED BY IDOCK:   -5.23 KCAL/MOL
REMARK 922        TOTAL FREE ENERGY PREDICTED BY IDOCK:   -6.03 KCAL/MOL
REMARK 923 INTER-LIGAND FREE ENERGY PREDICTED BY IDOCK:   -5.76 KCAL/MOL
REMARK 924 INTRA-LIGAND FREE ENERGY PREDICTED BY IDOCK:   -0.27 KCAL/MOL
REMARK 927      BINDING AFFINITY PREDICTED BY RF-SCORE:    0.00 PKD
ROOT
HETATM    1  C   UNL     1      -9.945  19.819  68.265  1.00  0.00    -0.557 C  
HETATM    2  C   UNL     1     -10.191  18.429  67.757  1.00  0.00    -0.407 A  
HETATM    3  C   UNL     1     -10.054  18.107  66.402  1.00  0.00    -0.392 A  
HETATM    4  C   UNL     1     -10.332  16.811  65.945  1.00  0.00    -0.341 A  
HETATM    5  C   UNL     1     -10.750  15.811  66.833  1.00  0.00    -0.299 A  
HETATM    6  C   UNL     1     -10.896  16.151  68.184  1.00  0.00    -0.329 A  
HETATM    7  C   UNL     1     -10.602  17.435  68.646  1.00  0.00    -0.318 A  
ENDROOT
BRANCH   5   8
HETATM    8  C   UNL     1     -11.116  14.483  66.312  1.00  0.00    -0.332 C  
HETATM    9  C   UNL     1     -10.865  13.313  66.915  1.00  0.00    -0.286 C  
HETATM   10  C   UNL     1     -10.121  12.947  68.184  1.00  0.00    -0.240 C  
HETATM   11  C   UNL     1     -11.212  12.521  69.197  1.00  0.00    -0.297 C  
HETATM   12  C   UNL     1     -11.674  11.142  68.667  1.00  0.00    -0.389 C  
HETATM   13  C   UNL     1     -10.786  10.929  67.416  1.00  0.00    -0.305 C  
HETATM   14  C   UNL     1     -10.737   9.502  66.923  1.00  0.00    -0.184 C  
HETATM   15  C   UNL     1      -9.438  11.602  67.809  1.00  0.00    -0.178 C  
HETATM   16  C   UNL     1     -11.303  11.962  66.408  1.00  0.00    -0.339 C  
HETATM   17  O   UNL     1     -11.970  11.759  65.411  1.00  0.00    -0.294 OA 
HETATM   18  C   UNL     1      -8.414  11.707  66.655  1.00  0.00    -0.165 C  
HETATM   19  C   UNL     1      -8.698  10.956  68.994  1.00  0.00    -0.108 C  
ENDBRANCH   5   8
TORSDOF 1
ENDMDL
MODEL       32
REMARK 921   NORMALIZED FREE ENERGY PREDICTED BY IDOCK:   -5.18 KCAL/MOL
REMARK 922        TOTAL FREE ENERGY PREDICTED BY IDOCK:   -5.98 KCAL/MOL
REMARK 923 INTER-LIGAND FREE ENERGY PREDICTED BY IDOCK:   -5.49 KCAL/MOL
REMARK 924 INTRA-LIGAND FREE ENERGY PREDICTED BY IDOCK:   -0.49 KCAL/MOL
REMARK 927      BINDING AFFINITY PREDICTED BY RF-SCORE:    0.00 PKD
ROOT
HETATM    1  C   UNL     1     -12.313  12.313  63.362  1.00  0.00    -0.624 C  
HETATM    2  C   UNL     1     -11.589  11.913  64.613  1.00  0.00    -0.320 A  
HETATM    3  C   UNL     1     -11.902  12.475  65.855  1.00  0.00    -0.489 A  
HETATM    4  C   UNL     1     -11.182  12.115  67.003  1.00  0.00    -0.370 A  
HETATM    5  C   UNL     1     -10.136  11.186  66.933  1.00  0.00    -0.250 A  
HETATM    6  C   UNL     1      -9.824  10.642  65.681  1.00  0.00    -0.307 A  
HETATM    7  C   UNL     1     -10.552  10.982  64.539  1.00  0.00    -0.383 A  
ENDROOT
BRANCH   5   8
HETATM    8  C   UNL     1      -9.342  10.892  68.138  1.00  0.00    -0.165 C  
HETATM    9  C   UNL     1      -9.547   9.865  68.974  1.00  0.00    -0.188 C  
HETATM   10  C   UNL     1     -10.605   8.780  69.034  1.00  0.00    -0.191 C  
HETATM   11  C   UNL     1      -9.887   7.477  68.606  1.00  0.00    -0.169 C  
HETATM   12  C   UNL     1      -8.992   7.144  69.825  1.00  0.00    -0.142 C  
HETATM   13  C   UNL     1      -9.309   8.289  70.818  1.00  0.00    -0.183 C  
HETATM   14  C   UNL     1      -8.883   8.015  72.241  1.00  0.00    -0.224 C  
HETATM   15  C   UNL     1     -10.815   8.586  70.562  1.00  0.00    -0.252 C  
HETATM   16  C   UNL     1      -8.689   9.532  70.168  1.00  0.00    -0.230 C  
HETATM   17  O   UNL     1      -7.682  10.125  70.507  1.00  0.00    -0.232 OA 
HETATM   18  C   UNL     1     -11.355   9.836  71.294  1.00  0.00    -0.445 C  
HETATM   19  C   UNL     1     -11.781   7.434  70.891  1.00  0.00    -0.325 C  
ENDBRANCH   5   8
TORSDOF 1
ENDMDL
MODEL       33
REMARK 921   NORMALIZED FREE ENERGY PREDICTED BY IDOCK:   -5.18 KCAL/MOL
REMARK 922        TOTAL FREE ENERGY PREDICTED BY IDOCK:   -5.98 KCAL/MOL
REMARK 923 INTER-LIGAND FREE ENERGY PREDICTED BY IDOCK:   -5.56 KCAL/MOL
REMARK 924 INTRA-LIGAND FREE ENERGY PREDICTED BY IDOCK:   -0.42 KCAL/MOL
REMARK 927      BINDING AFFINITY PREDICTED BY RF-SCORE:    0.00 PKD
ROOT
HETATM    1  C   UNL     1     -13.184  15.878  73.269  1.00  0.00    -0.698 C  
HETATM    2  C   UNL     1     -12.578  15.403  71.981  1.00  0.00    -0.448 A  
HETATM    3  C   UNL     1     -11.516  16.080  71.375  1.00  0.00    -0.464 A  
HETATM    4  C   UNL     1     -10.996  15.640  70.148  1.00  0.00    -0.350 A  
HETATM    5  C   UNL     1     -11.528  14.514  69.506  1.00  0.00    -0.330 A  
HETATM    6  C   UNL     1     -12.600  13.854  70.118  1.00  0.00    -0.285 A  
HETATM    7  C   UNL     1     -13.107  14.277  71.348  1.00  0.00    -0.421 A  
ENDROOT
BRANCH   5   8
HETATM    8  C   UNL     1     -11.018  14.127  68.180  1.00  0.00    -0.264 C  
HETATM    9  C   UNL     1     -10.509  12.929  67.861  1.00  0.00    -0.231 C  
HETATM   10  C   UNL     1     -10.223  11.681  68.673  1.00  0.00    -0.215 C  
HETATM   11  C   UNL     1     -11.290  10.648  68.235  1.00  0.00    -0.357 C  
HETATM   12  C   UNL     1     -10.831  10.238  66.815  1.00  0.00    -0.157 C  
HETATM   13  C   UNL     1      -9.546  11.076  66.604  1.00  0.00    -0.216 C  
HETATM   14  C   UNL     1      -8.668  10.595  65.473  1.00  0.00    -0.199 C  
HETATM   15  C   UNL     1      -8.917  11.140  68.027  1.00  0.00    -0.149 C  
HETATM   16  C   UNL     1     -10.052  12.518  66.483  1.00  0.00    -0.238 C  
HETATM   17  O   UNL     1     -10.120  13.201  65.479  1.00  0.00    -0.289 OA 
HETATM   18  C   UNL     1      -7.704  12.091  68.148  1.00  0.00    -0.135 C  
HETATM   19  C   UNL     1      -8.474   9.788  68.615  1.00  0.00    -0.116 C  
ENDBRANCH   5   8
TORSDOF 1
ENDMDL
MODEL       34
REMARK 921   NORMALIZED FREE ENERGY PREDICTED BY IDOCK:   -5.18 KCAL/MOL
REMARK 922        TOTAL FREE ENERGY PREDICTED BY IDOCK:   -5.97 KCAL/MOL
REMARK 923 INTER-LIGAND FREE ENERGY PREDICTED BY IDOCK:   -5.57 KCAL/MOL
REMARK 924 INTRA-LIGAND FREE ENERGY PREDICTED BY IDOCK:   -0.40 KCAL/MOL
REMARK 927      BINDING AFFINITY PREDICTED BY RF-SCORE:    0.00 PKD
ROOT
HETATM    1  C   UNL     1     -10.207  20.448  68.773  1.00  0.00    -0.092 C  
HETATM    2  C   UNL     1     -10.156  19.184  67.967  1.00  0.00    -0.482 A  
HETATM    3  C   UNL     1      -9.671  17.988  68.505  1.00  0.00    -0.357 A  
HETATM    4  C   UNL     1      -9.594  16.830  67.717  1.00  0.00    -0.241 A  
HETATM    5  C   UNL     1     -10.000  16.846  66.376  1.00  0.00    -0.321 A  
HETATM    6  C   UNL     1     -10.470  18.054  65.846  1.00  0.00    -0.268 A  
HETATM    7  C   UNL     1     -10.568  19.203  66.633  1.00  0.00    -0.520 A  
ENDROOT
BRANCH   5   8
HETATM    8  C   UNL     1      -9.828  15.638  65.551  1.00  0.00    -0.326 C  
HETATM    9  C   UNL     1     -10.431  14.460  65.759  1.00  0.00    -0.329 C  
HETATM   10  C   UNL     1     -11.356  13.954  66.848  1.00  0.00    -0.343 C  
HETATM   11  C   UNL     1     -12.752  13.844  66.188  1.00  0.00    -0.336 C  
HETATM   12  C   UNL     1     -12.615  12.611  65.262  1.00  0.00    -0.388 C  
HETATM   13  C   UNL     1     -11.158  12.147  65.506  1.00  0.00    -0.361 C  
HETATM   14  C   UNL     1     -10.866  10.741  65.039  1.00  0.00    -0.055 C  
HETATM   15  C   UNL     1     -10.921  12.471  67.010  1.00  0.00    -0.306 C  
HETATM   16  C   UNL     1     -10.302  13.249  64.870  1.00  0.00    -0.351 C  
HETATM   17  O   UNL     1      -9.668  13.192  63.833  1.00  0.00    -0.018 OA 
HETATM   18  C   UNL     1      -9.461  12.283  67.483  1.00  0.00    -0.182 C  
HETATM   19  C   UNL     1     -11.806  11.693  68.001  1.00  0.00    -0.295 C  
ENDBRANCH   5   8
TORSDOF 1
ENDMDL
MODEL       35
REMARK 921   NORMALIZED FREE ENERGY PREDICTED BY IDOCK:   -5.15 KCAL/MOL
REMARK 922        TOTAL FREE ENERGY PREDICTED BY IDOCK:   -5.95 KCAL/MOL
REMARK 923 INTER-LIGAND FREE ENERGY PREDICTED BY IDOCK:   -5.53 KCAL/MOL
REMARK 924 INTRA-LIGAND FREE ENERGY PREDICTED BY IDOCK:   -0.41 KCAL/MOL
REMARK 927      BINDING AFFINITY PREDICTED BY RF-SCORE:    0.00 PKD
ROOT
HETATM    1  C   UNL     1      -9.352   8.496  71.679  1.00  0.00    -0.311 C  
HETATM    2  C   UNL     1     -10.104   9.261  70.630  1.00  0.00    -0.339 A  
HETATM    3  C   UNL     1      -9.750   9.198  69.279  1.00  0.00    -0.164 A  
HETATM    4  C   UNL     1     -10.442   9.957  68.324  1.00  0.00    -0.246 A  
HETATM    5  C   UNL     1     -11.501  10.792  68.701  1.00  0.00    -0.365 A  
HETATM    6  C   UNL     1     -11.836  10.856  70.060  1.00  0.00    -0.428 A  
HETATM    7  C   UNL     1     -11.163  10.087  71.010  1.00  0.00    -0.387 A  
ENDROOT
BRANCH   5   8
HETATM    8  C   UNL     1     -12.153  11.641  67.689  1.00  0.00     0.133 C  
HETATM    9  C   UNL     1     -11.542  12.571  66.942  1.00  0.00    -0.436 C  
HETATM   10  C   UNL     1     -10.121  13.098  66.912  1.00  0.00    -0.245 C  
HETATM   11  C   UNL     1      -9.498  12.540  65.610  1.00  0.00    -0.014 C  
HETATM   12  C   UNL     1     -10.188  13.366  64.499  1.00  0.00    -0.321 C  
HETATM   13  C   UNL     1     -11.121  14.314  65.292  1.00  0.00    -0.335 C  
HETATM   14  C   UNL     1     -11.624  15.498  64.500  1.00  0.00    -0.283 C  
HETATM   15  C   UNL     1     -10.319  14.607  66.594  1.00  0.00    -0.273 C  
HETATM   16  C   UNL     1     -12.202  13.388  65.860  1.00  0.00    -0.450 C  
HETATM   17  O   UNL     1     -13.360  13.287  65.499  1.00  0.00    -0.403 OA 
HETATM   18  C   UNL     1     -11.108  15.387  67.670  1.00  0.00    -0.316 C  
HETATM   19  C   UNL     1      -8.988  15.356  66.396  1.00  0.00    -0.351 C  
ENDBRANCH   5   8
TORSDOF 1
ENDMDL
MODEL       36
REMARK 921   NORMALIZED FREE ENERGY PREDICTED BY IDOCK:   -5.14 KCAL/MOL
REMARK 922        TOTAL FREE ENERGY PREDICTED BY IDOCK:   -5.93 KCAL/MOL
REMARK 923 INTER-LIGAND FREE ENERGY PREDICTED BY IDOCK:   -5.50 KCAL/MOL
REMARK 924 INTRA-LIGAND FREE ENERGY PREDICTED BY IDOCK:   -0.44 KCAL/MOL
REMARK 927      BINDING AFFINITY PREDICTED BY RF-SCORE:    0.00 PKD
ROOT
HETATM    1  C   UNL     1     -10.486   7.913  68.930  1.00  0.00    -0.205 C  
HETATM    2  C   UNL     1     -10.621   9.243  68.248  1.00  0.00    -0.237 A  
HETATM    3  C   UNL     1     -11.238  10.330  68.875  1.00  0.00    -0.259 A  
HETATM    4  C   UNL     1     -11.391  11.550  68.200  1.00  0.00    -0.367 A  
HETATM    5  C   UNL     1     -10.929  11.706  66.887  1.00  0.00    -0.342 A  
HETATM    6  C   UNL     1     -10.326  10.605  66.267  1.00  0.00    -0.296 A  
HETATM    7  C   UNL     1     -10.154   9.396  66.942  1.00  0.00    -0.314 A  
ENDROOT
BRANCH   5   8
HETATM    8  C   UNL     1     -11.180  12.971  66.175  1.00  0.00    -0.320 C  
HETATM    9  C   UNL     1     -10.628  14.155  66.473  1.00  0.00    -0.282 C  
HETATM   10  C   UNL     1      -9.701  14.610  67.583  1.00  0.00    -0.214 C  
HETATM   11  C   UNL     1      -8.329  14.846  66.906  1.00  0.00    -0.212 C  
HETATM   12  C   UNL     1      -8.547  16.146  66.096  1.00  0.00    -0.331 C  
HETATM   13  C   UNL     1     -10.019  16.515  66.410  1.00  0.00    -0.318 C  
HETATM   14  C   UNL     1     -10.389  17.940  66.075  1.00  0.00    -0.318 C  
HETATM   15  C   UNL     1     -10.202  16.050  67.885  1.00  0.00    -0.258 C  
HETATM   16  C   UNL     1     -10.837  15.432  65.697  1.00  0.00    -0.355 C  
HETATM   17  O   UNL     1     -11.499  15.546  64.683  1.00  0.00    -0.410 OA 
HETATM   18  C   UNL     1     -11.657  16.123  68.403  1.00  0.00    -0.228 C  
HETATM   19  C   UNL     1      -9.330  16.782  68.921  1.00  0.00    -0.233 C  
ENDBRANCH   5   8
TORSDOF 1
ENDMDL
MODEL       37
REMARK 921   NORMALIZED FREE ENERGY PREDICTED BY IDOCK:   -5.13 KCAL/MOL
REMARK 922        TOTAL FREE ENERGY PREDICTED BY IDOCK:   -5.92 KCAL/MOL
REMARK 923 INTER-LIGAND FREE ENERGY PREDICTED BY IDOCK:   -5.63 KCAL/MOL
REMARK 924 INTRA-LIGAND FREE ENERGY PREDICTED BY IDOCK:   -0.29 KCAL/MOL
REMARK 927      BINDING AFFINITY PREDICTED BY RF-SCORE:    0.00 PKD
ROOT
HETATM    1  C   UNL     1     -13.306  13.904  72.405  1.00  0.00    -0.629 C  
HETATM    2  C   UNL     1     -12.761  13.409  71.098  1.00  0.00    -0.411 A  
HETATM    3  C   UNL     1     -12.462  14.283  70.048  1.00  0.00    -0.355 A  
HETATM    4  C   UNL     1     -11.995  13.792  68.821  1.00  0.00    -0.400 A  
HETATM    5  C   UNL     1     -11.815  12.417  68.620  1.00  0.00    -0.348 A  
HETATM    6  C   UNL     1     -12.131  11.552  69.675  1.00  0.00    -0.363 A  
HETATM    7  C   UNL     1     -12.578  12.039  70.905  1.00  0.00    -0.347 A  
ENDROOT
BRANCH   5   8
HETATM    8  C   UNL     1     -11.404  11.924  67.294  1.00  0.00    -0.393 C  
HETATM    9  C   UNL     1     -10.537  10.927  67.069  1.00  0.00    -0.307 C  
HETATM   10  C   UNL     1      -9.685  10.075  67.988  1.00  0.00    -0.158 C  
HETATM   11  C   UNL     1     -10.338   8.671  67.977  1.00  0.00    -0.277 C  
HETATM   12  C   UNL     1      -9.980   8.119  66.577  1.00  0.00    -0.302 C  
HETATM   13  C   UNL     1      -9.150   9.266  65.947  1.00  0.00    -0.246 C  
HETATM   14  C   UNL     1      -8.338   8.857  64.741  1.00  0.00    -0.184 C  
HETATM   15  C   UNL     1      -8.384   9.869  67.161  1.00  0.00    -0.121 C  
HETATM   16  C   UNL     1     -10.173  10.383  65.710  1.00  0.00    -0.235 C  
HETATM   17  O   UNL     1     -10.643  10.749  64.649  1.00  0.00    -0.328 OA 
HETATM   18  C   UNL     1      -7.614  11.172  66.849  1.00  0.00    -0.145 C  
HETATM   19  C   UNL     1      -7.383   8.921  67.847  1.00  0.00    -0.084 C  
ENDBRANCH   5   8
TORSDOF 1
ENDMDL
MODEL       38
REMARK 921   NORMALIZED FREE ENERGY PREDICTED BY IDOCK:   -5.12 KCAL/MOL
REMARK 922        TOTAL FREE ENERGY PREDICTED BY IDOCK:   -5.91 KCAL/MOL
REMARK 923 INTER-LIGAND FREE ENERGY PREDICTED BY IDOCK:   -5.42 KCAL/MOL
REMARK 924 INTRA-LIGAND FREE ENERGY PREDICTED BY IDOCK:   -0.49 KCAL/MOL
REMARK 927      BINDING AFFINITY PREDICTED BY RF-SCORE:    0.00 PKD
ROOT
HETATM    1  C   UNL     1      -9.854   7.532  72.886  1.00  0.00    -0.272 C  
HETATM    2  C   UNL     1     -10.267   8.376  71.716  1.00  0.00    -0.323 A  
HETATM    3  C   UNL     1     -11.304   9.310  71.813  1.00  0.00    -0.437 A  
HETATM    4  C   UNL     1     -11.700  10.056  70.694  1.00  0.00    -0.421 A  
HETATM    5  C   UNL     1     -11.066   9.885  69.457  1.00  0.00    -0.255 A  
HETATM    6  C   UNL     1     -10.038   8.937  69.370  1.00  0.00    -0.202 A  
HETATM    7  C   UNL     1      -9.628   8.206  70.487  1.00  0.00    -0.177 A  
ENDROOT
BRANCH   5   8
HETATM    8  C   UNL     1     -11.559  10.620  68.280  1.00  0.00    -0.245 C  
HETATM    9  C   UNL     1     -11.155  11.840  67.899  1.00  0.00    -0.302 C  
HETATM   10  C   UNL     1     -10.202  12.848  68.510  1.00  0.00    -0.210 C  
HETATM   11  C   UNL     1      -8.947  12.834  67.603  1.00  0.00    -0.191 C  
HETATM   12  C   UNL     1      -9.423  13.555  66.320  1.00  0.00    -0.199 C  
HETATM   13  C   UNL     1     -10.895  13.912  66.641  1.00  0.00    -0.289 C  
HETATM   14  C   UNL     1     -11.494  14.961  65.734  1.00  0.00    -0.281 C  
HETATM   15  C   UNL     1     -10.872  14.208  68.169  1.00  0.00    -0.258 C  
HETATM   16  C   UNL     1     -11.615  12.558  66.654  1.00  0.00    -0.380 C  
HETATM   17  O   UNL     1     -12.379  12.113  65.818  1.00  0.00    -0.564 OA 
HETATM   18  C   UNL     1     -12.268  14.408  68.804  1.00  0.00    -0.200 C  
HETATM   19  C   UNL     1     -10.020  15.418  68.594  1.00  0.00    -0.210 C  
ENDBRANCH   5   8
TORSDOF 1
ENDMDL
MODEL       39
REMARK 921   NORMALIZED FREE ENERGY PREDICTED BY IDOCK:   -5.10 KCAL/MOL
REMARK 922        TOTAL FREE ENERGY PREDICTED BY IDOCK:   -5.89 KCAL/MOL
REMARK 923 INTER-LIGAND FREE ENERGY PREDICTED BY IDOCK:   -5.52 KCAL/MOL
REMARK 924 INTRA-LIGAND FREE ENERGY PREDICTED BY IDOCK:   -0.37 KCAL/MOL
REMARK 927      BINDING AFFINITY PREDICTED BY RF-SCORE:    0.00 PKD
ROOT
HETATM    1  C   UNL     1      -7.069  20.809  67.105  1.00  0.00    -0.404 C  
HETATM    2  C   UNL     1      -8.034  19.701  66.803  1.00  0.00    -0.315 A  
HETATM    3  C   UNL     1      -9.417  19.881  66.911  1.00  0.00    -0.506 A  
HETATM    4  C   UNL     1     -10.296  18.817  66.665  1.00  0.00    -0.472 A  
HETATM    5  C   UNL     1      -9.811  17.553  66.306  1.00  0.00    -0.295 A  
HETATM    6  C   UNL     1      -8.424  17.383  66.216  1.00  0.00    -0.260 A  
HETATM    7  C   UNL     1      -7.546  18.445  66.440  1.00  0.00    -0.282 A  
ENDROOT
BRANCH   5   8
HETATM    8  C   UNL     1     -10.753  16.434  66.137  1.00  0.00    -0.174 C  
HETATM    9  C   UNL     1     -10.728  15.284  66.825  1.00  0.00    -0.313 C  
HETATM   10  C   UNL     1      -9.778  14.727  67.868  1.00  0.00    -0.211 C  
HETATM   11  C   UNL     1     -10.552  14.786  69.208  1.00  0.00    -0.248 C  
HETATM   12  C   UNL     1     -11.599  13.655  69.067  1.00  0.00    -0.356 C  
HETATM   13  C   UNL     1     -11.298  13.068  67.666  1.00  0.00    -0.342 C  
HETATM   14  C   UNL     1     -11.899  11.704  67.420  1.00  0.00    -0.170 C  
HETATM   15  C   UNL     1      -9.753  13.209  67.537  1.00  0.00    -0.213 C  
HETATM   16  C   UNL     1     -11.737  14.170  66.695  1.00  0.00    -0.403 C  
HETATM   17  O   UNL     1     -12.722  14.184  65.980  1.00  0.00    -0.469 OA 
HETATM   18  C   UNL     1      -9.194  12.871  66.136  1.00  0.00    -0.027 C  
HETATM   19  C   UNL     1      -8.929  12.390  68.547  1.00  0.00    -0.058 C  
ENDBRANCH   5   8
TORSDOF 1
ENDMDL
MODEL       40
REMARK 921   NORMALIZED FREE ENERGY PREDICTED BY IDOCK:   -5.09 KCAL/MOL
REMARK 922        TOTAL FREE ENERGY PREDICTED BY IDOCK:   -5.88 KCAL/MOL
REMARK 923 INTER-LIGAND FREE ENERGY PREDICTED BY IDOCK:   -5.39 KCAL/MOL
REMARK 924 INTRA-LIGAND FREE ENERGY PREDICTED BY IDOCK:   -0.49 KCAL/MOL
REMARK 927      BINDING AFFINITY PREDICTED BY RF-SCORE:    0.00 PKD
ROOT
HETATM    1  C   UNL     1      -9.413  10.012  62.696  1.00  0.00    -0.232 C  
HETATM    2  C   UNL     1      -9.730  11.031  63.750  1.00  0.00    -0.351 A  
HETATM    3  C   UNL     1      -9.172  10.962  65.031  1.00  0.00    -0.233 A  
HETATM    4  C   UNL     1      -9.518  11.902  66.012  1.00  0.00    -0.241 A  
HETATM    5  C   UNL     1     -10.428  12.930  65.731  1.00  0.00    -0.293 A  
HETATM    6  C   UNL     1     -10.990  12.978  64.450  1.00  0.00    -0.400 A  
HETATM    7  C   UNL     1     -10.632  12.056  63.464  1.00  0.00    -0.514 A  
ENDROOT
BRANCH   5   8
HETATM    8  C   UNL     1     -10.836  13.851  66.806  1.00  0.00    -0.286 C  
HETATM    9  C   UNL     1     -10.375  15.097  66.981  1.00  0.00    -0.271 C  
HETATM   10  C   UNL     1      -9.316  15.913  66.266  1.00  0.00    -0.357 C  
HETATM   11  C   UNL     1     -10.091  16.984  65.460  1.00  0.00    -0.035 C  
HETATM   12  C   UNL     1     -10.592  17.961  66.551  1.00  0.00    -0.238 C  
HETATM   13  C   UNL     1     -10.036  17.345  67.858  1.00  0.00    -0.326 C  
HETATM   14  C   UNL     1     -10.031  18.289  69.038  1.00  0.00    -0.293 C  
HETATM   15  C   UNL     1      -8.673  16.732  67.421  1.00  0.00    -0.202 C  
HETATM   16  C   UNL     1     -10.848  16.058  68.042  1.00  0.00    -0.335 C  
HETATM   17  O   UNL     1     -11.732  15.845  68.851  1.00  0.00    -0.390 OA 
HETATM   18  C   UNL     1      -7.981  15.873  68.503  1.00  0.00    -0.152 C  
HETATM   19  C   UNL     1      -7.623  17.743  66.925  1.00  0.00    -0.238 C  
ENDBRANCH   5   8
TORSDOF 1
ENDMDL
MODEL       41
REMARK 921   NORMALIZED FREE ENERGY PREDICTED BY IDOCK:   -5.08 KCAL/MOL
REMARK 922        TOTAL FREE ENERGY PREDICTED BY IDOCK:   -5.87 KCAL/MOL
REMARK 923 INTER-LIGAND FREE ENERGY PREDICTED BY IDOCK:   -5.34 KCAL/MOL
REMARK 924 INTRA-LIGAND FREE ENERGY PREDICTED BY IDOCK:   -0.52 KCAL/MOL
REMARK 927      BINDING AFFINITY PREDICTED BY RF-SCORE:    0.00 PKD
ROOT
HETATM    1  C   UNL     1      -7.610  20.745  67.257  1.00  0.00    -0.356 C  
HETATM    2  C   UNL     1      -7.659  19.247  67.327  1.00  0.00    -0.256 A  
HETATM    3  C   UNL     1      -7.238  18.447  66.260  1.00  0.00    -0.291 A  
HETATM    4  C   UNL     1      -7.334  17.050  66.335  1.00  0.00    -0.328 A  
HETATM    5  C   UNL     1      -7.851  16.426  67.477  1.00  0.00    -0.167 A  
HETATM    6  C   UNL     1      -8.282  17.240  68.532  1.00  0.00    -0.267 A  
HETATM    7  C   UNL     1      -8.169  18.630  68.470  1.00  0.00    -0.370 A  
ENDROOT
BRANCH   5   8
HETATM    8  C   UNL     1      -8.019  14.962  67.493  1.00  0.00    -0.198 C  
HETATM    9  C   UNL     1      -9.059  14.292  66.979  1.00  0.00    -0.246 C  
HETATM   10  C   UNL     1     -10.354  14.740  66.329  1.00  0.00    -0.305 C  
HETATM   11  C   UNL     1     -10.200  14.407  64.825  1.00  0.00    -0.259 C  
HETATM   12  C   UNL     1     -10.317  12.865  64.785  1.00  0.00    -0.345 C  
HETATM   13  C   UNL     1     -10.538  12.489  66.271  1.00  0.00    -0.273 C  
HETATM   14  C   UNL     1     -11.076  11.094  66.487  1.00  0.00    -0.233 C  
HETATM   15  C   UNL     1     -11.375  13.678  66.826  1.00  0.00    -0.346 C  
HETATM   16  C   UNL     1      -9.191  12.790  66.938  1.00  0.00    -0.229 C  
HETATM   17  O   UNL     1      -8.359  11.993  67.329  1.00  0.00    -0.160 OA 
HETATM   18  C   UNL     1     -11.579  13.658  68.358  1.00  0.00    -0.377 C  
HETATM   19  C   UNL     1     -12.771  13.852  66.200  1.00  0.00    -0.336 C  
ENDBRANCH   5   8
TORSDOF 1
ENDMDL
MODEL       42
REMARK 921   NORMALIZED FREE ENERGY PREDICTED BY IDOCK:   -5.06 KCAL/MOL
REMARK 922        TOTAL FREE ENERGY PREDICTED BY IDOCK:   -5.85 KCAL/MOL
REMARK 923 INTER-LIGAND FREE ENERGY PREDICTED BY IDOCK:   -5.36 KCAL/MOL
REMARK 924 INTRA-LIGAND FREE ENERGY PREDICTED BY IDOCK:   -0.49 KCAL/MOL
REMARK 927      BINDING AFFINITY PREDICTED BY RF-SCORE:    0.00 PKD
ROOT
HETATM    1  C   UNL     1     -13.556  14.214  71.785  1.00  0.00    -0.483 C  
HETATM    2  C   UNL     1     -13.066  12.832  71.466  1.00  0.00    -0.380 A  
HETATM    3  C   UNL     1     -12.204  12.588  70.392  1.00  0.00    -0.368 A  
HETATM    4  C   UNL     1     -11.795  11.282  70.088  1.00  0.00    -0.449 A  
HETATM    5  C   UNL     1     -12.238  10.195  70.853  1.00  0.00    -0.455 A  
HETATM    6  C   UNL     1     -13.111  10.452  71.916  1.00  0.00    -0.563 A  
HETATM    7  C   UNL     1     -13.505  11.753  72.234  1.00  0.00    -0.143 A  
ENDROOT
BRANCH   5   8
HETATM    8  C   UNL     1     -11.859   8.827  70.458  1.00  0.00    -0.049 C  
HETATM    9  C   UNL     1     -10.925   8.075  71.056  1.00  0.00    -0.263 C  
HETATM   10  C   UNL     1      -9.955   8.344  72.189  1.00  0.00    -0.376 C  
HETATM   11  C   UNL     1     -10.488   7.529  73.394  1.00  0.00    -0.404 C  
HETATM   12  C   UNL     1     -10.161   6.066  73.010  1.00  0.00    -0.195 C  
HETATM   13  C   UNL     1      -9.466   6.209  71.633  1.00  0.00    -0.160 C  
HETATM   14  C   UNL     1      -8.689   4.989  71.198  1.00  0.00    -0.141 C  
HETATM   15  C   UNL     1      -8.689   7.552  71.756  1.00  0.00    -0.128 C  
HETATM   16  C   UNL     1     -10.591   6.650  70.689  1.00  0.00    -0.227 C  
HETATM   17  O   UNL     1     -11.147   5.988  69.833  1.00  0.00    -0.362 OA 
HETATM   18  C   UNL     1      -8.050   8.045  70.438  1.00  0.00    -0.112 C  
HETATM   19  C   UNL     1      -7.576   7.576  72.820  1.00  0.00    -0.102 C  
ENDBRANCH   5   8
TORSDOF 1
ENDMDL
MODEL       43
REMARK 921   NORMALIZED FREE ENERGY PREDICTED BY IDOCK:   -5.05 KCAL/MOL
REMARK 922        TOTAL FREE ENERGY PREDICTED BY IDOCK:   -5.83 KCAL/MOL
REMARK 923 INTER-LIGAND FREE ENERGY PREDICTED BY IDOCK:   -5.77 KCAL/MOL
REMARK 924 INTRA-LIGAND FREE ENERGY PREDICTED BY IDOCK:   -0.06 KCAL/MOL
REMARK 927      BINDING AFFINITY PREDICTED BY RF-SCORE:    0.00 PKD
ROOT
HETATM    1  C   UNL     1     -10.178   7.585  73.465  1.00  0.00    -0.380 C  
HETATM    2  C   UNL     1     -10.531   8.396  72.253  1.00  0.00    -0.407 A  
HETATM    3  C   UNL     1      -9.568   8.760  71.307  1.00  0.00    -0.323 A  
HETATM    4  C   UNL     1      -9.915   9.556  70.205  1.00  0.00    -0.310 A  
HETATM    5  C   UNL     1     -11.232  10.000  70.028  1.00  0.00    -0.345 A  
HETATM    6  C   UNL     1     -12.183   9.640  70.991  1.00  0.00    -0.409 A  
HETATM    7  C   UNL     1     -11.845   8.832  72.078  1.00  0.00    -0.442 A  
ENDROOT
BRANCH   5   8
HETATM    8  C   UNL     1     -11.549  10.904  68.908  1.00  0.00    -0.378 C  
HETATM    9  C   UNL     1     -10.851  11.006  67.769  1.00  0.00    -0.297 C  
HETATM   10  C   UNL     1      -9.568  10.361  67.285  1.00  0.00    -0.182 C  
HETATM   11  C   UNL     1      -9.998   9.346  66.197  1.00  0.00    -0.351 C  
HETATM   12  C   UNL     1     -10.394  10.247  65.003  1.00  0.00    -0.174 C  
HETATM   13  C   UNL     1     -10.134  11.677  65.538  1.00  0.00    -0.285 C  
HETATM   14  C   UNL     1     -10.057  12.738  64.466  1.00  0.00    -0.267 C  
HETATM   15  C   UNL     1      -8.896  11.498  66.465  1.00  0.00    -0.190 C  
HETATM   16  C   UNL     1     -11.221  11.884  66.599  1.00  0.00    -0.328 C  
HETATM   17  O   UNL     1     -12.214  12.582  66.521  1.00  0.00    -0.569 OA 
HETATM   18  C   UNL     1      -8.531  12.751  67.294  1.00  0.00    -0.194 C  
HETATM   19  C   UNL     1      -7.604  11.045  65.761  1.00  0.00     0.058 C  
ENDBRANCH   5   8
TORSDOF 1
ENDMDL
MODEL       44
REMARK 921   NORMALIZED FREE ENERGY PREDICTED BY IDOCK:   -5.04 KCAL/MOL
REMARK 922        TOTAL FREE ENERGY PREDICTED BY IDOCK:   -5.82 KCAL/MOL
REMARK 923 INTER-LIGAND FREE ENERGY PREDICTED BY IDOCK:   -5.53 KCAL/MOL
REMARK 924 INTRA-LIGAND FREE ENERGY PREDICTED BY IDOCK:   -0.30 KCAL/MOL
REMARK 927      BINDING AFFINITY PREDICTED BY RF-SCORE:    0.00 PKD
ROOT
HETATM    1  C   UNL     1      -9.780   7.669  66.686  1.00  0.00    -0.283 C  
HETATM    2  C   UNL     1     -10.100   9.075  67.102  1.00  0.00    -0.309 A  
HETATM    3  C   UNL     1     -10.384   9.401  68.432  1.00  0.00    -0.238 A  
HETATM    4  C   UNL     1     -10.722  10.714  68.788  1.00  0.00    -0.249 A  
HETATM    5  C   UNL     1     -10.781  11.727  67.822  1.00  0.00    -0.244 A  
HETATM    6  C   UNL     1     -10.508  11.384  66.492  1.00  0.00    -0.292 A  
HETATM    7  C   UNL     1     -10.151  10.082  66.137  1.00  0.00    -0.317 A  
ENDROOT
BRANCH   5   8
HETATM    8  C   UNL     1     -11.221  13.078  68.212  1.00  0.00    -0.309 C  
HETATM    9  C   UNL     1     -10.687  14.227  67.776  1.00  0.00    -0.253 C  
HETATM   10  C   UNL     1      -9.505  14.539  66.879  1.00  0.00    -0.263 C  
HETATM   11  C   UNL     1     -10.117  15.047  65.550  1.00  0.00    -0.400 C  
HETATM   12  C   UNL     1     -10.646  16.455  65.914  1.00  0.00    -0.294 C  
HETATM   13  C   UNL     1     -10.267  16.599  67.408  1.00  0.00    -0.286 C  
HETATM   14  C   UNL     1     -10.305  18.018  67.926  1.00  0.00    -0.402 C  
HETATM   15  C   UNL     1      -8.918  15.829  67.517  1.00  0.00    -0.201 C  
HETATM   16  C   UNL     1     -11.187  15.606  68.127  1.00  0.00    -0.345 C  
HETATM   17  O   UNL     1     -12.158  15.855  68.816  1.00  0.00    -0.297 OA 
HETATM   18  C   UNL     1      -8.399  15.646  68.962  1.00  0.00    -0.235 C  
HETATM   19  C   UNL     1      -7.752  16.421  66.704  1.00  0.00    -0.310 C  
ENDBRANCH   5   8
TORSDOF 1
ENDMDL
MODEL       45
REMARK 921   NORMALIZED FREE ENERGY PREDICTED BY IDOCK:   -5.00 KCAL/MOL
REMARK 922        TOTAL FREE ENERGY PREDICTED BY IDOCK:   -5.78 KCAL/MOL
REMARK 923 INTER-LIGAND FREE ENERGY PREDICTED BY IDOCK:   -5.30 KCAL/MOL
REMARK 924 INTRA-LIGAND FREE ENERGY PREDICTED BY IDOCK:   -0.49 KCAL/MOL
REMARK 927      BINDING AFFINITY PREDICTED BY RF-SCORE:    0.00 PKD
ROOT
HETATM    1  C   UNL     1      -6.598  19.975  69.597  1.00  0.00    -0.340 C  
HETATM    2  C   UNL     1      -7.258  18.929  68.748  1.00  0.00    -0.351 A  
HETATM    3  C   UNL     1      -6.516  17.954  68.074  1.00  0.00    -0.186 A  
HETATM    4  C   UNL     1      -7.153  17.014  67.251  1.00  0.00    -0.193 A  
HETATM    5  C   UNL     1      -8.544  17.028  67.089  1.00  0.00    -0.220 A  
HETATM    6  C   UNL     1      -9.274  18.018  67.759  1.00  0.00    -0.262 A  
HETATM    7  C   UNL     1      -8.645  18.944  68.594  1.00  0.00    -0.376 A  
ENDROOT
BRANCH   5   8
HETATM    8  C   UNL     1      -9.176  16.082  66.154  1.00  0.00    -0.388 C  
HETATM    9  C   UNL     1      -9.822  14.960  66.499  1.00  0.00    -0.281 C  
HETATM   10  C   UNL     1     -10.053  14.272  67.830  1.00  0.00    -0.231 C  
HETATM   11  C   UNL     1     -11.551  14.489  68.154  1.00  0.00    -0.359 C  
HETATM   12  C   UNL     1     -12.274  13.550  67.159  1.00  0.00    -0.328 C  
HETATM   13  C   UNL     1     -11.106  12.891  66.384  1.00  0.00    -0.316 C  
HETATM   14  C   UNL     1     -11.490  11.645  65.622  1.00  0.00    -0.171 C  
HETATM   15  C   UNL     1      -9.985  12.764  67.456  1.00  0.00    -0.210 C  
HETATM   16  C   UNL     1     -10.525  14.032  65.540  1.00  0.00    -0.327 C  
HETATM   17  O   UNL     1     -10.631  14.198  64.339  1.00  0.00    -0.348 OA 
HETATM   18  C   UNL     1      -8.617  12.307  66.901  1.00  0.00    -0.182 C  
HETATM   19  C   UNL     1     -10.308  11.839  68.643  1.00  0.00    -0.228 C  
ENDBRANCH   5   8
TORSDOF 1
ENDMDL
MODEL       46
REMARK 921   NORMALIZED FREE ENERGY PREDICTED BY IDOCK:   -4.96 KCAL/MOL
REMARK 922        TOTAL FREE ENERGY PREDICTED BY IDOCK:   -5.74 KCAL/MOL
REMARK 923 INTER-LIGAND FREE ENERGY PREDICTED BY IDOCK:   -5.42 KCAL/MOL
REMARK 924 INTRA-LIGAND FREE ENERGY PREDICTED BY IDOCK:   -0.32 KCAL/MOL
REMARK 927      BINDING AFFINITY PREDICTED BY RF-SCORE:    0.00 PKD
ROOT
HETATM    1  C   UNL     1     -12.025  14.333  65.796  1.00  0.00    -0.399 C  
HETATM    2  C   UNL     1     -11.846  13.332  66.899  1.00  0.00    -0.446 A  
HETATM    3  C   UNL     1     -11.655  11.972  66.634  1.00  0.00    -0.389 A  
HETATM    4  C   UNL     1     -11.534  11.050  67.683  1.00  0.00    -0.303 A  
HETATM    5  C   UNL     1     -11.601  11.470  69.018  1.00  0.00    -0.383 A  
HETATM    6  C   UNL     1     -11.807  12.832  69.269  1.00  0.00    -0.358 A  
HETATM    7  C   UNL     1     -11.908  13.755  68.228  1.00  0.00    -0.413 A  
ENDROOT
BRANCH   5   8
HETATM    8  C   UNL     1     -11.556  10.468  70.097  1.00  0.00    -0.408 C  
HETATM    9  C   UNL     1     -10.612   9.529  70.249  1.00  0.00    -0.317 C  
HETATM   10  C   UNL     1      -9.409   9.133  69.416  1.00  0.00    -0.160 C  
HETATM   11  C   UNL     1      -8.174   9.613  70.217  1.00  0.00    -0.217 C  
HETATM   12  C   UNL     1      -8.106   8.621  71.402  1.00  0.00    -0.192 C  
HETATM   13  C   UNL     1      -9.304   7.675  71.140  1.00  0.00    -0.161 C  
HETATM   14  C   UNL     1      -9.253   6.377  71.911  1.00  0.00    -0.149 C  
HETATM   15  C   UNL     1      -9.364   7.588  69.586  1.00  0.00    -0.153 C  
HETATM   16  C   UNL     1     -10.536   8.550  71.395  1.00  0.00    -0.245 C  
HETATM   17  O   UNL     1     -11.294   8.509  72.346  1.00  0.00    -0.366 OA 
HETATM   18  C   UNL     1     -10.605   6.850  69.034  1.00  0.00    -0.240 C  
HETATM   19  C   UNL     1      -8.137   6.947  68.912  1.00  0.00    -0.120 C  
ENDBRANCH   5   8
TORSDOF 1
ENDMDL
MODEL       47
REMARK 921   NORMALIZED FREE ENERGY PREDICTED BY IDOCK:   -4.94 KCAL/MOL
REMARK 922        TOTAL FREE ENERGY PREDICTED BY IDOCK:   -5.72 KCAL/MOL
REMARK 923 INTER-LIGAND FREE ENERGY PREDICTED BY IDOCK:   -5.47 KCAL/MOL
REMARK 924 INTRA-LIGAND FREE ENERGY PREDICTED BY IDOCK:   -0.25 KCAL/MOL
REMARK 927      BINDING AFFINITY PREDICTED BY RF-SCORE:    0.00 PKD
ROOT
HETATM    1  C   UNL     1      -7.141   7.760  62.367  1.00  0.00    -0.082 C  
HETATM    2  C   UNL     1      -7.923   8.448  63.447  1.00  0.00    -0.160 A  
HETATM    3  C   UNL     1      -7.947   7.966  64.759  1.00  0.00    -0.140 A  
HETATM    4  C   UNL     1      -8.720   8.602  65.740  1.00  0.00    -0.212 A  
HETATM    5  C   UNL     1      -9.484   9.734  65.428  1.00  0.00    -0.333 A  
HETATM    6  C   UNL     1      -9.463  10.198  64.107  1.00  0.00    -0.353 A  
HETATM    7  C   UNL     1      -8.678   9.579  63.133  1.00  0.00    -0.234 A  
ENDROOT
BRANCH   5   8
HETATM    8  C   UNL     1     -10.353  10.331  66.458  1.00  0.00    -0.276 C  
HETATM    9  C   UNL     1     -10.599  11.640  66.606  1.00  0.00    -0.281 C  
HETATM   10  C   UNL     1     -10.073  12.874  65.899  1.00  0.00    -0.295 C  
HETATM   11  C   UNL     1     -11.250  13.389  65.034  1.00  0.00    -0.332 C  
HETATM   12  C   UNL     1     -12.226  13.986  66.075  1.00  0.00    -0.484 C  
HETATM   13  C   UNL     1     -11.492  13.757  67.420  1.00  0.00    -0.372 C  
HETATM   14  C   UNL     1     -12.021  14.584  68.567  1.00  0.00    -0.321 C  
HETATM   15  C   UNL     1      -9.990  13.920  67.046  1.00  0.00    -0.258 C  
HETATM   16  C   UNL     1     -11.542  12.238  67.620  1.00  0.00    -0.354 C  
HETATM   17  O   UNL     1     -12.228  11.613  68.407  1.00  0.00    -0.498 OA 
HETATM   18  C   UNL     1      -9.005  13.548  68.177  1.00  0.00    -0.187 C  
HETATM   19  C   UNL     1      -9.581  15.319  66.550  1.00  0.00    -0.294 C  
ENDBRANCH   5   8
TORSDOF 1
ENDMDL
MODEL       48
REMARK 921   NORMALIZED FREE ENERGY PREDICTED BY IDOCK:   -4.90 KCAL/MOL
REMARK 922        TOTAL FREE ENERGY PREDICTED BY IDOCK:   -5.68 KCAL/MOL
REMARK 923 INTER-LIGAND FREE ENERGY PREDICTED BY IDOCK:   -5.47 KCAL/MOL
REMARK 924 INTRA-LIGAND FREE ENERGY PREDICTED BY IDOCK:   -0.21 KCAL/MOL
REMARK 927      BINDING AFFINITY PREDICTED BY RF-SCORE:    0.00 PKD
ROOT
HETATM    1  C   UNL     1     -13.903  13.047  72.387  1.00  0.00    -0.526 C  
HETATM    2  C   UNL     1     -13.036  14.069  71.712  1.00  0.00    -0.449 A  
HETATM    3  C   UNL     1     -12.697  13.968  70.359  1.00  0.00    -0.316 A  
HETATM    4  C   UNL     1     -11.850  14.913  69.763  1.00  0.00    -0.356 A  
HETATM    5  C   UNL     1     -11.327  15.978  70.507  1.00  0.00    -0.420 A  
HETATM    6  C   UNL     1     -11.664  16.060  71.864  1.00  0.00    -0.594 A  
HETATM    7  C   UNL     1     -12.523  15.133  72.456  1.00  0.00    -0.442 A  
ENDROOT
BRANCH   5   8
HETATM    8  C   UNL     1     -10.373  16.906  69.875  1.00  0.00     0.094 C  
HETATM    9  C   UNL     1      -9.403  16.561  69.018  1.00  0.00    -0.239 C  
HETATM   10  C   UNL     1      -8.921  15.224  68.491  1.00  0.00    -0.187 C  
HETATM   11  C   UNL     1      -9.385  15.168  67.015  1.00  0.00    -0.244 C  
HETATM   12  C   UNL     1      -8.444  16.170  66.304  1.00  0.00    -0.357 C  
HETATM   13  C   UNL     1      -7.538  16.678  67.453  1.00  0.00    -0.191 C  
HETATM   14  C   UNL     1      -6.274  17.366  66.992  1.00  0.00    -0.203 C  
HETATM   15  C   UNL     1      -7.385  15.432  68.374  1.00  0.00    -0.114 C  
HETATM   16  C   UNL     1      -8.474  17.525  68.323  1.00  0.00    -0.266 C  
HETATM   17  O   UNL     1      -8.507  18.738  68.419  1.00  0.00    -0.321 OA 
HETATM   18  C   UNL     1      -6.675  15.712  69.718  1.00  0.00    -0.147 C  
HETATM   19  C   UNL     1      -6.665  14.228  67.740  1.00  0.00    -0.190 C  
ENDBRANCH   5   8
TORSDOF 1
ENDMDL
MODEL       49
REMARK 921   NORMALIZED FREE ENERGY PREDICTED BY IDOCK:   -4.89 KCAL/MOL
REMARK 922        TOTAL FREE ENERGY PREDICTED BY IDOCK:   -5.67 KCAL/MOL
REMARK 923 INTER-LIGAND FREE ENERGY PREDICTED BY IDOCK:   -5.31 KCAL/MOL
REMARK 924 INTRA-LIGAND FREE ENERGY PREDICTED BY IDOCK:   -0.36 KCAL/MOL
REMARK 927      BINDING AFFINITY PREDICTED BY RF-SCORE:    0.00 PKD
ROOT
HETATM    1  C   UNL     1      -9.057  19.387  67.186  1.00  0.00    -0.359 C  
HETATM    2  C   UNL     1      -9.312  18.019  66.627  1.00  0.00    -0.297 A  
HETATM    3  C   UNL     1     -10.510  17.702  65.979  1.00  0.00    -0.278 A  
HETATM    4  C   UNL     1     -10.742  16.403  65.504  1.00  0.00    -0.300 A  
HETATM    5  C   UNL     1      -9.781  15.397  65.666  1.00  0.00    -0.366 A  
HETATM    6  C   UNL     1      -8.592  15.725  66.329  1.00  0.00    -0.307 A  
HETATM    7  C   UNL     1      -8.349  17.021  66.786  1.00  0.00    -0.267 A  
ENDROOT
BRANCH   5   8
HETATM    8  C   UNL     1     -10.087  14.023  65.233  1.00  0.00    -0.345 C  
HETATM    9  C   UNL     1     -10.058  12.935  66.015  1.00  0.00    -0.290 C  
HETATM   10  C   UNL     1      -9.665  12.717  67.463  1.00  0.00    -0.201 C  
HETATM   11  C   UNL     1     -10.992  12.456  68.217  1.00  0.00    -0.269 C  
HETATM   12  C   UNL     1     -11.392  11.034  67.759  1.00  0.00    -0.365 C  
HETATM   13  C   UNL     1     -10.242  10.635  66.801  1.00  0.00    -0.284 C  
HETATM   14  C   UNL     1     -10.159   9.155  66.509  1.00  0.00    -0.357 C  
HETATM   15  C   UNL     1      -8.992  11.316  67.431  1.00  0.00    -0.144 C  
HETATM   16  C   UNL     1     -10.439  11.542  65.580  1.00  0.00    -0.266 C  
HETATM   17  O   UNL     1     -10.856  11.229  64.481  1.00  0.00    -0.329 OA 
HETATM   18  C   UNL     1      -7.716  11.242  66.562  1.00  0.00    -0.125 C  
HETATM   19  C   UNL     1      -8.600  10.810  68.831  1.00  0.00    -0.155 C  
ENDBRANCH   5   8
TORSDOF 1
ENDMDL
MODEL       50
REMARK 921   NORMALIZED FREE ENERGY PREDICTED BY IDOCK:   -4.84 KCAL/MOL
REMARK 922        TOTAL FREE ENERGY PREDICTED BY IDOCK:   -5.62 KCAL/MOL
REMARK 923 INTER-LIGAND FREE ENERGY PREDICTED BY IDOCK:   -5.57 KCAL/MOL
REMARK 924 INTRA-LIGAND FREE ENERGY PREDICTED BY IDOCK:   -0.05 KCAL/MOL
REMARK 927      BINDING AFFINITY PREDICTED BY RF-SCORE:    0.00 PKD
ROOT
HETATM    1  C   UNL     1     -10.317   5.807  69.087  1.00  0.00    -0.316 C  
HETATM    2  C   UNL     1     -10.573   7.268  69.316  1.00  0.00    -0.230 A  
HETATM    3  C   UNL     1     -11.035   7.749  70.545  1.00  0.00    -0.251 A  
HETATM    4  C   UNL     1     -11.308   9.113  70.721  1.00  0.00    -0.337 A  
HETATM    5  C   UNL     1     -11.123  10.023  69.672  1.00  0.00    -0.300 A  
HETATM    6  C   UNL     1     -10.673   9.525  68.442  1.00  0.00    -0.230 A  
HETATM    7  C   UNL     1     -10.381   8.171  68.270  1.00  0.00    -0.241 A  
ENDROOT
BRANCH   5   8
HETATM    8  C   UNL     1     -11.498  11.434  69.860  1.00  0.00    -0.353 C  
HETATM    9  C   UNL     1     -11.306  12.417  68.968  1.00  0.00    -0.336 C  
HETATM   10  C   UNL     1     -10.633  12.459  67.611  1.00  0.00    -0.236 C  
HETATM   11  C   UNL     1     -11.782  12.600  66.582  1.00  0.00    -0.464 C  
HETATM   12  C   UNL     1     -12.254  14.062  66.770  1.00  0.00    -0.439 C  
HETATM   13  C   UNL     1     -11.313  14.597  67.879  1.00  0.00    -0.332 C  
HETATM   14  C   UNL     1     -11.278  16.102  67.993  1.00  0.00    -0.291 C  
HETATM   15  C   UNL     1      -9.968  13.864  67.598  1.00  0.00    -0.237 C  
HETATM   16  C   UNL     1     -11.755  13.846  69.140  1.00  0.00    -0.338 C  
HETATM   17  O   UNL     1     -12.379  14.286  70.088  1.00  0.00    -0.324 OA 
HETATM   18  C   UNL     1      -8.889  14.069  68.685  1.00  0.00    -0.104 C  
HETATM   19  C   UNL     1      -9.303  14.199  66.251  1.00  0.00    -0.215 C  
ENDBRANCH   5   8
TORSDOF 1
ENDMDL
MODEL       51
REMARK 921   NORMALIZED FREE ENERGY PREDICTED BY IDOCK:   -4.84 KCAL/MOL
REMARK 922        TOTAL FREE ENERGY PREDICTED BY IDOCK:   -5.62 KCAL/MOL
REMARK 923 INTER-LIGAND FREE ENERGY PREDICTED BY IDOCK:   -5.14 KCAL/MOL
REMARK 924 INTRA-LIGAND FREE ENERGY PREDICTED BY IDOCK:   -0.48 KCAL/MOL
REMARK 927      BINDING AFFINITY PREDICTED BY RF-SCORE:    0.00 PKD
ROOT
HETATM    1  C   UNL     1     -10.582  14.742  67.810  1.00  0.00    -0.257 C  
HETATM    2  C   UNL     1     -10.600  13.267  68.085  1.00  0.00    -0.259 A  
HETATM    3  C   UNL     1      -9.472  12.467  67.880  1.00  0.00    -0.198 A  
HETATM    4  C   UNL     1      -9.529  11.083  68.103  1.00  0.00    -0.172 A  
HETATM    5  C   UNL     1     -10.713  10.474  68.538  1.00  0.00    -0.259 A  
HETATM    6  C   UNL     1     -11.838  11.286  68.727  1.00  0.00    -0.396 A  
HETATM    7  C   UNL     1     -11.781  12.666  68.524  1.00  0.00    -0.372 A  
ENDROOT
BRANCH   5   8
HETATM    8  C   UNL     1     -10.765   9.009  68.683  1.00  0.00    -0.137 C  
HETATM    9  C   UNL     1     -10.801   8.342  69.845  1.00  0.00    -0.207 C  
HETATM   10  C   UNL     1     -10.730   8.789  71.292  1.00  0.00    -0.339 C  
HETATM   11  C   UNL     1     -12.159   8.597  71.856  1.00  0.00    -0.422 C  
HETATM   12  C   UNL     1     -12.291   7.061  71.983  1.00  0.00    -0.302 C  
HETATM   13  C   UNL     1     -10.917   6.545  71.488  1.00  0.00    -0.298 C  
HETATM   14  C   UNL     1     -10.615   5.115  71.867  1.00  0.00    -0.256 C  
HETATM   15  C   UNL     1      -9.924   7.644  71.967  1.00  0.00    -0.220 C  
HETATM   16  C   UNL     1     -10.924   6.846  69.984  1.00  0.00    -0.279 C  
HETATM   17  O   UNL     1     -11.043   6.054  69.068  1.00  0.00    -0.351 OA 
HETATM   18  C   UNL     1      -8.482   7.480  71.434  1.00  0.00    -0.115 C  
HETATM   19  C   UNL     1      -9.811   7.812  73.494  1.00  0.00    -0.298 C  
ENDBRANCH   5   8
TORSDOF 1
ENDMDL
MODEL       52
REMARK 921   NORMALIZED FREE ENERGY PREDICTED BY IDOCK:   -4.84 KCAL/MOL
REMARK 922        TOTAL FREE ENERGY PREDICTED BY IDOCK:   -5.61 KCAL/MOL
REMARK 923 INTER-LIGAND FREE ENERGY PREDICTED BY IDOCK:   -5.15 KCAL/MOL
REMARK 924 INTRA-LIGAND FREE ENERGY PREDICTED BY IDOCK:   -0.47 KCAL/MOL
REMARK 927      BINDING AFFINITY PREDICTED BY RF-SCORE:    0.00 PKD
ROOT
HETATM    1  C   UNL     1     -12.274  13.253  63.685  1.00  0.00    -0.522 C  
HETATM    2  C   UNL     1     -11.434  12.230  64.391  1.00  0.00    -0.417 A  
HETATM    3  C   UNL     1     -11.312  12.213  65.784  1.00  0.00    -0.402 A  
HETATM    4  C   UNL     1     -10.486  11.274  66.417  1.00  0.00    -0.306 A  
HETATM    5  C   UNL     1      -9.766  10.333  65.670  1.00  0.00    -0.308 A  
HETATM    6  C   UNL     1      -9.886  10.370  64.276  1.00  0.00    -0.388 A  
HETATM    7  C   UNL     1     -10.723  11.291  63.643  1.00  0.00    -0.438 A  
ENDROOT
BRANCH   5   8
HETATM    8  C   UNL     1      -8.841   9.414  66.357  1.00  0.00    -0.167 C  
HETATM    9  C   UNL     1      -9.201   8.359  67.100  1.00  0.00    -0.174 C  
HETATM   10  C   UNL     1     -10.547   7.816  67.535  1.00  0.00    -0.319 C  
HETATM   11  C   UNL     1     -10.755   6.518  66.716  1.00  0.00    -0.344 C  
HETATM   12  C   UNL     1      -9.764   5.522  67.365  1.00  0.00    -0.147 C  
HETATM   13  C   UNL     1      -9.108   6.359  68.491  1.00  0.00    -0.126 C  
HETATM   14  C   UNL     1      -8.390   5.541  69.537  1.00  0.00    -0.102 C  
HETATM   15  C   UNL     1     -10.261   7.289  68.970  1.00  0.00    -0.197 C  
HETATM   16  C   UNL     1      -8.247   7.384  67.744  1.00  0.00    -0.119 C  
HETATM   17  O   UNL     1      -7.034   7.404  67.642  1.00  0.00    -0.074 OA 
HETATM   18  C   UNL     1      -9.828   8.381  69.974  1.00  0.00    -0.182 C  
HETATM   19  C   UNL     1     -11.471   6.573  69.596  1.00  0.00    -0.417 C  
ENDBRANCH   5   8
TORSDOF 1
ENDMDL
MODEL       53
REMARK 921   NORMALIZED FREE ENERGY PREDICTED BY IDOCK:   -4.82 KCAL/MOL
REMARK 922        TOTAL FREE ENERGY PREDICTED BY IDOCK:   -5.60 KCAL/MOL
REMARK 923 INTER-LIGAND FREE ENERGY PREDICTED BY IDOCK:   -5.15 KCAL/MOL
REMARK 924 INTRA-LIGAND FREE ENERGY PREDICTED BY IDOCK:   -0.45 KCAL/MOL
REMARK 927      BINDING AFFINITY PREDICTED BY RF-SCORE:    0.00 PKD
ROOT
HETATM    1  C   UNL     1     -11.673  13.939  68.986  1.00  0.00    -0.378 C  
HETATM    2  C   UNL     1     -11.773  12.564  69.577  1.00  0.00    -0.375 A  
HETATM    3  C   UNL     1     -11.191  11.453  68.957  1.00  0.00    -0.319 A  
HETATM    4  C   UNL     1     -11.336  10.172  69.507  1.00  0.00    -0.260 A  
HETATM    5  C   UNL     1     -12.064   9.975  70.688  1.00  0.00    -0.381 A  
HETATM    6  C   UNL     1     -12.653  11.094  71.290  1.00  0.00    -0.503 A  
HETATM    7  C   UNL     1     -12.495  12.374  70.757  1.00  0.00    -0.356 A  
ENDROOT
BRANCH   5   8
HETATM    8  C   UNL     1     -12.270   8.608  71.195  1.00  0.00    -0.272 C  
HETATM    9  C   UNL     1     -11.322   7.823  71.726  1.00  0.00    -0.302 C  
HETATM   10  C   UNL     1      -9.828   7.995  71.913  1.00  0.00    -0.251 C  
HETATM   11  C   UNL     1      -9.621   8.207  73.433  1.00  0.00    -0.184 C  
HETATM   12  C   UNL     1      -9.877   6.803  74.029  1.00  0.00    -0.334 C  
HETATM   13  C   UNL     1     -10.190   5.940  72.781  1.00  0.00    -0.208 C  
HETATM   14  C   UNL     1     -10.093   4.451  73.013  1.00  0.00    -0.206 C  
HETATM   15  C   UNL     1      -9.283   6.558  71.677  1.00  0.00    -0.143 C  
HETATM   16  C   UNL     1     -11.555   6.450  72.305  1.00  0.00    -0.299 C  
HETATM   17  O   UNL     1     -12.632   5.892  72.401  1.00  0.00    -0.091 OA 
HETATM   18  C   UNL     1      -9.537   6.005  70.256  1.00  0.00    -0.194 C  
HETATM   19  C   UNL     1      -7.768   6.445  71.927  1.00  0.00    -0.096 C  
ENDBRANCH   5   8
TORSDOF 1
ENDMDL
MODEL       54
REMARK 921   NORMALIZED FREE ENERGY PREDICTED BY IDOCK:   -4.76 KCAL/MOL
REMARK 922        TOTAL FREE ENERGY PREDICTED BY IDOCK:   -5.53 KCAL/MOL
REMARK 923 INTER-LIGAND FREE ENERGY PREDICTED BY IDOCK:   -5.01 KCAL/MOL
REMARK 924 INTRA-LIGAND FREE ENERGY PREDICTED BY IDOCK:   -0.52 KCAL/MOL
REMARK 927      BINDING AFFINITY PREDICTED BY RF-SCORE:    0.00 PKD
ROOT
HETATM    1  C   UNL     1     -11.173   4.812  73.544  1.00  0.00    -0.392 C  
HETATM    2  C   UNL     1     -11.214   6.126  72.822  1.00  0.00    -0.278 A  
HETATM    3  C   UNL     1     -12.139   6.376  71.802  1.00  0.00    -0.351 A  
HETATM    4  C   UNL     1     -12.129   7.597  71.113  1.00  0.00    -0.322 A  
HETATM    5  C   UNL     1     -11.196   8.592  71.430  1.00  0.00    -0.345 A  
HETATM    6  C   UNL     1     -10.267   8.324  72.443  1.00  0.00    -0.397 A  
HETATM    7  C   UNL     1     -10.286   7.117  73.145  1.00  0.00    -0.336 A  
ENDROOT
BRANCH   5   8
HETATM    8  C   UNL     1     -11.155   9.830  70.632  1.00  0.00    -0.398 C  
HETATM    9  C   UNL     1     -10.491   9.992  69.480  1.00  0.00    -0.260 C  
HETATM   10  C   UNL     1      -9.568   9.088  68.686  1.00  0.00    -0.158 C  
HETATM   11  C   UNL     1     -10.377   8.663  67.436  1.00  0.00    -0.353 C  
HETATM   12  C   UNL     1     -10.411   9.949  66.577  1.00  0.00    -0.259 C  
HETATM   13  C   UNL     1      -9.606  10.963  67.426  1.00  0.00    -0.181 C  
HETATM   14  C   UNL     1      -9.140  12.182  66.666  1.00  0.00    -0.206 C  
HETATM   15  C   UNL     1      -8.521  10.082  68.111  1.00  0.00    -0.114 C  
HETATM   16  C   UNL     1     -10.509  11.241  68.634  1.00  0.00    -0.203 C  
HETATM   17  O   UNL     1     -11.154  12.246  68.866  1.00  0.00    -0.224 OA 
HETATM   18  C   UNL     1      -7.683  10.816  69.183  1.00  0.00    -0.138 C  
HETATM   19  C   UNL     1      -7.518   9.409  67.156  1.00  0.00    -0.091 C  
ENDBRANCH   5   8
TORSDOF 1
ENDMDL
MODEL       55
REMARK 921   NORMALIZED FREE ENERGY PREDICTED BY IDOCK:   -4.70 KCAL/MOL
REMARK 922        TOTAL FREE ENERGY PREDICTED BY IDOCK:   -5.47 KCAL/MOL
REMARK 923 INTER-LIGAND FREE ENERGY PREDICTED BY IDOCK:   -5.07 KCAL/MOL
REMARK 924 INTRA-LIGAND FREE ENERGY PREDICTED BY IDOCK:   -0.40 KCAL/MOL
REMARK 927      BINDING AFFINITY PREDICTED BY RF-SCORE:    0.00 PKD
ROOT
HETATM    1  C   UNL     1     -12.412  15.442  70.588  1.00  0.00    -0.478 C  
HETATM    2  C   UNL     1     -12.236  14.074  69.997  1.00  0.00    -0.414 A  
HETATM    3  C   UNL     1     -12.256  12.923  70.790  1.00  0.00    -0.348 A  
HETATM    4  C   UNL     1     -12.046  11.659  70.219  1.00  0.00    -0.443 A  
HETATM    5  C   UNL     1     -11.814  11.522  68.845  1.00  0.00    -0.406 A  
HETATM    6  C   UNL     1     -11.782  12.684  68.065  1.00  0.00    -0.402 A  
HETATM    7  C   UNL     1     -12.011  13.942  68.626  1.00  0.00    -0.401 A  
ENDROOT
BRANCH   5   8
HETATM    8  C   UNL     1     -11.513  10.192  68.288  1.00  0.00    -0.074 C  
HETATM    9  C   UNL     1     -10.368   9.841  67.685  1.00  0.00    -0.281 C  
HETATM   10  C   UNL     1      -9.118  10.615  67.318  1.00  0.00    -0.151 C  
HETATM   11  C   UNL     1      -8.023  10.124  68.297  1.00  0.00    -0.101 C  
HETATM   12  C   UNL     1      -7.700   8.699  67.788  1.00  0.00    -0.102 C  
HETATM   13  C   UNL     1      -8.638   8.539  66.566  1.00  0.00    -0.130 C  
HETATM   14  C   UNL     1      -8.265   7.407  65.638  1.00  0.00    -0.137 C  
HETATM   15  C   UNL     1      -8.699   9.974  65.965  1.00  0.00    -0.152 C  
HETATM   16  C   UNL     1     -10.041   8.459  67.179  1.00  0.00    -0.265 C  
HETATM   17  O   UNL     1     -10.753   7.477  67.283  1.00  0.00    -0.307 OA 
HETATM   18  C   UNL     1      -9.734  10.149  64.830  1.00  0.00    -0.389 C  
HETATM   19  C   UNL     1      -7.364  10.523  65.430  1.00  0.00    -0.084 C  
ENDBRANCH   5   8
TORSDOF 1
ENDMDL
MODEL       56
REMARK 921   NORMALIZED FREE ENERGY PREDICTED BY IDOCK:   -4.70 KCAL/MOL
REMARK 922        TOTAL FREE ENERGY PREDICTED BY IDOCK:   -5.46 KCAL/MOL
REMARK 923 INTER-LIGAND FREE ENERGY PREDICTED BY IDOCK:   -5.05 KCAL/MOL
REMARK 924 INTRA-LIGAND FREE ENERGY PREDICTED BY IDOCK:   -0.41 KCAL/MOL
REMARK 927      BINDING AFFINITY PREDICTED BY RF-SCORE:    0.00 PKD
ROOT
HETATM    1  C   UNL     1     -11.740  11.449  68.319  1.00  0.00    -0.359 C  
HETATM    2  C   UNL     1     -10.818  12.625  68.446  1.00  0.00    -0.268 A  
HETATM    3  C   UNL     1      -9.473  12.548  68.070  1.00  0.00    -0.209 A  
HETATM    4  C   UNL     1      -8.620  13.649  68.239  1.00  0.00    -0.170 A  
HETATM    5  C   UNL     1      -9.096  14.848  68.784  1.00  0.00    -0.189 A  
HETATM    6  C   UNL     1     -10.441  14.907  69.169  1.00  0.00    -0.246 A  
HETATM    7  C   UNL     1     -11.298  13.820  68.984  1.00  0.00    -0.333 A  
ENDROOT
BRANCH   5   8
HETATM    8  C   UNL     1      -8.159  15.958  69.027  1.00  0.00    -0.229 C  
HETATM    9  C   UNL     1      -8.288  17.204  68.552  1.00  0.00    -0.262 C  
HETATM   10  C   UNL     1      -9.293  17.854  67.622  1.00  0.00    -0.258 C  
HETATM   11  C   UNL     1     -10.153  18.777  68.520  1.00  0.00    -0.444 C  
HETATM   12  C   UNL     1      -9.196  19.947  68.852  1.00  0.00    -0.124 C  
HETATM   13  C   UNL     1      -7.898  19.567  68.096  1.00  0.00    -0.347 C  
HETATM   14  C   UNL     1      -6.926  20.708  67.915  1.00  0.00    -0.312 C  
HETATM   15  C   UNL     1      -8.420  18.855  66.814  1.00  0.00    -0.304 C  
HETATM   16  C   UNL     1      -7.360  18.353  68.862  1.00  0.00    -0.250 C  
HETATM   17  O   UNL     1      -6.400  18.309  69.608  1.00  0.00    -0.249 OA 
HETATM   18  C   UNL     1      -7.319  18.191  65.956  1.00  0.00    -0.290 C  
HETATM   19  C   UNL     1      -9.248  19.735  65.860  1.00  0.00    -0.210 C  
ENDBRANCH   5   8
TORSDOF 1
ENDMDL
MODEL       57
REMARK 921   NORMALIZED FREE ENERGY PREDICTED BY IDOCK:   -4.68 KCAL/MOL
REMARK 922        TOTAL FREE ENERGY PREDICTED BY IDOCK:   -5.44 KCAL/MOL
REMARK 923 INTER-LIGAND FREE ENERGY PREDICTED BY IDOCK:   -5.24 KCAL/MOL
REMARK 924 INTRA-LIGAND FREE ENERGY PREDICTED BY IDOCK:   -0.20 KCAL/MOL
REMARK 927      BINDING AFFINITY PREDICTED BY RF-SCORE:    0.00 PKD
ROOT
HETATM    1  C   UNL     1     -13.227  14.116  71.536  1.00  0.00    -0.423 C  
HETATM    2  C   UNL     1     -12.250  14.662  70.537  1.00  0.00    -0.389 A  
HETATM    3  C   UNL     1     -11.717  15.949  70.658  1.00  0.00    -0.411 A  
HETATM    4  C   UNL     1     -10.839  16.452  69.687  1.00  0.00    -0.346 A  
HETATM    5  C   UNL     1     -10.475  15.677  68.578  1.00  0.00    -0.236 A  
HETATM    6  C   UNL     1     -11.027  14.395  68.462  1.00  0.00    -0.264 A  
HETATM    7  C   UNL     1     -11.886  13.884  69.437  1.00  0.00    -0.384 A  
ENDROOT
BRANCH   5   8
HETATM    8  C   UNL     1      -9.619  16.263  67.532  1.00  0.00    -0.230 C  
HETATM    9  C   UNL     1      -8.560  17.056  67.746  1.00  0.00    -0.213 C  
HETATM   10  C   UNL     1      -7.955  17.650  69.003  1.00  0.00    -0.081 C  
HETATM   11  C   UNL     1      -6.634  16.876  69.233  1.00  0.00    -0.232 C  
HETATM   12  C   UNL     1      -5.703  17.417  68.122  1.00  0.00    -0.143 C  
HETATM   13  C   UNL     1      -6.593  18.450  67.387  1.00  0.00    -0.199 C  
HETATM   14  C   UNL     1      -5.832  19.416  66.510  1.00  0.00    -0.171 C  
HETATM   15  C   UNL     1      -7.471  19.048  68.525  1.00  0.00    -0.352 C  
HETATM   16  C   UNL     1      -7.648  17.596  66.674  1.00  0.00    -0.238 C  
HETATM   17  O   UNL     1      -7.729  17.354  65.484  1.00  0.00    -0.312 OA 
HETATM   18  C   UNL     1      -8.602  19.982  68.038  1.00  0.00    -0.264 C  
HETATM   19  C   UNL     1      -6.703  19.819  69.615  1.00  0.00    -0.351 C  
ENDBRANCH   5   8
TORSDOF 1
ENDMDL
MODEL       58
REMARK 921   NORMALIZED FREE ENERGY PREDICTED BY IDOCK:   -4.61 KCAL/MOL
REMARK 922        TOTAL FREE ENERGY PREDICTED BY IDOCK:   -5.37 KCAL/MOL
REMARK 923 INTER-LIGAND FREE ENERGY PREDICTED BY IDOCK:   -5.18 KCAL/MOL
REMARK 924 INTRA-LIGAND FREE ENERGY PREDICTED BY IDOCK:   -0.19 KCAL/MOL
REMARK 927      BINDING AFFINITY PREDICTED BY RF-SCORE:    0.00 PKD
ROOT
HETATM    1  C   UNL     1     -13.732  14.762  72.182  1.00  0.00    -0.543 C  
HETATM    2  C   UNL     1     -13.139  13.539  71.550  1.00  0.00    -0.427 A  
HETATM    3  C   UNL     1     -12.425  13.605  70.349  1.00  0.00    -0.364 A  
HETATM    4  C   UNL     1     -11.917  12.440  69.755  1.00  0.00    -0.359 A  
HETATM    5  C   UNL     1     -12.112  11.188  70.351  1.00  0.00    -0.475 A  
HETATM    6  C   UNL     1     -12.841  11.134  71.545  1.00  0.00    -0.542 A  
HETATM    7  C   UNL     1     -13.330  12.293  72.150  1.00  0.00    -0.473 A  
ENDROOT
BRANCH   5   8
HETATM    8  C   UNL     1     -11.641   9.974  69.661  1.00  0.00    -0.156 C  
HETATM    9  C   UNL     1     -10.491   9.861  68.982  1.00  0.00    -0.227 C  
HETATM   10  C   UNL     1      -9.397  10.851  68.637  1.00  0.00    -0.188 C  
HETATM   11  C   UNL     1      -8.187  10.457  69.521  1.00  0.00    -0.137 C  
HETATM   12  C   UNL     1      -7.678   9.150  68.869  1.00  0.00    -0.083 C  
HETATM   13  C   UNL     1      -8.646   8.948  67.678  1.00  0.00    -0.124 C  
HETATM   14  C   UNL     1      -8.155   7.973  66.634  1.00  0.00    -0.103 C  
HETATM   15  C   UNL     1      -8.959  10.401  67.215  1.00  0.00    -0.142 C  
HETATM   16  C   UNL     1      -9.984   8.596  68.337  1.00  0.00    -0.184 C  
HETATM   17  O   UNL     1     -10.530   7.509  68.378  1.00  0.00    -0.194 OA 
HETATM   18  C   UNL     1     -10.069  10.507  66.144  1.00  0.00    -0.306 C  
HETATM   19  C   UNL     1      -7.756  11.198  66.679  1.00  0.00    -0.155 C  
ENDBRANCH   5   8
TORSDOF 1
ENDMDL
MODEL       59
REMARK 921   NORMALIZED FREE ENERGY PREDICTED BY IDOCK:   -4.61 KCAL/MOL
REMARK 922        TOTAL FREE ENERGY PREDICTED BY IDOCK:   -5.37 KCAL/MOL
REMARK 923 INTER-LIGAND FREE ENERGY PREDICTED BY IDOCK:   -4.99 KCAL/MOL
REMARK 924 INTRA-LIGAND FREE ENERGY PREDICTED BY IDOCK:   -0.38 KCAL/MOL
REMARK 927      BINDING AFFINITY PREDICTED BY RF-SCORE:    0.00 PKD
ROOT
HETATM    1  C   UNL     1      -8.439   5.649  65.648  1.00  0.00    -0.147 C  
HETATM    2  C   UNL     1      -9.035   6.879  66.266  1.00  0.00    -0.172 A  
HETATM    3  C   UNL     1      -8.304   8.063  66.401  1.00  0.00    -0.124 A  
HETATM    4  C   UNL     1      -8.870   9.185  67.022  1.00  0.00    -0.135 A  
HETATM    5  C   UNL     1     -10.179   9.146  67.520  1.00  0.00    -0.304 A  
HETATM    6  C   UNL     1     -10.895   7.950  67.391  1.00  0.00    -0.172 A  
HETATM    7  C   UNL     1     -10.342   6.837  66.755  1.00  0.00    -0.286 A  
ENDROOT
BRANCH   5   8
HETATM    8  C   UNL     1     -10.717  10.311  68.242  1.00  0.00    -0.276 C  
HETATM    9  C   UNL     1     -10.867  11.542  67.733  1.00  0.00    -0.270 C  
HETATM   10  C   UNL     1     -10.508  12.153  66.393  1.00  0.00    -0.261 C  
HETATM   11  C   UNL     1     -11.855  12.363  65.658  1.00  0.00    -0.468 C  
HETATM   12  C   UNL     1     -12.494  13.554  66.412  1.00  0.00    -0.349 C  
HETATM   13  C   UNL     1     -11.434  13.900  67.488  1.00  0.00    -0.368 C  
HETATM   14  C   UNL     1     -11.606  15.263  68.115  1.00  0.00    -0.344 C  
HETATM   15  C   UNL     1     -10.083  13.599  66.776  1.00  0.00    -0.269 C  
HETATM   16  C   UNL     1     -11.482  12.713  68.457  1.00  0.00    -0.311 C  
HETATM   17  O   UNL     1     -11.954  12.687  69.579  1.00  0.00    -0.306 OA 
HETATM   18  C   UNL     1      -8.843  13.675  67.697  1.00  0.00    -0.194 C  
HETATM   19  C   UNL     1      -9.773  14.476  65.549  1.00  0.00    -0.232 C  
ENDBRANCH   5   8
TORSDOF 1
ENDMDL
MODEL       60
REMARK 921   NORMALIZED FREE ENERGY PREDICTED BY IDOCK:   -4.58 KCAL/MOL
REMARK 922        TOTAL FREE ENERGY PREDICTED BY IDOCK:   -5.34 KCAL/MOL
REMARK 923 INTER-LIGAND FREE ENERGY PREDICTED BY IDOCK:   -4.91 KCAL/MOL
REMARK 924 INTRA-LIGAND FREE ENERGY PREDICTED BY IDOCK:   -0.43 KCAL/MOL
REMARK 927      BINDING AFFINITY PREDICTED BY RF-SCORE:    0.00 PKD
ROOT
HETATM    1  C   UNL     1      -8.054   8.216  63.727  1.00  0.00    -0.112 C  
HETATM    2  C   UNL     1      -8.811   9.209  64.560  1.00  0.00    -0.165 A  
HETATM    3  C   UNL     1      -9.633  10.180  63.979  1.00  0.00    -0.320 A  
HETATM    4  C   UNL     1     -10.295  11.124  64.776  1.00  0.00    -0.387 A  
HETATM    5  C   UNL     1     -10.150  11.115  66.170  1.00  0.00    -0.284 A  
HETATM    6  C   UNL     1      -9.313  10.146  66.737  1.00  0.00    -0.190 A  
HETATM    7  C   UNL     1      -8.668   9.192  65.948  1.00  0.00    -0.184 A  
ENDROOT
BRANCH   5   8
HETATM    8  C   UNL     1     -10.790  12.170  66.974  1.00  0.00    -0.289 C  
HETATM    9  C   UNL     1     -10.538  13.483  66.878  1.00  0.00    -0.270 C  
HETATM   10  C   UNL     1      -9.551  14.285  66.053  1.00  0.00    -0.271 C  
HETATM   11  C   UNL     1     -10.400  15.005  64.976  1.00  0.00    -0.390 C  
HETATM   12  C   UNL     1     -11.140  16.103  65.778  1.00  0.00     0.014 C  
HETATM   13  C   UNL     1     -10.622  15.894  67.223  1.00  0.00    -0.314 C  
HETATM   14  C   UNL     1     -10.868  17.063  68.147  1.00  0.00    -0.338 C  
HETATM   15  C   UNL     1      -9.149  15.435  67.018  1.00  0.00    -0.247 C  
HETATM   16  C   UNL     1     -11.246  14.563  67.657  1.00  0.00    -0.322 C  
HETATM   17  O   UNL     1     -12.159  14.390  68.442  1.00  0.00    -0.322 OA 
HETATM   18  C   UNL     1      -8.439  14.966  68.308  1.00  0.00    -0.151 C  
HETATM   19  C   UNL     1      -8.220  16.471  66.358  1.00  0.00    -0.364 C  
ENDBRANCH   5   8
TORSDOF 1
ENDMDL
MODEL       61
REMARK 921   NORMALIZED FREE ENERGY PREDICTED BY IDOCK:   -4.57 KCAL/MOL
REMARK 922        TOTAL FREE ENERGY PREDICTED BY IDOCK:   -5.33 KCAL/MOL
REMARK 923 INTER-LIGAND FREE ENERGY PREDICTED BY IDOCK:   -5.28 KCAL/MOL
REMARK 924 INTRA-LIGAND FREE ENERGY PREDICTED BY IDOCK:   -0.05 KCAL/MOL
REMARK 927      BINDING AFFINITY PREDICTED BY RF-SCORE:    0.00 PKD
ROOT
HETATM    1  C   UNL     1     -13.410  12.479  71.929  1.00  0.00    -0.467 C  
HETATM    2  C   UNL     1     -12.948  11.093  71.587  1.00  0.00    -0.548 A  
HETATM    3  C   UNL     1     -13.515   9.961  72.182  1.00  0.00    -0.454 A  
HETATM    4  C   UNL     1     -13.036   8.679  71.877  1.00  0.00    -0.409 A  
HETATM    5  C   UNL     1     -11.983   8.503  70.970  1.00  0.00    -0.260 A  
HETATM    6  C   UNL     1     -11.416   9.646  70.392  1.00  0.00    -0.325 A  
HETATM    7  C   UNL     1     -11.903  10.922  70.678  1.00  0.00    -0.453 A  
ENDROOT
BRANCH   5   8
HETATM    8  C   UNL     1     -11.445   7.152  70.734  1.00  0.00    -0.342 C  
HETATM    9  C   UNL     1     -10.519   6.832  69.820  1.00  0.00    -0.240 C  
HETATM   10  C   UNL     1      -9.809   7.633  68.748  1.00  0.00    -0.165 C  
HETATM   11  C   UNL     1      -8.353   7.801  69.250  1.00  0.00    -0.136 C  
HETATM   12  C   UNL     1      -7.748   6.388  69.072  1.00  0.00    -0.101 C  
HETATM   13  C   UNL     1      -8.922   5.573  68.476  1.00  0.00    -0.114 C  
HETATM   14  C   UNL     1      -8.513   4.268  67.835  1.00  0.00    -0.100 C  
HETATM   15  C   UNL     1      -9.669   6.610  67.586  1.00  0.00    -0.142 C  
HETATM   16  C   UNL     1      -9.924   5.459  69.630  1.00  0.00    -0.227 C  
HETATM   17  O   UNL     1     -10.177   4.476  70.302  1.00  0.00    -0.219 OA 
HETATM   18  C   UNL     1     -11.014   6.110  67.012  1.00  0.00    -0.414 C  
HETATM   19  C   UNL     1      -8.862   7.162  66.396  1.00  0.00    -0.161 C  
ENDBRANCH   5   8
TORSDOF 1
ENDMDL
MODEL       62
REMARK 921   NORMALIZED FREE ENERGY PREDICTED BY IDOCK:   -4.55 KCAL/MOL
REMARK 922        TOTAL FREE ENERGY PREDICTED BY IDOCK:   -5.31 KCAL/MOL
REMARK 923 INTER-LIGAND FREE ENERGY PREDICTED BY IDOCK:   -4.82 KCAL/MOL
REMARK 924 INTRA-LIGAND FREE ENERGY PREDICTED BY IDOCK:   -0.49 KCAL/MOL
REMARK 927      BINDING AFFINITY PREDICTED BY RF-SCORE:    0.00 PKD
ROOT
HETATM    1  C   UNL     1     -11.985  10.642  68.430  1.00  0.00     0.108 C  
HETATM    2  C   UNL     1     -11.193  11.829  67.969  1.00  0.00    -0.324 A  
HETATM    3  C   UNL     1     -11.678  12.700  66.988  1.00  0.00    -0.438 A  
HETATM    4  C   UNL     1     -10.900  13.778  66.543  1.00  0.00    -0.287 A  
HETATM    5  C   UNL     1      -9.622  14.007  67.069  1.00  0.00    -0.253 A  
HETATM    6  C   UNL     1      -9.143  13.119  68.040  1.00  0.00    -0.207 A  
HETATM    7  C   UNL     1      -9.922  12.056  68.500  1.00  0.00    -0.188 A  
ENDROOT
BRANCH   5   8
HETATM    8  C   UNL     1      -8.795  15.096  66.522  1.00  0.00    -0.312 C  
HETATM    9  C   UNL     1      -8.897  16.391  66.848  1.00  0.00    -0.232 C  
HETATM   10  C   UNL     1      -9.850  17.155  67.746  1.00  0.00    -0.274 C  
HETATM   11  C   UNL     1      -9.019  17.552  68.991  1.00  0.00    -0.039 C  
HETATM   12  C   UNL     1      -8.088  18.668  68.460  1.00  0.00    -0.370 C  
HETATM   13  C   UNL     1      -8.499  18.793  66.972  1.00  0.00    -0.289 C  
HETATM   14  C   UNL     1      -8.038  20.066  66.303  1.00  0.00    -0.318 C  
HETATM   15  C   UNL     1     -10.029  18.504  66.993  1.00  0.00    -0.365 C  
HETATM   16  C   UNL     1      -8.002  17.491  66.334  1.00  0.00    -0.285 C  
HETATM   17  O   UNL     1      -7.051  17.343  65.590  1.00  0.00    -0.298 OA 
HETATM   18  C   UNL     1     -10.675  18.372  65.595  1.00  0.00    -0.066 C  
HETATM   19  C   UNL     1     -10.882  19.518  67.777  1.00  0.00    -0.386 C  
ENDBRANCH   5   8
TORSDOF 1
ENDMDL
MODEL       63
REMARK 921   NORMALIZED FREE ENERGY PREDICTED BY IDOCK:   -4.51 KCAL/MOL
REMARK 922        TOTAL FREE ENERGY PREDICTED BY IDOCK:   -5.27 KCAL/MOL
REMARK 923 INTER-LIGAND FREE ENERGY PREDICTED BY IDOCK:   -4.77 KCAL/MOL
REMARK 924 INTRA-LIGAND FREE ENERGY PREDICTED BY IDOCK:   -0.49 KCAL/MOL
REMARK 927      BINDING AFFINITY PREDICTED BY RF-SCORE:    0.00 PKD
ROOT
HETATM    1  C   UNL     1      -7.861  19.917  66.196  1.00  0.00    -0.340 C  
HETATM    2  C   UNL     1      -8.486  18.643  66.684  1.00  0.00    -0.301 A  
HETATM    3  C   UNL     1      -9.541  18.033  65.999  1.00  0.00    -0.085 A  
HETATM    4  C   UNL     1     -10.137  16.866  66.499  1.00  0.00    -0.320 A  
HETATM    5  C   UNL     1      -9.688  16.286  67.692  1.00  0.00    -0.234 A  
HETATM    6  C   UNL     1      -8.639  16.915  68.375  1.00  0.00    -0.240 A  
HETATM    7  C   UNL     1      -8.031  18.066  67.870  1.00  0.00    -0.241 A  
ENDROOT
BRANCH   5   8
HETATM    8  C   UNL     1     -10.388  15.110  68.237  1.00  0.00    -0.231 C  
HETATM    9  C   UNL     1     -10.177  13.839  67.868  1.00  0.00    -0.245 C  
HETATM   10  C   UNL     1      -9.294  13.205  66.812  1.00  0.00    -0.244 C  
HETATM   11  C   UNL     1      -8.149  12.512  67.591  1.00  0.00    -0.171 C  
HETATM   12  C   UNL     1      -8.842  11.286  68.232  1.00  0.00    -0.158 C  
HETATM   13  C   UNL     1     -10.304  11.408  67.737  1.00  0.00    -0.206 C  
HETATM   14  C   UNL     1     -11.118  10.144  67.880  1.00  0.00    -0.303 C  
HETATM   15  C   UNL     1     -10.156  12.013  66.310  1.00  0.00    -0.247 C  
HETATM   16  C   UNL     1     -10.849  12.634  68.479  1.00  0.00    -0.252 C  
HETATM   17  O   UNL     1     -11.638  12.654  69.405  1.00  0.00    -0.288 OA 
HETATM   18  C   UNL     1     -11.490  12.425  65.648  1.00  0.00    -0.412 C  
HETATM   19  C   UNL     1      -9.416  11.127  65.292  1.00  0.00    -0.257 C  
ENDBRANCH   5   8
TORSDOF 1
ENDMDL
MODEL       64
REMARK 921   NORMALIZED FREE ENERGY PREDICTED BY IDOCK:   -4.49 KCAL/MOL
REMARK 922        TOTAL FREE ENERGY PREDICTED BY IDOCK:   -5.25 KCAL/MOL
REMARK 923 INTER-LIGAND FREE ENERGY PREDICTED BY IDOCK:   -4.82 KCAL/MOL
REMARK 924 INTRA-LIGAND FREE ENERGY PREDICTED BY IDOCK:   -0.43 KCAL/MOL
REMARK 927      BINDING AFFINITY PREDICTED BY RF-SCORE:    0.00 PKD
ROOT
HETATM    1  C   UNL     1     -14.394   8.935  72.551  1.00  0.00    -0.309 C  
HETATM    2  C   UNL     1     -13.093   9.107  71.824  1.00  0.00    -0.456 A  
HETATM    3  C   UNL     1     -12.168   8.063  71.715  1.00  0.00    -0.352 A  
HETATM    4  C   UNL     1     -10.940   8.262  71.069  1.00  0.00    -0.280 A  
HETATM    5  C   UNL     1     -10.613   9.507  70.517  1.00  0.00    -0.358 A  
HETATM    6  C   UNL     1     -11.541  10.547  70.646  1.00  0.00    -0.445 A  
HETATM    7  C   UNL     1     -12.773  10.348  71.271  1.00  0.00    -0.536 A  
ENDROOT
BRANCH   5   8
HETATM    8  C   UNL     1      -9.282   9.710  69.920  1.00  0.00    -0.255 C  
HETATM    9  C   UNL     1      -9.045  10.090  68.656  1.00  0.00    -0.139 C  
HETATM   10  C   UNL     1      -9.954  10.350  67.471  1.00  0.00    -0.215 C  
HETATM   11  C   UNL     1      -9.948  11.885  67.273  1.00  0.00    -0.200 C  
HETATM   12  C   UNL     1      -8.543  12.166  66.689  1.00  0.00    -0.122 C  
HETATM   13  C   UNL     1      -7.906  10.757  66.608  1.00  0.00    -0.140 C  
HETATM   14  C   UNL     1      -6.691  10.673  65.715  1.00  0.00    -0.097 C  
HETATM   15  C   UNL     1      -9.113   9.833  66.271  1.00  0.00    -0.192 C  
HETATM   16  C   UNL     1      -7.682  10.361  68.071  1.00  0.00    -0.092 C  
HETATM   17  O   UNL     1      -6.626  10.308  68.675  1.00  0.00    -0.052 OA 
HETATM   18  C   UNL     1      -8.794   8.321  66.320  1.00  0.00    -0.192 C  
HETATM   19  C   UNL     1      -9.786  10.095  64.911  1.00  0.00    -0.390 C  
ENDBRANCH   5   8
TORSDOF 1
ENDMDL
MODEL       65
REMARK 921   NORMALIZED FREE ENERGY PREDICTED BY IDOCK:   -4.46 KCAL/MOL
REMARK 922        TOTAL FREE ENERGY PREDICTED BY IDOCK:   -5.22 KCAL/MOL
REMARK 923 INTER-LIGAND FREE ENERGY PREDICTED BY IDOCK:   -4.69 KCAL/MOL
REMARK 924 INTRA-LIGAND FREE ENERGY PREDICTED BY IDOCK:   -0.52 KCAL/MOL
REMARK 927      BINDING AFFINITY PREDICTED BY RF-SCORE:    0.00 PKD
ROOT
HETATM    1  C   UNL     1     -13.933   9.094  72.537  1.00  0.00    -0.453 C  
HETATM    2  C   UNL     1     -12.712   9.459  71.746  1.00  0.00    -0.476 A  
HETATM    3  C   UNL     1     -12.746  10.444  70.753  1.00  0.00    -0.460 A  
HETATM    4  C   UNL     1     -11.602  10.736  69.998  1.00  0.00    -0.417 A  
HETATM    5  C   UNL     1     -10.401  10.051  70.220  1.00  0.00    -0.301 A  
HETATM    6  C   UNL     1     -10.384   9.057  71.206  1.00  0.00    -0.383 A  
HETATM    7  C   UNL     1     -11.516   8.777  71.975  1.00  0.00    -0.441 A  
ENDROOT
BRANCH   5   8
HETATM    8  C   UNL     1      -9.240  10.319  69.354  1.00  0.00    -0.206 C  
HETATM    9  C   UNL     1      -8.938   9.658  68.228  1.00  0.00    -0.123 C  
HETATM   10  C   UNL     1      -9.564   8.463  67.537  1.00  0.00    -0.194 C  
HETATM   11  C   UNL     1     -10.259   9.030  66.275  1.00  0.00    -0.237 C  
HETATM   12  C   UNL     1      -9.077   9.380  65.340  1.00  0.00    -0.280 C  
HETATM   13  C   UNL     1      -7.836   8.962  66.168  1.00  0.00    -0.102 C  
HETATM   14  C   UNL     1      -6.567   8.822  65.361  1.00  0.00    -0.067 C  
HETATM   15  C   UNL     1      -8.330   7.714  66.957  1.00  0.00    -0.124 C  
HETATM   16  C   UNL     1      -7.786   9.983  67.311  1.00  0.00    -0.102 C  
HETATM   17  O   UNL     1      -7.006  10.906  67.450  1.00  0.00    -0.078 OA 
HETATM   18  C   UNL     1      -7.339   7.198  68.025  1.00  0.00    -0.097 C  
HETATM   19  C   UNL     1      -8.719   6.499  66.095  1.00  0.00    -0.153 C  
ENDBRANCH   5   8
TORSDOF 1
ENDMDL
MODEL       66
REMARK 921   NORMALIZED FREE ENERGY PREDICTED BY IDOCK:   -4.46 KCAL/MOL
REMARK 922        TOTAL FREE ENERGY PREDICTED BY IDOCK:   -5.21 KCAL/MOL
REMARK 923 INTER-LIGAND FREE ENERGY PREDICTED BY IDOCK:   -4.90 KCAL/MOL
REMARK 924 INTRA-LIGAND FREE ENERGY PREDICTED BY IDOCK:   -0.31 KCAL/MOL
REMARK 927      BINDING AFFINITY PREDICTED BY RF-SCORE:    0.00 PKD
ROOT
HETATM    1  C   UNL     1      -8.755   6.256  69.348  1.00  0.00    -0.128 C  
HETATM    2  C   UNL     1      -8.774   7.691  68.912  1.00  0.00    -0.135 A  
HETATM    3  C   UNL     1      -9.266   8.073  67.660  1.00  0.00    -0.145 A  
HETATM    4  C   UNL     1      -9.232   9.416  67.258  1.00  0.00    -0.151 A  
HETATM    5  C   UNL     1      -8.708  10.404  68.101  1.00  0.00    -0.125 A  
HETATM    6  C   UNL     1      -8.205  10.006  69.346  1.00  0.00    -0.158 A  
HETATM    7  C   UNL     1      -8.255   8.673  69.758  1.00  0.00    -0.121 A  
ENDROOT
BRANCH   5   8
HETATM    8  C   UNL     1      -8.608  11.792  67.619  1.00  0.00    -0.153 C  
HETATM    9  C   UNL     1      -9.609  12.505  67.086  1.00  0.00    -0.208 C  
HETATM   10  C   UNL     1     -11.046  12.166  66.741  1.00  0.00    -0.349 C  
HETATM   11  C   UNL     1     -11.910  12.908  67.790  1.00  0.00    -0.391 C  
HETATM   12  C   UNL     1     -11.801  14.391  67.361  1.00  0.00    -0.430 C  
HETATM   13  C   UNL     1     -10.895  14.329  66.106  1.00  0.00    -0.310 C  
HETATM   14  C   UNL     1     -10.936  15.572  65.248  1.00  0.00    -0.391 C  
HETATM   15  C   UNL     1     -11.290  12.980  65.439  1.00  0.00    -0.327 C  
HETATM   16  C   UNL     1      -9.516  13.948  66.657  1.00  0.00    -0.285 C  
HETATM   17  O   UNL     1      -8.538  14.662  66.772  1.00  0.00    -0.224 OA 
HETATM   18  C   UNL     1     -10.392  12.565  64.251  1.00  0.00    -0.396 C  
HETATM   19  C   UNL     1     -12.745  12.889  64.942  1.00  0.00    -0.474 C  
ENDBRANCH   5   8
TORSDOF 1
ENDMDL
MODEL       67
REMARK 921   NORMALIZED FREE ENERGY PREDICTED BY IDOCK:   -4.44 KCAL/MOL
REMARK 922        TOTAL FREE ENERGY PREDICTED BY IDOCK:   -5.20 KCAL/MOL
REMARK 923 INTER-LIGAND FREE ENERGY PREDICTED BY IDOCK:   -5.16 KCAL/MOL
REMARK 924 INTRA-LIGAND FREE ENERGY PREDICTED BY IDOCK:   -0.03 KCAL/MOL
REMARK 927      BINDING AFFINITY PREDICTED BY RF-SCORE:    0.00 PKD
ROOT
HETATM    1  C   UNL     1     -10.688   5.594  70.356  1.00  0.00    -0.352 C  
HETATM    2  C   UNL     1     -10.669   6.702  69.345  1.00  0.00    -0.303 A  
HETATM    3  C   UNL     1     -10.787   6.449  67.975  1.00  0.00    -0.396 A  
HETATM    4  C   UNL     1     -10.722   7.498  67.047  1.00  0.00    -0.367 A  
HETATM    5  C   UNL     1     -10.540   8.821  67.471  1.00  0.00    -0.298 A  
HETATM    6  C   UNL     1     -10.409   9.058  68.844  1.00  0.00    -0.232 A  
HETATM    7  C   UNL     1     -10.493   8.019  69.772  1.00  0.00    -0.227 A  
ENDROOT
BRANCH   5   8
HETATM    8  C   UNL     1     -10.391   9.890  66.469  1.00  0.00    -0.259 C  
HETATM    9  C   UNL     1     -10.147  11.180  66.738  1.00  0.00    -0.255 C  
HETATM   10  C   UNL     1     -10.024  11.957  68.034  1.00  0.00    -0.192 C  
HETATM   11  C   UNL     1      -8.519  12.291  68.176  1.00  0.00    -0.176 C  
HETATM   12  C   UNL     1      -8.290  13.383  67.104  1.00  0.00    -0.149 C  
HETATM   13  C   UNL     1      -9.694  13.561  66.476  1.00  0.00    -0.287 C  
HETATM   14  C   UNL     1      -9.863  14.832  65.678  1.00  0.00    -0.361 C  
HETATM   15  C   UNL     1     -10.660  13.330  67.676  1.00  0.00    -0.242 C  
HETATM   16  C   UNL     1      -9.929  12.257  65.705  1.00  0.00    -0.251 C  
HETATM   17  O   UNL     1      -9.908  12.092  64.499  1.00  0.00    -0.219 OA 
HETATM   18  C   UNL     1     -12.155  13.258  67.289  1.00  0.00    -0.341 C  
HETATM   19  C   UNL     1     -10.551  14.356  68.819  1.00  0.00    -0.256 C  
ENDBRANCH   5   8
TORSDOF 1
ENDMDL
MODEL       68
REMARK 921   NORMALIZED FREE ENERGY PREDICTED BY IDOCK:   -4.41 KCAL/MOL
REMARK 922        TOTAL FREE ENERGY PREDICTED BY IDOCK:   -5.16 KCAL/MOL
REMARK 923 INTER-LIGAND FREE ENERGY PREDICTED BY IDOCK:   -5.12 KCAL/MOL
REMARK 924 INTRA-LIGAND FREE ENERGY PREDICTED BY IDOCK:   -0.03 KCAL/MOL
REMARK 927      BINDING AFFINITY PREDICTED BY RF-SCORE:    0.00 PKD
ROOT
HETATM    1  C   UNL     1     -10.312   7.258  70.620  1.00  0.00    -0.213 C  
HETATM    2  C   UNL     1     -10.399   8.221  69.474  1.00  0.00    -0.219 A  
HETATM    3  C   UNL     1     -10.289   7.796  68.146  1.00  0.00    -0.248 A  
HETATM    4  C   UNL     1     -10.330   8.723  67.094  1.00  0.00    -0.364 A  
HETATM    5  C   UNL     1     -10.484  10.091  67.349  1.00  0.00    -0.316 A  
HETATM    6  C   UNL     1     -10.578  10.505  68.684  1.00  0.00    -0.226 A  
HETATM    7  C   UNL     1     -10.558   9.584  69.733  1.00  0.00    -0.257 A  
ENDROOT
BRANCH   5   8
HETATM    8  C   UNL     1     -10.439  11.048  66.230  1.00  0.00    -0.310 C  
HETATM    9  C   UNL     1     -10.411  12.383  66.348  1.00  0.00    -0.267 C  
HETATM   10  C   UNL     1     -10.488  13.314  67.542  1.00  0.00    -0.237 C  
HETATM   11  C   UNL     1      -9.062  13.896  67.706  1.00  0.00    -0.191 C  
HETATM   12  C   UNL     1      -8.937  14.880  66.518  1.00  0.00    -0.288 C  
HETATM   13  C   UNL     1     -10.311  14.759  65.814  1.00  0.00    -0.358 C  
HETATM   14  C   UNL     1     -10.622  15.886  64.858  1.00  0.00    -0.281 C  
HETATM   15  C   UNL     1     -11.302  14.518  66.990  1.00  0.00    -0.359 C  
HETATM   16  C   UNL     1     -10.296  13.354  65.200  1.00  0.00    -0.336 C  
HETATM   17  O   UNL     1     -10.176  13.056  64.026  1.00  0.00    -0.384 OA 
HETATM   18  C   UNL     1     -12.742  14.165  66.552  1.00  0.00     0.024 C  
HETATM   19  C   UNL     1     -11.421  15.673  68.001  1.00  0.00    -0.294 C  
ENDBRANCH   5   8
TORSDOF 1
ENDMDL
MODEL       69
REMARK 921   NORMALIZED FREE ENERGY PREDICTED BY IDOCK:   -4.36 KCAL/MOL
REMARK 922        TOTAL FREE ENERGY PREDICTED BY IDOCK:   -5.11 KCAL/MOL
REMARK 923 INTER-LIGAND FREE ENERGY PREDICTED BY IDOCK:   -4.82 KCAL/MOL
REMARK 924 INTRA-LIGAND FREE ENERGY PREDICTED BY IDOCK:   -0.29 KCAL/MOL
REMARK 927      BINDING AFFINITY PREDICTED BY RF-SCORE:    0.00 PKD
ROOT
HETATM    1  C   UNL     1     -10.885  16.748  67.742  1.00  0.00    -0.285 C  
HETATM    2  C   UNL     1     -10.823  15.267  67.512  1.00  0.00    -0.304 A  
HETATM    3  C   UNL     1     -11.854  14.580  66.865  1.00  0.00    -0.399 A  
HETATM    4  C   UNL     1     -11.792  13.189  66.700  1.00  0.00    -0.449 A  
HETATM    5  C   UNL     1     -10.696  12.458  67.178  1.00  0.00    -0.264 A  
HETATM    6  C   UNL     1      -9.677  13.157  67.837  1.00  0.00    -0.221 A  
HETATM    7  C   UNL     1      -9.726  14.544  67.985  1.00  0.00    -0.218 A  
ENDROOT
BRANCH   5   8
HETATM    8  C   UNL     1     -10.698  10.989  67.066  1.00  0.00    -0.319 C  
HETATM    9  C   UNL     1     -10.437  10.132  68.063  1.00  0.00    -0.249 C  
HETATM   10  C   UNL     1     -10.010  10.327  69.504  1.00  0.00    -0.252 C  
HETATM   11  C   UNL     1     -11.251   9.966  70.357  1.00  0.00    -0.379 C  
HETATM   12  C   UNL     1     -11.334   8.426  70.235  1.00  0.00    -0.131 C  
HETATM   13  C   UNL     1     -10.123   8.077  69.335  1.00  0.00    -0.197 C  
HETATM   14  C   UNL     1      -9.722   6.621  69.366  1.00  0.00    -0.153 C  
HETATM   15  C   UNL     1      -9.050   9.128  69.746  1.00  0.00    -0.173 C  
HETATM   16  C   UNL     1     -10.507   8.629  67.958  1.00  0.00    -0.197 C  
HETATM   17  O   UNL     1     -10.845   8.001  66.972  1.00  0.00    -0.283 OA 
HETATM   18  C   UNL     1      -7.786   9.135  68.857  1.00  0.00    -0.094 C  
HETATM   19  C   UNL     1      -8.561   9.038  71.203  1.00  0.00    -0.250 C  
ENDBRANCH   5   8
TORSDOF 1
ENDMDL
MODEL       70
REMARK 921   NORMALIZED FREE ENERGY PREDICTED BY IDOCK:   -4.34 KCAL/MOL
REMARK 922        TOTAL FREE ENERGY PREDICTED BY IDOCK:   -5.09 KCAL/MOL
REMARK 923 INTER-LIGAND FREE ENERGY PREDICTED BY IDOCK:   -4.83 KCAL/MOL
REMARK 924 INTRA-LIGAND FREE ENERGY PREDICTED BY IDOCK:   -0.25 KCAL/MOL
REMARK 927      BINDING AFFINITY PREDICTED BY RF-SCORE:    0.00 PKD
ROOT
HETATM    1  C   UNL     1      -9.738   5.836  68.651  1.00  0.00    -0.165 C  
HETATM    2  C   UNL     1      -9.785   7.108  67.857  1.00  0.00    -0.156 A  
HETATM    3  C   UNL     1     -10.643   8.158  68.202  1.00  0.00    -0.168 A  
HETATM    4  C   UNL     1     -10.701   9.319  67.418  1.00  0.00    -0.263 A  
HETATM    5  C   UNL     1      -9.901   9.455  66.276  1.00  0.00    -0.351 A  
HETATM    6  C   UNL     1      -9.057   8.391  65.935  1.00  0.00    -0.225 A  
HETATM    7  C   UNL     1      -8.982   7.241  66.724  1.00  0.00    -0.154 A  
ENDROOT
BRANCH   5   8
HETATM    8  C   UNL     1     -10.044  10.649  65.426  1.00  0.00    -0.356 C  
HETATM    9  C   UNL     1     -10.104  11.914  65.865  1.00  0.00    -0.265 C  
HETATM   10  C   UNL     1     -10.123  12.524  67.252  1.00  0.00    -0.216 C  
HETATM   11  C   UNL     1      -8.735  13.186  67.434  1.00  0.00    -0.206 C  
HETATM   12  C   UNL     1      -8.809  14.431  66.517  1.00  0.00    -0.122 C  
HETATM   13  C   UNL     1     -10.236  14.347  65.923  1.00  0.00    -0.341 C  
HETATM   14  C   UNL     1     -10.729  15.633  65.302  1.00  0.00    -0.444 C  
HETATM   15  C   UNL     1     -11.078  13.739  67.083  1.00  0.00    -0.315 C  
HETATM   16  C   UNL     1     -10.182  13.136  64.984  1.00  0.00    -0.278 C  
HETATM   17  O   UNL     1     -10.164  13.138  63.768  1.00  0.00    -0.307 OA 
HETATM   18  C   UNL     1     -12.526  13.362  66.694  1.00  0.00    -0.212 C  
HETATM   19  C   UNL     1     -11.175  14.605  68.352  1.00  0.00    -0.290 C  
ENDBRANCH   5   8
TORSDOF 1
ENDMDL
MODEL       71
REMARK 921   NORMALIZED FREE ENERGY PREDICTED BY IDOCK:   -4.32 KCAL/MOL
REMARK 922        TOTAL FREE ENERGY PREDICTED BY IDOCK:   -5.06 KCAL/MOL
REMARK 923 INTER-LIGAND FREE ENERGY PREDICTED BY IDOCK:   -4.57 KCAL/MOL
REMARK 924 INTRA-LIGAND FREE ENERGY PREDICTED BY IDOCK:   -0.49 KCAL/MOL
REMARK 927      BINDING AFFINITY PREDICTED BY RF-SCORE:    0.00 PKD
ROOT
HETATM    1  C   UNL     1      -7.799   9.707  63.021  1.00  0.00    -0.127 C  
HETATM    2  C   UNL     1      -8.458   9.159  64.252  1.00  0.00    -0.200 A  
HETATM    3  C   UNL     1      -8.127   7.900  64.765  1.00  0.00    -0.141 A  
HETATM    4  C   UNL     1      -8.788   7.392  65.892  1.00  0.00    -0.149 A  
HETATM    5  C   UNL     1      -9.791   8.134  66.530  1.00  0.00    -0.309 A  
HETATM    6  C   UNL     1     -10.122   9.386  65.999  1.00  0.00    -0.302 A  
HETATM    7  C   UNL     1      -9.452   9.903  64.888  1.00  0.00    -0.355 A  
ENDROOT
BRANCH   5   8
HETATM    8  C   UNL     1     -10.526   7.539  67.660  1.00  0.00    -0.319 C  
HETATM    9  C   UNL     1     -10.280   7.772  68.957  1.00  0.00    -0.213 C  
HETATM   10  C   UNL     1      -9.220   8.583  69.676  1.00  0.00    -0.157 C  
HETATM   11  C   UNL     1      -9.957   9.824  70.237  1.00  0.00    -0.309 C  
HETATM   12  C   UNL     1     -10.792   9.248  71.406  1.00  0.00    -0.434 C  
HETATM   13  C   UNL     1     -10.430   7.742  71.390  1.00  0.00    -0.237 C  
HETATM   14  C   UNL     1     -10.787   7.002  72.657  1.00  0.00    -0.303 C  
HETATM   15  C   UNL     1      -8.937   7.733  70.947  1.00  0.00    -0.148 C  
HETATM   16  C   UNL     1     -11.081   7.213  70.107  1.00  0.00    -0.272 C  
HETATM   17  O   UNL     1     -12.071   6.512  70.009  1.00  0.00    -0.282 OA 
HETATM   18  C   UNL     1      -8.364   6.326  70.657  1.00  0.00    -0.133 C  
HETATM   19  C   UNL     1      -7.956   8.415  71.917  1.00  0.00    -0.180 C  
ENDBRANCH   5   8
TORSDOF 1
ENDMDL
MODEL       72
REMARK 921   NORMALIZED FREE ENERGY PREDICTED BY IDOCK:   -4.31 KCAL/MOL
REMARK 922        TOTAL FREE ENERGY PREDICTED BY IDOCK:   -5.06 KCAL/MOL
REMARK 923 INTER-LIGAND FREE ENERGY PREDICTED BY IDOCK:   -4.57 KCAL/MOL
REMARK 924 INTRA-LIGAND FREE ENERGY PREDICTED BY IDOCK:   -0.48 KCAL/MOL
REMARK 927      BINDING AFFINITY PREDICTED BY RF-SCORE:    0.00 PKD
ROOT
HETATM    1  C   UNL     1      -8.626   6.076  65.799  1.00  0.00    -0.155 C  
HETATM    2  C   UNL     1      -8.670   7.547  66.093  1.00  0.00    -0.174 A  
HETATM    3  C   UNL     1      -8.174   8.492  65.190  1.00  0.00    -0.153 A  
HETATM    4  C   UNL     1      -8.187   9.858  65.507  1.00  0.00    -0.136 A  
HETATM    5  C   UNL     1      -8.697  10.305  66.732  1.00  0.00    -0.132 A  
HETATM    6  C   UNL     1      -9.177   9.347  67.633  1.00  0.00    -0.142 A  
HETATM    7  C   UNL     1      -9.184   7.988  67.313  1.00  0.00    -0.164 A  
ENDROOT
BRANCH   5   8
HETATM    8  C   UNL     1      -8.620  11.736  67.072  1.00  0.00    -0.173 C  
HETATM    9  C   UNL     1      -9.647  12.597  67.055  1.00  0.00    -0.219 C  
HETATM   10  C   UNL     1     -11.101  12.459  66.648  1.00  0.00    -0.336 C  
HETATM   11  C   UNL     1     -11.907  12.494  67.970  1.00  0.00    -0.382 C  
HETATM   12  C   UNL     1     -11.818  13.977  68.405  1.00  0.00    -0.397 C  
HETATM   13  C   UNL     1     -10.979  14.626  67.276  1.00  0.00    -0.317 C  
HETATM   14  C   UNL     1     -11.062  16.133  67.228  1.00  0.00    -0.091 C  
HETATM   15  C   UNL     1     -11.412  13.840  66.004  1.00  0.00    -0.336 C  
HETATM   16  C   UNL     1      -9.574  14.045  67.470  1.00  0.00    -0.228 C  
HETATM   17  O   UNL     1      -8.589  14.610  67.908  1.00  0.00    -0.153 OA 
HETATM   18  C   UNL     1     -10.579  14.156  64.741  1.00  0.00    -0.439 C  
HETATM   19  C   UNL     1     -12.891  13.993  65.604  1.00  0.00    -0.442 C  
ENDBRANCH   5   8
TORSDOF 1
ENDMDL
MODEL       73
REMARK 921   NORMALIZED FREE ENERGY PREDICTED BY IDOCK:   -4.30 KCAL/MOL
REMARK 922        TOTAL FREE ENERGY PREDICTED BY IDOCK:   -5.04 KCAL/MOL
REMARK 923 INTER-LIGAND FREE ENERGY PREDICTED BY IDOCK:   -4.91 KCAL/MOL
REMARK 924 INTRA-LIGAND FREE ENERGY PREDICTED BY IDOCK:   -0.13 KCAL/MOL
REMARK 927      BINDING AFFINITY PREDICTED BY RF-SCORE:    0.00 PKD
ROOT
HETATM    1  C   UNL     1     -13.354  13.286  72.715  1.00  0.00    -0.229 C  
HETATM    2  C   UNL     1     -12.884  12.671  71.430  1.00  0.00    -0.358 A  
HETATM    3  C   UNL     1     -12.969  11.294  71.200  1.00  0.00    -0.369 A  
HETATM    4  C   UNL     1     -12.482  10.738  70.008  1.00  0.00    -0.317 A  
HETATM    5  C   UNL     1     -11.903  11.547  69.023  1.00  0.00    -0.408 A  
HETATM    6  C   UNL     1     -11.811  12.922  69.272  1.00  0.00    -0.363 A  
HETATM    7  C   UNL     1     -12.312  13.482  70.448  1.00  0.00    -0.397 A  
ENDROOT
BRANCH   5   8
HETATM    8  C   UNL     1     -11.324  10.925  67.819  1.00  0.00    -0.366 C  
HETATM    9  C   UNL     1     -11.095  11.548  66.655  1.00  0.00    -0.355 C  
HETATM   10  C   UNL     1     -11.383  12.952  66.163  1.00  0.00    -0.356 C  
HETATM   11  C   UNL     1     -10.007  13.659  66.095  1.00  0.00    -0.314 C  
HETATM   12  C   UNL     1      -9.327  13.005  64.869  1.00  0.00     0.650 C  
HETATM   13  C   UNL     1     -10.397  12.004  64.364  1.00  0.00    -0.342 C  
HETATM   14  C   UNL     1     -10.171  11.509  62.956  1.00  0.00    -0.312 C  
HETATM   15  C   UNL     1     -11.742  12.728  64.667  1.00  0.00    -0.405 C  
HETATM   16  C   UNL     1     -10.439  10.922  65.449  1.00  0.00    -0.223 C  
HETATM   17  O   UNL     1     -10.002   9.788  65.387  1.00  0.00    -0.320 OA 
HETATM   18  C   UNL     1     -13.001  11.861  64.437  1.00  0.00     0.193 C  
HETATM   19  C   UNL     1     -11.970  14.044  63.902  1.00  0.00    -0.322 C  
ENDBRANCH   5   8
TORSDOF 1
ENDMDL
MODEL       74
REMARK 921   NORMALIZED FREE ENERGY PREDICTED BY IDOCK:   -4.24 KCAL/MOL
REMARK 922        TOTAL FREE ENERGY PREDICTED BY IDOCK:   -4.98 KCAL/MOL
REMARK 923 INTER-LIGAND FREE ENERGY PREDICTED BY IDOCK:   -4.67 KCAL/MOL
REMARK 924 INTRA-LIGAND FREE ENERGY PREDICTED BY IDOCK:   -0.30 KCAL/MOL
REMARK 927      BINDING AFFINITY PREDICTED BY RF-SCORE:    0.00 PKD
ROOT
HETATM    1  C   UNL     1     -10.721  15.523  66.928  1.00  0.00    -0.317 C  
HETATM    2  C   UNL     1     -11.002  14.194  67.566  1.00  0.00    -0.292 A  
HETATM    3  C   UNL     1     -11.288  14.080  68.930  1.00  0.00    -0.314 A  
HETATM    4  C   UNL     1     -11.504  12.822  69.510  1.00  0.00    -0.293 A  
HETATM    5  C   UNL     1     -11.440  11.654  68.739  1.00  0.00    -0.346 A  
HETATM    6  C   UNL     1     -11.138  11.783  67.377  1.00  0.00    -0.338 A  
HETATM    7  C   UNL     1     -10.942  13.034  66.792  1.00  0.00    -0.299 A  
ENDROOT
BRANCH   5   8
HETATM    8  C   UNL     1     -11.587  10.342  69.392  1.00  0.00    -0.272 C  
HETATM    9  C   UNL     1     -10.747   9.307  69.257  1.00  0.00    -0.211 C  
HETATM   10  C   UNL     1      -9.507   9.089  68.413  1.00  0.00    -0.154 C  
HETATM   11  C   UNL     1      -8.319   9.116  69.405  1.00  0.00    -0.124 C  
HETATM   12  C   UNL     1      -8.453   7.773  70.162  1.00  0.00    -0.134 C  
HETATM   13  C   UNL     1      -9.697   7.122  69.508  1.00  0.00    -0.157 C  
HETATM   14  C   UNL     1      -9.834   5.640  69.770  1.00  0.00    -0.245 C  
HETATM   15  C   UNL     1      -9.613   7.587  68.025  1.00  0.00    -0.156 C  
HETATM   16  C   UNL     1     -10.868   7.990  69.982  1.00  0.00    -0.235 C  
HETATM   17  O   UNL     1     -11.716   7.709  70.809  1.00  0.00    -0.287 OA 
HETATM   18  C   UNL     1     -10.853   7.235  67.172  1.00  0.00    -0.378 C  
HETATM   19  C   UNL     1      -8.386   7.083  67.243  1.00  0.00    -0.122 C  
ENDBRANCH   5   8
TORSDOF 1
ENDMDL
MODEL       75
REMARK 921   NORMALIZED FREE ENERGY PREDICTED BY IDOCK:   -4.21 KCAL/MOL
REMARK 922        TOTAL FREE ENERGY PREDICTED BY IDOCK:   -4.94 KCAL/MOL
REMARK 923 INTER-LIGAND FREE ENERGY PREDICTED BY IDOCK:   -4.85 KCAL/MOL
REMARK 924 INTRA-LIGAND FREE ENERGY PREDICTED BY IDOCK:   -0.09 KCAL/MOL
REMARK 927      BINDING AFFINITY PREDICTED BY RF-SCORE:    0.00 PKD
ROOT
HETATM    1  C   UNL     1     -11.561  12.297  66.845  1.00  0.00    -0.427 C  
HETATM    2  C   UNL     1     -11.383  11.465  68.080  1.00  0.00    -0.374 A  
HETATM    3  C   UNL     1     -10.621  10.293  68.074  1.00  0.00    -0.272 A  
HETATM    4  C   UNL     1     -10.506   9.510  69.231  1.00  0.00    -0.226 A  
HETATM    5  C   UNL     1     -11.150   9.884  70.418  1.00  0.00    -0.382 A  
HETATM    6  C   UNL     1     -11.922  11.052  70.406  1.00  0.00    -0.459 A  
HETATM    7  C   UNL     1     -12.022  11.845  69.262  1.00  0.00    -0.342 A  
ENDROOT
BRANCH   5   8
HETATM    8  C   UNL     1     -11.081   8.998  71.592  1.00  0.00    -0.433 C  
HETATM    9  C   UNL     1     -10.076   8.158  71.876  1.00  0.00    -0.285 C  
HETATM   10  C   UNL     1      -8.806   7.785  71.138  1.00  0.00    -0.143 C  
HETATM   11  C   UNL     1      -7.653   8.440  71.938  1.00  0.00    -0.146 C  
HETATM   12  C   UNL     1      -7.567   7.575  73.218  1.00  0.00    -0.118 C  
HETATM   13  C   UNL     1      -8.673   6.513  73.001  1.00  0.00    -0.130 C  
HETATM   14  C   UNL     1      -8.560   5.304  73.900  1.00  0.00    -0.112 C  
HETATM   15  C   UNL     1      -8.649   6.272  71.463  1.00  0.00    -0.131 C  
HETATM   16  C   UNL     1      -9.981   7.304  73.116  1.00  0.00    -0.249 C  
HETATM   17  O   UNL     1     -10.780   7.292  74.034  1.00  0.00    -0.288 OA 
HETATM   18  C   UNL     1      -9.800   5.385  70.936  1.00  0.00    -0.249 C  
HETATM   19  C   UNL     1      -7.344   5.674  70.908  1.00  0.00    -0.084 C  
ENDBRANCH   5   8
TORSDOF 1
ENDMDL
MODEL       76
REMARK 921   NORMALIZED FREE ENERGY PREDICTED BY IDOCK:   -4.19 KCAL/MOL
REMARK 922        TOTAL FREE ENERGY PREDICTED BY IDOCK:   -4.93 KCAL/MOL
REMARK 923 INTER-LIGAND FREE ENERGY PREDICTED BY IDOCK:   -4.78 KCAL/MOL
REMARK 924 INTRA-LIGAND FREE ENERGY PREDICTED BY IDOCK:   -0.15 KCAL/MOL
REMARK 927      BINDING AFFINITY PREDICTED BY RF-SCORE:    0.00 PKD
ROOT
HETATM    1  C   UNL     1     -12.263  14.638  64.189  1.00  0.00    -0.343 C  
HETATM    2  C   UNL     1     -11.633  13.330  64.566  1.00  0.00    -0.407 A  
HETATM    3  C   UNL     1     -10.959  12.541  63.628  1.00  0.00    -0.507 A  
HETATM    4  C   UNL     1     -10.416  11.301  63.997  1.00  0.00    -0.440 A  
HETATM    5  C   UNL     1     -10.536  10.827  65.309  1.00  0.00    -0.282 A  
HETATM    6  C   UNL     1     -11.225  11.621  66.235  1.00  0.00    -0.332 A  
HETATM    7  C   UNL     1     -11.749  12.864  65.877  1.00  0.00    -0.449 A  
ENDROOT
BRANCH   5   8
HETATM    8  C   UNL     1     -10.031   9.485  65.646  1.00  0.00    -0.269 C  
HETATM    9  C   UNL     1      -9.668   9.074  66.869  1.00  0.00    -0.260 C  
HETATM   10  C   UNL     1      -9.575   9.778  68.208  1.00  0.00    -0.155 C  
HETATM   11  C   UNL     1     -10.748   9.222  69.052  1.00  0.00    -0.189 C  
HETATM   12  C   UNL     1     -10.293   7.784  69.395  1.00  0.00    -0.219 C  
HETATM   13  C   UNL     1      -8.903   7.682  68.718  1.00  0.00    -0.131 C  
HETATM   14  C   UNL     1      -8.052   6.536  69.212  1.00  0.00    -0.112 C  
HETATM   15  C   UNL     1      -8.325   9.121  68.858  1.00  0.00    -0.124 C  
HETATM   16  C   UNL     1      -9.216   7.677  67.217  1.00  0.00    -0.131 C  
HETATM   17  O   UNL     1      -9.157   6.737  66.448  1.00  0.00    -0.148 OA 
HETATM   18  C   UNL     1      -7.006   9.359  68.088  1.00  0.00    -0.075 C  
HETATM   19  C   UNL     1      -8.082   9.597  70.302  1.00  0.00    -0.206 C  
ENDBRANCH   5   8
TORSDOF 1
ENDMDL
MODEL       77
REMARK 921   NORMALIZED FREE ENERGY PREDICTED BY IDOCK:   -4.19 KCAL/MOL
REMARK 922        TOTAL FREE ENERGY PREDICTED BY IDOCK:   -4.93 KCAL/MOL
REMARK 923 INTER-LIGAND FREE ENERGY PREDICTED BY IDOCK:   -4.49 KCAL/MOL
REMARK 924 INTRA-LIGAND FREE ENERGY PREDICTED BY IDOCK:   -0.44 KCAL/MOL
REMARK 927      BINDING AFFINITY PREDICTED BY RF-SCORE:    0.00 PKD
ROOT
HETATM    1  C   UNL     1      -6.971  21.023  66.728  1.00  0.00    -0.290 C  
HETATM    2  C   UNL     1      -7.384  19.613  67.030  1.00  0.00    -0.239 A  
HETATM    3  C   UNL     1      -7.842  19.237  68.297  1.00  0.00    -0.354 A  
HETATM    4  C   UNL     1      -8.181  17.903  68.566  1.00  0.00    -0.300 A  
HETATM    5  C   UNL     1      -8.069  16.920  67.574  1.00  0.00    -0.188 A  
HETATM    6  C   UNL     1      -7.596  17.308  66.315  1.00  0.00    -0.360 A  
HETATM    7  C   UNL     1      -7.277  18.638  66.037  1.00  0.00    -0.293 A  
ENDROOT
BRANCH   5   8
HETATM    8  C   UNL     1      -8.351  15.514  67.910  1.00  0.00    -0.148 C  
HETATM    9  C   UNL     1      -9.557  15.011  68.208  1.00  0.00    -0.210 C  
HETATM   10  C   UNL     1     -10.925  15.643  68.372  1.00  0.00    -0.308 C  
HETATM   11  C   UNL     1     -11.739  15.198  67.131  1.00  0.00    -0.141 C  
HETATM   12  C   UNL     1     -12.023  13.702  67.406  1.00  0.00    -0.413 C  
HETATM   13  C   UNL     1     -11.350  13.461  68.780  1.00  0.00    -0.332 C  
HETATM   14  C   UNL     1     -11.799  12.201  69.481  1.00  0.00    -0.386 C  
HETATM   15  C   UNL     1     -11.554  14.812  69.526  1.00  0.00    -0.339 C  
HETATM   16  C   UNL     1      -9.849  13.557  68.484  1.00  0.00    -0.189 C  
HETATM   17  O   UNL     1      -9.040  12.649  68.437  1.00  0.00    -0.190 OA 
HETATM   18  C   UNL     1     -10.801  14.921  70.872  1.00  0.00     0.015 C  
HETATM   19  C   UNL     1     -13.018  15.196  69.810  1.00  0.00     0.177 C  
ENDBRANCH   5   8
TORSDOF 1
ENDMDL
MODEL       78
REMARK 921   NORMALIZED FREE ENERGY PREDICTED BY IDOCK:   -4.18 KCAL/MOL
REMARK 922        TOTAL FREE ENERGY PREDICTED BY IDOCK:   -4.92 KCAL/MOL
REMARK 923 INTER-LIGAND FREE ENERGY PREDICTED BY IDOCK:   -4.83 KCAL/MOL
REMARK 924 INTRA-LIGAND FREE ENERGY PREDICTED BY IDOCK:   -0.09 KCAL/MOL
REMARK 927      BINDING AFFINITY PREDICTED BY RF-SCORE:    0.00 PKD
ROOT
HETATM    1  C   UNL     1      -7.511   8.380  63.005  1.00  0.00    -0.109 C  
HETATM    2  C   UNL     1      -8.372   8.632  64.207  1.00  0.00    -0.138 A  
HETATM    3  C   UNL     1      -9.103   9.816  64.353  1.00  0.00    -0.296 A  
HETATM    4  C   UNL     1      -9.866  10.046  65.506  1.00  0.00    -0.373 A  
HETATM    5  C   UNL     1      -9.915   9.097  66.535  1.00  0.00    -0.359 A  
HETATM    6  C   UNL     1      -9.168   7.922  66.383  1.00  0.00    -0.241 A  
HETATM    7  C   UNL     1      -8.423   7.681  65.227  1.00  0.00    -0.090 A  
ENDROOT
BRANCH   5   8
HETATM    8  C   UNL     1     -10.657   9.403  67.771  1.00  0.00    -0.317 C  
HETATM    9  C   UNL     1     -10.438   8.844  68.969  1.00  0.00    -0.231 C  
HETATM   10  C   UNL     1      -9.501   7.749  69.439  1.00  0.00    -0.156 C  
HETATM   11  C   UNL     1      -8.410   8.466  70.272  1.00  0.00    -0.124 C  
HETATM   12  C   UNL     1      -9.150   8.859  71.572  1.00  0.00    -0.299 C  
HETATM   13  C   UNL     1     -10.581   8.311  71.343  1.00  0.00    -0.279 C  
HETATM   14  C   UNL     1     -11.414   8.200  72.598  1.00  0.00    -0.454 C  
HETATM   15  C   UNL     1     -10.345   7.012  70.518  1.00  0.00    -0.218 C  
HETATM   16  C   UNL     1     -11.156   9.211  70.243  1.00  0.00    -0.239 C  
HETATM   17  O   UNL     1     -11.996  10.084  70.359  1.00  0.00    -0.268 OA 
HETATM   18  C   UNL     1     -11.634   6.353  69.978  1.00  0.00    -0.446 C  
HETATM   19  C   UNL     1      -9.556   5.905  71.241  1.00  0.00    -0.195 C  
ENDBRANCH   5   8
TORSDOF 1
ENDMDL
MODEL       79
REMARK 921   NORMALIZED FREE ENERGY PREDICTED BY IDOCK:   -4.17 KCAL/MOL
REMARK 922        TOTAL FREE ENERGY PREDICTED BY IDOCK:   -4.90 KCAL/MOL
REMARK 923 INTER-LIGAND FREE ENERGY PREDICTED BY IDOCK:   -4.51 KCAL/MOL
REMARK 924 INTRA-LIGAND FREE ENERGY PREDICTED BY IDOCK:   -0.39 KCAL/MOL
REMARK 927      BINDING AFFINITY PREDICTED BY RF-SCORE:    0.00 PKD
ROOT
HETATM    1  C   UNL     1     -14.411   8.742  72.570  1.00  0.00    -0.342 C  
HETATM    2  C   UNL     1     -13.063   8.457  71.975  1.00  0.00    -0.379 A  
HETATM    3  C   UNL     1     -12.126   9.473  71.761  1.00  0.00    -0.459 A  
HETATM    4  C   UNL     1     -10.889   9.188  71.163  1.00  0.00    -0.381 A  
HETATM    5  C   UNL     1     -10.566   7.883  70.771  1.00  0.00    -0.222 A  
HETATM    6  C   UNL     1     -11.519   6.878  70.979  1.00  0.00    -0.358 A  
HETATM    7  C   UNL     1     -12.743   7.154  71.591  1.00  0.00    -0.415 A  
ENDROOT
BRANCH   5   8
HETATM    8  C   UNL     1      -9.295   7.629  70.070  1.00  0.00    -0.154 C  
HETATM    9  C   UNL     1      -9.175   7.127  68.833  1.00  0.00    -0.137 C  
HETATM   10  C   UNL     1     -10.186   6.613  67.827  1.00  0.00    -0.207 C  
HETATM   11  C   UNL     1     -10.243   7.685  66.711  1.00  0.00    -0.333 C  
HETATM   12  C   UNL     1      -8.900   7.498  65.966  1.00  0.00    -0.179 C  
HETATM   13  C   UNL     1      -8.230   6.331  66.732  1.00  0.00    -0.110 C  
HETATM   14  C   UNL     1      -7.090   5.673  65.991  1.00  0.00    -0.068 C  
HETATM   15  C   UNL     1      -9.431   5.434  67.150  1.00  0.00    -0.127 C  
HETATM   16  C   UNL     1      -7.874   6.933  68.096  1.00  0.00    -0.114 C  
HETATM   17  O   UNL     1      -6.771   7.240  68.509  1.00  0.00    -0.053 OA 
HETATM   18  C   UNL     1      -9.064   4.278  68.109  1.00  0.00    -0.168 C  
HETATM   19  C   UNL     1     -10.223   4.806  65.988  1.00  0.00    -0.308 C  
ENDBRANCH   5   8
TORSDOF 1
ENDMDL
MODEL       80
REMARK 921   NORMALIZED FREE ENERGY PREDICTED BY IDOCK:   -4.16 KCAL/MOL
REMARK 922        TOTAL FREE ENERGY PREDICTED BY IDOCK:   -4.89 KCAL/MOL
REMARK 923 INTER-LIGAND FREE ENERGY PREDICTED BY IDOCK:   -4.90 KCAL/MOL
REMARK 924 INTRA-LIGAND FREE ENERGY PREDICTED BY IDOCK:    0.01 KCAL/MOL
REMARK 927      BINDING AFFINITY PREDICTED BY RF-SCORE:    0.00 PKD
ROOT
HETATM    1  C   UNL     1     -12.214  14.017  64.279  1.00  0.00    -0.453 C  
HETATM    2  C   UNL     1     -11.790  13.075  65.367  1.00  0.00    -0.428 A  
HETATM    3  C   UNL     1     -11.172  11.853  65.082  1.00  0.00    -0.346 A  
HETATM    4  C   UNL     1     -10.826  10.971  66.116  1.00  0.00    -0.212 A  
HETATM    5  C   UNL     1     -11.088  11.293  67.453  1.00  0.00    -0.358 A  
HETATM    6  C   UNL     1     -11.720  12.514  67.723  1.00  0.00    -0.419 A  
HETATM    7  C   UNL     1     -12.049  13.403  66.699  1.00  0.00    -0.429 A  
ENDROOT
BRANCH   5   8
HETATM    8  C   UNL     1     -10.790  10.311  68.510  1.00  0.00    -0.281 C  
HETATM    9  C   UNL     1     -10.052   9.203  68.357  1.00  0.00    -0.220 C  
HETATM   10  C   UNL     1      -9.384   8.568  67.153  1.00  0.00    -0.191 C  
HETATM   11  C   UNL     1      -7.866   8.797  67.353  1.00  0.00    -0.098 C  
HETATM   12  C   UNL     1      -7.502   7.820  68.496  1.00  0.00    -0.103 C  
HETATM   13  C   UNL     1      -8.852   7.131  68.814  1.00  0.00    -0.130 C  
HETATM   14  C   UNL     1      -8.728   5.855  69.613  1.00  0.00    -0.128 C  
HETATM   15  C   UNL     1      -9.553   7.047  67.427  1.00  0.00    -0.164 C  
HETATM   16  C   UNL     1      -9.695   8.237  69.459  1.00  0.00    -0.174 C  
HETATM   17  O   UNL     1      -9.996   8.356  70.632  1.00  0.00    -0.181 OA 
HETATM   18  C   UNL     1     -11.022   6.568  67.479  1.00  0.00    -0.444 C  
HETATM   19  C   UNL     1      -8.842   6.169  66.380  1.00  0.00    -0.144 C  
ENDBRANCH   5   8
TORSDOF 1
ENDMDL
MODEL       81
REMARK 921   NORMALIZED FREE ENERGY PREDICTED BY IDOCK:   -4.14 KCAL/MOL
REMARK 922        TOTAL FREE ENERGY PREDICTED BY IDOCK:   -4.87 KCAL/MOL
REMARK 923 INTER-LIGAND FREE ENERGY PREDICTED BY IDOCK:   -4.35 KCAL/MOL
REMARK 924 INTRA-LIGAND FREE ENERGY PREDICTED BY IDOCK:   -0.52 KCAL/MOL
REMARK 927      BINDING AFFINITY PREDICTED BY RF-SCORE:    0.00 PKD
ROOT
HETATM    1  C   UNL     1      -7.566   9.312  64.975  1.00  0.00    -0.107 C  
HETATM    2  C   UNL     1      -8.051  10.440  65.836  1.00  0.00    -0.149 A  
HETATM    3  C   UNL     1      -9.295  11.044  65.624  1.00  0.00    -0.239 A  
HETATM    4  C   UNL     1      -9.708  12.126  66.414  1.00  0.00    -0.243 A  
HETATM    5  C   UNL     1      -8.886  12.625  67.433  1.00  0.00    -0.189 A  
HETATM    6  C   UNL     1      -7.637  12.020  67.625  1.00  0.00    -0.136 A  
HETATM    7  C   UNL     1      -7.232  10.930  66.854  1.00  0.00    -0.124 A  
ENDROOT
BRANCH   5   8
HETATM    8  C   UNL     1      -9.309  13.815  68.190  1.00  0.00    -0.211 C  
HETATM    9  C   UNL     1      -9.199  15.084  67.772  1.00  0.00    -0.181 C  
HETATM   10  C   UNL     1      -8.592  15.711  66.533  1.00  0.00    -0.335 C  
HETATM   11  C   UNL     1      -9.793  16.194  65.682  1.00  0.00    -0.290 C  
HETATM   12  C   UNL     1     -10.314  17.424  66.462  1.00  0.00    -0.312 C  
HETATM   13  C   UNL     1      -9.346  17.515  67.667  1.00  0.00    -0.244 C  
HETATM   14  C   UNL     1      -9.367  18.843  68.385  1.00  0.00    -0.396 C  
HETATM   15  C   UNL     1      -7.987  17.036  67.077  1.00  0.00    -0.234 C  
HETATM   16  C   UNL     1      -9.697  16.293  68.524  1.00  0.00    -0.224 C  
HETATM   17  O   UNL     1     -10.293  16.274  69.585  1.00  0.00    -0.275 OA 
HETATM   18  C   UNL     1      -6.867  16.841  68.125  1.00  0.00    -0.153 C  
HETATM   19  C   UNL     1      -7.399  17.925  65.967  1.00  0.00    -0.306 C  
ENDBRANCH   5   8
TORSDOF 1
ENDMDL
MODEL       82
REMARK 921   NORMALIZED FREE ENERGY PREDICTED BY IDOCK:   -4.13 KCAL/MOL
REMARK 922        TOTAL FREE ENERGY PREDICTED BY IDOCK:   -4.87 KCAL/MOL
REMARK 923 INTER-LIGAND FREE ENERGY PREDICTED BY IDOCK:   -4.38 KCAL/MOL
REMARK 924 INTRA-LIGAND FREE ENERGY PREDICTED BY IDOCK:   -0.48 KCAL/MOL
REMARK 927      BINDING AFFINITY PREDICTED BY RF-SCORE:    0.00 PKD
ROOT
HETATM    1  C   UNL     1     -12.968  15.385  73.481  1.00  0.00    -0.659 C  
HETATM    2  C   UNL     1     -12.463  15.311  72.070  1.00  0.00    -0.430 A  
HETATM    3  C   UNL     1     -11.096  15.262  71.780  1.00  0.00    -0.235 A  
HETATM    4  C   UNL     1     -10.649  15.236  70.451  1.00  0.00    -0.225 A  
HETATM    5  C   UNL     1     -11.560  15.257  69.387  1.00  0.00    -0.347 A  
HETATM    6  C   UNL     1     -12.925  15.321  69.691  1.00  0.00     0.304 A  
HETATM    7  C   UNL     1     -13.375  15.326  71.013  1.00  0.00    -0.537 A  
ENDROOT
BRANCH   5   8
HETATM    8  C   UNL     1     -11.059  15.315  68.003  1.00  0.00    -0.312 C  
HETATM    9  C   UNL     1     -11.050  14.294  67.134  1.00  0.00    -0.318 C  
HETATM   10  C   UNL     1     -11.437  12.834  67.257  1.00  0.00    -0.393 C  
HETATM   11  C   UNL     1     -12.754  12.685  66.457  1.00  0.00     1.073 C  
HETATM   12  C   UNL     1     -12.294  12.789  64.984  1.00  0.00    -0.559 C  
HETATM   13  C   UNL     1     -10.761  12.975  65.106  1.00  0.00    -0.324 C  
HETATM   14  C   UNL     1      -9.998  12.712  63.829  1.00  0.00    -0.043 C  
HETATM   15  C   UNL     1     -10.390  12.122  66.354  1.00  0.00    -0.246 C  
HETATM   16  C   UNL     1     -10.598  14.379  65.698  1.00  0.00    -0.329 C  
HETATM   17  O   UNL     1     -10.220  15.387  65.130  1.00  0.00    -0.364 OA 
HETATM   18  C   UNL     1      -8.927  12.282  66.828  1.00  0.00    -0.209 C  
HETATM   19  C   UNL     1     -10.645  10.610  66.221  1.00  0.00    -0.229 C  
ENDBRANCH   5   8
TORSDOF 1
ENDMDL
MODEL       83
REMARK 921   NORMALIZED FREE ENERGY PREDICTED BY IDOCK:   -4.10 KCAL/MOL
REMARK 922        TOTAL FREE ENERGY PREDICTED BY IDOCK:   -4.84 KCAL/MOL
REMARK 923 INTER-LIGAND FREE ENERGY PREDICTED BY IDOCK:   -4.35 KCAL/MOL
REMARK 924 INTRA-LIGAND FREE ENERGY PREDICTED BY IDOCK:   -0.49 KCAL/MOL
REMARK 927      BINDING AFFINITY PREDICTED BY RF-SCORE:    0.00 PKD
ROOT
HETATM    1  C   UNL     1     -10.972  19.221  67.675  1.00  0.00    -0.382 C  
HETATM    2  C   UNL     1     -10.290  17.890  67.556  1.00  0.00    -0.383 A  
HETATM    3  C   UNL     1      -9.817  17.204  68.679  1.00  0.00    -0.300 A  
HETATM    4  C   UNL     1      -9.144  15.982  68.538  1.00  0.00    -0.203 A  
HETATM    5  C   UNL     1      -8.933  15.421  67.272  1.00  0.00    -0.213 A  
HETATM    6  C   UNL     1      -9.399  16.126  66.155  1.00  0.00    -0.372 A  
HETATM    7  C   UNL     1     -10.087  17.332  66.293  1.00  0.00    -0.323 A  
ENDROOT
BRANCH   5   8
HETATM    8  C   UNL     1      -8.149  14.180  67.148  1.00  0.00    -0.139 C  
HETATM    9  C   UNL     1      -8.657  12.954  66.959  1.00  0.00    -0.171 C  
HETATM   10  C   UNL     1     -10.076  12.427  66.886  1.00  0.00    -0.230 C  
HETATM   11  C   UNL     1     -10.312  12.073  65.397  1.00  0.00    -0.301 C  
HETATM   12  C   UNL     1      -9.465  10.794  65.193  1.00  0.00    -0.271 C  
HETATM   13  C   UNL     1      -8.849  10.552  66.593  1.00  0.00    -0.145 C  
HETATM   14  C   UNL     1      -8.296   9.162  66.798  1.00  0.00    -0.123 C  
HETATM   15  C   UNL     1      -9.963  11.035  67.568  1.00  0.00    -0.199 C  
HETATM   16  C   UNL     1      -7.845  11.698  66.765  1.00  0.00    -0.130 C  
HETATM   17  O   UNL     1      -6.631  11.636  66.719  1.00  0.00    -0.138 OA 
HETATM   18  C   UNL     1      -9.536  11.086  69.053  1.00  0.00    -0.136 C  
HETATM   19  C   UNL     1     -11.278  10.235  67.517  1.00  0.00    -0.192 C  
ENDBRANCH   5   8
TORSDOF 1
ENDMDL
MODEL       84
REMARK 921   NORMALIZED FREE ENERGY PREDICTED BY IDOCK:   -4.10 KCAL/MOL
REMARK 922        TOTAL FREE ENERGY PREDICTED BY IDOCK:   -4.83 KCAL/MOL
REMARK 923 INTER-LIGAND FREE ENERGY PREDICTED BY IDOCK:   -4.47 KCAL/MOL
REMARK 924 INTRA-LIGAND FREE ENERGY PREDICTED BY IDOCK:   -0.36 KCAL/MOL
REMARK 927      BINDING AFFINITY PREDICTED BY RF-SCORE:    0.00 PKD
ROOT
HETATM    1  C   UNL     1      -9.612   3.043  71.607  1.00  0.00    -0.221 C  
HETATM    2  C   UNL     1      -9.909   4.415  71.080  1.00  0.00    -0.260 A  
HETATM    3  C   UNL     1     -10.164   5.492  71.935  1.00  0.00    -0.251 A  
HETATM    4  C   UNL     1     -10.482   6.756  71.416  1.00  0.00    -0.238 A  
HETATM    5  C   UNL     1     -10.549   6.967  70.033  1.00  0.00    -0.251 A  
HETATM    6  C   UNL     1     -10.305   5.877  69.189  1.00  0.00    -0.303 A  
HETATM    7  C   UNL     1      -9.969   4.623  69.701  1.00  0.00    -0.281 A  
ENDROOT
BRANCH   5   8
HETATM    8  C   UNL     1     -10.968   8.283  69.519  1.00  0.00    -0.051 C  
HETATM    9  C   UNL     1     -10.342   8.979  68.560  1.00  0.00    -0.233 C  
HETATM   10  C   UNL     1      -9.063   8.742  67.783  1.00  0.00    -0.143 C  
HETATM   11  C   UNL     1      -9.512   8.371  66.348  1.00  0.00    -0.293 C  
HETATM   12  C   UNL     1     -10.014   9.716  65.770  1.00  0.00    -0.342 C  
HETATM   13  C   UNL     1      -9.784  10.709  66.936  1.00  0.00    -0.213 C  
HETATM   14  C   UNL     1      -9.814  12.163  66.530  1.00  0.00    -0.232 C  
HETATM   15  C   UNL     1      -8.489  10.177  67.616  1.00  0.00    -0.118 C  
HETATM   16  C   UNL     1     -10.815  10.294  67.992  1.00  0.00    -0.275 C  
HETATM   17  O   UNL     1     -11.840  10.873  68.299  1.00  0.00    -0.530 OA 
HETATM   18  C   UNL     1      -8.129  10.878  68.946  1.00  0.00    -0.144 C  
HETATM   19  C   UNL     1      -7.221  10.216  66.743  1.00  0.00    -0.093 C  
ENDBRANCH   5   8
TORSDOF 1
ENDMDL
MODEL       85
REMARK 921   NORMALIZED FREE ENERGY PREDICTED BY IDOCK:   -4.10 KCAL/MOL
REMARK 922        TOTAL FREE ENERGY PREDICTED BY IDOCK:   -4.83 KCAL/MOL
REMARK 923 INTER-LIGAND FREE ENERGY PREDICTED BY IDOCK:   -4.36 KCAL/MOL
REMARK 924 INTRA-LIGAND FREE ENERGY PREDICTED BY IDOCK:   -0.46 KCAL/MOL
REMARK 927      BINDING AFFINITY PREDICTED BY RF-SCORE:    0.00 PKD
ROOT
HETATM    1  C   UNL     1     -13.738  13.385  72.300  1.00  0.00    -0.705 C  
HETATM    2  C   UNL     1     -13.051  12.231  71.632  1.00  0.00    -0.408 A  
HETATM    3  C   UNL     1     -13.325  10.907  71.987  1.00  0.00    -0.394 A  
HETATM    4  C   UNL     1     -12.637   9.847  71.378  1.00  0.00    -0.497 A  
HETATM    5  C   UNL     1     -11.664  10.091  70.400  1.00  0.00    -0.365 A  
HETATM    6  C   UNL     1     -11.390  11.423  70.064  1.00  0.00    -0.260 A  
HETATM    7  C   UNL     1     -12.086  12.479  70.654  1.00  0.00    -0.312 A  
ENDROOT
BRANCH   5   8
HETATM    8  C   UNL     1     -10.899   8.964  69.840  1.00  0.00    -0.219 C  
HETATM    9  C   UNL     1      -9.607   8.704  70.080  1.00  0.00    -0.175 C  
HETATM   10  C   UNL     1      -8.538   9.434  70.869  1.00  0.00    -0.135 C  
HETATM   11  C   UNL     1      -8.300   8.577  72.136  1.00  0.00    -0.197 C  
HETATM   12  C   UNL     1      -7.537   7.344  71.597  1.00  0.00    -0.085 C  
HETATM   13  C   UNL     1      -7.414   7.639  70.082  1.00  0.00    -0.084 C  
HETATM   14  C   UNL     1      -6.379   6.805  69.366  1.00  0.00    -0.042 C  
HETATM   15  C   UNL     1      -7.256   9.187  70.026  1.00  0.00    -0.066 C  
HETATM   16  C   UNL     1      -8.848   7.510  69.556  1.00  0.00    -0.137 C  
HETATM   17  O   UNL     1      -9.316   6.611  68.882  1.00  0.00    -0.130 OA 
HETATM   18  C   UNL     1      -7.305   9.785  68.601  1.00  0.00    -0.074 C  
HETATM   19  C   UNL     1      -5.985   9.746  70.692  1.00  0.00    -0.078 C  
ENDBRANCH   5   8
TORSDOF 1
ENDMDL
MODEL       86
REMARK 921   NORMALIZED FREE ENERGY PREDICTED BY IDOCK:   -4.09 KCAL/MOL
REMARK 922        TOTAL FREE ENERGY PREDICTED BY IDOCK:   -4.83 KCAL/MOL
REMARK 923 INTER-LIGAND FREE ENERGY PREDICTED BY IDOCK:   -4.34 KCAL/MOL
REMARK 924 INTRA-LIGAND FREE ENERGY PREDICTED BY IDOCK:   -0.49 KCAL/MOL
REMARK 927      BINDING AFFINITY PREDICTED BY RF-SCORE:    0.00 PKD
ROOT
HETATM    1  C   UNL     1      -9.905   9.531  65.760  1.00  0.00    -0.363 C  
HETATM    2  C   UNL     1     -10.186   8.744  67.006  1.00  0.00    -0.351 A  
HETATM    3  C   UNL     1     -10.366   7.358  66.975  1.00  0.00    -0.384 A  
HETATM    4  C   UNL     1     -10.670   6.651  68.147  1.00  0.00    -0.320 A  
HETATM    5  C   UNL     1     -10.798   7.316  69.373  1.00  0.00    -0.206 A  
HETATM    6  C   UNL     1     -10.629   8.706  69.388  1.00  0.00    -0.207 A  
HETATM    7  C   UNL     1     -10.306   9.410  68.226  1.00  0.00    -0.251 A  
ENDROOT
BRANCH   5   8
HETATM    8  C   UNL     1     -11.201   6.560  70.571  1.00  0.00    -0.401 C  
HETATM    9  C   UNL     1     -10.379   5.851  71.358  1.00  0.00    -0.271 C  
HETATM   10  C   UNL     1      -8.900   5.528  71.278  1.00  0.00    -0.142 C  
HETATM   11  C   UNL     1      -8.232   6.365  72.396  1.00  0.00    -0.106 C  
HETATM   12  C   UNL     1      -8.666   5.642  73.693  1.00  0.00    -0.122 C  
HETATM   13  C   UNL     1      -9.524   4.464  73.171  1.00  0.00    -0.139 C  
HETATM   14  C   UNL     1      -9.755   3.365  74.181  1.00  0.00    -0.142 C  
HETATM   15  C   UNL     1      -8.833   4.077  71.831  1.00  0.00    -0.143 C  
HETATM   16  C   UNL     1     -10.788   5.135  72.621  1.00  0.00    -0.247 C  
HETATM   17  O   UNL     1     -11.902   5.138  73.110  1.00  0.00    -0.263 OA 
HETATM   18  C   UNL     1      -9.606   3.037  70.987  1.00  0.00    -0.224 C  
HETATM   19  C   UNL     1      -7.391   3.553  71.959  1.00  0.00    -0.055 C  
ENDBRANCH   5   8
TORSDOF 1
ENDMDL
MODEL       87
REMARK 921   NORMALIZED FREE ENERGY PREDICTED BY IDOCK:   -4.05 KCAL/MOL
REMARK 922        TOTAL FREE ENERGY PREDICTED BY IDOCK:   -4.77 KCAL/MOL
REMARK 923 INTER-LIGAND FREE ENERGY PREDICTED BY IDOCK:   -4.31 KCAL/MOL
REMARK 924 INTRA-LIGAND FREE ENERGY PREDICTED BY IDOCK:   -0.46 KCAL/MOL
REMARK 927      BINDING AFFINITY PREDICTED BY RF-SCORE:    0.00 PKD
ROOT
HETATM    1  C   UNL     1     -14.407   6.796  71.645  1.00  0.00    -0.284 C  
HETATM    2  C   UNL     1     -13.060   7.444  71.518  1.00  0.00    -0.424 A  
HETATM    3  C   UNL     1     -12.861   8.794  71.826  1.00  0.00    -0.406 A  
HETATM    4  C   UNL     1     -11.602   9.387  71.657  1.00  0.00    -0.466 A  
HETATM    5  C   UNL     1     -10.516   8.642  71.179  1.00  0.00    -0.291 A  
HETATM    6  C   UNL     1     -10.732   7.295  70.861  1.00  0.00    -0.251 A  
HETATM    7  C   UNL     1     -11.980   6.696  71.046  1.00  0.00    -0.415 A  
ENDROOT
BRANCH   5   8
HETATM    8  C   UNL     1      -9.228   9.312  70.932  1.00  0.00    -0.300 C  
HETATM    9  C   UNL     1      -8.698   9.559  69.726  1.00  0.00    -0.204 C  
HETATM   10  C   UNL     1      -9.135   9.211  68.317  1.00  0.00    -0.132 C  
HETATM   11  C   UNL     1      -9.609  10.544  67.689  1.00  0.00    -0.175 C  
HETATM   12  C   UNL     1      -8.291  11.319  67.452  1.00  0.00    -0.137 C  
HETATM   13  C   UNL     1      -7.208  10.335  67.960  1.00  0.00    -0.085 C  
HETATM   14  C   UNL     1      -5.807  10.656  67.494  1.00  0.00    -0.044 C  
HETATM   15  C   UNL     1      -7.786   8.937  67.594  1.00  0.00    -0.101 C  
HETATM   16  C   UNL     1      -7.411  10.306  69.479  1.00  0.00    -0.132 C  
HETATM   17  O   UNL     1      -6.708  10.812  70.334  1.00  0.00    -0.279 OA 
HETATM   18  C   UNL     1      -6.987   7.744  68.167  1.00  0.00    -0.079 C  
HETATM   19  C   UNL     1      -7.959   8.667  66.088  1.00  0.00    -0.106 C  
ENDBRANCH   5   8
TORSDOF 1
ENDMDL
MODEL       88
REMARK 921   NORMALIZED FREE ENERGY PREDICTED BY IDOCK:   -4.04 KCAL/MOL
REMARK 922        TOTAL FREE ENERGY PREDICTED BY IDOCK:   -4.77 KCAL/MOL
REMARK 923 INTER-LIGAND FREE ENERGY PREDICTED BY IDOCK:   -4.25 KCAL/MOL
REMARK 924 INTRA-LIGAND FREE ENERGY PREDICTED BY IDOCK:   -0.52 KCAL/MOL
REMARK 927      BINDING AFFINITY PREDICTED BY RF-SCORE:    0.00 PKD
ROOT
HETATM    1  C   UNL     1      -8.060  10.086  65.036  1.00  0.00    -0.145 C  
HETATM    2  C   UNL     1      -8.822   9.779  66.292  1.00  0.00    -0.165 A  
HETATM    3  C   UNL     1      -8.747  10.604  67.418  1.00  0.00    -0.125 A  
HETATM    4  C   UNL     1      -9.435  10.272  68.594  1.00  0.00    -0.169 A  
HETATM    5  C   UNL     1     -10.212   9.109  68.666  1.00  0.00    -0.225 A  
HETATM    6  C   UNL     1     -10.268   8.284  67.535  1.00  0.00    -0.309 A  
HETATM    7  C   UNL     1      -9.601   8.622  66.357  1.00  0.00    -0.316 A  
ENDROOT
BRANCH   5   8
HETATM    8  C   UNL     1     -10.854   8.742  69.940  1.00  0.00    -0.211 C  
HETATM    9  C   UNL     1     -10.262   8.093  70.952  1.00  0.00    -0.216 C  
HETATM   10  C   UNL     1      -8.883   7.488  71.121  1.00  0.00    -0.142 C  
HETATM   11  C   UNL     1      -8.138   8.420  72.108  1.00  0.00    -0.192 C  
HETATM   12  C   UNL     1      -8.810   8.113  73.467  1.00  0.00    -0.310 C  
HETATM   13  C   UNL     1      -9.857   7.030  73.107  1.00  0.00    -0.229 C  
HETATM   14  C   UNL     1     -10.389   6.259  74.292  1.00  0.00    -0.304 C  
HETATM   15  C   UNL     1      -9.164   6.218  71.973  1.00  0.00    -0.145 C  
HETATM   16  C   UNL     1     -10.906   7.781  72.280  1.00  0.00    -0.283 C  
HETATM   17  O   UNL     1     -12.027   8.108  72.620  1.00  0.00    -0.381 OA 
HETATM   18  C   UNL     1     -10.074   5.177  71.283  1.00  0.00    -0.278 C  
HETATM   19  C   UNL     1      -7.879   5.476  72.382  1.00  0.00    -0.103 C  
ENDBRANCH   5   8
TORSDOF 1
ENDMDL
MODEL       89
REMARK 921   NORMALIZED FREE ENERGY PREDICTED BY IDOCK:   -4.04 KCAL/MOL
REMARK 922        TOTAL FREE ENERGY PREDICTED BY IDOCK:   -4.77 KCAL/MOL
REMARK 923 INTER-LIGAND FREE ENERGY PREDICTED BY IDOCK:   -4.67 KCAL/MOL
REMARK 924 INTRA-LIGAND FREE ENERGY PREDICTED BY IDOCK:   -0.09 KCAL/MOL
REMARK 927      BINDING AFFINITY PREDICTED BY RF-SCORE:    0.00 PKD
ROOT
HETATM    1  C   UNL     1     -12.529  11.584  70.992  1.00  0.00    -0.458 C  
HETATM    2  C   UNL     1     -12.289  10.130  71.268  1.00  0.00    -0.501 A  
HETATM    3  C   UNL     1     -13.344   9.243  71.505  1.00  0.00    -0.436 A  
HETATM    4  C   UNL     1     -13.092   7.896  71.804  1.00  0.00    -0.352 A  
HETATM    5  C   UNL     1     -11.780   7.410  71.870  1.00  0.00    -0.323 A  
HETATM    6  C   UNL     1     -10.732   8.312  71.645  1.00  0.00    -0.320 A  
HETATM    7  C   UNL     1     -10.981   9.648  71.327  1.00  0.00    -0.399 A  
ENDROOT
BRANCH   5   8
HETATM    8  C   UNL     1     -11.542   6.012  72.269  1.00  0.00    -0.359 C  
HETATM    9  C   UNL     1     -10.395   5.339  72.104  1.00  0.00    -0.268 C  
HETATM   10  C   UNL     1      -9.077   5.695  71.445  1.00  0.00    -0.152 C  
HETATM   11  C   UNL     1      -8.070   5.885  72.606  1.00  0.00    -0.105 C  
HETATM   12  C   UNL     1      -7.820   4.441  73.103  1.00  0.00    -0.091 C  
HETATM   13  C   UNL     1      -8.703   3.585  72.161  1.00  0.00    -0.110 C  
HETATM   14  C   UNL     1      -8.361   2.114  72.153  1.00  0.00    -0.055 C  
HETATM   15  C   UNL     1      -8.635   4.349  70.806  1.00  0.00    -0.117 C  
HETATM   16  C   UNL     1     -10.138   3.930  72.576  1.00  0.00    -0.166 C  
HETATM   17  O   UNL     1     -10.920   3.236  73.199  1.00  0.00    -0.164 OA 
HETATM   18  C   UNL     1      -9.595   3.813  69.720  1.00  0.00    -0.253 C  
HETATM   19  C   UNL     1      -7.240   4.423  70.160  1.00  0.00    -0.046 C  
ENDBRANCH   5   8
TORSDOF 1
ENDMDL
MODEL       90
REMARK 921   NORMALIZED FREE ENERGY PREDICTED BY IDOCK:   -4.03 KCAL/MOL
REMARK 922        TOTAL FREE ENERGY PREDICTED BY IDOCK:   -4.76 KCAL/MOL
REMARK 923 INTER-LIGAND FREE ENERGY PREDICTED BY IDOCK:   -4.40 KCAL/MOL
REMARK 924 INTRA-LIGAND FREE ENERGY PREDICTED BY IDOCK:   -0.36 KCAL/MOL
REMARK 927      BINDING AFFINITY PREDICTED BY RF-SCORE:    0.00 PKD
ROOT
HETATM    1  C   UNL     1     -13.247  10.526  71.190  1.00  0.00    -0.358 C  
HETATM    2  C   UNL     1     -12.099   9.629  71.551  1.00  0.00    -0.482 A  
HETATM    3  C   UNL     1     -10.856   9.735  70.919  1.00  0.00    -0.399 A  
HETATM    4  C   UNL     1      -9.813   8.856  71.245  1.00  0.00    -0.361 A  
HETATM    5  C   UNL     1      -9.992   7.857  72.210  1.00  0.00    -0.280 A  
HETATM    6  C   UNL     1     -11.246   7.753  72.825  1.00  0.00    -0.456 A  
HETATM    7  C   UNL     1     -12.280   8.638  72.518  1.00  0.00    -0.374 A  
ENDROOT
BRANCH   5   8
HETATM    8  C   UNL     1      -8.906   6.896  72.470  1.00  0.00    -0.136 C  
HETATM    9  C   UNL     1      -9.004   5.563  72.364  1.00  0.00    -0.137 C  
HETATM   10  C   UNL     1     -10.161   4.637  72.049  1.00  0.00    -0.258 C  
HETATM   11  C   UNL     1      -9.889   4.103  70.622  1.00  0.00    -0.249 C  
HETATM   12  C   UNL     1      -8.713   3.117  70.825  1.00  0.00    -0.129 C  
HETATM   13  C   UNL     1      -8.452   3.189  72.350  1.00  0.00    -0.083 C  
HETATM   14  C   UNL     1      -7.628   2.047  72.896  1.00  0.00    -0.037 C  
HETATM   15  C   UNL     1      -9.872   3.404  72.952  1.00  0.00    -0.201 C  
HETATM   16  C   UNL     1      -7.869   4.590  72.566  1.00  0.00    -0.087 C  
HETATM   17  O   UNL     1      -6.715   4.886  72.813  1.00  0.00    -0.059 OA 
HETATM   18  C   UNL     1      -9.887   3.706  74.467  1.00  0.00    -0.178 C  
HETATM   19  C   UNL     1     -10.867   2.251  72.725  1.00  0.00    -0.133 C  
ENDBRANCH   5   8
TORSDOF 1
ENDMDL
MODEL       91
REMARK 921   NORMALIZED FREE ENERGY PREDICTED BY IDOCK:   -4.03 KCAL/MOL
REMARK 922        TOTAL FREE ENERGY PREDICTED BY IDOCK:   -4.75 KCAL/MOL
REMARK 923 INTER-LIGAND FREE ENERGY PREDICTED BY IDOCK:   -4.56 KCAL/MOL
REMARK 924 INTRA-LIGAND FREE ENERGY PREDICTED BY IDOCK:   -0.19 KCAL/MOL
REMARK 927      BINDING AFFINITY PREDICTED BY RF-SCORE:    0.00 PKD
ROOT
HETATM    1  C   UNL     1     -13.142  11.514  71.906  1.00  0.00    -0.492 C  
HETATM    2  C   UNL     1     -12.273  11.015  70.790  1.00  0.00    -0.480 A  
HETATM    3  C   UNL     1     -12.335  11.568  69.507  1.00  0.00    -0.190 A  
HETATM    4  C   UNL     1     -11.544  11.055  68.469  1.00  0.00    -0.380 A  
HETATM    5  C   UNL     1     -10.675   9.979  68.694  1.00  0.00    -0.256 A  
HETATM    6  C   UNL     1     -10.634   9.425  69.980  1.00  0.00    -0.267 A  
HETATM    7  C   UNL     1     -11.405   9.947  71.020  1.00  0.00    -0.460 A  
ENDROOT
BRANCH   5   8
HETATM    8  C   UNL     1      -9.920   9.406  67.566  1.00  0.00    -0.250 C  
HETATM    9  C   UNL     1      -9.665   8.104  67.382  1.00  0.00    -0.221 C  
HETATM   10  C   UNL     1      -9.954   6.869  68.212  1.00  0.00    -0.162 C  
HETATM   11  C   UNL     1     -11.076   6.115  67.456  1.00  0.00    -0.318 C  
HETATM   12  C   UNL     1     -10.347   5.529  66.223  1.00  0.00    -0.215 C  
HETATM   13  C   UNL     1      -8.886   6.005  66.418  1.00  0.00    -0.137 C  
HETATM   14  C   UNL     1      -7.872   5.260  65.583  1.00  0.00    -0.100 C  
HETATM   15  C   UNL     1      -8.701   5.984  67.964  1.00  0.00    -0.112 C  
HETATM   16  C   UNL     1      -8.950   7.519  66.189  1.00  0.00    -0.153 C  
HETATM   17  O   UNL     1      -8.547   8.143  65.226  1.00  0.00    -0.160 OA 
HETATM   18  C   UNL     1      -7.374   6.605  68.458  1.00  0.00    -0.087 C  
HETATM   19  C   UNL     1      -8.808   4.597  68.624  1.00  0.00    -0.125 C  
ENDBRANCH   5   8
TORSDOF 1
ENDMDL
MODEL       92
REMARK 921   NORMALIZED FREE ENERGY PREDICTED BY IDOCK:   -3.98 KCAL/MOL
REMARK 922        TOTAL FREE ENERGY PREDICTED BY IDOCK:   -4.71 KCAL/MOL
REMARK 923 INTER-LIGAND FREE ENERGY PREDICTED BY IDOCK:   -4.22 KCAL/MOL
REMARK 924 INTRA-LIGAND FREE ENERGY PREDICTED BY IDOCK:   -0.48 KCAL/MOL
REMARK 927      BINDING AFFINITY PREDICTED BY RF-SCORE:    0.00 PKD
ROOT
HETATM    1  C   UNL     1      -8.535   8.898  63.475  1.00  0.00    -0.146 C  
HETATM    2  C   UNL     1      -8.505   8.661  64.956  1.00  0.00    -0.192 A  
HETATM    3  C   UNL     1      -9.058   9.576  65.858  1.00  0.00    -0.230 A  
HETATM    4  C   UNL     1      -8.978   9.353  67.240  1.00  0.00    -0.143 A  
HETATM    5  C   UNL     1      -8.346   8.211  67.747  1.00  0.00    -0.128 A  
HETATM    6  C   UNL     1      -7.785   7.310  66.833  1.00  0.00    -0.110 A  
HETATM    7  C   UNL     1      -7.880   7.518  65.456  1.00  0.00    -0.114 A  
ENDROOT
BRANCH   5   8
HETATM    8  C   UNL     1      -8.203   8.046  69.204  1.00  0.00    -0.130 C  
HETATM    9  C   UNL     1      -9.163   7.622  70.037  1.00  0.00    -0.151 C  
HETATM   10  C   UNL     1     -10.622   7.266  69.832  1.00  0.00    -0.244 C  
HETATM   11  C   UNL     1     -10.696   5.725  69.965  1.00  0.00    -0.400 C  
HETATM   12  C   UNL     1     -10.500   5.486  71.481  1.00  0.00    -0.298 C  
HETATM   13  C   UNL     1     -10.348   6.919  72.048  1.00  0.00    -0.220 C  
HETATM   14  C   UNL     1     -10.537   7.021  73.543  1.00  0.00    -0.405 C  
HETATM   15  C   UNL     1     -11.288   7.769  71.144  1.00  0.00    -0.290 C  
HETATM   16  C   UNL     1      -8.989   7.390  71.517  1.00  0.00    -0.125 C  
HETATM   17  O   UNL     1      -7.952   7.521  72.140  1.00  0.00    -0.093 OA 
HETATM   18  C   UNL     1     -11.184   9.295  71.366  1.00  0.00    -0.433 C  
HETATM   19  C   UNL     1     -12.784   7.414  71.229  1.00  0.00    -0.371 C  
ENDBRANCH   5   8
TORSDOF 1
ENDMDL
MODEL       93
REMARK 921   NORMALIZED FREE ENERGY PREDICTED BY IDOCK:   -3.97 KCAL/MOL
REMARK 922        TOTAL FREE ENERGY PREDICTED BY IDOCK:   -4.70 KCAL/MOL
REMARK 923 INTER-LIGAND FREE ENERGY PREDICTED BY IDOCK:   -4.31 KCAL/MOL
REMARK 924 INTRA-LIGAND FREE ENERGY PREDICTED BY IDOCK:   -0.39 KCAL/MOL
REMARK 927      BINDING AFFINITY PREDICTED BY RF-SCORE:    0.00 PKD
ROOT
HETATM    1  C   UNL     1      -5.550  11.047  69.288  1.00  0.00    -0.041 C  
HETATM    2  C   UNL     1      -5.826  12.521  69.259  1.00  0.00    -0.086 A  
HETATM    3  C   UNL     1      -5.972  13.218  68.055  1.00  0.00    -0.122 A  
HETATM    4  C   UNL     1      -6.186  14.604  68.054  1.00  0.00    -0.165 A  
HETATM    5  C   UNL     1      -6.260  15.319  69.256  1.00  0.00    -0.118 A  
HETATM    6  C   UNL     1      -6.098  14.611  70.453  1.00  0.00    -0.173 A  
HETATM    7  C   UNL     1      -5.905  13.229  70.459  1.00  0.00    -0.154 A  
ENDROOT
BRANCH   5   8
HETATM    8  C   UNL     1      -6.401  16.785  69.222  1.00  0.00    -0.213 C  
HETATM    9  C   UNL     1      -7.431  17.456  68.688  1.00  0.00    -0.263 C  
HETATM   10  C   UNL     1      -8.667  17.013  67.930  1.00  0.00    -0.216 C  
HETATM   11  C   UNL     1      -9.850  17.222  68.908  1.00  0.00    -0.286 C  
HETATM   12  C   UNL     1     -10.013  18.760  68.952  1.00  0.00    -0.423 C  
HETATM   13  C   UNL     1      -8.913  19.259  67.984  1.00  0.00    -0.362 C  
HETATM   14  C   UNL     1      -9.088  20.687  67.525  1.00  0.00    -0.353 C  
HETATM   15  C   UNL     1      -8.862  18.152  66.890  1.00  0.00    -0.273 C  
HETATM   16  C   UNL     1      -7.601  18.954  68.717  1.00  0.00    -0.333 C  
HETATM   17  O   UNL     1      -6.850  19.744  69.257  1.00  0.00    -0.337 OA 
HETATM   18  C   UNL     1      -7.698  18.300  65.883  1.00  0.00    -0.121 C  
HETATM   19  C   UNL     1     -10.145  17.988  66.056  1.00  0.00    -0.268 C  
ENDBRANCH   5   8
TORSDOF 1
ENDMDL
MODEL       94
REMARK 921   NORMALIZED FREE ENERGY PREDICTED BY IDOCK:   -3.97 KCAL/MOL
REMARK 922        TOTAL FREE ENERGY PREDICTED BY IDOCK:   -4.69 KCAL/MOL
REMARK 923 INTER-LIGAND FREE ENERGY PREDICTED BY IDOCK:   -4.21 KCAL/MOL
REMARK 924 INTRA-LIGAND FREE ENERGY PREDICTED BY IDOCK:   -0.48 KCAL/MOL
REMARK 927      BINDING AFFINITY PREDICTED BY RF-SCORE:    0.00 PKD
ROOT
HETATM    1  C   UNL     1     -11.177   1.985  73.515  1.00  0.00    -0.305 C  
HETATM    2  C   UNL     1     -10.576   3.275  73.040  1.00  0.00    -0.241 A  
HETATM    3  C   UNL     1      -9.400   3.303  72.283  1.00  0.00    -0.174 A  
HETATM    4  C   UNL     1      -8.835   4.524  71.887  1.00  0.00    -0.137 A  
HETATM    5  C   UNL     1      -9.434   5.740  72.240  1.00  0.00    -0.158 A  
HETATM    6  C   UNL     1     -10.603   5.697  73.009  1.00  0.00    -0.275 A  
HETATM    7  C   UNL     1     -11.180   4.484  73.388  1.00  0.00    -0.404 A  
ENDROOT
BRANCH   5   8
HETATM    8  C   UNL     1      -8.772   7.006  71.883  1.00  0.00    -0.127 C  
HETATM    9  C   UNL     1      -9.174   7.852  70.924  1.00  0.00    -0.160 C  
HETATM   10  C   UNL     1     -10.292   7.794  69.902  1.00  0.00    -0.223 C  
HETATM   11  C   UNL     1     -11.344   8.825  70.380  1.00  0.00    -0.213 C  
HETATM   12  C   UNL     1     -10.677  10.187  70.074  1.00  0.00    -0.356 C  
HETATM   13  C   UNL     1      -9.321   9.783  69.444  1.00  0.00    -0.212 C  
HETATM   14  C   UNL     1      -8.629  10.894  68.691  1.00  0.00    -0.153 C  
HETATM   15  C   UNL     1      -9.659   8.482  68.659  1.00  0.00    -0.153 C  
HETATM   16  C   UNL     1      -8.530   9.179  70.610  1.00  0.00    -0.209 C  
HETATM   17  O   UNL     1      -7.591   9.672  71.207  1.00  0.00    -0.295 OA 
HETATM   18  C   UNL     1      -8.430   7.745  68.080  1.00  0.00    -0.123 C  
HETATM   19  C   UNL     1     -10.656   8.651  67.498  1.00  0.00    -0.292 C  
ENDBRANCH   5   8
TORSDOF 1
ENDMDL
MODEL       95
REMARK 921   NORMALIZED FREE ENERGY PREDICTED BY IDOCK:   -3.95 KCAL/MOL
REMARK 922        TOTAL FREE ENERGY PREDICTED BY IDOCK:   -4.68 KCAL/MOL
REMARK 923 INTER-LIGAND FREE ENERGY PREDICTED BY IDOCK:   -4.19 KCAL/MOL
REMARK 924 INTRA-LIGAND FREE ENERGY PREDICTED BY IDOCK:   -0.49 KCAL/MOL
REMARK 927      BINDING AFFINITY PREDICTED BY RF-SCORE:    0.00 PKD
ROOT
HETATM    1  C   UNL     1     -10.447  12.815  64.675  1.00  0.00    -0.373 C  
HETATM    2  C   UNL     1     -10.459  11.659  65.632  1.00  0.00    -0.314 A  
HETATM    3  C   UNL     1      -9.949  10.406  65.276  1.00  0.00    -0.376 A  
HETATM    4  C   UNL     1     -10.012   9.329  66.173  1.00  0.00    -0.348 A  
HETATM    5  C   UNL     1     -10.583   9.485  67.443  1.00  0.00    -0.337 A  
HETATM    6  C   UNL     1     -11.102  10.742  67.780  1.00  0.00    -0.381 A  
HETATM    7  C   UNL     1     -11.024  11.821  66.898  1.00  0.00    -0.333 A  
ENDROOT
BRANCH   5   8
HETATM    8  C   UNL     1     -10.712   8.317  68.330  1.00  0.00    -0.072 C  
HETATM    9  C   UNL     1      -9.862   7.989  69.314  1.00  0.00    -0.178 C  
HETATM   10  C   UNL     1      -8.551   8.586  69.784  1.00  0.00    -0.131 C  
HETATM   11  C   UNL     1      -8.867   9.272  71.135  1.00  0.00    -0.139 C  
HETATM   12  C   UNL     1      -9.064   8.083  72.105  1.00  0.00    -0.227 C  
HETATM   13  C   UNL     1      -8.825   6.848  71.201  1.00  0.00    -0.142 C  
HETATM   14  C   UNL     1      -8.564   5.565  71.955  1.00  0.00    -0.131 C  
HETATM   15  C   UNL     1      -7.732   7.333  70.204  1.00  0.00    -0.091 C  
HETATM   16  C   UNL     1     -10.037   6.830  70.262  1.00  0.00    -0.179 C  
HETATM   17  O   UNL     1     -10.984   6.066  70.284  1.00  0.00    -0.301 OA 
HETATM   18  C   UNL     1      -7.435   6.349  69.050  1.00  0.00    -0.095 C  
HETATM   19  C   UNL     1      -6.374   7.690  70.836  1.00  0.00    -0.038 C  
ENDBRANCH   5   8
TORSDOF 1
ENDMDL
MODEL       96
REMARK 921   NORMALIZED FREE ENERGY PREDICTED BY IDOCK:   -3.91 KCAL/MOL
REMARK 922        TOTAL FREE ENERGY PREDICTED BY IDOCK:   -4.63 KCAL/MOL
REMARK 923 INTER-LIGAND FREE ENERGY PREDICTED BY IDOCK:   -4.16 KCAL/MOL
REMARK 924 INTRA-LIGAND FREE ENERGY PREDICTED BY IDOCK:   -0.47 KCAL/MOL
REMARK 927      BINDING AFFINITY PREDICTED BY RF-SCORE:    0.00 PKD
ROOT
HETATM    1  C   UNL     1      -8.327   4.600  64.814  1.00  0.00    -0.127 C  
HETATM    2  C   UNL     1      -8.313   6.068  65.122  1.00  0.00    -0.140 A  
HETATM    3  C   UNL     1      -7.725   6.995  64.255  1.00  0.00    -0.117 A  
HETATM    4  C   UNL     1      -7.685   8.357  64.587  1.00  0.00    -0.112 A  
HETATM    5  C   UNL     1      -8.234   8.819  65.790  1.00  0.00    -0.121 A  
HETATM    6  C   UNL     1      -8.807   7.878  66.655  1.00  0.00    -0.166 A  
HETATM    7  C   UNL     1      -8.866   6.524  66.319  1.00  0.00    -0.154 A  
ENDROOT
BRANCH   5   8
HETATM    8  C   UNL     1      -8.103  10.241  66.149  1.00  0.00    -0.133 C  
HETATM    9  C   UNL     1      -9.112  11.119  66.237  1.00  0.00    -0.207 C  
HETATM   10  C   UNL     1     -10.597  11.012  65.953  1.00  0.00    -0.270 C  
HETATM   11  C   UNL     1     -11.287  11.033  67.339  1.00  0.00    -0.306 C  
HETATM   12  C   UNL     1     -11.135  12.504  67.794  1.00  0.00    -0.291 C  
HETATM   13  C   UNL     1     -10.385  13.164  66.610  1.00  0.00    -0.265 C  
HETATM   14  C   UNL     1     -10.445  14.673  66.597  1.00  0.00    -0.278 C  
HETATM   15  C   UNL     1     -10.938  12.410  65.365  1.00  0.00    -0.335 C  
HETATM   16  C   UNL     1      -8.978  12.557  66.672  1.00  0.00    -0.174 C  
HETATM   17  O   UNL     1      -7.950  13.096  67.034  1.00  0.00    -0.111 OA 
HETATM   18  C   UNL     1     -10.210  12.739  64.041  1.00  0.00    -0.323 C  
HETATM   19  C   UNL     1     -12.443  12.596  65.095  1.00  0.00    -0.531 C  
ENDBRANCH   5   8
TORSDOF 1
ENDMDL
MODEL       97
REMARK 921   NORMALIZED FREE ENERGY PREDICTED BY IDOCK:   -3.90 KCAL/MOL
REMARK 922        TOTAL FREE ENERGY PREDICTED BY IDOCK:   -4.62 KCAL/MOL
REMARK 923 INTER-LIGAND FREE ENERGY PREDICTED BY IDOCK:   -4.46 KCAL/MOL
REMARK 924 INTRA-LIGAND FREE ENERGY PREDICTED BY IDOCK:   -0.16 KCAL/MOL
REMARK 927      BINDING AFFINITY PREDICTED BY RF-SCORE:    0.00 PKD
ROOT
HETATM    1  C   UNL     1      -9.413   9.338  65.342  1.00  0.00    -0.281 C  
HETATM    2  C   UNL     1      -8.949  10.621  65.966  1.00  0.00    -0.189 A  
HETATM    3  C   UNL     1      -7.607  10.836  66.293  1.00  0.00    -0.142 A  
HETATM    4  C   UNL     1      -7.206  12.027  66.916  1.00  0.00    -0.040 A  
HETATM    5  C   UNL     1      -8.139  13.027  67.221  1.00  0.00    -0.164 A  
HETATM    6  C   UNL     1      -9.482  12.792  66.900  1.00  0.00    -0.235 A  
HETATM    7  C   UNL     1      -9.881  11.616  66.263  1.00  0.00    -0.245 A  
ENDROOT
BRANCH   5   8
HETATM    8  C   UNL     1      -7.702  14.230  67.950  1.00  0.00    -0.157 C  
HETATM    9  C   UNL     1      -8.304  15.426  67.910  1.00  0.00    -0.148 C  
HETATM   10  C   UNL     1      -9.486  15.959  67.124  1.00  0.00    -0.221 C  
HETATM   11  C   UNL     1     -10.632  16.115  68.153  1.00  0.00    -0.290 C  
HETATM   12  C   UNL     1     -10.201  17.344  68.987  1.00  0.00    -0.317 C  
HETATM   13  C   UNL     1      -8.860  17.761  68.334  1.00  0.00    -0.285 C  
HETATM   14  C   UNL     1      -8.405  19.159  68.684  1.00  0.00    -0.403 C  
HETATM   15  C   UNL     1      -9.070  17.428  66.828  1.00  0.00    -0.276 C  
HETATM   16  C   UNL     1      -7.891  16.635  68.712  1.00  0.00    -0.238 C  
HETATM   17  O   UNL     1      -6.987  16.673  69.525  1.00  0.00    -0.225 OA 
HETATM   18  C   UNL     1      -7.801  17.568  65.958  1.00  0.00    -0.213 C  
HETATM   19  C   UNL     1     -10.177  18.232  66.122  1.00  0.00    -0.393 C  
ENDBRANCH   5   8
TORSDOF 1
ENDMDL
MODEL       98
REMARK 921   NORMALIZED FREE ENERGY PREDICTED BY IDOCK:   -3.90 KCAL/MOL
REMARK 922        TOTAL FREE ENERGY PREDICTED BY IDOCK:   -4.62 KCAL/MOL
REMARK 923 INTER-LIGAND FREE ENERGY PREDICTED BY IDOCK:   -4.12 KCAL/MOL
REMARK 924 INTRA-LIGAND FREE ENERGY PREDICTED BY IDOCK:   -0.50 KCAL/MOL
REMARK 927      BINDING AFFINITY PREDICTED BY RF-SCORE:    0.00 PKD
ROOT
HETATM    1  C   UNL     1     -12.686   9.671  72.088  1.00  0.00    -0.427 C  
HETATM    2  C   UNL     1     -12.269  10.542  70.940  1.00  0.00    -0.490 A  
HETATM    3  C   UNL     1     -11.236  10.171  70.074  1.00  0.00    -0.361 A  
HETATM    4  C   UNL     1     -10.836  11.022  69.034  1.00  0.00    -0.274 A  
HETATM    5  C   UNL     1     -11.462  12.260  68.839  1.00  0.00    -0.355 A  
HETATM    6  C   UNL     1     -12.486  12.625  69.722  1.00  0.00     0.062 A  
HETATM    7  C   UNL     1     -12.900  11.771  70.746  1.00  0.00    -0.164 A  
ENDROOT
BRANCH   5   8
HETATM    8  C   UNL     1     -10.964  13.169  67.792  1.00  0.00    -0.272 C  
HETATM    9  C   UNL     1      -9.813  13.854  67.839  1.00  0.00    -0.228 C  
HETATM   10  C   UNL     1      -8.743  13.999  68.902  1.00  0.00     0.063 C  
HETATM   11  C   UNL     1      -7.523  13.205  68.375  1.00  0.00    -0.124 C  
HETATM   12  C   UNL     1      -6.984  14.095  67.229  1.00  0.00     0.110 C  
HETATM   13  C   UNL     1      -7.950  15.306  67.238  1.00  0.00    -0.231 C  
HETATM   14  C   UNL     1      -7.438  16.516  66.494  1.00  0.00    -0.270 C  
HETATM   15  C   UNL     1      -8.299  15.481  68.745  1.00  0.00    -0.187 C  
HETATM   16  C   UNL     1      -9.278  14.730  66.734  1.00  0.00    -0.260 C  
HETATM   17  O   UNL     1      -9.798  14.900  65.647  1.00  0.00    -0.328 OA 
HETATM   18  C   UNL     1      -9.413  16.514  69.029  1.00  0.00    -0.249 C  
HETATM   19  C   UNL     1      -7.115  15.850  69.658  1.00  0.00    -0.130 C  
ENDBRANCH   5   8
TORSDOF 1
ENDMDL
MODEL       99
REMARK 921   NORMALIZED FREE ENERGY PREDICTED BY IDOCK:   -3.88 KCAL/MOL
REMARK 922        TOTAL FREE ENERGY PREDICTED BY IDOCK:   -4.60 KCAL/MOL
REMARK 923 INTER-LIGAND FREE ENERGY PREDICTED BY IDOCK:   -4.12 KCAL/MOL
REMARK 924 INTRA-LIGAND FREE ENERGY PREDICTED BY IDOCK:   -0.48 KCAL/MOL
REMARK 927      BINDING AFFINITY PREDICTED BY RF-SCORE:    0.00 PKD
ROOT
HETATM    1  C   UNL     1      -7.848  18.933  68.907  1.00  0.00    -0.314 C  
HETATM    2  C   UNL     1      -7.671  17.517  68.443  1.00  0.00    -0.260 A  
HETATM    3  C   UNL     1      -8.093  17.101  67.176  1.00  0.00    -0.215 A  
HETATM    4  C   UNL     1      -7.956  15.762  66.782  1.00  0.00    -0.273 A  
HETATM    5  C   UNL     1      -7.392  14.814  67.646  1.00  0.00    -0.206 A  
HETATM    6  C   UNL     1      -6.987  15.242  68.916  1.00  0.00    -0.125 A  
HETATM    7  C   UNL     1      -7.104  16.578  69.305  1.00  0.00    -0.219 A  
ENDROOT
BRANCH   5   8
HETATM    8  C   UNL     1      -7.338  13.400  67.237  1.00  0.00    -0.039 C  
HETATM    9  C   UNL     1      -8.397  12.592  67.088  1.00  0.00    -0.172 C  
HETATM   10  C   UNL     1      -9.881  12.782  67.332  1.00  0.00    -0.210 C  
HETATM   11  C   UNL     1     -10.527  12.854  65.927  1.00  0.00    -0.294 C  
HETATM   12  C   UNL     1     -10.452  11.393  65.422  1.00  0.00    -0.336 C  
HETATM   13  C   UNL     1      -9.782  10.646  66.602  1.00  0.00    -0.225 C  
HETATM   14  C   UNL     1      -9.936   9.145  66.556  1.00  0.00    -0.359 C  
HETATM   15  C   UNL     1     -10.326  11.388  67.857  1.00  0.00    -0.204 C  
HETATM   16  C   UNL     1      -8.339  11.165  66.604  1.00  0.00    -0.160 C  
HETATM   17  O   UNL     1      -7.336  10.574  66.251  1.00  0.00    -0.120 OA 
HETATM   18  C   UNL     1      -9.662  10.967  69.188  1.00  0.00    -0.141 C  
HETATM   19  C   UNL     1     -11.847  11.289  68.076  1.00  0.00    -0.244 C  
ENDBRANCH   5   8
TORSDOF 1
ENDMDL
MODEL      100
REMARK 921   NORMALIZED FREE ENERGY PREDICTED BY IDOCK:   -3.87 KCAL/MOL
REMARK 922        TOTAL FREE ENERGY PREDICTED BY IDOCK:   -4.59 KCAL/MOL
REMARK 923 INTER-LIGAND FREE ENERGY PREDICTED BY IDOCK:   -4.09 KCAL/MOL
REMARK 924 INTRA-LIGAND FREE ENERGY PREDICTED BY IDOCK:   -0.49 KCAL/MOL
REMARK 927      BINDING AFFINITY PREDICTED BY RF-SCORE:    0.00 PKD
ROOT
HETATM    1  C   UNL     1      -7.978   6.008  64.085  1.00  0.00    -0.119 C  
HETATM    2  C   UNL     1      -8.806   6.088  65.333  1.00  0.00    -0.042 A  
HETATM    3  C   UNL     1      -9.065   7.308  65.966  1.00  0.00    -0.117 A  
HETATM    4  C   UNL     1      -9.806   7.351  67.156  1.00  0.00    -0.253 A  
HETATM    5  C   UNL     1     -10.303   6.176  67.735  1.00  0.00    -0.247 A  
HETATM    6  C   UNL     1     -10.023   4.961  67.098  1.00  0.00    -0.229 A  
HETATM    7  C   UNL     1      -9.304   4.915  65.903  1.00  0.00    -0.162 A  
ENDROOT
BRANCH   5   8
HETATM    8  C   UNL     1     -11.004   6.244  69.029  1.00  0.00    -0.437 C  
HETATM    9  C   UNL     1     -10.431   6.504  70.212  1.00  0.00    -0.261 C  
HETATM   10  C   UNL     1      -8.992   6.725  70.634  1.00  0.00    -0.151 C  
HETATM   11  C   UNL     1      -8.880   8.236  70.954  1.00  0.00    -0.171 C  
HETATM   12  C   UNL     1      -9.649   8.378  72.289  1.00  0.00    -0.374 C  
HETATM   13  C   UNL     1     -10.104   6.929  72.590  1.00  0.00    -0.195 C  
HETATM   14  C   UNL     1     -10.534   6.696  74.019  1.00  0.00    -0.309 C  
HETATM   15  C   UNL     1      -8.937   6.060  72.038  1.00  0.00    -0.140 C  
HETATM   16  C   UNL     1     -11.166   6.639  71.522  1.00  0.00    -0.270 C  
HETATM   17  O   UNL     1     -12.371   6.568  71.672  1.00  0.00    -0.343 OA 
HETATM   18  C   UNL     1      -9.217   4.539  72.034  1.00  0.00    -0.170 C  
HETATM   19  C   UNL     1      -7.580   6.253  72.739  1.00  0.00    -0.103 C  
ENDBRANCH   5   8
TORSDOF 1
ENDMDL
MODEL      101
REMARK 921   NORMALIZED FREE ENERGY PREDICTED BY IDOCK:   -3.86 KCAL/MOL
REMARK 922        TOTAL FREE ENERGY PREDICTED BY IDOCK:   -4.58 KCAL/MOL
REMARK 923 INTER-LIGAND FREE ENERGY PREDICTED BY IDOCK:   -4.12 KCAL/MOL
REMARK 924 INTRA-LIGAND FREE ENERGY PREDICTED BY IDOCK:   -0.46 KCAL/MOL
REMARK 927      BINDING AFFINITY PREDICTED BY RF-SCORE:    0.00 PKD
ROOT
HETATM    1  C   UNL     1     -10.247  17.281  66.952  1.00  0.00    -0.322 C  
HETATM    2  C   UNL     1     -10.395  15.788  66.961  1.00  0.00    -0.292 A  
HETATM    3  C   UNL     1      -9.648  14.980  67.824  1.00  0.00    -0.203 A  
HETATM    4  C   UNL     1      -9.773  13.584  67.782  1.00  0.00    -0.226 A  
HETATM    5  C   UNL     1     -10.649  12.969  66.879  1.00  0.00    -0.260 A  
HETATM    6  C   UNL     1     -11.381  13.789  66.011  1.00  0.00    -0.319 A  
HETATM    7  C   UNL     1     -11.274  15.180  66.063  1.00  0.00    -0.275 A  
ENDROOT
BRANCH   5   8
HETATM    8  C   UNL     1     -10.696  11.499  66.800  1.00  0.00    -0.311 C  
HETATM    9  C   UNL     1      -9.688  10.707  66.409  1.00  0.00    -0.241 C  
HETATM   10  C   UNL     1      -8.296  10.995  65.882  1.00  0.00    -0.119 C  
HETATM   11  C   UNL     1      -7.330  10.605  67.028  1.00  0.00    -0.102 C  
HETATM   12  C   UNL     1      -7.378   9.058  67.026  1.00  0.00    -0.087 C  
HETATM   13  C   UNL     1      -8.358   8.737  65.871  1.00  0.00    -0.131 C  
HETATM   14  C   UNL     1      -8.297   7.309  65.381  1.00  0.00    -0.127 C  
HETATM   15  C   UNL     1      -8.082   9.866  64.835  1.00  0.00    -0.145 C  
HETATM   16  C   UNL     1      -9.722   9.199  66.396  1.00  0.00    -0.262 C  
HETATM   17  O   UNL     1     -10.649   8.506  66.771  1.00  0.00    -0.283 OA 
HETATM   18  C   UNL     1      -9.071   9.902  63.648  1.00  0.00    -0.294 C  
HETATM   19  C   UNL     1      -6.667   9.874  64.228  1.00  0.00    -0.126 C  
ENDBRANCH   5   8
TORSDOF 1
ENDMDL
MODEL      102
REMARK 921   NORMALIZED FREE ENERGY PREDICTED BY IDOCK:   -3.84 KCAL/MOL
REMARK 922        TOTAL FREE ENERGY PREDICTED BY IDOCK:   -4.56 KCAL/MOL
REMARK 923 INTER-LIGAND FREE ENERGY PREDICTED BY IDOCK:   -4.07 KCAL/MOL
REMARK 924 INTRA-LIGAND FREE ENERGY PREDICTED BY IDOCK:   -0.49 KCAL/MOL
REMARK 927      BINDING AFFINITY PREDICTED BY RF-SCORE:    0.00 PKD
ROOT
HETATM    1  C   UNL     1      -8.310   5.205  63.825  1.00  0.00    -0.130 C  
HETATM    2  C   UNL     1      -8.527   5.133  65.308  1.00  0.00    -0.144 A  
HETATM    3  C   UNL     1      -7.685   5.795  66.207  1.00  0.00    -0.099 A  
HETATM    4  C   UNL     1      -7.884   5.676  67.590  1.00  0.00    -0.097 A  
HETATM    5  C   UNL     1      -8.928   4.895  68.101  1.00  0.00    -0.123 A  
HETATM    6  C   UNL     1      -9.754   4.226  67.189  1.00  0.00    -0.232 A  
HETATM    7  C   UNL     1      -9.572   4.358  65.812  1.00  0.00    -0.188 A  
ENDROOT
BRANCH   5   8
HETATM    8  C   UNL     1      -9.060   4.721  69.557  1.00  0.00    -0.152 C  
HETATM    9  C   UNL     1      -9.663   5.577  70.392  1.00  0.00    -0.242 C  
HETATM   10  C   UNL     1     -10.300   6.938  70.190  1.00  0.00    -0.218 C  
HETATM   11  C   UNL     1     -11.825   6.707  70.325  1.00  0.00    -0.378 C  
HETATM   12  C   UNL     1     -12.019   6.466  71.841  1.00  0.00    -0.381 C  
HETATM   13  C   UNL     1     -10.583   6.598  72.406  1.00  0.00    -0.242 C  
HETATM   14  C   UNL     1     -10.518   6.802  73.901  1.00  0.00    -0.356 C  
HETATM   15  C   UNL     1      -9.937   7.689  71.502  1.00  0.00    -0.200 C  
HETATM   16  C   UNL     1      -9.854   5.360  71.873  1.00  0.00    -0.171 C  
HETATM   17  O   UNL     1      -9.521   4.368  72.494  1.00  0.00    -0.131 OA 
HETATM   18  C   UNL     1      -8.420   7.887  71.723  1.00  0.00    -0.147 C  
HETATM   19  C   UNL     1     -10.579   9.085  71.589  1.00  0.00    -0.434 C  
ENDBRANCH   5   8
TORSDOF 1
ENDMDL
MODEL      103
REMARK 921   NORMALIZED FREE ENERGY PREDICTED BY IDOCK:   -3.82 KCAL/MOL
REMARK 922        TOTAL FREE ENERGY PREDICTED BY IDOCK:   -4.53 KCAL/MOL
REMARK 923 INTER-LIGAND FREE ENERGY PREDICTED BY IDOCK:   -4.07 KCAL/MOL
REMARK 924 INTRA-LIGAND FREE ENERGY PREDICTED BY IDOCK:   -0.46 KCAL/MOL
REMARK 927      BINDING AFFINITY PREDICTED BY RF-SCORE:    0.00 PKD
ROOT
HETATM    1  C   UNL     1     -10.749   7.462  67.115  1.00  0.00    -0.400 C  
HETATM    2  C   UNL     1     -10.079   8.803  67.063  1.00  0.00    -0.335 A  
HETATM    3  C   UNL     1      -9.672   9.374  65.853  1.00  0.00    -0.355 A  
HETATM    4  C   UNL     1      -9.008  10.609  65.835  1.00  0.00    -0.192 A  
HETATM    5  C   UNL     1      -8.740  11.298  67.025  1.00  0.00    -0.152 A  
HETATM    6  C   UNL     1      -9.141  10.707  68.230  1.00  0.00    -0.153 A  
HETATM    7  C   UNL     1      -9.820   9.488  68.251  1.00  0.00    -0.174 A  
ENDROOT
BRANCH   5   8
HETATM    8  C   UNL     1      -7.967  12.551  66.982  1.00  0.00    -0.086 C  
HETATM    9  C   UNL     1      -8.436  13.766  67.299  1.00  0.00    -0.204 C  
HETATM   10  C   UNL     1      -9.808  14.268  67.702  1.00  0.00    -0.224 C  
HETATM   11  C   UNL     1      -9.700  14.604  69.210  1.00  0.00    -0.050 C  
HETATM   12  C   UNL     1      -8.848  15.895  69.230  1.00  0.00    -0.249 C  
HETATM   13  C   UNL     1      -8.574  16.161  67.729  1.00  0.00    -0.172 C  
HETATM   14  C   UNL     1      -8.102  17.562  67.421  1.00  0.00    -0.213 C  
HETATM   15  C   UNL     1      -9.874  15.669  67.029  1.00  0.00    -0.237 C  
HETATM   16  C   UNL     1      -7.620  15.034  67.317  1.00  0.00    -0.194 C  
HETATM   17  O   UNL     1      -6.428  15.116  67.084  1.00  0.00    -0.291 OA 
HETATM   18  C   UNL     1      -9.799  15.638  65.486  1.00  0.00    -0.326 C  
HETATM   19  C   UNL     1     -11.154  16.445  67.391  1.00  0.00    -0.062 C  
ENDBRANCH   5   8
TORSDOF 1
ENDMDL
MODEL      104
REMARK 921   NORMALIZED FREE ENERGY PREDICTED BY IDOCK:   -3.82 KCAL/MOL
REMARK 922        TOTAL FREE ENERGY PREDICTED BY IDOCK:   -4.53 KCAL/MOL
REMARK 923 INTER-LIGAND FREE ENERGY PREDICTED BY IDOCK:   -4.19 KCAL/MOL
REMARK 924 INTRA-LIGAND FREE ENERGY PREDICTED BY IDOCK:   -0.34 KCAL/MOL
REMARK 927      BINDING AFFINITY PREDICTED BY RF-SCORE:    0.00 PKD
ROOT
HETATM    1  C   UNL     1     -12.513  14.720  64.314  1.00  0.00    -0.224 C  
HETATM    2  C   UNL     1     -11.798  13.427  64.573  1.00  0.00    -0.440 A  
HETATM    3  C   UNL     1     -11.256  12.665  63.532  1.00  0.00    -0.489 A  
HETATM    4  C   UNL     1     -10.630  11.439  63.797  1.00  0.00    -0.464 A  
HETATM    5  C   UNL     1     -10.532  10.950  65.106  1.00  0.00    -0.316 A  
HETATM    6  C   UNL     1     -11.091  11.716  66.136  1.00  0.00    -0.335 A  
HETATM    7  C   UNL     1     -11.697  12.947  65.880  1.00  0.00    -0.449 A  
ENDROOT
BRANCH   5   8
HETATM    8  C   UNL     1      -9.945   9.620  65.343  1.00  0.00    -0.230 C  
HETATM    9  C   UNL     1      -8.727   9.225  64.947  1.00  0.00    -0.224 C  
HETATM   10  C   UNL     1      -7.642   9.895  64.128  1.00  0.00    -0.139 C  
HETATM   11  C   UNL     1      -6.517  10.242  65.134  1.00  0.00    -0.119 C  
HETATM   12  C   UNL     1      -5.891   8.865  65.461  1.00  0.00    -0.051 C  
HETATM   13  C   UNL     1      -6.722   7.885  64.596  1.00  0.00    -0.059 C  
HETATM   14  C   UNL     1      -6.087   6.527  64.409  1.00  0.00    -0.034 C  
HETATM   15  C   UNL     1      -7.042   8.712  63.317  1.00  0.00    -0.090 C  
HETATM   16  C   UNL     1      -8.106   7.885  65.253  1.00  0.00    -0.135 C  
HETATM   17  O   UNL     1      -8.611   7.005  65.926  1.00  0.00    -0.143 OA 
HETATM   18  C   UNL     1      -8.037   8.034  62.348  1.00  0.00    -0.163 C  
HETATM   19  C   UNL     1      -5.821   9.124  62.473  1.00  0.00    -0.090 C  
ENDBRANCH   5   8
TORSDOF 1
ENDMDL
MODEL      105
REMARK 921   NORMALIZED FREE ENERGY PREDICTED BY IDOCK:   -3.80 KCAL/MOL
REMARK 922        TOTAL FREE ENERGY PREDICTED BY IDOCK:   -4.51 KCAL/MOL
REMARK 923 INTER-LIGAND FREE ENERGY PREDICTED BY IDOCK:   -4.04 KCAL/MOL
REMARK 924 INTRA-LIGAND FREE ENERGY PREDICTED BY IDOCK:   -0.47 KCAL/MOL
REMARK 927      BINDING AFFINITY PREDICTED BY RF-SCORE:    0.00 PKD
ROOT
HETATM    1  C   UNL     1     -13.210  10.599  71.629  1.00  0.00    -0.495 C  
HETATM    2  C   UNL     1     -12.012   9.698  71.577  1.00  0.00    -0.485 A  
HETATM    3  C   UNL     1     -10.966   9.917  70.674  1.00  0.00    -0.405 A  
HETATM    4  C   UNL     1      -9.877   9.035  70.616  1.00  0.00    -0.284 A  
HETATM    5  C   UNL     1      -9.812   7.919  71.461  1.00  0.00    -0.206 A  
HETATM    6  C   UNL     1     -10.872   7.705  72.350  1.00  0.00    -0.341 A  
HETATM    7  C   UNL     1     -11.948   8.591  72.425  1.00  0.00    -0.434 A  
ENDROOT
BRANCH   5   8
HETATM    8  C   UNL     1      -8.699   6.965  71.319  1.00  0.00    -0.134 C  
HETATM    9  C   UNL     1      -8.484   6.171  70.260  1.00  0.00    -0.126 C  
HETATM   10  C   UNL     1      -9.262   5.924  68.983  1.00  0.00    -0.132 C  
HETATM   11  C   UNL     1      -8.436   6.596  67.858  1.00  0.00    -0.119 C  
HETATM   12  C   UNL     1      -7.217   5.657  67.698  1.00  0.00    -0.076 C  
HETATM   13  C   UNL     1      -7.488   4.545  68.742  1.00  0.00    -0.060 C  
HETATM   14  C   UNL     1      -6.672   3.290  68.541  1.00  0.00    -0.045 C  
HETATM   15  C   UNL     1      -9.038   4.407  68.730  1.00  0.00    -0.173 C  
HETATM   16  C   UNL     1      -7.304   5.247  70.093  1.00  0.00    -0.067 C  
HETATM   17  O   UNL     1      -6.379   5.127  70.873  1.00  0.00    -0.022 OA 
HETATM   18  C   UNL     1      -9.607   3.487  69.835  1.00  0.00    -0.219 C  
HETATM   19  C   UNL     1      -9.649   3.925  67.401  1.00  0.00    -0.218 C  
ENDBRANCH   5   8
TORSDOF 1
ENDMDL
MODEL      106
REMARK 921   NORMALIZED FREE ENERGY PREDICTED BY IDOCK:   -3.79 KCAL/MOL
REMARK 922        TOTAL FREE ENERGY PREDICTED BY IDOCK:   -4.51 KCAL/MOL
REMARK 923 INTER-LIGAND FREE ENERGY PREDICTED BY IDOCK:   -4.30 KCAL/MOL
REMARK 924 INTRA-LIGAND FREE ENERGY PREDICTED BY IDOCK:   -0.20 KCAL/MOL
REMARK 927      BINDING AFFINITY PREDICTED BY RF-SCORE:    0.00 PKD
ROOT
HETATM    1  C   UNL     1      -9.437  10.865  64.573  1.00  0.00    -0.284 C  
HETATM    2  C   UNL     1      -9.533   9.630  65.420  1.00  0.00    -0.343 A  
HETATM    3  C   UNL     1     -10.490   9.506  66.432  1.00  0.00    -0.168 A  
HETATM    4  C   UNL     1     -10.531   8.360  67.239  1.00  0.00    -0.373 A  
HETATM    5  C   UNL     1      -9.618   7.314  67.047  1.00  0.00    -0.213 A  
HETATM    6  C   UNL     1      -8.657   7.458  66.039  1.00  0.00    -0.162 A  
HETATM    7  C   UNL     1      -8.625   8.589  65.222  1.00  0.00    -0.192 A  
ENDROOT
BRANCH   5   8
HETATM    8  C   UNL     1      -9.632   6.161  67.964  1.00  0.00    -0.115 C  
HETATM    9  C   UNL     1      -9.840   6.220  69.286  1.00  0.00    -0.167 C  
HETATM   10  C   UNL     1     -10.040   7.375  70.248  1.00  0.00    -0.197 C  
HETATM   11  C   UNL     1     -11.536   7.329  70.646  1.00  0.00    -0.322 C  
HETATM   12  C   UNL     1     -11.622   6.096  71.577  1.00  0.00    -0.304 C  
HETATM   13  C   UNL     1     -10.162   5.582  71.617  1.00  0.00    -0.265 C  
HETATM   14  C   UNL     1      -9.868   4.629  72.752  1.00  0.00    -0.186 C  
HETATM   15  C   UNL     1      -9.315   6.885  71.533  1.00  0.00    -0.155 C  
HETATM   16  C   UNL     1      -9.920   5.029  70.208  1.00  0.00    -0.255 C  
HETATM   17  O   UNL     1      -9.844   3.862  69.869  1.00  0.00    -0.199 OA 
HETATM   18  C   UNL     1      -7.797   6.653  71.358  1.00  0.00    -0.099 C  
HETATM   19  C   UNL     1      -9.477   7.856  72.717  1.00  0.00    -0.304 C  
ENDBRANCH   5   8
TORSDOF 1
ENDMDL
MODEL      107
REMARK 921   NORMALIZED FREE ENERGY PREDICTED BY IDOCK:   -3.79 KCAL/MOL
REMARK 922        TOTAL FREE ENERGY PREDICTED BY IDOCK:   -4.50 KCAL/MOL
REMARK 923 INTER-LIGAND FREE ENERGY PREDICTED BY IDOCK:   -4.02 KCAL/MOL
REMARK 924 INTRA-LIGAND FREE ENERGY PREDICTED BY IDOCK:   -0.48 KCAL/MOL
REMARK 927      BINDING AFFINITY PREDICTED BY RF-SCORE:    0.00 PKD
ROOT
HETATM    1  C   UNL     1      -5.333  12.657  71.165  1.00  0.00    -0.147 C  
HETATM    2  C   UNL     1      -5.696  13.677  70.126  1.00  0.00    -0.136 A  
HETATM    3  C   UNL     1      -6.489  13.351  69.021  1.00  0.00    -0.105 A  
HETATM    4  C   UNL     1      -6.778  14.312  68.042  1.00  0.00    -0.154 A  
HETATM    5  C   UNL     1      -6.282  15.618  68.149  1.00  0.00    -0.135 A  
HETATM    6  C   UNL     1      -5.478  15.927  69.253  1.00  0.00    -0.112 A  
HETATM    7  C   UNL     1      -5.205  14.978  70.240  1.00  0.00    -0.114 A  
ENDROOT
BRANCH   5   8
HETATM    8  C   UNL     1      -6.532  16.581  67.063  1.00  0.00    -0.221 C  
HETATM    9  C   UNL     1      -7.384  17.614  67.119  1.00  0.00    -0.213 C  
HETATM   10  C   UNL     1      -8.364  18.085  68.175  1.00  0.00    -0.273 C  
HETATM   11  C   UNL     1      -7.745  19.372  68.771  1.00  0.00    -0.397 C  
HETATM   12  C   UNL     1      -7.934  20.417  67.645  1.00  0.00    -0.288 C  
HETATM   13  C   UNL     1      -8.652  19.611  66.534  1.00  0.00    -0.387 C  
HETATM   14  C   UNL     1      -9.313  20.463  65.476  1.00  0.00     0.358 C  
HETATM   15  C   UNL     1      -9.553  18.621  67.328  1.00  0.00    -0.316 C  
HETATM   16  C   UNL     1      -7.584  18.635  66.027  1.00  0.00    -0.202 C  
HETATM   17  O   UNL     1      -6.976  18.679  64.975  1.00  0.00    -0.467 OA 
HETATM   18  C   UNL     1     -10.249  17.550  66.458  1.00  0.00    -0.342 C  
HETATM   19  C   UNL     1     -10.653  19.271  68.187  1.00  0.00    -0.367 C  
ENDBRANCH   5   8
TORSDOF 1
ENDMDL
MODEL      108
REMARK 921   NORMALIZED FREE ENERGY PREDICTED BY IDOCK:   -3.75 KCAL/MOL
REMARK 922        TOTAL FREE ENERGY PREDICTED BY IDOCK:   -4.46 KCAL/MOL
REMARK 923 INTER-LIGAND FREE ENERGY PREDICTED BY IDOCK:   -4.25 KCAL/MOL
REMARK 924 INTRA-LIGAND FREE ENERGY PREDICTED BY IDOCK:   -0.22 KCAL/MOL
REMARK 927      BINDING AFFINITY PREDICTED BY RF-SCORE:    0.00 PKD
ROOT
HETATM    1  C   UNL     1     -12.743  11.488  71.811  1.00  0.00    -0.340 C  
HETATM    2  C   UNL     1     -12.095  11.368  70.463  1.00  0.00    -0.487 A  
HETATM    3  C   UNL     1     -12.031  12.450  69.579  1.00  0.00    -0.324 A  
HETATM    4  C   UNL     1     -11.459  12.301  68.308  1.00  0.00    -0.367 A  
HETATM    5  C   UNL     1     -10.938  11.068  67.896  1.00  0.00    -0.317 A  
HETATM    6  C   UNL     1     -11.020   9.989  68.786  1.00  0.00    -0.242 A  
HETATM    7  C   UNL     1     -11.571  10.139  70.060  1.00  0.00    -0.323 A  
ENDROOT
BRANCH   5   8
HETATM    8  C   UNL     1     -10.420  10.919  66.525  1.00  0.00    -0.308 C  
HETATM    9  C   UNL     1      -9.421  10.107  66.154  1.00  0.00    -0.238 C  
HETATM   10  C   UNL     1      -8.493   9.193  66.930  1.00  0.00    -0.124 C  
HETATM   11  C   UNL     1      -8.953   7.753  66.593  1.00  0.00    -0.175 C  
HETATM   12  C   UNL     1      -8.477   7.556  65.134  1.00  0.00    -0.043 C  
HETATM   13  C   UNL     1      -7.787   8.903  64.803  1.00  0.00    -0.121 C  
HETATM   14  C   UNL     1      -6.888   8.861  63.591  1.00  0.00    -0.088 C  
HETATM   15  C   UNL     1      -7.150   9.327  66.159  1.00  0.00    -0.091 C  
HETATM   16  C   UNL     1      -8.942   9.910  64.738  1.00  0.00    -0.217 C  
HETATM   17  O   UNL     1      -9.420  10.430  63.747  1.00  0.00    -0.262 OA 
HETATM   18  C   UNL     1      -6.551  10.752  66.167  1.00  0.00    -0.127 C  
HETATM   19  C   UNL     1      -6.055   8.388  66.697  1.00  0.00    -0.053 C  
ENDBRANCH   5   8
TORSDOF 1
ENDMDL
MODEL      109
REMARK 921   NORMALIZED FREE ENERGY PREDICTED BY IDOCK:   -3.74 KCAL/MOL
REMARK 922        TOTAL FREE ENERGY PREDICTED BY IDOCK:   -4.45 KCAL/MOL
REMARK 923 INTER-LIGAND FREE ENERGY PREDICTED BY IDOCK:   -3.96 KCAL/MOL
REMARK 924 INTRA-LIGAND FREE ENERGY PREDICTED BY IDOCK:   -0.49 KCAL/MOL
REMARK 927      BINDING AFFINITY PREDICTED BY RF-SCORE:    0.00 PKD
ROOT
HETATM    1  C   UNL     1     -13.810  12.319  71.846  1.00  0.00     0.182 C  
HETATM    2  C   UNL     1     -12.701  11.483  71.277  1.00  0.00    -0.469 A  
HETATM    3  C   UNL     1     -12.356  10.246  71.829  1.00  0.00    -0.362 A  
HETATM    4  C   UNL     1     -11.288   9.504  71.306  1.00  0.00    -0.446 A  
HETATM    5  C   UNL     1     -10.545   9.984  70.219  1.00  0.00    -0.354 A  
HETATM    6  C   UNL     1     -10.892  11.231  69.685  1.00  0.00    -0.155 A  
HETATM    7  C   UNL     1     -11.968  11.963  70.191  1.00  0.00    -0.413 A  
ENDROOT
BRANCH   5   8
HETATM    8  C   UNL     1      -9.376   9.223  69.746  1.00  0.00    -0.199 C  
HETATM    9  C   UNL     1      -9.347   8.432  68.664  1.00  0.00    -0.143 C  
HETATM   10  C   UNL     1     -10.411   8.004  67.672  1.00  0.00    -0.312 C  
HETATM   11  C   UNL     1     -10.079   8.755  66.359  1.00  0.00    -0.313 C  
HETATM   12  C   UNL     1      -8.818   8.026  65.838  1.00  0.00    -0.189 C  
HETATM   13  C   UNL     1      -8.576   6.931  66.905  1.00  0.00    -0.116 C  
HETATM   14  C   UNL     1      -7.653   5.821  66.462  1.00  0.00    -0.091 C  
HETATM   15  C   UNL     1     -10.015   6.536  67.352  1.00  0.00    -0.180 C  
HETATM   16  C   UNL     1      -8.128   7.710  68.147  1.00  0.00    -0.124 C  
HETATM   17  O   UNL     1      -7.008   7.779  68.618  1.00  0.00    -0.064 OA 
HETATM   18  C   UNL     1     -10.068   5.582  68.567  1.00  0.00    -0.240 C  
HETATM   19  C   UNL     1     -10.895   5.903  66.259  1.00  0.00     0.026 C  
ENDBRANCH   5   8
TORSDOF 1
ENDMDL
MODEL      110
REMARK 921   NORMALIZED FREE ENERGY PREDICTED BY IDOCK:   -3.71 KCAL/MOL
REMARK 922        TOTAL FREE ENERGY PREDICTED BY IDOCK:   -4.42 KCAL/MOL
REMARK 923 INTER-LIGAND FREE ENERGY PREDICTED BY IDOCK:   -3.95 KCAL/MOL
REMARK 924 INTRA-LIGAND FREE ENERGY PREDICTED BY IDOCK:   -0.47 KCAL/MOL
REMARK 927      BINDING AFFINITY PREDICTED BY RF-SCORE:    0.00 PKD
ROOT
HETATM    1  C   UNL     1      -7.496   6.431  68.011  1.00  0.00    -0.094 C  
HETATM    2  C   UNL     1      -7.698   7.915  68.092  1.00  0.00    -0.125 A  
HETATM    3  C   UNL     1      -7.783   8.709  66.944  1.00  0.00    -0.091 A  
HETATM    4  C   UNL     1      -7.928  10.100  67.046  1.00  0.00    -0.110 A  
HETATM    5  C   UNL     1      -7.992  10.724  68.299  1.00  0.00    -0.118 A  
HETATM    6  C   UNL     1      -7.890   9.919  69.440  1.00  0.00    -0.127 A  
HETATM    7  C   UNL     1      -7.766   8.532  69.342  1.00  0.00    -0.092 A  
ENDROOT
BRANCH   5   8
HETATM    8  C   UNL     1      -8.058  12.194  68.375  1.00  0.00    -0.149 C  
HETATM    9  C   UNL     1      -9.141  12.939  68.113  1.00  0.00    -0.207 C  
HETATM   10  C   UNL     1     -10.532  12.596  67.616  1.00  0.00    -0.226 C  
HETATM   11  C   UNL     1     -11.467  12.788  68.835  1.00  0.00    -0.352 C  
HETATM   12  C   UNL     1     -11.535  14.325  68.997  1.00  0.00    -0.318 C  
HETATM   13  C   UNL     1     -10.640  14.842  67.843  1.00  0.00    -0.248 C  
HETATM   14  C   UNL     1     -10.832  16.303  67.512  1.00  0.00    -0.268 C  
HETATM   15  C   UNL     1     -10.881  13.807  66.706  1.00  0.00    -0.284 C  
HETATM   16  C   UNL     1      -9.221  14.438  68.259  1.00  0.00    -0.201 C  
HETATM   17  O   UNL     1      -8.331  15.160  68.668  1.00  0.00    -0.143 OA 
HETATM   18  C   UNL     1      -9.952  13.973  65.481  1.00  0.00    -0.302 C  
HETATM   19  C   UNL     1     -12.320  13.749  66.160  1.00  0.00    -0.496 C  
ENDBRANCH   5   8
TORSDOF 1
ENDMDL
MODEL      111
REMARK 921   NORMALIZED FREE ENERGY PREDICTED BY IDOCK:   -3.71 KCAL/MOL
REMARK 922        TOTAL FREE ENERGY PREDICTED BY IDOCK:   -4.42 KCAL/MOL
REMARK 923 INTER-LIGAND FREE ENERGY PREDICTED BY IDOCK:   -3.93 KCAL/MOL
REMARK 924 INTRA-LIGAND FREE ENERGY PREDICTED BY IDOCK:   -0.49 KCAL/MOL
REMARK 927      BINDING AFFINITY PREDICTED BY RF-SCORE:    0.00 PKD
ROOT
HETATM    1  C   UNL     1     -11.301  14.514  67.702  1.00  0.00    -0.354 C  
HETATM    2  C   UNL     1     -11.106  13.028  67.645  1.00  0.00    -0.296 A  
HETATM    3  C   UNL     1     -10.457  12.413  66.569  1.00  0.00    -0.254 A  
HETATM    4  C   UNL     1     -10.327  11.018  66.518  1.00  0.00    -0.295 A  
HETATM    5  C   UNL     1     -10.841  10.211  67.541  1.00  0.00    -0.349 A  
HETATM    6  C   UNL     1     -11.501  10.839  68.604  1.00  0.00    -0.365 A  
HETATM    7  C   UNL     1     -11.615  12.228  68.669  1.00  0.00    -0.372 A  
ENDROOT
BRANCH   5   8
HETATM    8  C   UNL     1     -10.764   8.745  67.418  1.00  0.00    -0.216 C  
HETATM    9  C   UNL     1      -9.871   7.958  68.034  1.00  0.00    -0.195 C  
HETATM   10  C   UNL     1      -8.684   8.251  68.930  1.00  0.00    -0.137 C  
HETATM   11  C   UNL     1      -9.117   7.810  70.350  1.00  0.00    -0.155 C  
HETATM   12  C   UNL     1      -9.103   6.265  70.266  1.00  0.00    -0.156 C  
HETATM   13  C   UNL     1      -8.652   5.995  68.810  1.00  0.00    -0.112 C  
HETATM   14  C   UNL     1      -8.171   4.585  68.558  1.00  0.00    -0.082 C  
HETATM   15  C   UNL     1      -7.660   7.158  68.515  1.00  0.00    -0.115 C  
HETATM   16  C   UNL     1      -9.841   6.452  67.957  1.00  0.00    -0.123 C  
HETATM   17  O   UNL     1     -10.640   5.755  67.360  1.00  0.00    -0.233 OA 
HETATM   18  C   UNL     1      -7.195   7.246  67.043  1.00  0.00    -0.092 C  
HETATM   19  C   UNL     1      -6.385   7.173  69.379  1.00  0.00    -0.035 C  
ENDBRANCH   5   8
TORSDOF 1
ENDMDL
MODEL      112
REMARK 921   NORMALIZED FREE ENERGY PREDICTED BY IDOCK:   -3.71 KCAL/MOL
REMARK 922        TOTAL FREE ENERGY PREDICTED BY IDOCK:   -4.42 KCAL/MOL
REMARK 923 INTER-LIGAND FREE ENERGY PREDICTED BY IDOCK:   -3.95 KCAL/MOL
REMARK 924 INTRA-LIGAND FREE ENERGY PREDICTED BY IDOCK:   -0.47 KCAL/MOL
REMARK 927      BINDING AFFINITY PREDICTED BY RF-SCORE:    0.00 PKD
ROOT
HETATM    1  C   UNL     1     -12.023   4.993  72.870  1.00  0.00    -0.035 C  
HETATM    2  C   UNL     1     -11.225   6.098  72.245  1.00  0.00    -0.334 A  
HETATM    3  C   UNL     1     -10.562   5.927  71.025  1.00  0.00    -0.312 A  
HETATM    4  C   UNL     1      -9.787   6.961  70.483  1.00  0.00    -0.187 A  
HETATM    5  C   UNL     1      -9.660   8.187  71.148  1.00  0.00    -0.196 A  
HETATM    6  C   UNL     1     -10.317   8.340  72.375  1.00  0.00    -0.402 A  
HETATM    7  C   UNL     1     -11.106   7.320  72.909  1.00  0.00    -0.369 A  
ENDROOT
BRANCH   5   8
HETATM    8  C   UNL     1      -8.771   9.225  70.597  1.00  0.00    -0.282 C  
HETATM    9  C   UNL     1      -9.043  10.001  69.539  1.00  0.00    -0.236 C  
HETATM   10  C   UNL     1     -10.206  10.049  68.568  1.00  0.00    -0.196 C  
HETATM   11  C   UNL     1     -10.992  11.335  68.924  1.00  0.00    -0.274 C  
HETATM   12  C   UNL     1     -10.075  12.470  68.410  1.00  0.00    -0.216 C  
HETATM   13  C   UNL     1      -8.872  11.706  67.805  1.00  0.00    -0.159 C  
HETATM   14  C   UNL     1      -8.008  12.533  66.882  1.00  0.00    -0.013 C  
HETATM   15  C   UNL     1      -9.517  10.415  67.222  1.00  0.00    -0.176 C  
HETATM   16  C   UNL     1      -8.157  11.107  69.022  1.00  0.00    -0.076 C  
HETATM   17  O   UNL     1      -7.103  11.463  69.516  1.00  0.00    -0.102 OA 
HETATM   18  C   UNL     1      -8.503   9.362  66.719  1.00  0.00    -0.129 C  
HETATM   19  C   UNL     1     -10.523  10.638  66.078  1.00  0.00    -0.250 C  
ENDBRANCH   5   8
TORSDOF 1
ENDMDL
MODEL      113
REMARK 921   NORMALIZED FREE ENERGY PREDICTED BY IDOCK:   -3.69 KCAL/MOL
REMARK 922        TOTAL FREE ENERGY PREDICTED BY IDOCK:   -4.40 KCAL/MOL
REMARK 923 INTER-LIGAND FREE ENERGY PREDICTED BY IDOCK:   -4.30 KCAL/MOL
REMARK 924 INTRA-LIGAND FREE ENERGY PREDICTED BY IDOCK:   -0.09 KCAL/MOL
REMARK 927      BINDING AFFINITY PREDICTED BY RF-SCORE:    0.00 PKD
ROOT
HETATM    1  C   UNL     1     -10.455  12.807  64.673  1.00  0.00    -0.373 C  
HETATM    2  C   UNL     1     -10.513  11.612  65.578  1.00  0.00    -0.321 A  
HETATM    3  C   UNL     1     -10.054  10.356  65.167  1.00  0.00    -0.379 A  
HETATM    4  C   UNL     1     -10.158   9.245  66.017  1.00  0.00    -0.262 A  
HETATM    5  C   UNL     1     -10.722   9.368  67.293  1.00  0.00    -0.258 A  
HETATM    6  C   UNL     1     -11.190  10.628  67.686  1.00  0.00    -0.361 A  
HETATM    7  C   UNL     1     -11.070  11.741  66.851  1.00  0.00    -0.361 A  
ENDROOT
BRANCH   5   8
HETATM    8  C   UNL     1     -10.896   8.168  68.129  1.00  0.00     0.015 C  
HETATM    9  C   UNL     1     -10.131   7.069  68.083  1.00  0.00    -0.193 C  
HETATM   10  C   UNL     1      -8.972   6.657  67.197  1.00  0.00    -0.118 C  
HETATM   11  C   UNL     1      -7.713   6.736  68.095  1.00  0.00    -0.109 C  
HETATM   12  C   UNL     1      -7.868   5.518  69.037  1.00  0.00    -0.091 C  
HETATM   13  C   UNL     1      -9.193   4.871  68.563  1.00  0.00    -0.157 C  
HETATM   14  C   UNL     1      -9.396   3.451  69.035  1.00  0.00    -0.239 C  
HETATM   15  C   UNL     1      -9.193   5.128  67.028  1.00  0.00    -0.117 C  
HETATM   16  C   UNL     1     -10.273   5.872  68.989  1.00  0.00    -0.203 C  
HETATM   17  O   UNL     1     -11.072   5.762  69.901  1.00  0.00    -0.360 OA 
HETATM   18  C   UNL     1     -10.512   4.750  66.315  1.00  0.00    -0.311 C  
HETATM   19  C   UNL     1      -8.059   4.443  66.243  1.00  0.00    -0.102 C  
ENDBRANCH   5   8
TORSDOF 1
ENDMDL
MODEL      114
REMARK 921   NORMALIZED FREE ENERGY PREDICTED BY IDOCK:   -3.64 KCAL/MOL
REMARK 922        TOTAL FREE ENERGY PREDICTED BY IDOCK:   -4.34 KCAL/MOL
REMARK 923 INTER-LIGAND FREE ENERGY PREDICTED BY IDOCK:   -3.85 KCAL/MOL
REMARK 924 INTRA-LIGAND FREE ENERGY PREDICTED BY IDOCK:   -0.49 KCAL/MOL
REMARK 927      BINDING AFFINITY PREDICTED BY RF-SCORE:    0.00 PKD
ROOT
HETATM    1  C   UNL     1     -14.277   8.832  72.276  1.00  0.00    -0.498 C  
HETATM    2  C   UNL     1     -12.901   8.491  71.787  1.00  0.00    -0.380 A  
HETATM    3  C   UNL     1     -12.542   7.181  71.455  1.00  0.00    -0.432 A  
HETATM    4  C   UNL     1     -11.236   6.881  71.042  1.00  0.00    -0.323 A  
HETATM    5  C   UNL     1     -10.264   7.885  70.952  1.00  0.00    -0.213 A  
HETATM    6  C   UNL     1     -10.632   9.190  71.301  1.00  0.00    -0.399 A  
HETATM    7  C   UNL     1     -11.937   9.496  71.693  1.00  0.00    -0.474 A  
ENDROOT
BRANCH   5   8
HETATM    8  C   UNL     1      -8.880   7.526  70.598  1.00  0.00    -0.146 C  
HETATM    9  C   UNL     1      -8.367   7.530  69.360  1.00  0.00    -0.132 C  
HETATM   10  C   UNL     1      -8.970   7.800  67.995  1.00  0.00    -0.126 C  
HETATM   11  C   UNL     1      -8.409   9.175  67.558  1.00  0.00    -0.116 C  
HETATM   12  C   UNL     1      -6.931   8.869  67.219  1.00  0.00    -0.078 C  
HETATM   13  C   UNL     1      -6.815   7.348  67.489  1.00  0.00    -0.078 C  
HETATM   14  C   UNL     1      -5.599   6.697  66.873  1.00  0.00    -0.013 C  
HETATM   15  C   UNL     1      -8.212   6.799  67.079  1.00  0.00    -0.113 C  
HETATM   16  C   UNL     1      -6.930   7.227  69.013  1.00  0.00    -0.077 C  
HETATM   17  O   UNL     1      -6.045   6.978  69.809  1.00  0.00    -0.026 OA 
HETATM   18  C   UNL     1      -8.445   5.312  67.430  1.00  0.00    -0.106 C  
HETATM   19  C   UNL     1      -8.574   6.959  65.591  1.00  0.00    -0.119 C  
ENDBRANCH   5   8
TORSDOF 1
ENDMDL
MODEL      115
REMARK 921   NORMALIZED FREE ENERGY PREDICTED BY IDOCK:   -3.62 KCAL/MOL
REMARK 922        TOTAL FREE ENERGY PREDICTED BY IDOCK:   -4.32 KCAL/MOL
REMARK 923 INTER-LIGAND FREE ENERGY PREDICTED BY IDOCK:   -3.87 KCAL/MOL
REMARK 924 INTRA-LIGAND FREE ENERGY PREDICTED BY IDOCK:   -0.45 KCAL/MOL
REMARK 927      BINDING AFFINITY PREDICTED BY RF-SCORE:    0.00 PKD
ROOT
HETATM    1  C   UNL     1     -11.849   6.230  71.972  1.00  0.00    -0.370 C  
HETATM    2  C   UNL     1     -11.403   6.898  70.706  1.00  0.00    -0.355 A  
HETATM    3  C   UNL     1     -11.103   8.263  70.661  1.00  0.00    -0.269 A  
HETATM    4  C   UNL     1     -10.730   8.873  69.455  1.00  0.00    -0.192 A  
HETATM    5  C   UNL     1     -10.647   8.130  68.270  1.00  0.00    -0.153 A  
HETATM    6  C   UNL     1     -10.963   6.767  68.327  1.00  0.00    -0.270 A  
HETATM    7  C   UNL     1     -11.316   6.152  69.529  1.00  0.00    -0.426 A  
ENDROOT
BRANCH   5   8
HETATM    8  C   UNL     1     -10.335   8.814  67.004  1.00  0.00    -0.353 C  
HETATM    9  C   UNL     1      -9.244   8.605  66.254  1.00  0.00    -0.257 C  
HETATM   10  C   UNL     1      -8.014   7.739  66.444  1.00  0.00    -0.099 C  
HETATM   11  C   UNL     1      -8.165   6.576  65.433  1.00  0.00    -0.135 C  
HETATM   12  C   UNL     1      -7.896   7.251  64.066  1.00  0.00    -0.114 C  
HETATM   13  C   UNL     1      -7.609   8.723  64.450  1.00  0.00    -0.116 C  
HETATM   14  C   UNL     1      -6.931   9.528  63.367  1.00  0.00    -0.101 C  
HETATM   15  C   UNL     1      -6.883   8.606  65.822  1.00  0.00    -0.068 C  
HETATM   16  C   UNL     1      -8.965   9.259  64.924  1.00  0.00    -0.180 C  
HETATM   17  O   UNL     1      -9.705  10.029  64.342  1.00  0.00    -0.305 OA 
HETATM   18  C   UNL     1      -6.646   9.954  66.540  1.00  0.00    -0.072 C  
HETATM   19  C   UNL     1      -5.524   7.882  65.791  1.00  0.00    -0.029 C  
ENDBRANCH   5   8
TORSDOF 1
ENDMDL
MODEL      116
REMARK 921   NORMALIZED FREE ENERGY PREDICTED BY IDOCK:   -3.62 KCAL/MOL
REMARK 922        TOTAL FREE ENERGY PREDICTED BY IDOCK:   -4.32 KCAL/MOL
REMARK 923 INTER-LIGAND FREE ENERGY PREDICTED BY IDOCK:   -3.86 KCAL/MOL
REMARK 924 INTRA-LIGAND FREE ENERGY PREDICTED BY IDOCK:   -0.46 KCAL/MOL
REMARK 927      BINDING AFFINITY PREDICTED BY RF-SCORE:    0.00 PKD
ROOT
HETATM    1  C   UNL     1      -6.475  15.120  68.780  1.00  0.00    -0.086 C  
HETATM    2  C   UNL     1      -7.169  13.790  68.750  1.00  0.00    -0.106 A  
HETATM    3  C   UNL     1      -6.569  12.637  69.266  1.00  0.00    -0.092 A  
HETATM    4  C   UNL     1      -7.220  11.398  69.187  1.00  0.00    -0.102 A  
HETATM    5  C   UNL     1      -8.483  11.287  68.591  1.00  0.00    -0.143 A  
HETATM    6  C   UNL     1      -9.065  12.447  68.065  1.00  0.00    -0.195 A  
HETATM    7  C   UNL     1      -8.429  13.686  68.160  1.00  0.00    -0.175 A  
ENDROOT
BRANCH   5   8
HETATM    8  C   UNL     1      -9.105   9.960  68.446  1.00  0.00    -0.123 C  
HETATM    9  C   UNL     1      -9.614   9.225  69.445  1.00  0.00    -0.170 C  
HETATM   10  C   UNL     1      -9.668   9.424  70.946  1.00  0.00    -0.320 C  
HETATM   11  C   UNL     1     -11.147   9.751  71.269  1.00  0.00    -0.375 C  
HETATM   12  C   UNL     1     -11.864   8.393  71.082  1.00  0.00    -0.314 C  
HETATM   13  C   UNL     1     -10.711   7.437  70.685  1.00  0.00    -0.242 C  
HETATM   14  C   UNL     1     -11.044   5.970  70.823  1.00  0.00    -0.355 C  
HETATM   15  C   UNL     1      -9.496   7.979  71.493  1.00  0.00    -0.204 C  
HETATM   16  C   UNL     1     -10.310   7.897  69.279  1.00  0.00    -0.220 C  
HETATM   17  O   UNL     1     -10.532   7.338  68.221  1.00  0.00    -0.198 OA 
HETATM   18  C   UNL     1      -8.144   7.319  71.135  1.00  0.00    -0.102 C  
HETATM   19  C   UNL     1      -9.631   7.899  73.024  1.00  0.00    -0.341 C  
ENDBRANCH   5   8
TORSDOF 1
ENDMDL
MODEL      117
REMARK 921   NORMALIZED FREE ENERGY PREDICTED BY IDOCK:   -3.60 KCAL/MOL
REMARK 922        TOTAL FREE ENERGY PREDICTED BY IDOCK:   -4.30 KCAL/MOL
REMARK 923 INTER-LIGAND FREE ENERGY PREDICTED BY IDOCK:   -3.95 KCAL/MOL
REMARK 924 INTRA-LIGAND FREE ENERGY PREDICTED BY IDOCK:   -0.34 KCAL/MOL
REMARK 927      BINDING AFFINITY PREDICTED BY RF-SCORE:    0.00 PKD
ROOT
HETATM    1  C   UNL     1     -10.884   4.085  64.559  1.00  0.00    -0.142 C  
HETATM    2  C   UNL     1     -10.271   4.487  65.868  1.00  0.00    -0.289 A  
HETATM    3  C   UNL     1     -10.547   5.724  66.459  1.00  0.00    -0.294 A  
HETATM    4  C   UNL     1      -9.928   6.094  67.662  1.00  0.00    -0.150 A  
HETATM    5  C   UNL     1      -9.022   5.234  68.297  1.00  0.00    -0.116 A  
HETATM    6  C   UNL     1      -8.745   4.005  67.686  1.00  0.00    -0.118 A  
HETATM    7  C   UNL     1      -9.374   3.625  66.500  1.00  0.00    -0.202 A  
ENDROOT
BRANCH   5   8
HETATM    8  C   UNL     1      -8.324   5.684  69.513  1.00  0.00    -0.103 C  
HETATM    9  C   UNL     1      -8.915   6.120  70.634  1.00  0.00    -0.148 C  
HETATM   10  C   UNL     1     -10.364   6.363  71.008  1.00  0.00    -0.247 C  
HETATM   11  C   UNL     1     -10.732   5.232  71.999  1.00  0.00    -0.261 C  
HETATM   12  C   UNL     1      -9.979   5.627  73.291  1.00  0.00    -0.191 C  
HETATM   13  C   UNL     1      -9.273   6.948  72.899  1.00  0.00    -0.154 C  
HETATM   14  C   UNL     1      -8.787   7.767  74.071  1.00  0.00    -0.304 C  
HETATM   15  C   UNL     1     -10.280   7.620  71.919  1.00  0.00    -0.234 C  
HETATM   16  C   UNL     1      -8.195   6.515  71.899  1.00  0.00    -0.108 C  
HETATM   17  O   UNL     1      -6.993   6.455  72.081  1.00  0.00    -0.071 OA 
HETATM   18  C   UNL     1      -9.738   8.884  71.212  1.00  0.00    -0.359 C  
HETATM   19  C   UNL     1     -11.639   8.007  72.530  1.00  0.00    -0.464 C  
ENDBRANCH   5   8
TORSDOF 1
ENDMDL
MODEL      118
REMARK 921   NORMALIZED FREE ENERGY PREDICTED BY IDOCK:   -3.59 KCAL/MOL
REMARK 922        TOTAL FREE ENERGY PREDICTED BY IDOCK:   -4.30 KCAL/MOL
REMARK 923 INTER-LIGAND FREE ENERGY PREDICTED BY IDOCK:   -3.81 KCAL/MOL
REMARK 924 INTRA-LIGAND FREE ENERGY PREDICTED BY IDOCK:   -0.49 KCAL/MOL
REMARK 927      BINDING AFFINITY PREDICTED BY RF-SCORE:    0.00 PKD
ROOT
HETATM    1  C   UNL     1      -9.448   2.900  64.032  1.00  0.00    -0.129 C  
HETATM    2  C   UNL     1      -9.443   3.915  65.136  1.00  0.00    -0.170 A  
HETATM    3  C   UNL     1     -10.621   4.526  65.578  1.00  0.00    -0.218 A  
HETATM    4  C   UNL     1     -10.584   5.504  66.582  1.00  0.00    -0.365 A  
HETATM    5  C   UNL     1      -9.369   5.890  67.164  1.00  0.00    -0.118 A  
HETATM    6  C   UNL     1      -8.196   5.281  66.701  1.00  0.00    -0.108 A  
HETATM    7  C   UNL     1      -8.231   4.292  65.716  1.00  0.00    -0.109 A  
ENDROOT
BRANCH   5   8
HETATM    8  C   UNL     1      -9.352   6.979  68.155  1.00  0.00    -0.125 C  
HETATM    9  C   UNL     1      -9.555   6.837  69.472  1.00  0.00    -0.148 C  
HETATM   10  C   UNL     1      -9.918   5.646  70.336  1.00  0.00    -0.267 C  
HETATM   11  C   UNL     1      -8.634   5.304  71.131  1.00  0.00    -0.128 C  
HETATM   12  C   UNL     1      -8.535   6.452  72.164  1.00  0.00    -0.111 C  
HETATM   13  C   UNL     1      -9.782   7.316  71.851  1.00  0.00    -0.171 C  
HETATM   14  C   UNL     1     -10.160   8.284  72.948  1.00  0.00    -0.285 C  
HETATM   15  C   UNL     1     -10.848   6.270  71.414  1.00  0.00    -0.312 C  
HETATM   16  C   UNL     1      -9.469   7.947  70.490  1.00  0.00    -0.162 C  
HETATM   17  O   UNL     1      -9.169   9.103  70.256  1.00  0.00    -0.181 OA 
HETATM   18  C   UNL     1     -12.152   6.882  70.852  1.00  0.00    -0.424 C  
HETATM   19  C   UNL     1     -11.268   5.262  72.498  1.00  0.00    -0.272 C  
ENDBRANCH   5   8
TORSDOF 1
ENDMDL
MODEL      119
REMARK 921   NORMALIZED FREE ENERGY PREDICTED BY IDOCK:   -3.59 KCAL/MOL
REMARK 922        TOTAL FREE ENERGY PREDICTED BY IDOCK:   -4.29 KCAL/MOL
REMARK 923 INTER-LIGAND FREE ENERGY PREDICTED BY IDOCK:   -3.85 KCAL/MOL
REMARK 924 INTRA-LIGAND FREE ENERGY PREDICTED BY IDOCK:   -0.44 KCAL/MOL
REMARK 927      BINDING AFFINITY PREDICTED BY RF-SCORE:    0.00 PKD
ROOT
HETATM    1  C   UNL     1     -10.953   2.497  74.274  1.00  0.00    -0.118 C  
HETATM    2  C   UNL     1     -10.592   3.631  73.361  1.00  0.00    -0.281 A  
HETATM    3  C   UNL     1      -9.435   3.604  72.576  1.00  0.00    -0.178 A  
HETATM    4  C   UNL     1      -9.098   4.696  71.763  1.00  0.00    -0.169 A  
HETATM    5  C   UNL     1      -9.912   5.835  71.718  1.00  0.00    -0.209 A  
HETATM    6  C   UNL     1     -11.060   5.855  72.520  1.00  0.00    -0.328 A  
HETATM    7  C   UNL     1     -11.409   4.762  73.315  1.00  0.00    -0.408 A  
ENDROOT
BRANCH   5   8
HETATM    8  C   UNL     1      -9.488   6.999  70.921  1.00  0.00    -0.160 C  
HETATM    9  C   UNL     1      -9.435   7.048  69.582  1.00  0.00    -0.147 C  
HETATM   10  C   UNL     1      -9.686   6.015  68.502  1.00  0.00    -0.142 C  
HETATM   11  C   UNL     1     -11.024   6.424  67.840  1.00  0.00    -0.416 C  
HETATM   12  C   UNL     1     -10.650   7.683  67.022  1.00  0.00    -0.406 C  
HETATM   13  C   UNL     1      -9.135   7.846  67.299  1.00  0.00    -0.152 C  
HETATM   14  C   UNL     1      -8.418   8.753  66.327  1.00  0.00    -0.130 C  
HETATM   15  C   UNL     1      -8.628   6.379  67.423  1.00  0.00    -0.107 C  
HETATM   16  C   UNL     1      -9.066   8.265  68.772  1.00  0.00    -0.144 C  
HETATM   17  O   UNL     1      -8.806   9.366  69.220  1.00  0.00    -0.137 OA 
HETATM   18  C   UNL     1      -7.163   6.245  67.896  1.00  0.00    -0.087 C  
HETATM   19  C   UNL     1      -8.757   5.525  66.148  1.00  0.00    -0.133 C  
ENDBRANCH   5   8
TORSDOF 1
ENDMDL
MODEL      120
REMARK 921   NORMALIZED FREE ENERGY PREDICTED BY IDOCK:   -3.54 KCAL/MOL
REMARK 922        TOTAL FREE ENERGY PREDICTED BY IDOCK:   -4.24 KCAL/MOL
REMARK 923 INTER-LIGAND FREE ENERGY PREDICTED BY IDOCK:   -3.71 KCAL/MOL
REMARK 924 INTRA-LIGAND FREE ENERGY PREDICTED BY IDOCK:   -0.52 KCAL/MOL
REMARK 927      BINDING AFFINITY PREDICTED BY RF-SCORE:    0.00 PKD
ROOT
HETATM    1  C   UNL     1      -7.029   1.795  66.834  1.00  0.00    -0.039 C  
HETATM    2  C   UNL     1      -7.715   3.117  67.016  1.00  0.00    -0.075 A  
HETATM    3  C   UNL     1      -6.992   4.304  67.172  1.00  0.00    -0.060 A  
HETATM    4  C   UNL     1      -7.656   5.521  67.384  1.00  0.00    -0.089 A  
HETATM    5  C   UNL     1      -9.055   5.574  67.444  1.00  0.00    -0.110 A  
HETATM    6  C   UNL     1      -9.765   4.376  67.301  1.00  0.00    -0.222 A  
HETATM    7  C   UNL     1      -9.109   3.166  67.069  1.00  0.00    -0.198 A  
ENDROOT
BRANCH   5   8
HETATM    8  C   UNL     1      -9.720   6.852  67.752  1.00  0.00    -0.148 C  
HETATM    9  C   UNL     1      -9.945   7.336  68.981  1.00  0.00    -0.177 C  
HETATM   10  C   UNL     1      -9.698   6.778  70.369  1.00  0.00    -0.183 C  
HETATM   11  C   UNL     1      -8.516   7.599  70.942  1.00  0.00    -0.124 C  
HETATM   12  C   UNL     1      -9.148   8.979  71.240  1.00  0.00    -0.302 C  
HETATM   13  C   UNL     1     -10.625   8.790  70.816  1.00  0.00    -0.269 C  
HETATM   14  C   UNL     1     -11.568   9.839  71.356  1.00  0.00    -0.452 C  
HETATM   15  C   UNL     1     -10.919   7.304  71.175  1.00  0.00    -0.267 C  
HETATM   16  C   UNL     1     -10.566   8.676  69.288  1.00  0.00    -0.192 C  
HETATM   17  O   UNL     1     -10.908   9.505  68.466  1.00  0.00    -0.203 OA 
HETATM   18  C   UNL     1     -12.285   6.782  70.675  1.00  0.00    -0.312 C  
HETATM   19  C   UNL     1     -10.840   6.959  72.674  1.00  0.00    -0.290 C  
ENDBRANCH   5   8
TORSDOF 1
ENDMDL
MODEL      121
REMARK 921   NORMALIZED FREE ENERGY PREDICTED BY IDOCK:   -3.52 KCAL/MOL
REMARK 922        TOTAL FREE ENERGY PREDICTED BY IDOCK:   -4.22 KCAL/MOL
REMARK 923 INTER-LIGAND FREE ENERGY PREDICTED BY IDOCK:   -3.83 KCAL/MOL
REMARK 924 INTRA-LIGAND FREE ENERGY PREDICTED BY IDOCK:   -0.40 KCAL/MOL
REMARK 927      BINDING AFFINITY PREDICTED BY RF-SCORE:    0.00 PKD
ROOT
HETATM    1  C   UNL     1     -10.345   4.106  64.564  1.00  0.00    -0.177 C  
HETATM    2  C   UNL     1     -10.204   4.383  66.032  1.00  0.00    -0.246 A  
HETATM    3  C   UNL     1      -9.480   3.533  66.874  1.00  0.00    -0.198 A  
HETATM    4  C   UNL     1      -9.400   3.791  68.250  1.00  0.00    -0.225 A  
HETATM    5  C   UNL     1     -10.040   4.903  68.810  1.00  0.00    -0.169 A  
HETATM    6  C   UNL     1     -10.773   5.738  67.958  1.00  0.00    -0.290 A  
HETATM    7  C   UNL     1     -10.839   5.496  66.585  1.00  0.00    -0.257 A  
ENDROOT
BRANCH   5   8
HETATM    8  C   UNL     1     -10.009   5.101  70.270  1.00  0.00    -0.320 C  
HETATM    9  C   UNL     1      -9.615   6.219  70.896  1.00  0.00    -0.192 C  
HETATM   10  C   UNL     1      -9.042   7.531  70.399  1.00  0.00    -0.153 C  
HETATM   11  C   UNL     1     -10.172   8.573  70.582  1.00  0.00    -0.230 C  
HETATM   12  C   UNL     1     -10.220   8.785  72.114  1.00  0.00    -0.371 C  
HETATM   13  C   UNL     1      -9.103   7.848  72.635  1.00  0.00    -0.256 C  
HETATM   14  C   UNL     1      -8.656   8.136  74.049  1.00  0.00    -0.253 C  
HETATM   15  C   UNL     1      -8.025   7.908  71.513  1.00  0.00    -0.107 C  
HETATM   16  C   UNL     1      -9.650   6.437  72.388  1.00  0.00    -0.146 C  
HETATM   17  O   UNL     1     -10.072   5.648  73.212  1.00  0.00    -0.172 OA 
HETATM   18  C   UNL     1      -6.865   6.901  71.684  1.00  0.00    -0.065 C  
HETATM   19  C   UNL     1      -7.380   9.288  71.291  1.00  0.00    -0.000 C  
ENDBRANCH   5   8
TORSDOF 1
ENDMDL
MODEL      122
REMARK 921   NORMALIZED FREE ENERGY PREDICTED BY IDOCK:   -3.50 KCAL/MOL
REMARK 922        TOTAL FREE ENERGY PREDICTED BY IDOCK:   -4.20 KCAL/MOL
REMARK 923 INTER-LIGAND FREE ENERGY PREDICTED BY IDOCK:   -3.73 KCAL/MOL
REMARK 924 INTRA-LIGAND FREE ENERGY PREDICTED BY IDOCK:   -0.48 KCAL/MOL
REMARK 927      BINDING AFFINITY PREDICTED BY RF-SCORE:    0.00 PKD
ROOT
HETATM    1  C   UNL     1     -10.748  17.404  67.852  1.00  0.00    -0.351 C  
HETATM    2  C   UNL     1      -9.949  16.156  67.619  1.00  0.00    -0.241 A  
HETATM    3  C   UNL     1     -10.225  15.296  66.551  1.00  0.00    -0.282 A  
HETATM    4  C   UNL     1      -9.491  14.114  66.379  1.00  0.00    -0.289 A  
HETATM    5  C   UNL     1      -8.467  13.768  67.271  1.00  0.00    -0.204 A  
HETATM    6  C   UNL     1      -8.212  14.631  68.344  1.00  0.00    -0.154 A  
HETATM    7  C   UNL     1      -8.926  15.820  68.506  1.00  0.00    -0.194 A  
ENDROOT
BRANCH   5   8
HETATM    8  C   UNL     1      -7.772  12.479  67.115  1.00  0.00    -0.109 C  
HETATM    9  C   UNL     1      -8.320  11.271  67.303  1.00  0.00    -0.145 C  
HETATM   10  C   UNL     1      -9.690  10.823  67.772  1.00  0.00    -0.179 C  
HETATM   11  C   UNL     1     -10.394  10.255  66.516  1.00  0.00    -0.276 C  
HETATM   12  C   UNL     1      -9.665   8.913  66.271  1.00  0.00    -0.345 C  
HETATM   13  C   UNL     1      -8.632   8.857  67.424  1.00  0.00    -0.119 C  
HETATM   14  C   UNL     1      -8.049   7.486  67.671  1.00  0.00    -0.118 C  
HETATM   15  C   UNL     1      -9.370   9.550  68.606  1.00  0.00    -0.142 C  
HETATM   16  C   UNL     1      -7.621   9.954  67.075  1.00  0.00    -0.092 C  
HETATM   17  O   UNL     1      -6.486   9.815  66.657  1.00  0.00    -0.068 OA 
HETATM   18  C   UNL     1      -8.488   9.808  69.849  1.00  0.00    -0.217 C  
HETATM   19  C   UNL     1     -10.635   8.831  69.108  1.00  0.00    -0.200 C  
ENDBRANCH   5   8
TORSDOF 1
ENDMDL
MODEL      123
REMARK 921   NORMALIZED FREE ENERGY PREDICTED BY IDOCK:   -3.49 KCAL/MOL
REMARK 922        TOTAL FREE ENERGY PREDICTED BY IDOCK:   -4.19 KCAL/MOL
REMARK 923 INTER-LIGAND FREE ENERGY PREDICTED BY IDOCK:   -3.70 KCAL/MOL
REMARK 924 INTRA-LIGAND FREE ENERGY PREDICTED BY IDOCK:   -0.48 KCAL/MOL
REMARK 927      BINDING AFFINITY PREDICTED BY RF-SCORE:    0.00 PKD
ROOT
HETATM    1  C   UNL     1      -6.226  21.205  64.166  1.00  0.00    -0.281 C  
HETATM    2  C   UNL     1      -6.622  20.125  65.129  1.00  0.00    -0.336 A  
HETATM    3  C   UNL     1      -7.336  20.409  66.298  1.00  0.00    -0.247 A  
HETATM    4  C   UNL     1      -7.656  19.387  67.204  1.00  0.00    -0.258 A  
HETATM    5  C   UNL     1      -7.271  18.063  66.958  1.00  0.00    -0.219 A  
HETATM    6  C   UNL     1      -6.545  17.796  65.791  1.00  0.00    -0.221 A  
HETATM    7  C   UNL     1      -6.241  18.806  64.877  1.00  0.00    -0.223 A  
ENDROOT
BRANCH   5   8
HETATM    8  C   UNL     1      -7.548  17.027  67.968  1.00  0.00    -0.183 C  
HETATM    9  C   UNL     1      -8.485  16.074  67.869  1.00  0.00    -0.165 C  
HETATM   10  C   UNL     1      -9.551  15.781  66.832  1.00  0.00    -0.243 C  
HETATM   11  C   UNL     1      -9.071  14.509  66.091  1.00  0.00    -0.083 C  
HETATM   12  C   UNL     1      -9.292  13.384  67.130  1.00  0.00    -0.240 C  
HETATM   13  C   UNL     1      -9.886  14.137  68.346  1.00  0.00    -0.231 C  
HETATM   14  C   UNL     1     -10.564  13.247  69.360  1.00  0.00     0.190 C  
HETATM   15  C   UNL     1     -10.738  15.265  67.693  1.00  0.00    -0.282 C  
HETATM   16  C   UNL     1      -8.717  14.975  68.876  1.00  0.00    -0.197 C  
HETATM   17  O   UNL     1      -8.064  14.787  69.885  1.00  0.00     0.062 OA 
HETATM   18  C   UNL     1     -11.299  16.303  68.691  1.00  0.00    -0.333 C  
HETATM   19  C   UNL     1     -11.929  14.785  66.843  1.00  0.00    -0.212 C  
ENDBRANCH   5   8
TORSDOF 1
ENDMDL
MODEL      124
REMARK 921   NORMALIZED FREE ENERGY PREDICTED BY IDOCK:   -3.48 KCAL/MOL
REMARK 922        TOTAL FREE ENERGY PREDICTED BY IDOCK:   -4.17 KCAL/MOL
REMARK 923 INTER-LIGAND FREE ENERGY PREDICTED BY IDOCK:   -3.83 KCAL/MOL
REMARK 924 INTRA-LIGAND FREE ENERGY PREDICTED BY IDOCK:   -0.35 KCAL/MOL
REMARK 927      BINDING AFFINITY PREDICTED BY RF-SCORE:    0.00 PKD
ROOT
HETATM    1  C   UNL     1      -5.169   9.042  65.574  1.00  0.00    -0.037 C  
HETATM    2  C   UNL     1      -6.309   9.722  66.273  1.00  0.00    -0.070 A  
HETATM    3  C   UNL     1      -6.178  11.003  66.817  1.00  0.00    -0.110 A  
HETATM    4  C   UNL     1      -7.245  11.600  67.504  1.00  0.00    -0.119 A  
HETATM    5  C   UNL     1      -8.464  10.927  67.659  1.00  0.00    -0.123 A  
HETATM    6  C   UNL     1      -8.576   9.639  67.121  1.00  0.00    -0.133 A  
HETATM    7  C   UNL     1      -7.523   9.050  66.420  1.00  0.00    -0.092 A  
ENDROOT
BRANCH   5   8
HETATM    8  C   UNL     1      -9.537  11.543  68.457  1.00  0.00    -0.180 C  
HETATM    9  C   UNL     1     -10.073  12.752  68.241  1.00  0.00    -0.237 C  
HETATM   10  C   UNL     1      -9.758  13.856  67.250  1.00  0.00    -0.245 C  
HETATM   11  C   UNL     1     -10.927  13.847  66.235  1.00  0.00    -0.298 C  
HETATM   12  C   UNL     1     -12.107  14.442  67.040  1.00  0.00    -0.374 C  
HETATM   13  C   UNL     1     -11.477  14.736  68.424  1.00  0.00    -0.336 C  
HETATM   14  C   UNL     1     -12.282  15.678  69.287  1.00  0.00    -0.167 C  
HETATM   15  C   UNL     1     -10.016  15.147  68.078  1.00  0.00    -0.221 C  
HETATM   16  C   UNL     1     -11.218  13.348  69.021  1.00  0.00    -0.275 C  
HETATM   17  O   UNL     1     -11.828  12.798  69.919  1.00  0.00    -0.324 OA 
HETATM   18  C   UNL     1      -9.090  15.312  69.305  1.00  0.00    -0.240 C  
HETATM   19  C   UNL     1      -9.871  16.432  67.243  1.00  0.00    -0.245 C  
ENDBRANCH   5   8
TORSDOF 1
ENDMDL
MODEL      125
REMARK 921   NORMALIZED FREE ENERGY PREDICTED BY IDOCK:   -3.45 KCAL/MOL
REMARK 922        TOTAL FREE ENERGY PREDICTED BY IDOCK:   -4.15 KCAL/MOL
REMARK 923 INTER-LIGAND FREE ENERGY PREDICTED BY IDOCK:   -3.80 KCAL/MOL
REMARK 924 INTRA-LIGAND FREE ENERGY PREDICTED BY IDOCK:   -0.35 KCAL/MOL
REMARK 927      BINDING AFFINITY PREDICTED BY RF-SCORE:    0.00 PKD
ROOT
HETATM    1  C   UNL     1      -5.354  11.314  66.318  1.00  0.00    -0.134 C  
HETATM    2  C   UNL     1      -6.469  10.414  66.764  1.00  0.00    -0.076 A  
HETATM    3  C   UNL     1      -7.594  10.911  67.429  1.00  0.00    -0.100 A  
HETATM    4  C   UNL     1      -8.602  10.044  67.874  1.00  0.00    -0.121 A  
HETATM    5  C   UNL     1      -8.505   8.663  67.661  1.00  0.00    -0.125 A  
HETATM    6  C   UNL     1      -7.366   8.177  67.006  1.00  0.00    -0.088 A  
HETATM    7  C   UNL     1      -6.371   9.039  66.544  1.00  0.00    -0.066 A  
ENDROOT
BRANCH   5   8
HETATM    8  C   UNL     1      -9.537   7.768  68.213  1.00  0.00    -0.162 C  
HETATM    9  C   UNL     1      -9.949   7.750  69.488  1.00  0.00    -0.187 C  
HETATM   10  C   UNL     1      -9.505   8.503  70.726  1.00  0.00    -0.213 C  
HETATM   11  C   UNL     1     -10.641   9.511  71.028  1.00  0.00    -0.392 C  
HETATM   12  C   UNL     1     -11.781   8.615  71.569  1.00  0.00    -0.369 C  
HETATM   13  C   UNL     1     -11.165   7.195  71.527  1.00  0.00    -0.273 C  
HETATM   14  C   UNL     1     -11.900   6.172  72.359  1.00  0.00    -0.287 C  
HETATM   15  C   UNL     1      -9.662   7.442  71.852  1.00  0.00    -0.179 C  
HETATM   16  C   UNL     1     -11.054   6.878  70.031  1.00  0.00    -0.299 C  
HETATM   17  O   UNL     1     -11.737   6.109  69.381  1.00  0.00    -0.248 OA 
HETATM   18  C   UNL     1      -8.758   6.199  71.686  1.00  0.00    -0.135 C  
HETATM   19  C   UNL     1      -9.374   8.010  73.253  1.00  0.00    -0.344 C  
ENDBRANCH   5   8
TORSDOF 1
ENDMDL
MODEL      126
REMARK 921   NORMALIZED FREE ENERGY PREDICTED BY IDOCK:   -3.45 KCAL/MOL
REMARK 922        TOTAL FREE ENERGY PREDICTED BY IDOCK:   -4.15 KCAL/MOL
REMARK 923 INTER-LIGAND FREE ENERGY PREDICTED BY IDOCK:   -3.66 KCAL/MOL
REMARK 924 INTRA-LIGAND FREE ENERGY PREDICTED BY IDOCK:   -0.49 KCAL/MOL
REMARK 927      BINDING AFFINITY PREDICTED BY RF-SCORE:    0.00 PKD
ROOT
HETATM    1  C   UNL     1      -8.265   2.633  64.058  1.00  0.00    -0.082 C  
HETATM    2  C   UNL     1      -8.846   3.332  65.252  1.00  0.00    -0.132 A  
HETATM    3  C   UNL     1      -8.539   2.936  66.557  1.00  0.00    -0.112 A  
HETATM    4  C   UNL     1      -9.128   3.578  67.656  1.00  0.00    -0.194 A  
HETATM    5  C   UNL     1     -10.034   4.630  67.470  1.00  0.00    -0.174 A  
HETATM    6  C   UNL     1     -10.343   5.008  66.157  1.00  0.00    -0.309 A  
HETATM    7  C   UNL     1      -9.743   4.384  65.062  1.00  0.00    -0.172 A  
ENDROOT
BRANCH   5   8
HETATM    8  C   UNL     1     -10.701   5.229  68.639  1.00  0.00     0.008 C  
HETATM    9  C   UNL     1     -10.372   6.396  69.210  1.00  0.00    -0.248 C  
HETATM   10  C   UNL     1      -9.262   7.394  68.949  1.00  0.00    -0.142 C  
HETATM   11  C   UNL     1      -9.950   8.621  68.302  1.00  0.00    -0.207 C  
HETATM   12  C   UNL     1     -10.715   9.267  69.482  1.00  0.00    -0.236 C  
HETATM   13  C   UNL     1     -10.368   8.344  70.676  1.00  0.00    -0.224 C  
HETATM   14  C   UNL     1     -10.651   8.945  72.032  1.00  0.00    -0.388 C  
HETATM   15  C   UNL     1      -8.907   7.897  70.377  1.00  0.00    -0.142 C  
HETATM   16  C   UNL     1     -11.103   7.035  70.364  1.00  0.00    -0.287 C  
HETATM   17  O   UNL     1     -12.104   6.598  70.901  1.00  0.00    -0.377 OA 
HETATM   18  C   UNL     1      -8.366   6.801  71.322  1.00  0.00    -0.120 C  
HETATM   19  C   UNL     1      -7.859   9.026  70.369  1.00  0.00    -0.121 C  
ENDBRANCH   5   8
TORSDOF 1
ENDMDL
MODEL      127
REMARK 921   NORMALIZED FREE ENERGY PREDICTED BY IDOCK:   -3.42 KCAL/MOL
REMARK 922        TOTAL FREE ENERGY PREDICTED BY IDOCK:   -4.11 KCAL/MOL
REMARK 923 INTER-LIGAND FREE ENERGY PREDICTED BY IDOCK:   -3.65 KCAL/MOL
REMARK 924 INTRA-LIGAND FREE ENERGY PREDICTED BY IDOCK:   -0.46 KCAL/MOL
REMARK 927      BINDING AFFINITY PREDICTED BY RF-SCORE:    0.00 PKD
ROOT
HETATM    1  C   UNL     1     -13.186  10.026  72.258  1.00  0.00    -0.401 C  
HETATM    2  C   UNL     1     -12.384   8.861  71.758  1.00  0.00    -0.424 A  
HETATM    3  C   UNL     1     -12.996   7.695  71.285  1.00  0.00    -0.287 A  
HETATM    4  C   UNL     1     -12.223   6.603  70.864  1.00  0.00    -0.324 A  
HETATM    5  C   UNL     1     -10.824   6.656  70.906  1.00  0.00    -0.297 A  
HETATM    6  C   UNL     1     -10.225   7.823  71.395  1.00  0.00    -0.211 A  
HETATM    7  C   UNL     1     -10.990   8.920  71.796  1.00  0.00    -0.431 A  
ENDROOT
BRANCH   5   8
HETATM    8  C   UNL     1     -10.041   5.464  70.537  1.00  0.00    -0.306 C  
HETATM    9  C   UNL     1      -9.339   4.701  71.386  1.00  0.00    -0.206 C  
HETATM   10  C   UNL     1      -9.050   4.808  72.870  1.00  0.00    -0.127 C  
HETATM   11  C   UNL     1      -9.884   3.687  73.537  1.00  0.00    -0.156 C  
HETATM   12  C   UNL     1      -9.132   2.395  73.139  1.00  0.00    -0.085 C  
HETATM   13  C   UNL     1      -7.943   2.923  72.298  1.00  0.00    -0.055 C  
HETATM   14  C   UNL     1      -6.824   1.927  72.107  1.00  0.00    -0.018 C  
HETATM   15  C   UNL     1      -7.592   4.279  72.978  1.00  0.00    -0.081 C  
HETATM   16  C   UNL     1      -8.595   3.443  71.012  1.00  0.00    -0.072 C  
HETATM   17  O   UNL     1      -8.566   2.937  69.906  1.00  0.00    -0.052 OA 
HETATM   18  C   UNL     1      -6.549   5.126  72.215  1.00  0.00    -0.048 C  
HETATM   19  C   UNL     1      -7.098   4.180  74.433  1.00  0.00    -0.069 C  
ENDBRANCH   5   8
TORSDOF 1
ENDMDL
MODEL      128
REMARK 921   NORMALIZED FREE ENERGY PREDICTED BY IDOCK:   -3.39 KCAL/MOL
REMARK 922        TOTAL FREE ENERGY PREDICTED BY IDOCK:   -4.08 KCAL/MOL
REMARK 923 INTER-LIGAND FREE ENERGY PREDICTED BY IDOCK:   -3.56 KCAL/MOL
REMARK 924 INTRA-LIGAND FREE ENERGY PREDICTED BY IDOCK:   -0.52 KCAL/MOL
REMARK 927      BINDING AFFINITY PREDICTED BY RF-SCORE:    0.00 PKD
ROOT
HETATM    1  C   UNL     1     -10.190  18.279  67.054  1.00  0.00    -0.392 C  
HETATM    2  C   UNL     1     -10.216  16.827  67.430  1.00  0.00    -0.288 A  
HETATM    3  C   UNL     1      -9.726  16.378  68.660  1.00  0.00    -0.239 A  
HETATM    4  C   UNL     1      -9.722  15.010  68.970  1.00  0.00    -0.229 A  
HETATM    5  C   UNL     1     -10.209  14.066  68.058  1.00  0.00    -0.238 A  
HETATM    6  C   UNL     1     -10.684  14.529  66.824  1.00  0.00    -0.291 A  
HETATM    7  C   UNL     1     -10.708  15.891  66.520  1.00  0.00    -0.258 A  
ENDROOT
BRANCH   5   8
HETATM    8  C   UNL     1     -10.114  12.631  68.376  1.00  0.00    -0.222 C  
HETATM    9  C   UNL     1      -9.067  11.840  68.103  1.00  0.00    -0.185 C  
HETATM   10  C   UNL     1      -7.760  12.077  67.373  1.00  0.00    -0.162 C  
HETATM   11  C   UNL     1      -6.668  12.088  68.471  1.00  0.00    -0.066 C  
HETATM   12  C   UNL     1      -6.559  10.601  68.884  1.00  0.00    -0.055 C  
HETATM   13  C   UNL     1      -7.594   9.903  67.967  1.00  0.00    -0.085 C  
HETATM   14  C   UNL     1      -7.429   8.405  67.869  1.00  0.00    -0.098 C  
HETATM   15  C   UNL     1      -7.520  10.724  66.646  1.00  0.00    -0.135 C  
HETATM   16  C   UNL     1      -8.949  10.388  68.493  1.00  0.00    -0.139 C  
HETATM   17  O   UNL     1      -9.767   9.757  69.136  1.00  0.00    -0.167 OA 
HETATM   18  C   UNL     1      -8.602  10.360  65.604  1.00  0.00    -0.175 C  
HETATM   19  C   UNL     1      -6.168  10.672  65.910  1.00  0.00    -0.134 C  
ENDBRANCH   5   8
TORSDOF 1
ENDMDL
MODEL      129
REMARK 921   NORMALIZED FREE ENERGY PREDICTED BY IDOCK:   -3.37 KCAL/MOL
REMARK 922        TOTAL FREE ENERGY PREDICTED BY IDOCK:   -4.06 KCAL/MOL
REMARK 923 INTER-LIGAND FREE ENERGY PREDICTED BY IDOCK:   -4.08 KCAL/MOL
REMARK 924 INTRA-LIGAND FREE ENERGY PREDICTED BY IDOCK:    0.02 KCAL/MOL
REMARK 927      BINDING AFFINITY PREDICTED BY RF-SCORE:    0.00 PKD
ROOT
HETATM    1  C   UNL     1     -11.017  14.121  68.608  1.00  0.00    -0.275 C  
HETATM    2  C   UNL     1     -11.071  12.686  69.043  1.00  0.00    -0.291 A  
HETATM    3  C   UNL     1     -10.171  11.735  68.553  1.00  0.00    -0.215 A  
HETATM    4  C   UNL     1     -10.270  10.391  68.942  1.00  0.00    -0.220 A  
HETATM    5  C   UNL     1     -11.270   9.973  69.830  1.00  0.00    -0.307 A  
HETATM    6  C   UNL     1     -12.173  10.934  70.301  1.00  0.00    -0.432 A  
HETATM    7  C   UNL     1     -12.066  12.275  69.932  1.00  0.00    -0.319 A  
ENDROOT
BRANCH   5   8
HETATM    8  C   UNL     1     -11.402   8.542  70.154  1.00  0.00    -0.072 C  
HETATM    9  C   UNL     1     -10.548   7.578  69.783  1.00  0.00    -0.245 C  
HETATM   10  C   UNL     1      -9.303   7.581  68.918  1.00  0.00    -0.142 C  
HETATM   11  C   UNL     1      -8.118   7.387  69.895  1.00  0.00    -0.126 C  
HETATM   12  C   UNL     1      -8.236   5.902  70.312  1.00  0.00    -0.114 C  
HETATM   13  C   UNL     1      -9.470   5.408  69.516  1.00  0.00    -0.182 C  
HETATM   14  C   UNL     1      -9.588   3.906  69.419  1.00  0.00    -0.239 C  
HETATM   15  C   UNL     1      -9.388   6.212  68.186  1.00  0.00    -0.115 C  
HETATM   16  C   UNL     1     -10.654   6.126  70.176  1.00  0.00    -0.259 C  
HETATM   17  O   UNL     1     -11.500   5.647  70.907  1.00  0.00    -0.059 OA 
HETATM   18  C   UNL     1     -10.621   6.056  67.267  1.00  0.00    -0.367 C  
HETATM   19  C   UNL     1      -8.152   5.922  67.314  1.00  0.00    -0.102 C  
ENDBRANCH   5   8
TORSDOF 1
ENDMDL
MODEL      130
REMARK 921   NORMALIZED FREE ENERGY PREDICTED BY IDOCK:   -3.33 KCAL/MOL
REMARK 922        TOTAL FREE ENERGY PREDICTED BY IDOCK:   -4.02 KCAL/MOL
REMARK 923 INTER-LIGAND FREE ENERGY PREDICTED BY IDOCK:   -3.61 KCAL/MOL
REMARK 924 INTRA-LIGAND FREE ENERGY PREDICTED BY IDOCK:   -0.41 KCAL/MOL
REMARK 927      BINDING AFFINITY PREDICTED BY RF-SCORE:    0.00 PKD
ROOT
HETATM    1  C   UNL     1     -13.502  11.412  63.658  1.00  0.00     1.275 C  
HETATM    2  C   UNL     1     -12.490  12.419  64.121  1.00  0.00    -0.534 A  
HETATM    3  C   UNL     1     -12.874  13.646  64.670  1.00  0.00    -0.090 A  
HETATM    4  C   UNL     1     -11.909  14.588  65.056  1.00  0.00    -0.399 A  
HETATM    5  C   UNL     1     -10.542  14.320  64.901  1.00  0.00    -0.452 A  
HETATM    6  C   UNL     1     -10.173  13.093  64.337  1.00  0.00    -0.319 A  
HETATM    7  C   UNL     1     -11.130  12.145  63.971  1.00  0.00    -0.449 A  
ENDROOT
BRANCH   5   8
HETATM    8  C   UNL     1      -9.556  15.361  65.236  1.00  0.00    -0.026 C  
HETATM    9  C   UNL     1      -9.344  15.869  66.458  1.00  0.00    -0.306 C  
HETATM   10  C   UNL     1     -10.018  15.647  67.797  1.00  0.00    -0.223 C  
HETATM   11  C   UNL     1      -9.006  14.836  68.643  1.00  0.00    -0.185 C  
HETATM   12  C   UNL     1      -7.910  15.874  68.984  1.00  0.00    -0.216 C  
HETATM   13  C   UNL     1      -8.425  17.167  68.305  1.00  0.00    -0.236 C  
HETATM   14  C   UNL     1      -7.766  18.434  68.797  1.00  0.00    -0.287 C  
HETATM   15  C   UNL     1      -9.972  17.059  68.446  1.00  0.00    -0.289 C  
HETATM   16  C   UNL     1      -8.285  16.885  66.805  1.00  0.00    -0.240 C  
HETATM   17  O   UNL     1      -7.464  17.348  66.035  1.00  0.00    -0.370 OA 
HETATM   18  C   UNL     1     -10.762  18.141  67.674  1.00  0.00    -0.364 C  
HETATM   19  C   UNL     1     -10.507  17.072  69.889  1.00  0.00     0.098 C  
ENDBRANCH   5   8
TORSDOF 1
ENDMDL
MODEL      131
REMARK 921   NORMALIZED FREE ENERGY PREDICTED BY IDOCK:   -3.24 KCAL/MOL
REMARK 922        TOTAL FREE ENERGY PREDICTED BY IDOCK:   -3.93 KCAL/MOL
REMARK 923 INTER-LIGAND FREE ENERGY PREDICTED BY IDOCK:   -3.45 KCAL/MOL
REMARK 924 INTRA-LIGAND FREE ENERGY PREDICTED BY IDOCK:   -0.48 KCAL/MOL
REMARK 927      BINDING AFFINITY PREDICTED BY RF-SCORE:    0.00 PKD
ROOT
HETATM    1  C   UNL     1     -10.940  15.826  66.766  1.00  0.00    -0.192 C  
HETATM    2  C   UNL     1     -10.252  14.493  66.753  1.00  0.00    -0.266 A  
HETATM    3  C   UNL     1      -9.056  14.277  67.445  1.00  0.00    -0.199 A  
HETATM    4  C   UNL     1      -8.409  13.034  67.381  1.00  0.00    -0.194 A  
HETATM    5  C   UNL     1      -8.946  11.984  66.626  1.00  0.00    -0.204 A  
HETATM    6  C   UNL     1     -10.136  12.219  65.926  1.00  0.00    -0.272 A  
HETATM    7  C   UNL     1     -10.794  13.448  66.003  1.00  0.00    -0.281 A  
ENDROOT
BRANCH   5   8
HETATM    8  C   UNL     1      -8.202  10.718  66.509  1.00  0.00    -0.148 C  
HETATM    9  C   UNL     1      -8.548   9.556  67.079  1.00  0.00    -0.131 C  
HETATM   10  C   UNL     1      -9.669   9.163  68.020  1.00  0.00    -0.177 C  
HETATM   11  C   UNL     1     -10.649   8.319  67.169  1.00  0.00    -0.340 C  
HETATM   12  C   UNL     1      -9.893   6.984  66.969  1.00  0.00    -0.239 C  
HETATM   13  C   UNL     1      -8.569   7.210  67.740  1.00  0.00    -0.126 C  
HETATM   14  C   UNL     1      -7.805   5.944  68.050  1.00  0.00    -0.104 C  
HETATM   15  C   UNL     1      -8.995   8.106  68.939  1.00  0.00    -0.141 C  
HETATM   16  C   UNL     1      -7.818   8.248  66.899  1.00  0.00    -0.096 C  
HETATM   17  O   UNL     1      -6.846   8.069  66.189  1.00  0.00    -0.056 OA 
HETATM   18  C   UNL     1      -7.819   8.651  69.781  1.00  0.00    -0.093 C  
HETATM   19  C   UNL     1      -9.981   7.460  69.930  1.00  0.00    -0.188 C  
ENDBRANCH   5   8
TORSDOF 1
ENDMDL
MODEL      132
REMARK 921   NORMALIZED FREE ENERGY PREDICTED BY IDOCK:   -3.23 KCAL/MOL
REMARK 922        TOTAL FREE ENERGY PREDICTED BY IDOCK:   -3.91 KCAL/MOL
REMARK 923 INTER-LIGAND FREE ENERGY PREDICTED BY IDOCK:   -3.45 KCAL/MOL
REMARK 924 INTRA-LIGAND FREE ENERGY PREDICTED BY IDOCK:   -0.47 KCAL/MOL
REMARK 927      BINDING AFFINITY PREDICTED BY RF-SCORE:    0.00 PKD
ROOT
HETATM    1  C   UNL     1      -9.454   3.224  68.802  1.00  0.00    -0.198 C  
HETATM    2  C   UNL     1      -9.108   4.682  68.855  1.00  0.00    -0.163 A  
HETATM    3  C   UNL     1      -9.958   5.618  69.453  1.00  0.00    -0.261 A  
HETATM    4  C   UNL     1      -9.631   6.982  69.451  1.00  0.00    -0.155 A  
HETATM    5  C   UNL     1      -8.449   7.436  68.853  1.00  0.00    -0.129 A  
HETATM    6  C   UNL     1      -7.614   6.490  68.247  1.00  0.00    -0.104 A  
HETATM    7  C   UNL     1      -7.925   5.129  68.264  1.00  0.00    -0.087 A  
ENDROOT
BRANCH   5   8
HETATM    8  C   UNL     1      -8.174   8.882  68.793  1.00  0.00    -0.115 C  
HETATM    9  C   UNL     1      -8.883   9.781  68.095  1.00  0.00    -0.119 C  
HETATM   10  C   UNL     1     -10.058   9.654  67.146  1.00  0.00    -0.276 C  
HETATM   11  C   UNL     1     -11.276  10.220  67.916  1.00  0.00    -0.290 C  
HETATM   12  C   UNL     1     -11.015  11.745  67.928  1.00  0.00    -0.272 C  
HETATM   13  C   UNL     1      -9.682  11.882  67.152  1.00  0.00    -0.194 C  
HETATM   14  C   UNL     1      -9.383  13.281  66.668  1.00  0.00    -0.247 C  
HETATM   15  C   UNL     1      -9.765  10.752  66.085  1.00  0.00    -0.253 C  
HETATM   16  C   UNL     1      -8.637  11.269  68.092  1.00  0.00    -0.150 C  
HETATM   17  O   UNL     1      -7.792  11.851  68.747  1.00  0.00    -0.122 OA 
HETATM   18  C   UNL     1      -8.463  10.531  65.282  1.00  0.00    -0.175 C  
HETATM   19  C   UNL     1     -10.897  10.902  65.052  1.00  0.00    -0.142 C  
ENDBRANCH   5   8
TORSDOF 1
ENDMDL
MODEL      133
REMARK 921   NORMALIZED FREE ENERGY PREDICTED BY IDOCK:   -3.18 KCAL/MOL
REMARK 922        TOTAL FREE ENERGY PREDICTED BY IDOCK:   -3.86 KCAL/MOL
REMARK 923 INTER-LIGAND FREE ENERGY PREDICTED BY IDOCK:   -3.37 KCAL/MOL
REMARK 924 INTRA-LIGAND FREE ENERGY PREDICTED BY IDOCK:   -0.49 KCAL/MOL
REMARK 927      BINDING AFFINITY PREDICTED BY RF-SCORE:    0.00 PKD
ROOT
HETATM    1  C   UNL     1     -10.351   3.645  64.293  1.00  0.00    -0.231 C  
HETATM    2  C   UNL     1      -9.994   4.186  65.646  1.00  0.00    -0.205 A  
HETATM    3  C   UNL     1     -10.760   5.177  66.267  1.00  0.00    -0.272 A  
HETATM    4  C   UNL     1     -10.380   5.698  67.513  1.00  0.00    -0.277 A  
HETATM    5  C   UNL     1      -9.228   5.236  68.162  1.00  0.00    -0.129 A  
HETATM    6  C   UNL     1      -8.462   4.253  67.523  1.00  0.00    -0.100 A  
HETATM    7  C   UNL     1      -8.848   3.719  66.292  1.00  0.00    -0.128 A  
ENDROOT
BRANCH   5   8
HETATM    8  C   UNL     1      -8.808   5.860  69.429  1.00  0.00    -0.122 C  
HETATM    9  C   UNL     1      -9.045   5.372  70.654  1.00  0.00    -0.172 C  
HETATM   10  C   UNL     1      -9.818   4.166  71.151  1.00  0.00    -0.244 C  
HETATM   11  C   UNL     1      -8.747   3.159  71.638  1.00  0.00    -0.112 C  
HETATM   12  C   UNL     1      -8.229   3.793  72.951  1.00  0.00    -0.090 C  
HETATM   13  C   UNL     1      -9.072   5.087  73.074  1.00  0.00    -0.128 C  
HETATM   14  C   UNL     1      -9.064   5.706  74.452  1.00  0.00    -0.123 C  
HETATM   15  C   UNL     1     -10.450   4.682  72.474  1.00  0.00    -0.257 C  
HETATM   16  C   UNL     1      -8.553   5.982  71.943  1.00  0.00    -0.137 C  
HETATM   17  O   UNL     1      -7.850   6.970  72.038  1.00  0.00    -0.092 OA 
HETATM   18  C   UNL     1     -11.439   5.855  72.293  1.00  0.00    -0.351 C  
HETATM   19  C   UNL     1     -11.208   3.583  73.243  1.00  0.00    -0.204 C  
ENDBRANCH   5   8
TORSDOF 1
ENDMDL
MODEL      134
REMARK 921   NORMALIZED FREE ENERGY PREDICTED BY IDOCK:   -3.18 KCAL/MOL
REMARK 922        TOTAL FREE ENERGY PREDICTED BY IDOCK:   -3.86 KCAL/MOL
REMARK 923 INTER-LIGAND FREE ENERGY PREDICTED BY IDOCK:   -3.33 KCAL/MOL
REMARK 924 INTRA-LIGAND FREE ENERGY PREDICTED BY IDOCK:   -0.52 KCAL/MOL
REMARK 927      BINDING AFFINITY PREDICTED BY RF-SCORE:    0.00 PKD
ROOT
HETATM    1  C   UNL     1      -6.873   7.578  64.114  1.00  0.00    -0.056 C  
HETATM    2  C   UNL     1      -7.058   7.137  65.536  1.00  0.00    -0.064 A  
HETATM    3  C   UNL     1      -7.829   6.018  65.864  1.00  0.00    -0.106 A  
HETATM    4  C   UNL     1      -8.022   5.652  67.204  1.00  0.00    -0.102 A  
HETATM    5  C   UNL     1      -7.447   6.397  68.241  1.00  0.00    -0.091 A  
HETATM    6  C   UNL     1      -6.689   7.524  67.899  1.00  0.00    -0.066 A  
HETATM    7  C   UNL     1      -6.478   7.880  66.566  1.00  0.00    -0.051 A  
ENDROOT
BRANCH   5   8
HETATM    8  C   UNL     1      -7.737   6.039  69.640  1.00  0.00    -0.097 C  
HETATM    9  C   UNL     1      -8.781   6.479  70.356  1.00  0.00    -0.147 C  
HETATM   10  C   UNL     1      -9.894   7.464  70.057  1.00  0.00    -0.179 C  
HETATM   11  C   UNL     1     -11.172   6.607  69.886  1.00  0.00    -0.421 C  
HETATM   12  C   UNL     1     -11.499   6.157  71.330  1.00  0.00    -0.311 C  
HETATM   13  C   UNL     1     -10.376   6.817  72.168  1.00  0.00    -0.221 C  
HETATM   14  C   UNL     1     -10.660   6.878  73.650  1.00  0.00    -0.371 C  
HETATM   15  C   UNL     1     -10.115   8.162  71.429  1.00  0.00    -0.248 C  
HETATM   16  C   UNL     1      -9.109   6.054  71.766  1.00  0.00    -0.145 C  
HETATM   17  O   UNL     1      -8.494   5.234  72.422  1.00  0.00    -0.120 OA 
HETATM   18  C   UNL     1      -8.891   8.951  71.947  1.00  0.00    -0.122 C  
HETATM   19  C   UNL     1     -11.297   9.149  71.414  1.00  0.00    -0.414 C  
ENDBRANCH   5   8
TORSDOF 1
ENDMDL
MODEL      135
REMARK 921   NORMALIZED FREE ENERGY PREDICTED BY IDOCK:   -3.17 KCAL/MOL
REMARK 922        TOTAL FREE ENERGY PREDICTED BY IDOCK:   -3.85 KCAL/MOL
REMARK 923 INTER-LIGAND FREE ENERGY PREDICTED BY IDOCK:   -3.84 KCAL/MOL
REMARK 924 INTRA-LIGAND FREE ENERGY PREDICTED BY IDOCK:   -0.01 KCAL/MOL
REMARK 927      BINDING AFFINITY PREDICTED BY RF-SCORE:    0.00 PKD
ROOT
HETATM    1  C   UNL     1     -14.210   8.645  72.554  1.00  0.00    -0.371 C  
HETATM    2  C   UNL     1     -12.999   8.441  71.692  1.00  0.00    -0.355 A  
HETATM    3  C   UNL     1     -12.181   9.509  71.309  1.00  0.00    -0.433 A  
HETATM    4  C   UNL     1     -11.080   9.298  70.467  1.00  0.00    -0.317 A  
HETATM    5  C   UNL     1     -10.774   8.015  69.993  1.00  0.00    -0.244 A  
HETATM    6  C   UNL     1     -11.610   6.958  70.372  1.00  0.00    -0.385 A  
HETATM    7  C   UNL     1     -12.695   7.161  71.227  1.00  0.00    -0.412 A  
ENDROOT
BRANCH   5   8
HETATM    8  C   UNL     1      -9.663   7.838  69.042  1.00  0.00    -0.157 C  
HETATM    9  C   UNL     1      -8.702   8.738  68.791  1.00  0.00    -0.137 C  
HETATM   10  C   UNL     1      -8.464  10.154  69.277  1.00  0.00    -0.167 C  
HETATM   11  C   UNL     1      -7.258  10.064  70.244  1.00  0.00    -0.155 C  
HETATM   12  C   UNL     1      -6.057   9.825  69.298  1.00  0.00    -0.036 C  
HETATM   13  C   UNL     1      -6.710   9.818  67.893  1.00  0.00    -0.065 C  
HETATM   14  C   UNL     1      -5.736   9.997  66.753  1.00  0.00    -0.050 C  
HETATM   15  C   UNL     1      -7.865  10.853  68.024  1.00  0.00    -0.107 C  
HETATM   16  C   UNL     1      -7.529   8.522  67.868  1.00  0.00    -0.097 C  
HETATM   17  O   UNL     1      -7.282   7.497  67.261  1.00  0.00    -0.082 OA 
HETATM   18  C   UNL     1      -8.817  10.907  66.808  1.00  0.00    -0.149 C  
HETATM   19  C   UNL     1      -7.425  12.302  68.301  1.00  0.00    -0.119 C  
ENDBRANCH   5   8
TORSDOF 1
ENDMDL
MODEL      136
REMARK 921   NORMALIZED FREE ENERGY PREDICTED BY IDOCK:   -3.16 KCAL/MOL
REMARK 922        TOTAL FREE ENERGY PREDICTED BY IDOCK:   -3.83 KCAL/MOL
REMARK 923 INTER-LIGAND FREE ENERGY PREDICTED BY IDOCK:   -3.50 KCAL/MOL
REMARK 924 INTRA-LIGAND FREE ENERGY PREDICTED BY IDOCK:   -0.33 KCAL/MOL
REMARK 927      BINDING AFFINITY PREDICTED BY RF-SCORE:    0.00 PKD
ROOT
HETATM    1  C   UNL     1     -10.240  13.511  66.293  1.00  0.00    -0.299 C  
HETATM    2  C   UNL     1      -9.711  12.186  66.756  1.00  0.00    -0.215 A  
HETATM    3  C   UNL     1      -8.395  12.036  67.205  1.00  0.00    -0.176 A  
HETATM    4  C   UNL     1      -7.911  10.777  67.591  1.00  0.00    -0.110 A  
HETATM    5  C   UNL     1      -8.734   9.645  67.537  1.00  0.00    -0.126 A  
HETATM    6  C   UNL     1     -10.045   9.807  67.072  1.00  0.00    -0.277 A  
HETATM    7  C   UNL     1     -10.536  11.062  66.706  1.00  0.00    -0.317 A  
ENDROOT
BRANCH   5   8
HETATM    8  C   UNL     1      -8.174   8.324  67.868  1.00  0.00    -0.128 C  
HETATM    9  C   UNL     1      -8.765   7.398  68.636  1.00  0.00    -0.128 C  
HETATM   10  C   UNL     1     -10.055   7.390  69.432  1.00  0.00    -0.185 C  
HETATM   11  C   UNL     1     -11.016   6.457  68.656  1.00  0.00    -0.404 C  
HETATM   12  C   UNL     1     -10.443   5.045  68.927  1.00  0.00    -0.061 C  
HETATM   13  C   UNL     1      -9.224   5.328  69.839  1.00  0.00    -0.178 C  
HETATM   14  C   UNL     1      -8.707   4.118  70.580  1.00  0.00    -0.117 C  
HETATM   15  C   UNL     1      -9.681   6.551  70.687  1.00  0.00    -0.194 C  
HETATM   16  C   UNL     1      -8.216   6.021  68.915  1.00  0.00    -0.104 C  
HETATM   17  O   UNL     1      -7.190   5.558  68.452  1.00  0.00    -0.071 OA 
HETATM   18  C   UNL     1      -8.571   7.175  71.563  1.00  0.00    -0.115 C  
HETATM   19  C   UNL     1     -10.883   6.299  71.617  1.00  0.00    -0.298 C  
ENDBRANCH   5   8
TORSDOF 1
ENDMDL
MODEL      137
REMARK 921   NORMALIZED FREE ENERGY PREDICTED BY IDOCK:   -3.12 KCAL/MOL
REMARK 922        TOTAL FREE ENERGY PREDICTED BY IDOCK:   -3.80 KCAL/MOL
REMARK 923 INTER-LIGAND FREE ENERGY PREDICTED BY IDOCK:   -3.28 KCAL/MOL
REMARK 924 INTRA-LIGAND FREE ENERGY PREDICTED BY IDOCK:   -0.51 KCAL/MOL
REMARK 927      BINDING AFFINITY PREDICTED BY RF-SCORE:    0.00 PKD
ROOT
HETATM    1  C   UNL     1     -10.902   2.844  63.138  1.00  0.00    -0.215 C  
HETATM    2  C   UNL     1     -10.113   3.798  63.984  1.00  0.00    -0.212 A  
HETATM    3  C   UNL     1     -10.493   4.106  65.294  1.00  0.00    -0.156 A  
HETATM    4  C   UNL     1      -9.763   5.035  66.050  1.00  0.00    -0.194 A  
HETATM    5  C   UNL     1      -8.637   5.671  65.512  1.00  0.00    -0.151 A  
HETATM    6  C   UNL     1      -8.276   5.364  64.194  1.00  0.00    -0.127 A  
HETATM    7  C   UNL     1      -8.988   4.425  63.446  1.00  0.00    -0.139 A  
ENDROOT
BRANCH   5   8
HETATM    8  C   UNL     1      -7.940   6.703  66.298  1.00  0.00    -0.108 C  
HETATM    9  C   UNL     1      -8.373   7.957  66.495  1.00  0.00    -0.127 C  
HETATM   10  C   UNL     1      -9.571   8.727  65.976  1.00  0.00    -0.297 C  
HETATM   11  C   UNL     1     -10.526   8.873  67.185  1.00  0.00    -0.344 C  
HETATM   12  C   UNL     1      -9.816   9.918  68.079  1.00  0.00    -0.170 C  
HETATM   13  C   UNL     1      -8.538  10.260  67.274  1.00  0.00    -0.125 C  
HETATM   14  C   UNL     1      -7.851  11.533  67.708  1.00  0.00    -0.126 C  
HETATM   15  C   UNL     1      -9.005  10.163  65.792  1.00  0.00    -0.187 C  
HETATM   16  C   UNL     1      -7.688   8.987  67.358  1.00  0.00    -0.092 C  
HETATM   17  O   UNL     1      -6.680   8.807  68.015  1.00  0.00    -0.066 OA 
HETATM   18  C   UNL     1      -7.866  10.272  64.753  1.00  0.00    -0.130 C  
HETATM   19  C   UNL     1     -10.082  11.180  65.371  1.00  0.00    -0.317 C  
ENDBRANCH   5   8
TORSDOF 1
ENDMDL
MODEL      138
REMARK 921   NORMALIZED FREE ENERGY PREDICTED BY IDOCK:   -3.08 KCAL/MOL
REMARK 922        TOTAL FREE ENERGY PREDICTED BY IDOCK:   -3.75 KCAL/MOL
REMARK 923 INTER-LIGAND FREE ENERGY PREDICTED BY IDOCK:   -3.26 KCAL/MOL
REMARK 924 INTRA-LIGAND FREE ENERGY PREDICTED BY IDOCK:   -0.49 KCAL/MOL
REMARK 927      BINDING AFFINITY PREDICTED BY RF-SCORE:    0.00 PKD
ROOT
HETATM    1  C   UNL     1      -6.367   5.959  65.963  1.00  0.00    -0.042 C  
HETATM    2  C   UNL     1      -6.501   7.436  66.185  1.00  0.00    -0.045 A  
HETATM    3  C   UNL     1      -6.860   7.962  67.430  1.00  0.00    -0.070 A  
HETATM    4  C   UNL     1      -7.022   9.345  67.601  1.00  0.00    -0.081 A  
HETATM    5  C   UNL     1      -6.825  10.228  66.532  1.00  0.00    -0.101 A  
HETATM    6  C   UNL     1      -6.480   9.686  65.287  1.00  0.00    -0.083 A  
HETATM    7  C   UNL     1      -6.299   8.312  65.118  1.00  0.00    -0.048 A  
ENDROOT
BRANCH   5   8
HETATM    8  C   UNL     1      -7.085  11.665  66.720  1.00  0.00    -0.083 C  
HETATM    9  C   UNL     1      -8.292  12.225  66.873  1.00  0.00    -0.137 C  
HETATM   10  C   UNL     1      -9.700  11.665  66.835  1.00  0.00    -0.211 C  
HETATM   11  C   UNL     1     -10.196  11.688  68.302  1.00  0.00    -0.206 C  
HETATM   12  C   UNL     1     -10.438  13.192  68.576  1.00  0.00    -0.262 C  
HETATM   13  C   UNL     1     -10.066  13.860  67.229  1.00  0.00    -0.242 C  
HETATM   14  C   UNL     1     -10.576  15.273  67.072  1.00  0.00    -0.306 C  
HETATM   15  C   UNL     1     -10.511  12.811  66.168  1.00  0.00    -0.284 C  
HETATM   16  C   UNL     1      -8.545  13.689  67.133  1.00  0.00    -0.192 C  
HETATM   17  O   UNL     1      -7.690  14.544  67.275  1.00  0.00    -0.191 OA 
HETATM   18  C   UNL     1     -10.077  13.140  64.721  1.00  0.00    -0.244 C  
HETATM   19  C   UNL     1     -12.023  12.523  66.118  1.00  0.00    -0.432 C  
ENDBRANCH   5   8
TORSDOF 1
ENDMDL
MODEL      139
REMARK 921   NORMALIZED FREE ENERGY PREDICTED BY IDOCK:   -3.08 KCAL/MOL
REMARK 922        TOTAL FREE ENERGY PREDICTED BY IDOCK:   -3.75 KCAL/MOL
REMARK 923 INTER-LIGAND FREE ENERGY PREDICTED BY IDOCK:   -3.25 KCAL/MOL
REMARK 924 INTRA-LIGAND FREE ENERGY PREDICTED BY IDOCK:   -0.49 KCAL/MOL
REMARK 927      BINDING AFFINITY PREDICTED BY RF-SCORE:    0.00 PKD
ROOT
HETATM    1  C   UNL     1      -8.220   4.110  64.138  1.00  0.00    -0.093 C  
HETATM    2  C   UNL     1      -8.413   5.047  65.293  1.00  0.00    -0.141 A  
HETATM    3  C   UNL     1      -7.343   5.749  65.857  1.00  0.00    -0.073 A  
HETATM    4  C   UNL     1      -7.542   6.585  66.965  1.00  0.00    -0.095 A  
HETATM    5  C   UNL     1      -8.815   6.738  67.529  1.00  0.00    -0.117 A  
HETATM    6  C   UNL     1      -9.875   6.018  66.964  1.00  0.00    -0.179 A  
HETATM    7  C   UNL     1      -9.684   5.200  65.849  1.00  0.00    -0.159 A  
ENDROOT
BRANCH   5   8
HETATM    8  C   UNL     1      -8.978   7.556  68.743  1.00  0.00    -0.129 C  
HETATM    9  C   UNL     1      -9.134   7.081  69.987  1.00  0.00    -0.145 C  
HETATM   10  C   UNL     1      -9.267   5.678  70.545  1.00  0.00    -0.175 C  
HETATM   11  C   UNL     1      -7.931   5.395  71.277  1.00  0.00    -0.110 C  
HETATM   12  C   UNL     1      -8.024   6.274  72.547  1.00  0.00    -0.103 C  
HETATM   13  C   UNL     1      -9.409   6.953  72.406  1.00  0.00    -0.149 C  
HETATM   14  C   UNL     1      -9.938   7.560  73.683  1.00  0.00    -0.347 C  
HETATM   15  C   UNL     1     -10.278   5.864  71.711  1.00  0.00    -0.248 C  
HETATM   16  C   UNL     1      -9.233   7.925  71.233  1.00  0.00    -0.146 C  
HETATM   17  O   UNL     1      -9.146   9.138  71.279  1.00  0.00    -0.234 OA 
HETATM   18  C   UNL     1     -11.678   6.348  71.269  1.00  0.00    -0.359 C  
HETATM   19  C   UNL     1     -10.496   4.575  72.525  1.00  0.00    -0.251 C  
ENDBRANCH   5   8
TORSDOF 1
ENDMDL
MODEL      140
REMARK 921   NORMALIZED FREE ENERGY PREDICTED BY IDOCK:   -3.02 KCAL/MOL
REMARK 922        TOTAL FREE ENERGY PREDICTED BY IDOCK:   -3.69 KCAL/MOL
REMARK 923 INTER-LIGAND FREE ENERGY PREDICTED BY IDOCK:   -3.30 KCAL/MOL
REMARK 924 INTRA-LIGAND FREE ENERGY PREDICTED BY IDOCK:   -0.39 KCAL/MOL
REMARK 927      BINDING AFFINITY PREDICTED BY RF-SCORE:    0.00 PKD
ROOT
HETATM    1  C   UNL     1     -12.743   7.884  71.479  1.00  0.00    -0.342 C  
HETATM    2  C   UNL     1     -11.630   8.399  70.616  1.00  0.00    -0.205 A  
HETATM    3  C   UNL     1     -10.725   7.536  69.990  1.00  0.00    -0.248 A  
HETATM    4  C   UNL     1      -9.667   8.044  69.223  1.00  0.00    -0.167 A  
HETATM    5  C   UNL     1      -9.493   9.425  69.066  1.00  0.00    -0.160 A  
HETATM    6  C   UNL     1     -10.398  10.278  69.710  1.00  0.00    -0.287 A  
HETATM    7  C   UNL     1     -11.464   9.776  70.457  1.00  0.00    -0.370 A  
ENDROOT
BRANCH   5   8
HETATM    8  C   UNL     1      -8.324   9.931  68.326  1.00  0.00    -0.110 C  
HETATM    9  C   UNL     1      -8.057   9.692  67.035  1.00  0.00    -0.113 C  
HETATM   10  C   UNL     1      -8.739   8.841  65.982  1.00  0.00    -0.193 C  
HETATM   11  C   UNL     1      -9.412   9.842  65.011  1.00  0.00    -0.337 C  
HETATM   12  C   UNL     1      -8.218  10.447  64.235  1.00  0.00    -0.121 C  
HETATM   13  C   UNL     1      -6.995   9.715  64.841  1.00  0.00    -0.113 C  
HETATM   14  C   UNL     1      -5.737   9.813  64.012  1.00  0.00    -0.098 C  
HETATM   15  C   UNL     1      -7.543   8.292  65.154  1.00  0.00    -0.093 C  
HETATM   16  C   UNL     1      -6.894  10.269  66.267  1.00  0.00    -0.110 C  
HETATM   17  O   UNL     1      -6.072  11.052  66.704  1.00  0.00    -0.096 OA 
HETATM   18  C   UNL     1      -6.572   7.394  65.956  1.00  0.00    -0.049 C  
HETATM   19  C   UNL     1      -7.989   7.471  63.930  1.00  0.00    -0.089 C  
ENDBRANCH   5   8
TORSDOF 1
ENDMDL
MODEL      141
REMARK 921   NORMALIZED FREE ENERGY PREDICTED BY IDOCK:   -3.02 KCAL/MOL
REMARK 922        TOTAL FREE ENERGY PREDICTED BY IDOCK:   -3.69 KCAL/MOL
REMARK 923 INTER-LIGAND FREE ENERGY PREDICTED BY IDOCK:   -3.18 KCAL/MOL
REMARK 924 INTRA-LIGAND FREE ENERGY PREDICTED BY IDOCK:   -0.51 KCAL/MOL
REMARK 927      BINDING AFFINITY PREDICTED BY RF-SCORE:    0.00 PKD
ROOT
HETATM    1  C   UNL     1     -10.371  10.770  64.575  1.00  0.00    -0.401 C  
HETATM    2  C   UNL     1     -10.099  10.502  66.025  1.00  0.00    -0.317 A  
HETATM    3  C   UNL     1      -8.972  11.021  66.671  1.00  0.00    -0.176 A  
HETATM    4  C   UNL     1      -8.717  10.720  68.016  1.00  0.00    -0.132 A  
HETATM    5  C   UNL     1      -9.585   9.894  68.743  1.00  0.00    -0.160 A  
HETATM    6  C   UNL     1     -10.701   9.369  68.081  1.00  0.00    -0.230 A  
HETATM    7  C   UNL     1     -10.969   9.683  66.747  1.00  0.00     0.078 A  
ENDROOT
BRANCH   5   8
HETATM    8  C   UNL     1      -9.247   9.527  70.129  1.00  0.00    -0.281 C  
HETATM    9  C   UNL     1      -8.672   8.378  70.512  1.00  0.00    -0.152 C  
HETATM   10  C   UNL     1      -8.270   7.126  69.758  1.00  0.00    -0.131 C  
HETATM   11  C   UNL     1      -6.722   7.154  69.704  1.00  0.00    -0.049 C  
HETATM   12  C   UNL     1      -6.306   6.822  71.157  1.00  0.00    -0.041 C  
HETATM   13  C   UNL     1      -7.664   6.629  71.877  1.00  0.00    -0.097 C  
HETATM   14  C   UNL     1      -7.568   5.914  73.204  1.00  0.00    -0.098 C  
HETATM   15  C   UNL     1      -8.569   5.995  70.781  1.00  0.00    -0.135 C  
HETATM   16  C   UNL     1      -8.267   8.037  71.924  1.00  0.00    -0.126 C  
HETATM   17  O   UNL     1      -8.373   8.770  72.890  1.00  0.00    -0.414 OA 
HETATM   18  C   UNL     1     -10.059   5.870  71.175  1.00  0.00    -0.249 C  
HETATM   19  C   UNL     1      -8.130   4.606  70.283  1.00  0.00    -0.067 C  
ENDBRANCH   5   8
TORSDOF 1
ENDMDL
MODEL      142
REMARK 921   NORMALIZED FREE ENERGY PREDICTED BY IDOCK:   -2.99 KCAL/MOL
REMARK 922        TOTAL FREE ENERGY PREDICTED BY IDOCK:   -3.66 KCAL/MOL
REMARK 923 INTER-LIGAND FREE ENERGY PREDICTED BY IDOCK:   -3.41 KCAL/MOL
REMARK 924 INTRA-LIGAND FREE ENERGY PREDICTED BY IDOCK:   -0.25 KCAL/MOL
REMARK 927      BINDING AFFINITY PREDICTED BY RF-SCORE:    0.00 PKD
ROOT
HETATM    1  C   UNL     1      -7.860   1.864  63.420  1.00  0.00    -0.060 C  
HETATM    2  C   UNL     1      -8.125   2.254  64.844  1.00  0.00    -0.079 A  
HETATM    3  C   UNL     1      -7.425   1.673  65.907  1.00  0.00    -0.061 A  
HETATM    4  C   UNL     1      -7.722   2.022  67.232  1.00  0.00    -0.061 A  
HETATM    5  C   UNL     1      -8.722   2.959  67.521  1.00  0.00    -0.142 A  
HETATM    6  C   UNL     1      -9.424   3.522  66.448  1.00  0.00    -0.164 A  
HETATM    7  C   UNL     1      -9.119   3.192  65.127  1.00  0.00    -0.147 A  
ENDROOT
BRANCH   5   8
HETATM    8  C   UNL     1      -9.069   3.243  68.924  1.00  0.00    -0.207 C  
HETATM    9  C   UNL     1      -9.426   4.439  69.412  1.00  0.00    -0.251 C  
HETATM   10  C   UNL     1      -9.523   5.818  68.790  1.00  0.00    -0.147 C  
HETATM   11  C   UNL     1     -11.038   6.113  68.668  1.00  0.00    -0.378 C  
HETATM   12  C   UNL     1     -11.472   6.372  70.130  1.00  0.00    -0.484 C  
HETATM   13  C   UNL     1     -10.153   6.207  70.925  1.00  0.00    -0.237 C  
HETATM   14  C   UNL     1     -10.190   6.784  72.320  1.00  0.00    -0.210 C  
HETATM   15  C   UNL     1      -9.070   6.752  69.948  1.00  0.00    -0.144 C  
HETATM   16  C   UNL     1      -9.846   4.707  70.835  1.00  0.00    -0.202 C  
HETATM   17  O   UNL     1      -9.950   3.873  71.715  1.00  0.00    -0.181 OA 
HETATM   18  C   UNL     1      -7.614   6.527  70.415  1.00  0.00    -0.096 C  
HETATM   19  C   UNL     1      -9.192   8.245  69.594  1.00  0.00    -0.158 C  
ENDBRANCH   5   8
TORSDOF 1
ENDMDL
MODEL      143
REMARK 921   NORMALIZED FREE ENERGY PREDICTED BY IDOCK:   -2.97 KCAL/MOL
REMARK 922        TOTAL FREE ENERGY PREDICTED BY IDOCK:   -3.63 KCAL/MOL
REMARK 923 INTER-LIGAND FREE ENERGY PREDICTED BY IDOCK:   -3.15 KCAL/MOL
REMARK 924 INTRA-LIGAND FREE ENERGY PREDICTED BY IDOCK:   -0.49 KCAL/MOL
REMARK 927      BINDING AFFINITY PREDICTED BY RF-SCORE:    0.00 PKD
ROOT
HETATM    1  C   UNL     1      -5.312   5.778  66.204  1.00  0.00    -0.009 C  
HETATM    2  C   UNL     1      -6.304   6.722  66.817  1.00  0.00    -0.042 A  
HETATM    3  C   UNL     1      -5.903   7.918  67.422  1.00  0.00    -0.038 A  
HETATM    4  C   UNL     1      -6.845   8.762  68.027  1.00  0.00    -0.070 A  
HETATM    5  C   UNL     1      -8.205   8.428  68.038  1.00  0.00    -0.127 A  
HETATM    6  C   UNL     1      -8.591   7.221  67.442  1.00  0.00    -0.121 A  
HETATM    7  C   UNL     1      -7.659   6.388  66.821  1.00  0.00    -0.098 A  
ENDROOT
BRANCH   5   8
HETATM    8  C   UNL     1      -9.159   9.292  68.755  1.00  0.00    -0.136 C  
HETATM    9  C   UNL     1      -9.676  10.437  68.287  1.00  0.00    -0.162 C  
HETATM   10  C   UNL     1      -9.442  11.230  67.017  1.00  0.00    -0.186 C  
HETATM   11  C   UNL     1     -10.719  11.035  66.164  1.00  0.00    -0.257 C  
HETATM   12  C   UNL     1     -11.779  11.886  66.903  1.00  0.00    -0.291 C  
HETATM   13  C   UNL     1     -10.985  12.484  68.091  1.00  0.00    -0.260 C  
HETATM   14  C   UNL     1     -11.655  13.662  68.758  1.00  0.00    -0.359 C  
HETATM   15  C   UNL     1      -9.560  12.702  67.503  1.00  0.00    -0.184 C  
HETATM   16  C   UNL     1     -10.704  11.280  68.999  1.00  0.00    -0.217 C  
HETATM   17  O   UNL     1     -11.225  11.016  70.067  1.00  0.00    -0.273 OA 
HETATM   18  C   UNL     1      -8.495  13.118  68.543  1.00  0.00    -0.058 C  
HETATM   19  C   UNL     1      -9.471  13.721  66.352  1.00  0.00    -0.259 C  
ENDBRANCH   5   8
TORSDOF 1
ENDMDL
MODEL      144
REMARK 921   NORMALIZED FREE ENERGY PREDICTED BY IDOCK:   -2.94 KCAL/MOL
REMARK 922        TOTAL FREE ENERGY PREDICTED BY IDOCK:   -3.60 KCAL/MOL
REMARK 923 INTER-LIGAND FREE ENERGY PREDICTED BY IDOCK:   -3.18 KCAL/MOL
REMARK 924 INTRA-LIGAND FREE ENERGY PREDICTED BY IDOCK:   -0.43 KCAL/MOL
REMARK 927      BINDING AFFINITY PREDICTED BY RF-SCORE:    0.00 PKD
ROOT
HETATM    1  C   UNL     1      -9.029   2.487  64.355  1.00  0.00    -0.115 C  
HETATM    2  C   UNL     1      -9.336   3.662  65.236  1.00  0.00    -0.158 A  
HETATM    3  C   UNL     1     -10.636   4.159  65.372  1.00  0.00    -0.071 A  
HETATM    4  C   UNL     1     -10.890   5.285  66.168  1.00  0.00    -0.142 A  
HETATM    5  C   UNL     1      -9.850   5.936  66.844  1.00  0.00    -0.182 A  
HETATM    6  C   UNL     1      -8.551   5.436  66.687  1.00  0.00    -0.115 A  
HETATM    7  C   UNL     1      -8.297   4.303  65.912  1.00  0.00    -0.109 A  
ENDROOT
BRANCH   5   8
HETATM    8  C   UNL     1     -10.134   7.165  67.603  1.00  0.00    -0.229 C  
HETATM    9  C   UNL     1      -9.672   8.388  67.306  1.00  0.00    -0.240 C  
HETATM   10  C   UNL     1      -8.724   8.901  66.240  1.00  0.00    -0.162 C  
HETATM   11  C   UNL     1      -9.610   9.674  65.233  1.00  0.00    -0.347 C  
HETATM   12  C   UNL     1      -9.984  10.964  66.001  1.00  0.00    -0.290 C  
HETATM   13  C   UNL     1      -9.259  10.790  67.359  1.00  0.00    -0.156 C  
HETATM   14  C   UNL     1      -9.120  12.063  68.158  1.00  0.00    -0.191 C  
HETATM   15  C   UNL     1      -7.953  10.032  66.978  1.00  0.00    -0.106 C  
HETATM   16  C   UNL     1     -10.022   9.653  68.049  1.00  0.00    -0.160 C  
HETATM   17  O   UNL     1     -10.794   9.737  68.985  1.00  0.00    -0.219 OA 
HETATM   18  C   UNL     1      -7.117   9.550  68.186  1.00  0.00    -0.079 C  
HETATM   19  C   UNL     1      -6.989  10.799  66.055  1.00  0.00    -0.104 C  
ENDBRANCH   5   8
TORSDOF 1
ENDMDL
MODEL      145
REMARK 921   NORMALIZED FREE ENERGY PREDICTED BY IDOCK:   -2.93 KCAL/MOL
REMARK 922        TOTAL FREE ENERGY PREDICTED BY IDOCK:   -3.60 KCAL/MOL
REMARK 923 INTER-LIGAND FREE ENERGY PREDICTED BY IDOCK:   -3.18 KCAL/MOL
REMARK 924 INTRA-LIGAND FREE ENERGY PREDICTED BY IDOCK:   -0.42 KCAL/MOL
REMARK 927      BINDING AFFINITY PREDICTED BY RF-SCORE:    0.00 PKD
ROOT
HETATM    1  C   UNL     1      -7.413   5.521  74.270  1.00  0.00    -0.089 C  
HETATM    2  C   UNL     1      -7.832   6.589  73.303  1.00  0.00    -0.096 A  
HETATM    3  C   UNL     1      -9.128   7.116  73.306  1.00  0.00    -0.182 A  
HETATM    4  C   UNL     1      -9.507   8.082  72.363  1.00  0.00    -0.279 A  
HETATM    5  C   UNL     1      -8.599   8.541  71.400  1.00  0.00    -0.224 A  
HETATM    6  C   UNL     1      -7.309   7.995  71.400  1.00  0.00    -0.070 A  
HETATM    7  C   UNL     1      -6.922   7.047  72.349  1.00  0.00    -0.065 A  
ENDROOT
BRANCH   5   8
HETATM    8  C   UNL     1      -9.050   9.493  70.371  1.00  0.00    -0.296 C  
HETATM    9  C   UNL     1      -9.112   9.246  69.055  1.00  0.00    -0.147 C  
HETATM   10  C   UNL     1      -8.710   8.053  68.211  1.00  0.00    -0.130 C  
HETATM   11  C   UNL     1     -10.038   7.396  67.761  1.00  0.00    -0.232 C  
HETATM   12  C   UNL     1     -10.589   8.386  66.707  1.00  0.00    -0.227 C  
HETATM   13  C   UNL     1      -9.506   9.493  66.662  1.00  0.00    -0.222 C  
HETATM   14  C   UNL     1      -9.578  10.386  65.446  1.00  0.00    -0.303 C  
HETATM   15  C   UNL     1      -8.181   8.714  66.907  1.00  0.00    -0.105 C  
HETATM   16  C   UNL     1      -9.639  10.202  68.015  1.00  0.00    -0.145 C  
HETATM   17  O   UNL     1     -10.111  11.302  68.235  1.00  0.00    -0.176 OA 
HETATM   18  C   UNL     1      -6.938   9.612  67.107  1.00  0.00    -0.085 C  
HETATM   19  C   UNL     1      -7.808   7.686  65.823  1.00  0.00    -0.106 C  
ENDBRANCH   5   8
TORSDOF 1
ENDMDL
MODEL      146
REMARK 921   NORMALIZED FREE ENERGY PREDICTED BY IDOCK:   -2.91 KCAL/MOL
REMARK 922        TOTAL FREE ENERGY PREDICTED BY IDOCK:   -3.58 KCAL/MOL
REMARK 923 INTER-LIGAND FREE ENERGY PREDICTED BY IDOCK:   -3.28 KCAL/MOL
REMARK 924 INTRA-LIGAND FREE ENERGY PREDICTED BY IDOCK:   -0.29 KCAL/MOL
REMARK 927      BINDING AFFINITY PREDICTED BY RF-SCORE:    0.00 PKD
ROOT
HETATM    1  C   UNL     1      -8.382   7.187  74.562  1.00  0.00    -0.215 C  
HETATM    2  C   UNL     1      -8.851   7.466  73.165  1.00  0.00    -0.192 A  
HETATM    3  C   UNL     1     -10.106   7.047  72.713  1.00  0.00    -0.211 A  
HETATM    4  C   UNL     1     -10.504   7.282  71.389  1.00  0.00    -0.219 A  
HETATM    5  C   UNL     1      -9.655   7.943  70.492  1.00  0.00    -0.170 A  
HETATM    6  C   UNL     1      -8.395   8.344  70.953  1.00  0.00    -0.149 A  
HETATM    7  C   UNL     1      -8.004   8.130  72.276  1.00  0.00    -0.178 A  
ENDROOT
BRANCH   5   8
HETATM    8  C   UNL     1     -10.065   8.100  69.086  1.00  0.00    -0.204 C  
HETATM    9  C   UNL     1      -9.867   9.192  68.335  1.00  0.00    -0.181 C  
HETATM   10  C   UNL     1      -9.281  10.558  68.636  1.00  0.00    -0.172 C  
HETATM   11  C   UNL     1      -7.905  10.585  67.926  1.00  0.00    -0.105 C  
HETATM   12  C   UNL     1      -8.276  10.700  66.429  1.00  0.00    -0.146 C  
HETATM   13  C   UNL     1      -9.824  10.737  66.450  1.00  0.00    -0.254 C  
HETATM   14  C   UNL     1     -10.453  11.239  65.172  1.00  0.00    -0.351 C  
HETATM   15  C   UNL     1     -10.150  11.507  67.764  1.00  0.00    -0.198 C  
HETATM   16  C   UNL     1     -10.228   9.321  66.876  1.00  0.00    -0.256 C  
HETATM   17  O   UNL     1     -10.710   8.445  66.184  1.00  0.00     0.514 OA 
HETATM   18  C   UNL     1     -11.649  11.524  68.141  1.00  0.00    -0.378 C  
HETATM   19  C   UNL     1      -9.670  12.969  67.810  1.00  0.00    -0.218 C  
ENDBRANCH   5   8
TORSDOF 1
ENDMDL
MODEL      147
REMARK 921   NORMALIZED FREE ENERGY PREDICTED BY IDOCK:   -2.90 KCAL/MOL
REMARK 922        TOTAL FREE ENERGY PREDICTED BY IDOCK:   -3.56 KCAL/MOL
REMARK 923 INTER-LIGAND FREE ENERGY PREDICTED BY IDOCK:   -3.22 KCAL/MOL
REMARK 924 INTRA-LIGAND FREE ENERGY PREDICTED BY IDOCK:   -0.34 KCAL/MOL
REMARK 927      BINDING AFFINITY PREDICTED BY RF-SCORE:    0.00 PKD
ROOT
HETATM    1  C   UNL     1      -7.138   8.041  67.616  1.00  0.00    -0.083 C  
HETATM    2  C   UNL     1      -7.158   9.505  67.946  1.00  0.00    -0.081 A  
HETATM    3  C   UNL     1      -7.477  10.471  66.986  1.00  0.00    -0.100 A  
HETATM    4  C   UNL     1      -7.446  11.835  67.309  1.00  0.00    -0.151 A  
HETATM    5  C   UNL     1      -7.098  12.260  68.597  1.00  0.00    -0.103 A  
HETATM    6  C   UNL     1      -6.768  11.283  69.544  1.00  0.00    -0.128 A  
HETATM    7  C   UNL     1      -6.817   9.923  69.233  1.00  0.00    -0.057 A  
ENDROOT
BRANCH   5   8
HETATM    8  C   UNL     1      -6.992  13.701  68.883  1.00  0.00    -0.110 C  
HETATM    9  C   UNL     1      -7.957  14.608  68.679  1.00  0.00    -0.141 C  
HETATM   10  C   UNL     1      -9.343  14.520  68.072  1.00  0.00    -0.201 C  
HETATM   11  C   UNL     1     -10.327  14.660  69.259  1.00  0.00    -0.183 C  
HETATM   12  C   UNL     1     -10.219  16.157  69.639  1.00  0.00    -0.243 C  
HETATM   13  C   UNL     1      -9.194  16.708  68.617  1.00  0.00    -0.248 C  
HETATM   14  C   UNL     1      -9.187  18.213  68.491  1.00  0.00    -0.326 C  
HETATM   15  C   UNL     1      -9.483  15.879  67.330  1.00  0.00    -0.220 C  
HETATM   16  C   UNL     1      -7.865  16.070  69.038  1.00  0.00    -0.222 C  
HETATM   17  O   UNL     1      -6.923  16.609  69.589  1.00  0.00    -0.183 OA 
HETATM   18  C   UNL     1      -8.462  16.091  66.190  1.00  0.00    -0.247 C  
HETATM   19  C   UNL     1     -10.879  16.083  66.713  1.00  0.00    -0.195 C  
ENDBRANCH   5   8
TORSDOF 1
ENDMDL
MODEL      148
REMARK 921   NORMALIZED FREE ENERGY PREDICTED BY IDOCK:   -2.86 KCAL/MOL
REMARK 922        TOTAL FREE ENERGY PREDICTED BY IDOCK:   -3.52 KCAL/MOL
REMARK 923 INTER-LIGAND FREE ENERGY PREDICTED BY IDOCK:   -3.19 KCAL/MOL
REMARK 924 INTRA-LIGAND FREE ENERGY PREDICTED BY IDOCK:   -0.33 KCAL/MOL
REMARK 927      BINDING AFFINITY PREDICTED BY RF-SCORE:    0.00 PKD
ROOT
HETATM    1  C   UNL     1     -10.225   3.148  62.342  1.00  0.00    -0.118 C  
HETATM    2  C   UNL     1      -9.749   3.838  63.586  1.00  0.00    -0.157 A  
HETATM    3  C   UNL     1      -8.440   4.316  63.706  1.00  0.00    -0.105 A  
HETATM    4  C   UNL     1      -8.007   4.919  64.896  1.00  0.00    -0.096 A  
HETATM    5  C   UNL     1      -8.874   5.057  65.988  1.00  0.00    -0.130 A  
HETATM    6  C   UNL     1     -10.177   4.561  65.859  1.00  0.00    -0.289 A  
HETATM    7  C   UNL     1     -10.618   3.978  64.669  1.00  0.00    -0.188 A  
ENDROOT
BRANCH   5   8
HETATM    8  C   UNL     1      -8.366   5.617  67.252  1.00  0.00    -0.100 C  
HETATM    9  C   UNL     1      -8.991   6.533  68.004  1.00  0.00    -0.116 C  
HETATM   10  C   UNL     1     -10.278   7.314  67.820  1.00  0.00    -0.247 C  
HETATM   11  C   UNL     1     -11.278   6.710  68.836  1.00  0.00    -0.273 C  
HETATM   12  C   UNL     1     -10.762   7.227  70.199  1.00  0.00    -0.260 C  
HETATM   13  C   UNL     1      -9.529   8.080  69.810  1.00  0.00    -0.159 C  
HETATM   14  C   UNL     1      -9.058   9.024  70.891  1.00  0.00    -0.309 C  
HETATM   15  C   UNL     1      -9.934   8.698  68.440  1.00  0.00    -0.204 C  
HETATM   16  C   UNL     1      -8.497   7.052  69.332  1.00  0.00    -0.133 C  
HETATM   17  O   UNL     1      -7.492   6.681  69.910  1.00  0.00    -0.090 OA 
HETATM   18  C   UNL     1      -8.796   9.454  67.717  1.00  0.00    -0.124 C  
HETATM   19  C   UNL     1     -11.141   9.653  68.476  1.00  0.00    -0.091 C  
ENDBRANCH   5   8
TORSDOF 1
ENDMDL
MODEL      149
REMARK 921   NORMALIZED FREE ENERGY PREDICTED BY IDOCK:   -2.85 KCAL/MOL
REMARK 922        TOTAL FREE ENERGY PREDICTED BY IDOCK:   -3.50 KCAL/MOL
REMARK 923 INTER-LIGAND FREE ENERGY PREDICTED BY IDOCK:   -3.53 KCAL/MOL
REMARK 924 INTRA-LIGAND FREE ENERGY PREDICTED BY IDOCK:    0.03 KCAL/MOL
REMARK 927      BINDING AFFINITY PREDICTED BY RF-SCORE:    0.00 PKD
ROOT
HETATM    1  C   UNL     1      -5.370   8.379  62.897  1.00  0.00    -0.068 C  
HETATM    2  C   UNL     1      -5.994   9.326  63.879  1.00  0.00    -0.080 A  
HETATM    3  C   UNL     1      -7.371   9.570  63.892  1.00  0.00    -0.114 A  
HETATM    4  C   UNL     1      -7.924  10.493  64.792  1.00  0.00    -0.046 A  
HETATM    5  C   UNL     1      -7.111  11.188  65.696  1.00  0.00     0.269 A  
HETATM    6  C   UNL     1      -5.733  10.945  65.662  1.00  0.00    -0.099 A  
HETATM    7  C   UNL     1      -5.181  10.013  64.782  1.00  0.00    -0.078 A  
ENDROOT
BRANCH   5   8
HETATM    8  C   UNL     1      -7.708  12.213  66.570  1.00  0.00     0.228 C  
HETATM    9  C   UNL     1      -9.017  12.488  66.666  1.00  0.00    -0.174 C  
HETATM   10  C   UNL     1     -10.236  11.963  65.935  1.00  0.00    -0.270 C  
HETATM   11  C   UNL     1     -10.986  11.078  66.961  1.00  0.00    -0.333 C  
HETATM   12  C   UNL     1     -11.597  12.106  67.943  1.00  0.00    -0.413 C  
HETATM   13  C   UNL     1     -11.139  13.466  67.361  1.00  0.00    -0.297 C  
HETATM   14  C   UNL     1     -11.908  14.657  67.881  1.00  0.00    -0.352 C  
HETATM   15  C   UNL     1     -11.141  13.222  65.823  1.00  0.00    -0.296 C  
HETATM   16  C   UNL     1      -9.627  13.491  67.613  1.00  0.00    -0.222 C  
HETATM   17  O   UNL     1      -9.020  14.152  68.435  1.00  0.00    -0.183 OA 
HETATM   18  C   UNL     1     -10.531  14.373  64.991  1.00  0.00    -0.454 C  
HETATM   19  C   UNL     1     -12.518  12.916  65.205  1.00  0.00    -0.552 C  
ENDBRANCH   5   8
TORSDOF 1
ENDMDL
MODEL      150
REMARK 921   NORMALIZED FREE ENERGY PREDICTED BY IDOCK:   -2.83 KCAL/MOL
REMARK 922        TOTAL FREE ENERGY PREDICTED BY IDOCK:   -3.49 KCAL/MOL
REMARK 923 INTER-LIGAND FREE ENERGY PREDICTED BY IDOCK:   -3.21 KCAL/MOL
REMARK 924 INTRA-LIGAND FREE ENERGY PREDICTED BY IDOCK:   -0.28 KCAL/MOL
REMARK 927      BINDING AFFINITY PREDICTED BY RF-SCORE:    0.00 PKD
ROOT
HETATM    1  C   UNL     1     -12.289  14.776  65.172  1.00  0.00    -0.158 C  
HETATM    2  C   UNL     1     -11.754  13.577  65.896  1.00  0.00    -0.380 A  
HETATM    3  C   UNL     1     -11.543  12.358  65.243  1.00  0.00    -0.419 A  
HETATM    4  C   UNL     1     -11.083  11.239  65.953  1.00  0.00    -0.168 A  
HETATM    5  C   UNL     1     -10.823  11.317  67.327  1.00  0.00    -0.317 A  
HETATM    6  C   UNL     1     -11.052  12.540  67.970  1.00  0.00    -0.285 A  
HETATM    7  C   UNL     1     -11.491  13.661  67.264  1.00  0.00    -0.370 A  
ENDROOT
BRANCH   5   8
HETATM    8  C   UNL     1     -10.423  10.105  68.061  1.00  0.00    -0.249 C  
HETATM    9  C   UNL     1      -9.455   9.255  67.691  1.00  0.00    -0.156 C  
HETATM   10  C   UNL     1      -8.558   9.183  66.471  1.00  0.00    -0.136 C  
HETATM   11  C   UNL     1      -7.148   9.588  66.968  1.00  0.00    -0.086 C  
HETATM   12  C   UNL     1      -6.693   8.362  67.795  1.00  0.00    -0.066 C  
HETATM   13  C   UNL     1      -7.889   7.387  67.668  1.00  0.00    -0.113 C  
HETATM   14  C   UNL     1      -7.571   5.958  68.043  1.00  0.00    -0.089 C  
HETATM   15  C   UNL     1      -8.424   7.653  66.231  1.00  0.00    -0.140 C  
HETATM   16  C   UNL     1      -9.005   8.052  68.483  1.00  0.00    -0.133 C  
HETATM   17  O   UNL     1      -9.431   7.719  69.572  1.00  0.00    -0.160 OA 
HETATM   18  C   UNL     1      -9.755   6.940  65.900  1.00  0.00     0.304 C  
HETATM   19  C   UNL     1      -7.448   7.310  65.090  1.00  0.00    -0.087 C  
ENDBRANCH   5   8
TORSDOF 1
ENDMDL
MODEL      151
REMARK 921   NORMALIZED FREE ENERGY PREDICTED BY IDOCK:   -2.81 KCAL/MOL
REMARK 922        TOTAL FREE ENERGY PREDICTED BY IDOCK:   -3.47 KCAL/MOL
REMARK 923 INTER-LIGAND FREE ENERGY PREDICTED BY IDOCK:   -3.27 KCAL/MOL
REMARK 924 INTRA-LIGAND FREE ENERGY PREDICTED BY IDOCK:   -0.20 KCAL/MOL
REMARK 927      BINDING AFFINITY PREDICTED BY RF-SCORE:    0.00 PKD
ROOT
HETATM    1  C   UNL     1     -13.387  10.913  71.094  1.00  0.00    -0.054 C  
HETATM    2  C   UNL     1     -12.516   9.701  71.244  1.00  0.00    -0.445 A  
HETATM    3  C   UNL     1     -13.014   8.497  71.752  1.00  0.00    -0.380 A  
HETATM    4  C   UNL     1     -12.168   7.391  71.923  1.00  0.00    -0.344 A  
HETATM    5  C   UNL     1     -10.810   7.468  71.589  1.00  0.00    -0.249 A  
HETATM    6  C   UNL     1     -10.322   8.684  71.095  1.00  0.00    -0.294 A  
HETATM    7  C   UNL     1     -11.165   9.780  70.904  1.00  0.00    -0.429 A  
ENDROOT
BRANCH   5   8
HETATM    8  C   UNL     1      -9.930   6.318  71.859  1.00  0.00    -0.193 C  
HETATM    9  C   UNL     1      -8.671   6.391  72.313  1.00  0.00    -0.131 C  
HETATM   10  C   UNL     1      -7.749   7.557  72.612  1.00  0.00    -0.110 C  
HETATM   11  C   UNL     1      -7.645   7.619  74.155  1.00  0.00    -0.174 C  
HETATM   12  C   UNL     1      -6.766   6.395  74.505  1.00  0.00    -0.085 C  
HETATM   13  C   UNL     1      -6.454   5.776  73.119  1.00  0.00    -0.064 C  
HETATM   14  C   UNL     1      -5.298   4.805  73.117  1.00  0.00    -0.009 C  
HETATM   15  C   UNL     1      -6.356   7.015  72.182  1.00  0.00    -0.045 C  
HETATM   16  C   UNL     1      -7.799   5.208  72.652  1.00  0.00    -0.098 C  
HETATM   17  O   UNL     1      -8.134   4.039  72.594  1.00  0.00    -0.090 OA 
HETATM   18  C   UNL     1      -6.241   6.674  70.679  1.00  0.00    -0.035 C  
HETATM   19  C   UNL     1      -5.211   7.994  72.499  1.00  0.00    -0.036 C  
ENDBRANCH   5   8
TORSDOF 1
ENDMDL
MODEL      152
REMARK 921   NORMALIZED FREE ENERGY PREDICTED BY IDOCK:   -2.81 KCAL/MOL
REMARK 922        TOTAL FREE ENERGY PREDICTED BY IDOCK:   -3.46 KCAL/MOL
REMARK 923 INTER-LIGAND FREE ENERGY PREDICTED BY IDOCK:   -2.96 KCAL/MOL
REMARK 924 INTRA-LIGAND FREE ENERGY PREDICTED BY IDOCK:   -0.51 KCAL/MOL
REMARK 927      BINDING AFFINITY PREDICTED BY RF-SCORE:    0.00 PKD
ROOT
HETATM    1  C   UNL     1      -6.449   4.335  63.220  1.00  0.00    -0.026 C  
HETATM    2  C   UNL     1      -7.233   5.311  64.047  1.00  0.00    -0.050 A  
HETATM    3  C   UNL     1      -6.762   6.603  64.302  1.00  0.00    -0.041 A  
HETATM    4  C   UNL     1      -7.493   7.482  65.114  1.00  0.00    -0.085 A  
HETATM    5  C   UNL     1      -8.710   7.087  65.685  1.00  0.00    -0.082 A  
HETATM    6  C   UNL     1      -9.163   5.786  65.433  1.00  0.00     0.077 A  
HETATM    7  C   UNL     1      -8.448   4.915  64.609  1.00  0.00    -0.143 A  
ENDROOT
BRANCH   5   8
HETATM    8  C   UNL     1      -9.413   8.001  66.601  1.00  0.00    -0.273 C  
HETATM    9  C   UNL     1      -9.384   7.936  67.940  1.00  0.00    -0.150 C  
HETATM   10  C   UNL     1      -8.753   6.959  68.911  1.00  0.00    -0.130 C  
HETATM   11  C   UNL     1      -7.561   7.717  69.546  1.00  0.00    -0.098 C  
HETATM   12  C   UNL     1      -8.246   8.735  70.489  1.00  0.00    -0.140 C  
HETATM   13  C   UNL     1      -9.753   8.436  70.296  1.00  0.00    -0.178 C  
HETATM   14  C   UNL     1     -10.643   9.004  71.377  1.00  0.00    -0.393 C  
HETATM   15  C   UNL     1      -9.792   6.897  70.065  1.00  0.00    -0.180 C  
HETATM   16  C   UNL     1     -10.052   8.917  68.871  1.00  0.00    -0.197 C  
HETATM   17  O   UNL     1     -10.668   9.910  68.535  1.00  0.00    -0.214 OA 
HETATM   18  C   UNL     1     -11.175   6.347  69.648  1.00  0.00    -0.483 C  
HETATM   19  C   UNL     1      -9.318   6.039  71.252  1.00  0.00    -0.170 C  
ENDBRANCH   5   8
TORSDOF 1
ENDMDL
MODEL      153
REMARK 921   NORMALIZED FREE ENERGY PREDICTED BY IDOCK:   -2.79 KCAL/MOL
REMARK 922        TOTAL FREE ENERGY PREDICTED BY IDOCK:   -3.45 KCAL/MOL
REMARK 923 INTER-LIGAND FREE ENERGY PREDICTED BY IDOCK:   -3.37 KCAL/MOL
REMARK 924 INTRA-LIGAND FREE ENERGY PREDICTED BY IDOCK:   -0.08 KCAL/MOL
REMARK 927      BINDING AFFINITY PREDICTED BY RF-SCORE:    0.00 PKD
ROOT
HETATM    1  C   UNL     1      -5.612   7.864  62.715  1.00  0.00    -0.063 C  
HETATM    2  C   UNL     1      -6.781   8.722  63.100  1.00  0.00    -0.090 A  
HETATM    3  C   UNL     1      -7.979   8.698  62.380  1.00  0.00    -0.149 A  
HETATM    4  C   UNL     1      -9.042   9.542  62.734  1.00  0.00    -0.196 A  
HETATM    5  C   UNL     1      -8.928  10.424  63.816  1.00  0.00    -0.247 A  
HETATM    6  C   UNL     1      -7.717  10.448  64.520  1.00  0.00    -0.051 A  
HETATM    7  C   UNL     1      -6.665   9.595  64.183  1.00  0.00    -0.113 A  
ENDROOT
BRANCH   5   8
HETATM    8  C   UNL     1     -10.028  11.358  64.112  1.00  0.00    -0.335 C  
HETATM    9  C   UNL     1     -10.167  12.066  65.241  1.00  0.00    -0.304 C  
HETATM   10  C   UNL     1      -9.374  12.111  66.532  1.00  0.00    -0.229 C  
HETATM   11  C   UNL     1      -8.627  13.467  66.513  1.00  0.00     0.184 C  
HETATM   12  C   UNL     1      -9.750  14.500  66.770  1.00  0.00    -0.269 C  
HETATM   13  C   UNL     1     -11.014  13.617  66.920  1.00  0.00    -0.296 C  
HETATM   14  C   UNL     1     -12.189  14.314  67.564  1.00  0.00    -0.237 C  
HETATM   15  C   UNL     1     -10.476  12.327  67.607  1.00  0.00    -0.230 C  
HETATM   16  C   UNL     1     -11.259  13.070  65.509  1.00  0.00    -0.288 C  
HETATM   17  O   UNL     1     -12.132  13.396  64.726  1.00  0.00    -0.371 OA 
HETATM   18  C   UNL     1     -11.505  11.177  67.705  1.00  0.00    -0.349 C  
HETATM   19  C   UNL     1      -9.902  12.523  69.022  1.00  0.00     0.263 C  
ENDBRANCH   5   8
TORSDOF 1
ENDMDL
MODEL      154
REMARK 921   NORMALIZED FREE ENERGY PREDICTED BY IDOCK:   -2.77 KCAL/MOL
REMARK 922        TOTAL FREE ENERGY PREDICTED BY IDOCK:   -3.42 KCAL/MOL
REMARK 923 INTER-LIGAND FREE ENERGY PREDICTED BY IDOCK:   -3.07 KCAL/MOL
REMARK 924 INTRA-LIGAND FREE ENERGY PREDICTED BY IDOCK:   -0.35 KCAL/MOL
REMARK 927      BINDING AFFINITY PREDICTED BY RF-SCORE:    0.00 PKD
ROOT
HETATM    1  C   UNL     1      -8.877  10.762  65.246  1.00  0.00    -0.200 C  
HETATM    2  C   UNL     1      -9.406   9.796  66.264  1.00  0.00    -0.230 A  
HETATM    3  C   UNL     1      -9.894  10.227  67.502  1.00  0.00    -0.204 A  
HETATM    4  C   UNL     1     -10.342   9.300  68.454  1.00  0.00    -0.244 A  
HETATM    5  C   UNL     1     -10.312   7.925  68.187  1.00  0.00    -0.249 A  
HETATM    6  C   UNL     1      -9.808   7.507  66.950  1.00  0.00    -0.295 A  
HETATM    7  C   UNL     1      -9.380   8.427  65.991  1.00  0.00    -0.244 A  
ENDROOT
BRANCH   5   8
HETATM    8  C   UNL     1     -10.710   6.973  69.238  1.00  0.00    -0.245 C  
HETATM    9  C   UNL     1      -9.951   5.974  69.711  1.00  0.00    -0.223 C  
HETATM   10  C   UNL     1      -8.579   5.454  69.331  1.00  0.00    -0.099 C  
HETATM   11  C   UNL     1      -7.640   5.878  70.488  1.00  0.00    -0.091 C  
HETATM   12  C   UNL     1      -8.050   4.937  71.646  1.00  0.00    -0.112 C  
HETATM   13  C   UNL     1      -9.170   4.071  71.018  1.00  0.00    -0.203 C  
HETATM   14  C   UNL     1      -9.485   2.809  71.785  1.00  0.00    -0.206 C  
HETATM   15  C   UNL     1      -8.723   3.919  69.534  1.00  0.00    -0.127 C  
HETATM   16  C   UNL     1     -10.339   5.045  70.834  1.00  0.00    -0.190 C  
HETATM   17  O   UNL     1     -11.369   5.102  71.480  1.00  0.00     0.120 OA 
HETATM   18  C   UNL     1      -9.770   3.250  68.615  1.00  0.00     0.020 C  
HETATM   19  C   UNL     1      -7.400   3.161  69.317  1.00  0.00    -0.048 C  
ENDBRANCH   5   8
TORSDOF 1
ENDMDL
MODEL      155
REMARK 921   NORMALIZED FREE ENERGY PREDICTED BY IDOCK:   -2.75 KCAL/MOL
REMARK 922        TOTAL FREE ENERGY PREDICTED BY IDOCK:   -3.41 KCAL/MOL
REMARK 923 INTER-LIGAND FREE ENERGY PREDICTED BY IDOCK:   -2.92 KCAL/MOL
REMARK 924 INTRA-LIGAND FREE ENERGY PREDICTED BY IDOCK:   -0.49 KCAL/MOL
REMARK 927      BINDING AFFINITY PREDICTED BY RF-SCORE:    0.00 PKD
ROOT
HETATM    1  C   UNL     1      -5.399  13.809  71.212  1.00  0.00    -0.191 C  
HETATM    2  C   UNL     1      -5.839  12.596  70.449  1.00  0.00    -0.155 A  
HETATM    3  C   UNL     1      -5.484  11.305  70.852  1.00  0.00    -0.103 A  
HETATM    4  C   UNL     1      -5.872  10.189  70.096  1.00  0.00    -0.059 A  
HETATM    5  C   UNL     1      -6.623  10.342  68.924  1.00  0.00    -0.052 A  
HETATM    6  C   UNL     1      -6.959  11.641  68.524  1.00  0.00    -0.085 A  
HETATM    7  C   UNL     1      -6.592  12.753  69.284  1.00  0.00    -0.086 A  
ENDROOT
BRANCH   5   8
HETATM    8  C   UNL     1      -6.943   9.159  68.107  1.00  0.00    -0.076 C  
HETATM    9  C   UNL     1      -8.093   8.472  68.148  1.00  0.00    -0.119 C  
HETATM   10  C   UNL     1      -9.333   8.590  69.011  1.00  0.00    -0.146 C  
HETATM   11  C   UNL     1     -10.433   9.159  68.082  1.00  0.00    -0.260 C  
HETATM   12  C   UNL     1     -10.777   7.966  67.159  1.00  0.00    -0.306 C  
HETATM   13  C   UNL     1      -9.842   6.842  67.672  1.00  0.00    -0.164 C  
HETATM   14  C   UNL     1     -10.232   5.454  67.223  1.00  0.00    -0.258 C  
HETATM   15  C   UNL     1      -9.762   7.108  69.204  1.00  0.00    -0.158 C  
HETATM   16  C   UNL     1      -8.439   7.303  67.259  1.00  0.00    -0.118 C  
HETATM   17  O   UNL     1      -7.741   6.857  66.369  1.00  0.00    -0.093 OA 
HETATM   18  C   UNL     1      -8.727   6.237  69.952  1.00  0.00    -0.141 C  
HETATM   19  C   UNL     1     -11.090   6.964  69.969  1.00  0.00    -0.344 C  
ENDBRANCH   5   8
TORSDOF 1
ENDMDL
MODEL      156
REMARK 921   NORMALIZED FREE ENERGY PREDICTED BY IDOCK:   -2.74 KCAL/MOL
REMARK 922        TOTAL FREE ENERGY PREDICTED BY IDOCK:   -3.39 KCAL/MOL
REMARK 923 INTER-LIGAND FREE ENERGY PREDICTED BY IDOCK:   -2.92 KCAL/MOL
REMARK 924 INTRA-LIGAND FREE ENERGY PREDICTED BY IDOCK:   -0.47 KCAL/MOL
REMARK 927      BINDING AFFINITY PREDICTED BY RF-SCORE:    0.00 PKD
ROOT
HETATM    1  C   UNL     1     -11.207   1.691  62.566  1.00  0.00    -0.217 C  
HETATM    2  C   UNL     1     -10.498   2.531  63.588  1.00  0.00    -0.158 A  
HETATM    3  C   UNL     1     -10.813   3.880  63.776  1.00  0.00    -0.138 A  
HETATM    4  C   UNL     1     -10.107   4.654  64.708  1.00  0.00     0.080 A  
HETATM    5  C   UNL     1      -9.073   4.094  65.470  1.00  0.00    -0.138 A  
HETATM    6  C   UNL     1      -8.759   2.746  65.261  1.00  0.00    -0.117 A  
HETATM    7  C   UNL     1      -9.473   1.967  64.349  1.00  0.00    -0.126 A  
ENDROOT
BRANCH   5   8
HETATM    8  C   UNL     1      -8.294   4.953  66.378  1.00  0.00    -0.107 C  
HETATM    9  C   UNL     1      -8.715   5.419  67.562  1.00  0.00    -0.107 C  
HETATM   10  C   UNL     1     -10.037   5.318  68.298  1.00  0.00    -0.219 C  
HETATM   11  C   UNL     1      -9.781   4.347  69.477  1.00  0.00    -0.280 C  
HETATM   12  C   UNL     1      -8.916   5.184  70.450  1.00  0.00    -0.157 C  
HETATM   13  C   UNL     1      -8.783   6.545  69.723  1.00  0.00    -0.143 C  
HETATM   14  C   UNL     1      -8.327   7.681  70.606  1.00  0.00    -0.125 C  
HETATM   15  C   UNL     1     -10.151   6.703  68.995  1.00  0.00    -0.176 C  
HETATM   16  C   UNL     1      -7.887   6.241  68.517  1.00  0.00    -0.105 C  
HETATM   17  O   UNL     1      -6.722   6.555  68.358  1.00  0.00    -0.062 OA 
HETATM   18  C   UNL     1     -10.224   7.902  68.022  1.00  0.00    -0.256 C  
HETATM   19  C   UNL     1     -11.380   6.809  69.916  1.00  0.00    -0.374 C  
ENDBRANCH   5   8
TORSDOF 1
ENDMDL
MODEL      157
REMARK 921   NORMALIZED FREE ENERGY PREDICTED BY IDOCK:   -2.68 KCAL/MOL
REMARK 922        TOTAL FREE ENERGY PREDICTED BY IDOCK:   -3.33 KCAL/MOL
REMARK 923 INTER-LIGAND FREE ENERGY PREDICTED BY IDOCK:   -3.07 KCAL/MOL
REMARK 924 INTRA-LIGAND FREE ENERGY PREDICTED BY IDOCK:   -0.26 KCAL/MOL
REMARK 927      BINDING AFFINITY PREDICTED BY RF-SCORE:    0.00 PKD
ROOT
HETATM    1  C   UNL     1      -6.139   5.977  62.807  1.00  0.00    -0.026 C  
HETATM    2  C   UNL     1      -7.059   6.783  63.676  1.00  0.00    -0.060 A  
HETATM    3  C   UNL     1      -6.839   8.143  63.917  1.00  0.00    -0.074 A  
HETATM    4  C   UNL     1      -7.689   8.864  64.768  1.00  0.00    -0.111 A  
HETATM    5  C   UNL     1      -8.775   8.240  65.394  1.00  0.00    -0.147 A  
HETATM    6  C   UNL     1      -8.975   6.874  65.155  1.00  0.00     0.350 A  
HETATM    7  C   UNL     1      -8.144   6.158  64.293  1.00  0.00    -0.093 A  
ENDROOT
BRANCH   5   8
HETATM    8  C   UNL     1      -9.599   9.001  66.348  1.00  0.00    -0.309 C  
HETATM    9  C   UNL     1     -10.083  10.235  66.148  1.00  0.00    -0.307 C  
HETATM   10  C   UNL     1      -9.920  11.235  65.021  1.00  0.00    -0.323 C  
HETATM   11  C   UNL     1     -11.282  11.258  64.285  1.00  0.00    -0.214 C  
HETATM   12  C   UNL     1     -12.209  12.008  65.271  1.00  0.00    -0.027 C  
HETATM   13  C   UNL     1     -11.270  12.341  66.456  1.00  0.00    -0.373 C  
HETATM   14  C   UNL     1     -11.796  13.408  67.387  1.00  0.00    -0.418 C  
HETATM   15  C   UNL     1      -9.896  12.598  65.770  1.00  0.00    -0.236 C  
HETATM   16  C   UNL     1     -10.983  10.981  67.101  1.00  0.00    -0.283 C  
HETATM   17  O   UNL     1     -11.416  10.550  68.154  1.00  0.00    -0.342 OA 
HETATM   18  C   UNL     1      -8.713  12.766  66.749  1.00  0.00    -0.125 C  
HETATM   19  C   UNL     1      -9.850  13.804  64.814  1.00  0.00     0.044 C  
ENDBRANCH   5   8
TORSDOF 1
ENDMDL
MODEL      158
REMARK 921   NORMALIZED FREE ENERGY PREDICTED BY IDOCK:   -2.47 KCAL/MOL
REMARK 922        TOTAL FREE ENERGY PREDICTED BY IDOCK:   -3.11 KCAL/MOL
REMARK 923 INTER-LIGAND FREE ENERGY PREDICTED BY IDOCK:   -2.63 KCAL/MOL
REMARK 924 INTRA-LIGAND FREE ENERGY PREDICTED BY IDOCK:   -0.48 KCAL/MOL
REMARK 927      BINDING AFFINITY PREDICTED BY RF-SCORE:    0.00 PKD
ROOT
HETATM    1  C   UNL     1      -7.869   1.673  69.024  1.00  0.00    -0.051 C  
HETATM    2  C   UNL     1      -8.029   2.896  68.170  1.00  0.00    -0.066 A  
HETATM    3  C   UNL     1      -6.945   3.724  67.862  1.00  0.00    -0.051 A  
HETATM    4  C   UNL     1      -7.128   4.886  67.098  1.00  0.00    -0.066 A  
HETATM    5  C   UNL     1      -8.399   5.240  66.626  1.00  0.00    -0.108 A  
HETATM    6  C   UNL     1      -9.477   4.410  66.953  1.00  0.00    -0.194 A  
HETATM    7  C   UNL     1      -9.295   3.242  67.697  1.00  0.00    -0.245 A  
ENDROOT
BRANCH   5   8
HETATM    8  C   UNL     1      -8.575   6.509  65.898  1.00  0.00    -0.153 C  
HETATM    9  C   UNL     1      -8.445   7.734  66.426  1.00  0.00    -0.136 C  
HETATM   10  C   UNL     1      -8.176   8.225  67.835  1.00  0.00    -0.128 C  
HETATM   11  C   UNL     1      -6.723   8.762  67.816  1.00  0.00    -0.066 C  
HETATM   12  C   UNL     1      -6.838  10.080  67.015  1.00  0.00    -0.087 C  
HETATM   13  C   UNL     1      -8.347  10.157  66.674  1.00  0.00    -0.123 C  
HETATM   14  C   UNL     1      -8.819  11.524  66.239  1.00  0.00    -0.186 C  
HETATM   15  C   UNL     1      -9.032   9.520  67.919  1.00  0.00    -0.125 C  
HETATM   16  C   UNL     1      -8.560   9.028  65.660  1.00  0.00    -0.166 C  
HETATM   17  O   UNL     1      -8.748   9.129  64.462  1.00  0.00    -0.189 OA 
HETATM   18  C   UNL     1     -10.553   9.289  67.764  1.00  0.00    -0.307 C  
HETATM   19  C   UNL     1      -8.836  10.282  69.243  1.00  0.00    -0.186 C  
ENDBRANCH   5   8
TORSDOF 1
ENDMDL
MODEL      159
REMARK 921   NORMALIZED FREE ENERGY PREDICTED BY IDOCK:   -2.42 KCAL/MOL
REMARK 922        TOTAL FREE ENERGY PREDICTED BY IDOCK:   -3.06 KCAL/MOL
REMARK 923 INTER-LIGAND FREE ENERGY PREDICTED BY IDOCK:   -2.55 KCAL/MOL
REMARK 924 INTRA-LIGAND FREE ENERGY PREDICTED BY IDOCK:   -0.51 KCAL/MOL
REMARK 927      BINDING AFFINITY PREDICTED BY RF-SCORE:    0.00 PKD
ROOT
HETATM    1  C   UNL     1      -9.748   2.628  62.623  1.00  0.00    -0.091 C  
HETATM    2  C   UNL     1      -9.574   3.645  63.712  1.00  0.00    -0.150 A  
HETATM    3  C   UNL     1      -8.338   4.249  63.963  1.00  0.00    -0.103 A  
HETATM    4  C   UNL     1      -8.191   5.164  65.015  1.00  0.00    -0.130 A  
HETATM    5  C   UNL     1      -9.277   5.495  65.836  1.00  0.00    -0.158 A  
HETATM    6  C   UNL     1     -10.505   4.872  65.582  1.00  0.00    -0.161 A  
HETATM    7  C   UNL     1     -10.660   3.975  64.524  1.00  0.00    -0.201 A  
ENDROOT
BRANCH   5   8
HETATM    8  C   UNL     1      -9.072   6.394  66.984  1.00  0.00    -0.130 C  
HETATM    9  C   UNL     1      -8.876   6.005  68.252  1.00  0.00    -0.111 C  
HETATM   10  C   UNL     1      -8.870   4.646  68.924  1.00  0.00    -0.128 C  
HETATM   11  C   UNL     1      -7.387   4.360  69.266  1.00  0.00    -0.052 C  
HETATM   12  C   UNL     1      -7.098   5.320  70.444  1.00  0.00    -0.061 C  
HETATM   13  C   UNL     1      -8.453   6.041  70.652  1.00  0.00    -0.133 C  
HETATM   14  C   UNL     1      -8.585   6.747  71.981  1.00  0.00    -0.122 C  
HETATM   15  C   UNL     1      -9.504   4.944  70.312  1.00  0.00    -0.238 C  
HETATM   16  C   UNL     1      -8.600   6.929  69.411  1.00  0.00    -0.133 C  
HETATM   17  O   UNL     1      -8.482   8.139  69.344  1.00  0.00    -0.125 OA 
HETATM   18  C   UNL     1     -10.963   5.452  70.250  1.00  0.00    -0.089 C  
HETATM   19  C   UNL     1      -9.505   3.719  71.244  1.00  0.00    -0.229 C  
ENDBRANCH   5   8
TORSDOF 1
ENDMDL
MODEL      160
REMARK 921   NORMALIZED FREE ENERGY PREDICTED BY IDOCK:   -2.37 KCAL/MOL
REMARK 922        TOTAL FREE ENERGY PREDICTED BY IDOCK:   -3.00 KCAL/MOL
REMARK 923 INTER-LIGAND FREE ENERGY PREDICTED BY IDOCK:   -2.61 KCAL/MOL
REMARK 924 INTRA-LIGAND FREE ENERGY PREDICTED BY IDOCK:   -0.39 KCAL/MOL
REMARK 927      BINDING AFFINITY PREDICTED BY RF-SCORE:    0.00 PKD
ROOT
HETATM    1  C   UNL     1     -13.356  13.747  71.241  1.00  0.00    -0.282 C  
HETATM    2  C   UNL     1     -12.095  14.011  70.473  1.00  0.00    -0.424 A  
HETATM    3  C   UNL     1     -11.813  13.352  69.273  1.00  0.00    -0.385 A  
HETATM    4  C   UNL     1     -10.607  13.584  68.596  1.00  0.00    -0.259 A  
HETATM    5  C   UNL     1      -9.660  14.481  69.106  1.00  0.00    -0.034 A  
HETATM    6  C   UNL     1      -9.948  15.124  70.317  1.00  0.00     0.125 A  
HETATM    7  C   UNL     1     -11.157  14.910  70.982  1.00  0.00    -0.126 A  
ENDROOT
BRANCH   5   8
HETATM    8  C   UNL     1      -8.367  14.641  68.419  1.00  0.00    -0.157 C  
HETATM    9  C   UNL     1      -7.827  15.807  68.037  1.00  0.00    -0.138 C  
HETATM   10  C   UNL     1      -8.323  17.238  68.089  1.00  0.00    -0.233 C  
HETATM   11  C   UNL     1      -7.484  17.928  69.192  1.00  0.00    -0.087 C  
HETATM   12  C   UNL     1      -6.088  18.078  68.540  1.00  0.00    -0.191 C  
HETATM   13  C   UNL     1      -6.289  17.467  67.131  1.00  0.00    -0.184 C  
HETATM   14  C   UNL     1      -5.213  17.829  66.136  1.00  0.00    -0.225 C  
HETATM   15  C   UNL     1      -7.756  17.849  66.776  1.00  0.00    -0.251 C  
HETATM   16  C   UNL     1      -6.472  15.968  67.394  1.00  0.00    -0.180 C  
HETATM   17  O   UNL     1      -5.679  15.072  67.175  1.00  0.00    -0.245 OA 
HETATM   18  C   UNL     1      -8.294  17.192  65.484  1.00  0.00     0.964 C  
HETATM   19  C   UNL     1      -8.034  19.358  66.649  1.00  0.00    -0.300 C  
ENDBRANCH   5   8
TORSDOF 1
ENDMDL
MODEL      161
REMARK 921   NORMALIZED FREE ENERGY PREDICTED BY IDOCK:   -2.25 KCAL/MOL
REMARK 922        TOTAL FREE ENERGY PREDICTED BY IDOCK:   -2.87 KCAL/MOL
REMARK 923 INTER-LIGAND FREE ENERGY PREDICTED BY IDOCK:   -2.82 KCAL/MOL
REMARK 924 INTRA-LIGAND FREE ENERGY PREDICTED BY IDOCK:   -0.05 KCAL/MOL
REMARK 927      BINDING AFFINITY PREDICTED BY RF-SCORE:    0.00 PKD
ROOT
HETATM    1  C   UNL     1      -9.552   3.008  73.673  1.00  0.00    -0.127 C  
HETATM    2  C   UNL     1      -9.121   3.881  72.531  1.00  0.00    -0.137 A  
HETATM    3  C   UNL     1      -8.048   3.533  71.705  1.00  0.00    -0.062 A  
HETATM    4  C   UNL     1      -7.637   4.387  70.671  1.00  0.00    -0.052 A  
HETATM    5  C   UNL     1      -8.292   5.604  70.443  1.00  0.00    -0.119 A  
HETATM    6  C   UNL     1      -9.356   5.946  71.287  1.00  0.00    -0.172 A  
HETATM    7  C   UNL     1      -9.781   5.089  72.304  1.00  0.00    -0.201 A  
ENDROOT
BRANCH   5   8
HETATM    8  C   UNL     1      -7.785   6.519  69.406  1.00  0.00    -0.101 C  
HETATM    9  C   UNL     1      -8.364   7.668  69.031  1.00  0.00    -0.128 C  
HETATM   10  C   UNL     1      -9.658   8.349  69.431  1.00  0.00    -0.170 C  
HETATM   11  C   UNL     1      -9.237   9.568  70.289  1.00  0.00    -0.303 C  
HETATM   12  C   UNL     1      -8.646  10.550  69.250  1.00  0.00    -0.136 C  
HETATM   13  C   UNL     1      -8.805   9.788  67.911  1.00  0.00    -0.122 C  
HETATM   14  C   UNL     1      -8.677  10.655  66.682  1.00  0.00    -0.144 C  
HETATM   15  C   UNL     1     -10.133   8.997  68.100  1.00  0.00    -0.229 C  
HETATM   16  C   UNL     1      -7.803   8.632  68.016  1.00  0.00    -0.103 C  
HETATM   17  O   UNL     1      -6.740   8.515  67.435  1.00  0.00    -0.061 OA 
HETATM   18  C   UNL     1     -10.442   7.986  66.973  1.00  0.00    -0.410 C  
HETATM   19  C   UNL     1     -11.397   9.860  68.273  1.00  0.00    -0.045 C  
ENDBRANCH   5   8
TORSDOF 1
ENDMDL
MODEL      162
REMARK 921   NORMALIZED FREE ENERGY PREDICTED BY IDOCK:   -2.22 KCAL/MOL
REMARK 922        TOTAL FREE ENERGY PREDICTED BY IDOCK:   -2.85 KCAL/MOL
REMARK 923 INTER-LIGAND FREE ENERGY PREDICTED BY IDOCK:   -2.52 KCAL/MOL
REMARK 924 INTRA-LIGAND FREE ENERGY PREDICTED BY IDOCK:   -0.32 KCAL/MOL
REMARK 927      BINDING AFFINITY PREDICTED BY RF-SCORE:    0.00 PKD
ROOT
HETATM    1  C   UNL     1      -9.504   4.432  63.969  1.00  0.00    -0.085 C  
HETATM    2  C   UNL     1      -9.396   4.008  65.404  1.00  0.00    -0.162 A  
HETATM    3  C   UNL     1      -8.787   2.803  65.770  1.00  0.00    -0.134 A  
HETATM    4  C   UNL     1      -8.738   2.408  67.115  1.00  0.00    -0.140 A  
HETATM    5  C   UNL     1      -9.293   3.211  68.119  1.00  0.00    -0.247 A  
HETATM    6  C   UNL     1      -9.911   4.408  67.737  1.00  0.00    -0.098 A  
HETATM    7  C   UNL     1      -9.945   4.814  66.402  1.00  0.00    -0.264 A  
ENDROOT
BRANCH   5   8
HETATM    8  C   UNL     1      -9.301   2.731  69.512  1.00  0.00    -0.191 C  
HETATM    9  C   UNL     1      -8.996   3.466  70.590  1.00  0.00    -0.165 C  
HETATM   10  C   UNL     1      -8.505   4.889  70.762  1.00  0.00    -0.115 C  
HETATM   11  C   UNL     1      -9.707   5.676  71.341  1.00  0.00    -0.204 C  
HETATM   12  C   UNL     1      -9.796   5.171  72.801  1.00  0.00    -0.186 C  
HETATM   13  C   UNL     1      -8.627   4.160  72.897  1.00  0.00    -0.100 C  
HETATM   14  C   UNL     1      -8.226   3.804  74.309  1.00  0.00    -0.082 C  
HETATM   15  C   UNL     1      -7.536   4.777  71.973  1.00  0.00    -0.090 C  
HETATM   16  C   UNL     1      -9.072   2.986  72.018  1.00  0.00    -0.092 C  
HETATM   17  O   UNL     1      -9.454   1.889  72.380  1.00  0.00    -0.075 OA 
HETATM   18  C   UNL     1      -6.313   3.865  71.728  1.00  0.00    -0.015 C  
HETATM   19  C   UNL     1      -6.983   6.141  72.424  1.00  0.00    -0.079 C  
ENDBRANCH   5   8
TORSDOF 1
ENDMDL
MODEL      163
REMARK 921   NORMALIZED FREE ENERGY PREDICTED BY IDOCK:   -2.15 KCAL/MOL
REMARK 922        TOTAL FREE ENERGY PREDICTED BY IDOCK:   -2.77 KCAL/MOL
REMARK 923 INTER-LIGAND FREE ENERGY PREDICTED BY IDOCK:   -2.53 KCAL/MOL
REMARK 924 INTRA-LIGAND FREE ENERGY PREDICTED BY IDOCK:   -0.23 KCAL/MOL
REMARK 927      BINDING AFFINITY PREDICTED BY RF-SCORE:    0.00 PKD
ROOT
HETATM    1  C   UNL     1      -7.073   1.497  67.682  1.00  0.00    -0.035 C  
HETATM    2  C   UNL     1      -7.701   2.858  67.741  1.00  0.00    -0.060 A  
HETATM    3  C   UNL     1      -6.931   4.019  67.861  1.00  0.00    -0.055 A  
HETATM    4  C   UNL     1      -7.544   5.277  67.958  1.00  0.00    -0.080 A  
HETATM    5  C   UNL     1      -8.940   5.398  67.936  1.00  0.00    -0.109 A  
HETATM    6  C   UNL     1      -9.699   4.226  67.830  1.00  0.00    -0.172 A  
HETATM    7  C   UNL     1      -9.092   2.975  67.713  1.00  0.00    -0.223 A  
ENDROOT
BRANCH   5   8
HETATM    8  C   UNL     1      -9.557   6.722  68.125  1.00  0.00    -0.122 C  
HETATM    9  C   UNL     1      -9.152   7.860  67.544  1.00  0.00    -0.141 C  
HETATM   10  C   UNL     1      -7.986   8.194  66.636  1.00  0.00    -0.102 C  
HETATM   11  C   UNL     1      -8.605   8.436  65.237  1.00  0.00    -0.177 C  
HETATM   12  C   UNL     1      -9.316   9.801  65.391  1.00  0.00    -0.311 C  
HETATM   13  C   UNL     1      -9.014  10.194  66.858  1.00  0.00    -0.146 C  
HETATM   14  C   UNL     1      -9.245  11.653  67.172  1.00  0.00    -0.176 C  
HETATM   15  C   UNL     1      -7.585   9.623  67.099  1.00  0.00    -0.091 C  
HETATM   16  C   UNL     1      -9.830   9.199  67.689  1.00  0.00    -0.172 C  
HETATM   17  O   UNL     1     -10.850   9.414  68.318  1.00  0.00    -0.197 OA 
HETATM   18  C   UNL     1      -7.102   9.706  68.565  1.00  0.00    -0.069 C  
HETATM   19  C   UNL     1      -6.472  10.243  66.235  1.00  0.00    -0.095 C  
ENDBRANCH   5   8
TORSDOF 1
ENDMDL
MODEL      164
REMARK 921   NORMALIZED FREE ENERGY PREDICTED BY IDOCK:   -2.10 KCAL/MOL
REMARK 922        TOTAL FREE ENERGY PREDICTED BY IDOCK:   -2.71 KCAL/MOL
REMARK 923 INTER-LIGAND FREE ENERGY PREDICTED BY IDOCK:   -2.47 KCAL/MOL
REMARK 924 INTRA-LIGAND FREE ENERGY PREDICTED BY IDOCK:   -0.24 KCAL/MOL
REMARK 927      BINDING AFFINITY PREDICTED BY RF-SCORE:    0.00 PKD
ROOT
HETATM    1  C   UNL     1      -9.188   3.368  66.180  1.00  0.00    -0.169 C  
HETATM    2  C   UNL     1      -9.567   4.639  66.881  1.00  0.00    -0.197 A  
HETATM    3  C   UNL     1      -8.739   5.766  66.858  1.00  0.00    -0.110 A  
HETATM    4  C   UNL     1      -9.096   6.928  67.558  1.00  0.00    -0.118 A  
HETATM    5  C   UNL     1     -10.287   6.987  68.292  1.00  0.00    -0.223 A  
HETATM    6  C   UNL     1     -11.100   5.846  68.318  1.00  0.00    -0.139 A  
HETATM    7  C   UNL     1     -10.758   4.695  67.607  1.00  0.00     0.570 A  
ENDROOT
BRANCH   5   8
HETATM    8  C   UNL     1     -10.594   8.190  69.085  1.00  0.00    -0.179 C  
HETATM    9  C   UNL     1     -10.444   9.455  68.669  1.00  0.00    -0.236 C  
HETATM   10  C   UNL     1      -9.891  10.063  67.396  1.00  0.00    -0.226 C  
HETATM   11  C   UNL     1     -11.119  10.617  66.632  1.00  0.00    -0.053 C  
HETATM   12  C   UNL     1     -11.520  11.864  67.455  1.00  0.00    -0.396 C  
HETATM   13  C   UNL     1     -10.468  11.891  68.592  1.00  0.00    -0.231 C  
HETATM   14  C   UNL     1     -10.369  13.211  69.318  1.00  0.00     0.270 C  
HETATM   15  C   UNL     1      -9.180  11.347  67.907  1.00  0.00    -0.164 C  
HETATM   16  C   UNL     1     -10.824  10.680  69.462  1.00  0.00    -0.259 C  
HETATM   17  O   UNL     1     -11.348  10.682  70.560  1.00  0.00    -0.314 OA 
HETATM   18  C   UNL     1      -8.003  11.083  68.873  1.00  0.00    -0.138 C  
HETATM   19  C   UNL     1      -8.622  12.216  66.764  1.00  0.00    -0.163 C  
ENDBRANCH   5   8
TORSDOF 1
ENDMDL
MODEL      165
REMARK 921   NORMALIZED FREE ENERGY PREDICTED BY IDOCK:   -2.07 KCAL/MOL
REMARK 922        TOTAL FREE ENERGY PREDICTED BY IDOCK:   -2.68 KCAL/MOL
REMARK 923 INTER-LIGAND FREE ENERGY PREDICTED BY IDOCK:   -2.19 KCAL/MOL
REMARK 924 INTRA-LIGAND FREE ENERGY PREDICTED BY IDOCK:   -0.49 KCAL/MOL
REMARK 927      BINDING AFFINITY PREDICTED BY RF-SCORE:    0.00 PKD
ROOT
HETATM    1  C   UNL     1      -6.419   9.325  62.873  1.00  0.00    -0.094 C  
HETATM    2  C   UNL     1      -7.037   8.600  64.032  1.00  0.00    -0.090 A  
HETATM    3  C   UNL     1      -6.506   7.400  64.516  1.00  0.00    -0.040 A  
HETATM    4  C   UNL     1      -7.127   6.719  65.573  1.00  0.00    -0.068 A  
HETATM    5  C   UNL     1      -8.289   7.226  66.168  1.00  0.00    -0.133 A  
HETATM    6  C   UNL     1      -8.818   8.422  65.665  1.00  0.00    -0.196 A  
HETATM    7  C   UNL     1      -8.191   9.112  64.626  1.00  0.00    -0.152 A  
ENDROOT
BRANCH   5   8
HETATM    8  C   UNL     1      -8.966   6.447  67.219  1.00  0.00    -0.107 C  
HETATM    9  C   UNL     1      -8.670   6.480  68.526  1.00  0.00    -0.122 C  
HETATM   10  C   UNL     1      -7.593   7.192  69.321  1.00  0.00    -0.102 C  
HETATM   11  C   UNL     1      -8.325   8.314  70.098  1.00  0.00    -0.124 C  
HETATM   12  C   UNL     1      -9.101   7.545  71.194  1.00  0.00    -0.149 C  
HETATM   13  C   UNL     1      -8.716   6.068  70.928  1.00  0.00    -0.135 C  
HETATM   14  C   UNL     1      -9.008   5.132  72.076  1.00  0.00    -0.145 C  
HETATM   15  C   UNL     1      -7.244   6.161  70.430  1.00  0.00    -0.086 C  
HETATM   16  C   UNL     1      -9.412   5.731  69.604  1.00  0.00    -0.140 C  
HETATM   17  O   UNL     1     -10.394   5.033  69.437  1.00  0.00    -0.226 OA 
HETATM   18  C   UNL     1      -6.661   4.830  69.902  1.00  0.00    -0.037 C  
HETATM   19  C   UNL     1      -6.233   6.705  71.456  1.00  0.00    -0.041 C  
ENDBRANCH   5   8
TORSDOF 1
ENDMDL
MODEL      166
REMARK 921   NORMALIZED FREE ENERGY PREDICTED BY IDOCK:   -2.06 KCAL/MOL
REMARK 922        TOTAL FREE ENERGY PREDICTED BY IDOCK:   -2.68 KCAL/MOL
REMARK 923 INTER-LIGAND FREE ENERGY PREDICTED BY IDOCK:   -2.24 KCAL/MOL
REMARK 924 INTRA-LIGAND FREE ENERGY PREDICTED BY IDOCK:   -0.43 KCAL/MOL
REMARK 927      BINDING AFFINITY PREDICTED BY RF-SCORE:    0.00 PKD
ROOT
HETATM    1  C   UNL     1      -6.257   8.480  63.625  1.00  0.00    -0.073 C  
HETATM    2  C   UNL     1      -6.565   7.647  64.835  1.00  0.00    -0.047 A  
HETATM    3  C   UNL     1      -5.551   7.131  65.649  1.00  0.00    -0.032 A  
HETATM    4  C   UNL     1      -5.863   6.319  66.749  1.00  0.00    -0.020 A  
HETATM    5  C   UNL     1      -7.194   6.008  67.057  1.00  0.00    -0.075 A  
HETATM    6  C   UNL     1      -8.198   6.520  66.225  1.00  0.00    -0.119 A  
HETATM    7  C   UNL     1      -7.892   7.345  65.141  1.00  0.00    -0.123 A  
ENDROOT
BRANCH   5   8
HETATM    8  C   UNL     1      -7.486   5.084  68.166  1.00  0.00    -0.075 C  
HETATM    9  C   UNL     1      -8.224   5.374  69.247  1.00  0.00    -0.093 C  
HETATM   10  C   UNL     1      -8.899   6.645  69.723  1.00  0.00    -0.144 C  
HETATM   11  C   UNL     1     -10.416   6.410  69.522  1.00  0.00    -0.279 C  
HETATM   12  C   UNL     1     -10.773   5.400  70.638  1.00  0.00    -0.257 C  
HETATM   13  C   UNL     1      -9.421   5.179  71.361  1.00  0.00    -0.200 C  
HETATM   14  C   UNL     1      -9.542   4.549  72.728  1.00  0.00    -0.168 C  
HETATM   15  C   UNL     1      -8.728   6.570  71.266  1.00  0.00    -0.130 C  
HETATM   16  C   UNL     1      -8.575   4.402  70.345  1.00  0.00    -0.077 C  
HETATM   17  O   UNL     1      -8.269   3.225  70.378  1.00  0.00    -0.051 OA 
HETATM   18  C   UNL     1      -7.259   6.587  71.746  1.00  0.00    -0.086 C  
HETATM   19  C   UNL     1      -9.444   7.716  72.004  1.00  0.00    -0.194 C  
ENDBRANCH   5   8
TORSDOF 1
ENDMDL
MODEL      167
REMARK 921   NORMALIZED FREE ENERGY PREDICTED BY IDOCK:   -2.06 KCAL/MOL
REMARK 922        TOTAL FREE ENERGY PREDICTED BY IDOCK:   -2.68 KCAL/MOL
REMARK 923 INTER-LIGAND FREE ENERGY PREDICTED BY IDOCK:   -2.51 KCAL/MOL
REMARK 924 INTRA-LIGAND FREE ENERGY PREDICTED BY IDOCK:   -0.17 KCAL/MOL
REMARK 927      BINDING AFFINITY PREDICTED BY RF-SCORE:    0.00 PKD
ROOT
HETATM    1  C   UNL     1     -10.442   3.376  72.883  1.00  0.00    -0.240 C  
HETATM    2  C   UNL     1     -10.066   4.630  72.150  1.00  0.00    -0.256 A  
HETATM    3  C   UNL     1      -8.802   4.794  71.575  1.00  0.00    -0.151 A  
HETATM    4  C   UNL     1      -8.460   5.994  70.933  1.00  0.00    -0.127 A  
HETATM    5  C   UNL     1      -9.376   7.051  70.853  1.00  0.00    -0.157 A  
HETATM    6  C   UNL     1     -10.633   6.878  71.445  1.00  0.00    -0.242 A  
HETATM    7  C   UNL     1     -10.984   5.679  72.068  1.00  0.00    -0.302 A  
ENDROOT
BRANCH   5   8
HETATM    8  C   UNL     1      -8.960   8.328  70.248  1.00  0.00    -0.142 C  
HETATM    9  C   UNL     1      -8.147   8.460  69.190  1.00  0.00    -0.119 C  
HETATM   10  C   UNL     1      -7.370   7.461  68.357  1.00  0.00    -0.103 C  
HETATM   11  C   UNL     1      -8.103   7.397  66.995  1.00  0.00    -0.113 C  
HETATM   12  C   UNL     1      -7.741   8.746  66.329  1.00  0.00    -0.098 C  
HETATM   13  C   UNL     1      -6.830   9.426  67.381  1.00  0.00    -0.080 C  
HETATM   14  C   UNL     1      -6.012  10.577  66.845  1.00  0.00    -0.059 C  
HETATM   15  C   UNL     1      -6.063   8.233  68.022  1.00  0.00    -0.047 C  
HETATM   16  C   UNL     1      -7.780   9.768  68.535  1.00  0.00    -0.081 C  
HETATM   17  O   UNL     1      -8.200  10.864  68.853  1.00  0.00    -0.140 OA 
HETATM   18  C   UNL     1      -5.210   8.608  69.255  1.00  0.00    -0.035 C  
HETATM   19  C   UNL     1      -5.136   7.455  67.069  1.00  0.00    -0.018 C  
ENDBRANCH   5   8
TORSDOF 1
ENDMDL
MODEL      168
REMARK 921   NORMALIZED FREE ENERGY PREDICTED BY IDOCK:   -1.99 KCAL/MOL
REMARK 922        TOTAL FREE ENERGY PREDICTED BY IDOCK:   -2.60 KCAL/MOL
REMARK 923 INTER-LIGAND FREE ENERGY PREDICTED BY IDOCK:   -2.23 KCAL/MOL
REMARK 924 INTRA-LIGAND FREE ENERGY PREDICTED BY IDOCK:   -0.36 KCAL/MOL
REMARK 927      BINDING AFFINITY PREDICTED BY RF-SCORE:    0.00 PKD
ROOT
HETATM    1  C   UNL     1      -5.261   6.996  73.281  1.00  0.00    -0.038 C  
HETATM    2  C   UNL     1      -6.149   7.430  72.153  1.00  0.00    -0.040 A  
HETATM    3  C   UNL     1      -5.919   8.617  71.450  1.00  0.00    -0.047 A  
HETATM    4  C   UNL     1      -6.789   9.022  70.428  1.00  0.00    -0.055 A  
HETATM    5  C   UNL     1      -7.906   8.247  70.087  1.00  0.00    -0.097 A  
HETATM    6  C   UNL     1      -8.132   7.069  70.808  1.00  0.00    -0.113 A  
HETATM    7  C   UNL     1      -7.257   6.652  71.813  1.00  0.00    -0.085 A  
ENDROOT
BRANCH   5   8
HETATM    8  C   UNL     1      -8.848   8.740  69.068  1.00  0.00    -0.137 C  
HETATM    9  C   UNL     1      -8.534   9.053  67.803  1.00  0.00    -0.117 C  
HETATM   10  C   UNL     1      -7.221   9.089  67.047  1.00  0.00    -0.086 C  
HETATM   11  C   UNL     1      -7.267   7.883  66.077  1.00  0.00    -0.073 C  
HETATM   12  C   UNL     1      -8.288   8.326  65.002  1.00  0.00    -0.158 C  
HETATM   13  C   UNL     1      -8.703   9.742  65.472  1.00  0.00    -0.171 C  
HETATM   14  C   UNL     1      -9.388  10.574  64.413  1.00  0.00    -0.307 C  
HETATM   15  C   UNL     1      -7.399  10.312  66.103  1.00  0.00    -0.122 C  
HETATM   16  C   UNL     1      -9.516   9.492  66.747  1.00  0.00    -0.167 C  
HETATM   17  O   UNL     1     -10.721   9.584  66.891  1.00  0.00    -0.207 OA 
HETATM   18  C   UNL     1      -7.579  11.661  66.836  1.00  0.00    -0.138 C  
HETATM   19  C   UNL     1      -6.219  10.495  65.131  1.00  0.00    -0.079 C  
ENDBRANCH   5   8
TORSDOF 1
ENDMDL
MODEL      169
REMARK 921   NORMALIZED FREE ENERGY PREDICTED BY IDOCK:   -1.80 KCAL/MOL
REMARK 922        TOTAL FREE ENERGY PREDICTED BY IDOCK:   -2.40 KCAL/MOL
REMARK 923 INTER-LIGAND FREE ENERGY PREDICTED BY IDOCK:   -1.91 KCAL/MOL
REMARK 924 INTRA-LIGAND FREE ENERGY PREDICTED BY IDOCK:   -0.49 KCAL/MOL
REMARK 927      BINDING AFFINITY PREDICTED BY RF-SCORE:    0.00 PKD
ROOT
HETATM    1  C   UNL     1      -9.889   3.376  74.139  1.00  0.00    -0.159 C  
HETATM    2  C   UNL     1      -9.244   3.745  72.836  1.00  0.00    -0.126 A  
HETATM    3  C   UNL     1      -8.080   3.112  72.387  1.00  0.00    -0.063 A  
HETATM    4  C   UNL     1      -7.472   3.505  71.186  1.00  0.00    -0.040 A  
HETATM    5  C   UNL     1      -8.016   4.538  70.411  1.00  0.00    -0.059 A  
HETATM    6  C   UNL     1      -9.173   5.172  70.880  1.00  0.00    -0.188 A  
HETATM    7  C   UNL     1      -9.792   4.770  72.064  1.00  0.00    -0.234 A  
ENDROOT
BRANCH   5   8
HETATM    8  C   UNL     1      -7.308   4.985  69.199  1.00  0.00    -0.057 C  
HETATM    9  C   UNL     1      -7.579   4.589  67.948  1.00  0.00    -0.077 C  
HETATM   10  C   UNL     1      -8.555   3.580  67.375  1.00  0.00    -0.113 C  
HETATM   11  C   UNL     1      -9.657   4.418  66.681  1.00  0.00    -0.213 C  
HETATM   12  C   UNL     1      -8.951   4.960  65.415  1.00  0.00    -0.151 C  
HETATM   13  C   UNL     1      -7.527   4.362  65.522  1.00  0.00    -0.081 C  
HETATM   14  C   UNL     1      -6.738   4.397  64.234  1.00  0.00    -0.044 C  
HETATM   15  C   UNL     1      -7.765   2.973  66.182  1.00  0.00    -0.077 C  
HETATM   16  C   UNL     1      -6.895   5.103  66.706  1.00  0.00    -0.063 C  
HETATM   17  O   UNL     1      -6.040   5.968  66.672  1.00  0.00    -0.024 OA 
HETATM   18  C   UNL     1      -6.473   2.226  66.588  1.00  0.00    -0.028 C  
HETATM   19  C   UNL     1      -8.602   1.982  65.353  1.00  0.00    -0.111 C  
ENDBRANCH   5   8
TORSDOF 1
ENDMDL
MODEL      170
REMARK 921   NORMALIZED FREE ENERGY PREDICTED BY IDOCK:   -1.74 KCAL/MOL
REMARK 922        TOTAL FREE ENERGY PREDICTED BY IDOCK:   -2.34 KCAL/MOL
REMARK 923 INTER-LIGAND FREE ENERGY PREDICTED BY IDOCK:   -2.11 KCAL/MOL
REMARK 924 INTRA-LIGAND FREE ENERGY PREDICTED BY IDOCK:   -0.22 KCAL/MOL
REMARK 927      BINDING AFFINITY PREDICTED BY RF-SCORE:    0.00 PKD
ROOT
HETATM    1  C   UNL     1      -8.321   7.131  74.562  1.00  0.00    -0.215 C  
HETATM    2  C   UNL     1      -8.376   7.238  73.066  1.00  0.00    -0.134 A  
HETATM    3  C   UNL     1      -9.504   6.841  72.342  1.00  0.00    -0.153 A  
HETATM    4  C   UNL     1      -9.513   6.911  70.941  1.00  0.00    -0.157 A  
HETATM    5  C   UNL     1      -8.396   7.380  70.238  1.00  0.00    -0.134 A  
HETATM    6  C   UNL     1      -7.268   7.761  70.976  1.00  0.00    -0.054 A  
HETATM    7  C   UNL     1      -7.262   7.712  72.371  1.00  0.00    -0.082 A  
ENDROOT
BRANCH   5   8
HETATM    8  C   UNL     1      -8.404   7.362  68.765  1.00  0.00    -0.129 C  
HETATM    9  C   UNL     1      -7.780   8.245  67.973  1.00  0.00    -0.107 C  
HETATM   10  C   UNL     1      -6.984   9.503  68.257  1.00  0.00    -0.070 C  
HETATM   11  C   UNL     1      -5.509   9.137  67.957  1.00  0.00    -0.034 C  
HETATM   12  C   UNL     1      -5.468   9.054  66.412  1.00  0.00    -0.038 C  
HETATM   13  C   UNL     1      -6.922   9.393  66.001  1.00  0.00    -0.090 C  
HETATM   14  C   UNL     1      -7.087   9.772  64.549  1.00  0.00    -0.128 C  
HETATM   15  C   UNL     1      -7.369  10.431  67.072  1.00  0.00    -0.097 C  
HETATM   16  C   UNL     1      -7.737   8.180  66.466  1.00  0.00    -0.093 C  
HETATM   17  O   UNL     1      -8.227   7.305  65.778  1.00  0.00    -0.121 OA 
HETATM   18  C   UNL     1      -8.868  10.804  67.016  1.00  0.00    -0.137 C  
HETATM   19  C   UNL     1      -6.587  11.758  67.073  1.00  0.00    -0.140 C  
ENDBRANCH   5   8
TORSDOF 1
ENDMDL
MODEL      171
REMARK 921   NORMALIZED FREE ENERGY PREDICTED BY IDOCK:   -1.66 KCAL/MOL
REMARK 922        TOTAL FREE ENERGY PREDICTED BY IDOCK:   -2.25 KCAL/MOL
REMARK 923 INTER-LIGAND FREE ENERGY PREDICTED BY IDOCK:   -1.78 KCAL/MOL
REMARK 924 INTRA-LIGAND FREE ENERGY PREDICTED BY IDOCK:   -0.47 KCAL/MOL
REMARK 927      BINDING AFFINITY PREDICTED BY RF-SCORE:    0.00 PKD
ROOT
HETATM    1  C   UNL     1      -6.922   9.685  63.855  1.00  0.00    -0.112 C  
HETATM    2  C   UNL     1      -7.275   9.140  65.208  1.00  0.00    -0.089 A  
HETATM    3  C   UNL     1      -6.316   9.000  66.216  1.00  0.00    -0.065 A  
HETATM    4  C   UNL     1      -6.663   8.448  67.458  1.00  0.00    -0.063 A  
HETATM    5  C   UNL     1      -7.974   8.027  67.715  1.00  0.00    -0.127 A  
HETATM    6  C   UNL     1      -8.920   8.160  66.692  1.00  0.00    -0.181 A  
HETATM    7  C   UNL     1      -8.584   8.728  65.462  1.00  0.00    -0.198 A  
ENDROOT
BRANCH   5   8
HETATM    8  C   UNL     1      -8.288   7.373  68.997  1.00  0.00    -0.126 C  
HETATM    9  C   UNL     1      -7.830   6.178  69.395  1.00  0.00    -0.100 C  
HETATM   10  C   UNL     1      -6.974   5.125  68.719  1.00  0.00    -0.053 C  
HETATM   11  C   UNL     1      -5.600   5.189  69.430  1.00  0.00    -0.008 C  
HETATM   12  C   UNL     1      -5.882   4.556  70.813  1.00  0.00    -0.017 C  
HETATM   13  C   UNL     1      -7.385   4.190  70.734  1.00  0.00    -0.041 C  
HETATM   14  C   UNL     1      -7.842   3.207  71.785  1.00  0.00    -0.057 C  
HETATM   15  C   UNL     1      -7.584   3.795  69.242  1.00  0.00    -0.053 C  
HETATM   16  C   UNL     1      -8.102   5.545  70.737  1.00  0.00    -0.113 C  
HETATM   17  O   UNL     1      -8.737   6.049  71.645  1.00  0.00    -0.134 OA 
HETATM   18  C   UNL     1      -9.056   3.564  68.832  1.00  0.00    -0.205 C  
HETATM   19  C   UNL     1      -6.800   2.554  68.777  1.00  0.00    -0.036 C  
ENDBRANCH   5   8
TORSDOF 1
ENDMDL
MODEL      172
REMARK 921   NORMALIZED FREE ENERGY PREDICTED BY IDOCK:   -1.22 KCAL/MOL
REMARK 922        TOTAL FREE ENERGY PREDICTED BY IDOCK:   -1.78 KCAL/MOL
REMARK 923 INTER-LIGAND FREE ENERGY PREDICTED BY IDOCK:   -1.34 KCAL/MOL
REMARK 924 INTRA-LIGAND FREE ENERGY PREDICTED BY IDOCK:   -0.44 KCAL/MOL
REMARK 927      BINDING AFFINITY PREDICTED BY RF-SCORE:    0.00 PKD
ROOT
HETATM    1  C   UNL     1      -7.694   7.300  63.864  1.00  0.00    -0.120 C  
HETATM    2  C   UNL     1      -7.312   7.482  65.304  1.00  0.00    -0.072 A  
HETATM    3  C   UNL     1      -5.975   7.516  65.711  1.00  0.00    -0.038 A  
HETATM    4  C   UNL     1      -5.645   7.644  67.068  1.00  0.00    -0.031 A  
HETATM    5  C   UNL     1      -6.646   7.742  68.044  1.00  0.00    -0.056 A  
HETATM    6  C   UNL     1      -7.980   7.692  67.623  1.00  0.00    -0.121 A  
HETATM    7  C   UNL     1      -8.313   7.585  66.272  1.00  0.00    -0.134 A  
ENDROOT
BRANCH   5   8
HETATM    8  C   UNL     1      -6.270   7.789  69.467  1.00  0.00    -0.034 C  
HETATM    9  C   UNL     1      -6.514   6.829  70.369  1.00  0.00    -0.043 C  
HETATM   10  C   UNL     1      -7.257   5.510  70.295  1.00  0.00    -0.067 C  
HETATM   11  C   UNL     1      -6.165   4.415  70.351  1.00  0.00    -0.019 C  
HETATM   12  C   UNL     1      -5.693   4.453  71.824  1.00  0.00    -0.012 C  
HETATM   13  C   UNL     1      -6.578   5.560  72.449  1.00  0.00    -0.065 C  
HETATM   14  C   UNL     1      -6.616   5.547  73.959  1.00  0.00    -0.075 C  
HETATM   15  C   UNL     1      -7.931   5.413  71.693  1.00  0.00    -0.116 C  
HETATM   16  C   UNL     1      -6.067   6.856  71.810  1.00  0.00    -0.038 C  
HETATM   17  O   UNL     1      -5.397   7.729  72.330  1.00  0.00    -0.036 OA 
HETATM   18  C   UNL     1      -8.953   6.534  71.987  1.00  0.00    -0.140 C  
HETATM   19  C   UNL     1      -8.668   4.079  71.910  1.00  0.00    -0.127 C  
ENDBRANCH   5   8
TORSDOF 1
ENDMDL
MODEL      173
REMARK 921   NORMALIZED FREE ENERGY PREDICTED BY IDOCK:   -0.32 KCAL/MOL
REMARK 922        TOTAL FREE ENERGY PREDICTED BY IDOCK:   -0.83 KCAL/MOL
REMARK 923 INTER-LIGAND FREE ENERGY PREDICTED BY IDOCK:   -0.61 KCAL/MOL
REMARK 924 INTRA-LIGAND FREE ENERGY PREDICTED BY IDOCK:   -0.22 KCAL/MOL
REMARK 927      BINDING AFFINITY PREDICTED BY RF-SCORE:    0.00 PKD
ROOT
HETATM    1  C   UNL     1      -7.225   1.523  67.706  1.00  0.00    -0.039 C  
HETATM    2  C   UNL     1      -7.590   2.637  66.769  1.00  0.00    -0.071 A  
HETATM    3  C   UNL     1      -6.621   3.319  66.027  1.00  0.00    -0.040 A  
HETATM    4  C   UNL     1      -6.983   4.385  65.191  1.00  0.00    -0.058 A  
HETATM    5  C   UNL     1      -8.320   4.788  65.079  1.00  0.00    -0.132 A  
HETATM    6  C   UNL     1      -9.277   4.105  65.838  1.00  0.00    -0.148 A  
HETATM    7  C   UNL     1      -8.924   3.030  66.657  1.00  0.00    -0.169 A  
ENDROOT
BRANCH   5   8
HETATM    8  C   UNL     1      -8.658   5.964  64.259  1.00  0.00     0.121 C  
HETATM    9  C   UNL     1      -7.948   7.098  64.194  1.00  0.00    -0.085 C  
HETATM   10  C   UNL     1      -6.707   7.580  64.920  1.00  0.00    -0.047 C  
HETATM   11  C   UNL     1      -5.571   7.546  63.867  1.00  0.00    -0.037 C  
HETATM   12  C   UNL     1      -5.905   8.739  62.940  1.00  0.00    -0.086 C  
HETATM   13  C   UNL     1      -7.188   9.330  63.574  1.00  0.00    -0.094 C  
HETATM   14  C   UNL     1      -7.520  10.731  63.117  1.00  0.00     0.167 C  
HETATM   15  C   UNL     1      -6.980   9.100  65.099  1.00  0.00    -0.087 C  
HETATM   16  C   UNL     1      -8.264   8.272  63.301  1.00  0.00    -0.095 C  
HETATM   17  O   UNL     1      -9.177   8.329  62.499  1.00  0.00     0.461 OA 
HETATM   18  C   UNL     1      -8.213   9.428  65.971  1.00  0.00    -0.111 C  
HETATM   19  C   UNL     1      -5.789   9.852  65.723  1.00  0.00    -0.065 C  
ENDBRANCH   5   8
TORSDOF 1
ENDMDL
MODEL      174
REMARK 921   NORMALIZED FREE ENERGY PREDICTED BY IDOCK:   -0.18 KCAL/MOL
REMARK 922        TOTAL FREE ENERGY PREDICTED BY IDOCK:   -0.69 KCAL/MOL
REMARK 923 INTER-LIGAND FREE ENERGY PREDICTED BY IDOCK:   -0.65 KCAL/MOL
REMARK 924 INTRA-LIGAND FREE ENERGY PREDICTED BY IDOCK:   -0.04 KCAL/MOL
REMARK 927      BINDING AFFINITY PREDICTED BY RF-SCORE:    0.00 PKD
ROOT
HETATM    1  C   UNL     1      -6.415   9.326  62.872  1.00  0.00    -0.094 C  
HETATM    2  C   UNL     1      -6.997   8.584  64.038  1.00  0.00    -0.079 A  
HETATM    3  C   UNL     1      -6.435   7.392  64.506  1.00  0.00    -0.040 A  
HETATM    4  C   UNL     1      -7.024   6.695  65.570  1.00  0.00    -0.060 A  
HETATM    5  C   UNL     1      -8.185   7.176  66.189  1.00  0.00    -0.128 A  
HETATM    6  C   UNL     1      -8.746   8.363  65.701  1.00  0.00    -0.204 A  
HETATM    7  C   UNL     1      -8.151   9.071  64.655  1.00  0.00    -0.144 A  
ENDROOT
BRANCH   5   8
HETATM    8  C   UNL     1      -8.828   6.379  67.247  1.00  0.00    -0.108 C  
HETATM    9  C   UNL     1      -8.661   5.063  67.441  1.00  0.00    -0.103 C  
HETATM   10  C   UNL     1      -7.894   3.999  66.683  1.00  0.00    -0.093 C  
HETATM   11  C   UNL     1      -6.676   3.650  67.573  1.00  0.00    -0.042 C  
HETATM   12  C   UNL     1      -7.303   2.849  68.739  1.00  0.00    -0.048 C  
HETATM   13  C   UNL     1      -8.808   2.818  68.378  1.00  0.00    -0.165 C  
HETATM   14  C   UNL     1      -9.606   1.775  69.123  1.00  0.00    -0.094 C  
HETATM   15  C   UNL     1      -8.807   2.749  66.823  1.00  0.00    -0.154 C  
HETATM   16  C   UNL     1      -9.270   4.267  68.569  1.00  0.00    -0.140 C  
HETATM   17  O   UNL     1      -9.958   4.717  69.466  1.00  0.00    -0.209 OA 
HETATM   18  C   UNL     1     -10.202   2.902  66.174  1.00  0.00     1.333 C  
HETATM   19  C   UNL     1      -8.179   1.479  66.218  1.00  0.00    -0.080 C  
ENDBRANCH   5   8
TORSDOF 1
ENDMDL
MODEL      175
REMARK 921   NORMALIZED FREE ENERGY PREDICTED BY IDOCK:    7.43 KCAL/MOL
REMARK 922        TOTAL FREE ENERGY PREDICTED BY IDOCK:    7.37 KCAL/MOL
REMARK 923 INTER-LIGAND FREE ENERGY PREDICTED BY IDOCK:    7.35 KCAL/MOL
REMARK 924 INTRA-LIGAND FREE ENERGY PREDICTED BY IDOCK:    0.01 KCAL/MOL
REMARK 927      BINDING AFFINITY PREDICTED BY RF-SCORE:    0.00 PKD
ROOT
HETATM    1  C   UNL     1     -11.776  14.397  72.217  1.00  0.00     0.319 C  
HETATM    2  C   UNL     1     -11.004  13.743  71.109  1.00  0.00     2.196 A  
HETATM    3  C   UNL     1     -10.972  12.353  70.956  1.00  0.00     3.443 A  
HETATM    4  C   UNL     1     -10.207  11.765  69.939  1.00  0.00     1.187 A  
HETATM    5  C   UNL     1      -9.461  12.554  69.054  1.00  0.00     0.400 A  
HETATM    6  C   UNL     1      -9.491  13.943  69.227  1.00  0.00     0.426 A  
HETATM    7  C   UNL     1     -10.267  14.534  70.226  1.00  0.00     0.635 A  
ENDROOT
BRANCH   5   8
HETATM    8  C   UNL     1      -8.602  11.904  68.049  1.00  0.00    -0.168 C  
HETATM    9  C   UNL     1      -8.279  10.604  68.025  1.00  0.00    -0.113 C  
HETATM   10  C   UNL     1      -8.577   9.450  68.962  1.00  0.00    -0.135 C  
HETATM   11  C   UNL     1      -9.607   8.566  68.216  1.00  0.00    -0.156 C  
HETATM   12  C   UNL     1      -8.765   7.891  67.108  1.00  0.00    -0.133 C  
HETATM   13  C   UNL     1      -7.343   8.456  67.351  1.00  0.00    -0.089 C  
HETATM   14  C   UNL     1      -6.240   7.679  66.673  1.00  0.00    -0.045 C  
HETATM   15  C   UNL     1      -7.272   8.607  68.899  1.00  0.00    -0.077 C  
HETATM   16  C   UNL     1      -7.454   9.933  66.955  1.00  0.00    -0.091 C  
HETATM   17  O   UNL     1      -7.007  10.472  65.960  1.00  0.00    -0.122 OA 
HETATM   18  C   UNL     1      -6.014   9.342  69.414  1.00  0.00    -0.037 C  
HETATM   19  C   UNL     1      -7.370   7.293  69.695  1.00  0.00    -0.088 C  
ENDBRANCH   5   8
TORSDOF 1
ENDMDL
MODEL      176
REMARK 921   NORMALIZED FREE ENERGY PREDICTED BY IDOCK:    8.58 KCAL/MOL
REMARK 922        TOTAL FREE ENERGY PREDICTED BY IDOCK:    8.59 KCAL/MOL
REMARK 923 INTER-LIGAND FREE ENERGY PREDICTED BY IDOCK:    8.63 KCAL/MOL
REMARK 924 INTRA-LIGAND FREE ENERGY PREDICTED BY IDOCK:   -0.03 KCAL/MOL
REMARK 927      BINDING AFFINITY PREDICTED BY RF-SCORE:    0.00 PKD
ROOT
HETATM    1  C   UNL     1     -10.018   4.057  65.142  1.00  0.00    -0.203 C  
HETATM    2  C   UNL     1     -10.033   5.472  65.638  1.00  0.00     0.167 A  
HETATM    3  C   UNL     1     -10.678   5.827  66.827  1.00  0.00    -0.369 A  
HETATM    4  C   UNL     1     -10.715   7.165  67.247  1.00  0.00    -0.399 A  
HETATM    5  C   UNL     1     -10.107   8.173  66.487  1.00  0.00    -0.286 A  
HETATM    6  C   UNL     1      -9.477   7.805  65.292  1.00  0.00     0.809 A  
HETATM    7  C   UNL     1      -9.421   6.472  64.881  1.00  0.00     1.265 A  
ENDROOT
BRANCH   5   8
HETATM    8  C   UNL     1     -10.235   9.578  66.909  1.00  0.00    -0.317 C  
HETATM    9  C   UNL     1      -9.773  10.639  66.234  1.00  0.00    -0.245 C  
HETATM   10  C   UNL     1      -8.963  10.777  64.960  1.00  0.00    -0.211 C  
HETATM   11  C   UNL     1      -9.950  11.317  63.897  1.00  0.00    -0.368 C  
HETATM   12  C   UNL     1     -10.164  12.790  64.322  1.00  0.00    -0.352 C  
HETATM   13  C   UNL     1      -9.264  12.930  65.575  1.00  0.00     0.395 C  
HETATM   14  C   UNL     1      -8.966  14.357  65.971  1.00  0.00     0.216 C  
HETATM   15  C   UNL     1      -8.054  12.003  65.259  1.00  0.00     1.579 C  
HETATM   16  C   UNL     1      -9.967  12.079  66.639  1.00  0.00    -0.201 C  
HETATM   17  O   UNL     1     -10.597  12.467  67.605  1.00  0.00    -0.210 OA 
HETATM   18  C   UNL     1      -7.078  11.799  66.439  1.00  0.00     0.218 C  
HETATM   19  C   UNL     1      -7.199  12.422  64.049  1.00  0.00     7.137 C  
ENDBRANCH   5   8
TORSDOF 1
ENDMDL
MODEL      177
REMARK 921   NORMALIZED FREE ENERGY PREDICTED BY IDOCK:   21.82 KCAL/MOL
REMARK 922        TOTAL FREE ENERGY PREDICTED BY IDOCK:   22.60 KCAL/MOL
REMARK 923 INTER-LIGAND FREE ENERGY PREDICTED BY IDOCK:   22.66 KCAL/MOL
REMARK 924 INTRA-LIGAND FREE ENERGY PREDICTED BY IDOCK:   -0.06 KCAL/MOL
REMARK 927      BINDING AFFINITY PREDICTED BY RF-SCORE:    0.00 PKD
ROOT
HETATM    1  C   UNL     1      -8.501   7.190  69.129  1.00  0.00    -0.133 C  
HETATM    2  C   UNL     1      -8.838   8.562  69.635  1.00  0.00    -0.137 A  
HETATM    3  C   UNL     1     -10.162   8.991  69.768  1.00  0.00    -0.214 A  
HETATM    4  C   UNL     1     -10.450  10.293  70.202  1.00  0.00    -0.259 A  
HETATM    5  C   UNL     1      -9.420  11.190  70.513  1.00  0.00     3.111 A  
HETATM    6  C   UNL     1      -8.098  10.752  70.361  1.00  0.00     1.531 A  
HETATM    7  C   UNL     1      -7.808   9.450  69.948  1.00  0.00    -0.126 A  
ENDROOT
BRANCH   5   8
HETATM    8  C   UNL     1      -9.751  12.576  70.884  1.00  0.00     8.419 C  
HETATM    9  C   UNL     1     -10.879  13.221  70.558  1.00  0.00     1.795 C  
HETATM   10  C   UNL     1     -12.076  12.839  69.710  1.00  0.00    -0.305 C  
HETATM   11  C   UNL     1     -13.237  12.610  70.709  1.00  0.00     0.339 C  
HETATM   12  C   UNL     1     -13.597  14.041  71.176  1.00  0.00    -0.205 C  
HETATM   13  C   UNL     1     -12.609  14.930  70.381  1.00  0.00    -0.394 C  
HETATM   14  C   UNL     1     -12.986  16.392  70.335  1.00  0.00     2.225 C  
HETATM   15  C   UNL     1     -12.457  14.182  69.024  1.00  0.00     0.044 C  
HETATM   16  C   UNL     1     -11.241  14.618  70.999  1.00  0.00     0.027 C  
HETATM   17  O   UNL     1     -10.578  15.324  71.736  1.00  0.00     0.121 OA 
HETATM   18  C   UNL     1     -11.363  14.755  68.095  1.00  0.00    -0.324 C  
HETATM   19  C   UNL     1     -13.740  14.079  68.180  1.00  0.00     7.144 C  
ENDBRANCH   5   8
TORSDOF 1
ENDMDL
MODEL      178
REMARK 921   NORMALIZED FREE ENERGY PREDICTED BY IDOCK:   34.81 KCAL/MOL
REMARK 922        TOTAL FREE ENERGY PREDICTED BY IDOCK:   36.35 KCAL/MOL
REMARK 923 INTER-LIGAND FREE ENERGY PREDICTED BY IDOCK:   36.80 KCAL/MOL
REMARK 924 INTRA-LIGAND FREE ENERGY PREDICTED BY IDOCK:   -0.45 KCAL/MOL
REMARK 927      BINDING AFFINITY PREDICTED BY RF-SCORE:    0.00 PKD
ROOT
HETATM    1  C   UNL     1     -11.497  16.325  73.407  1.00  0.00     0.462 C  
HETATM    2  C   UNL     1     -10.998  16.600  72.020  1.00  0.00     1.277 A  
HETATM    3  C   UNL     1      -9.778  16.092  71.563  1.00  0.00     4.012 A  
HETATM    4  C   UNL     1      -9.313  16.400  70.276  1.00  0.00     1.474 A  
HETATM    5  C   UNL     1     -10.059  17.221  69.421  1.00  0.00    -0.091 A  
HETATM    6  C   UNL     1     -11.272  17.734  69.896  1.00  0.00     1.983 A  
HETATM    7  C   UNL     1     -11.748  17.414  71.169  1.00  0.00     2.628 A  
ENDROOT
BRANCH   5   8
HETATM    8  C   UNL     1      -9.506  17.596  68.108  1.00  0.00    -0.286 C  
HETATM    9  C   UNL     1     -10.039  17.279  66.920  1.00  0.00    -0.304 C  
HETATM   10  C   UNL     1     -11.236  16.441  66.518  1.00  0.00     0.328 C  
HETATM   11  C   UNL     1     -12.302  17.450  66.024  1.00  0.00     5.382 C  
HETATM   12  C   UNL     1     -11.745  17.920  64.659  1.00  0.00     3.652 C  
HETATM   13  C   UNL     1     -10.428  17.117  64.519  1.00  0.00     1.845 C  
HETATM   14  C   UNL     1      -9.870  17.075  63.116  1.00  0.00    14.636 C  
HETATM   15  C   UNL     1     -10.756  15.759  65.206  1.00  0.00    -0.446 C  
HETATM   16  C   UNL     1      -9.504  17.724  65.582  1.00  0.00     0.489 C  
HETATM   17  O   UNL     1      -8.548  18.455  65.406  1.00  0.00     0.226 OA 
HETATM   18  C   UNL     1      -9.540  14.821  65.383  1.00  0.00    -0.064 C  
HETATM   19  C   UNL     1     -11.858  14.925  64.527  1.00  0.00    -0.404 C  
ENDBRANCH   5   8
TORSDOF 1
ENDMDL
MODEL      179
REMARK 921   NORMALIZED FREE ENERGY PREDICTED BY IDOCK:   36.17 KCAL/MOL
REMARK 922        TOTAL FREE ENERGY PREDICTED BY IDOCK:   37.79 KCAL/MOL
REMARK 923 INTER-LIGAND FREE ENERGY PREDICTED BY IDOCK:   38.28 KCAL/MOL
REMARK 924 INTRA-LIGAND FREE ENERGY PREDICTED BY IDOCK:   -0.49 KCAL/MOL
REMARK 927      BINDING AFFINITY PREDICTED BY RF-SCORE:    0.00 PKD
ROOT
HETATM    1  C   UNL     1      -8.916  13.500  73.404  1.00  0.00    14.383 C  
HETATM    2  C   UNL     1      -9.312  13.704  71.971  1.00  0.00    12.187 A  
HETATM    3  C   UNL     1      -8.436  14.272  71.041  1.00  0.00     4.199 A  
HETATM    4  C   UNL     1      -8.844  14.492  69.718  1.00  0.00     0.599 A  
HETATM    5  C   UNL     1     -10.136  14.147  69.299  1.00  0.00     0.064 A  
HETATM    6  C   UNL     1     -11.007  13.593  70.244  1.00  0.00     0.622 A  
HETATM    7  C   UNL     1     -10.598  13.354  71.557  1.00  0.00     5.869 A  
ENDROOT
BRANCH   5   8
HETATM    8  C   UNL     1     -10.564  14.468  67.926  1.00  0.00    -0.243 C  
HETATM    9  C   UNL     1     -10.675  13.590  66.920  1.00  0.00    -0.274 C  
HETATM   10  C   UNL     1     -10.361  12.112  66.803  1.00  0.00    -0.237 C  
HETATM   11  C   UNL     1     -11.735  11.399  66.747  1.00  0.00     0.120 C  
HETATM   12  C   UNL     1     -12.261  11.745  65.333  1.00  0.00     0.449 C  
HETATM   13  C   UNL     1     -11.122  12.608  64.735  1.00  0.00    -0.335 C  
HETATM   14  C   UNL     1     -11.180  12.760  63.233  1.00  0.00    -0.160 C  
HETATM   15  C   UNL     1      -9.834  11.984  65.346  1.00  0.00    -0.243 C  
HETATM   16  C   UNL     1     -11.180  13.914  65.536  1.00  0.00    -0.307 C  
HETATM   17  O   UNL     1     -11.585  14.999  65.163  1.00  0.00    -0.348 OA 
HETATM   18  C   UNL     1      -8.540  12.782  65.065  1.00  0.00     2.269 C  
HETATM   19  C   UNL     1      -9.548  10.527  64.939  1.00  0.00    -0.334 C  
ENDBRANCH   5   8
TORSDOF 1
ENDMDL
MODEL      180
REMARK 921   NORMALIZED FREE ENERGY PREDICTED BY IDOCK:   38.45 KCAL/MOL
REMARK 922        TOTAL FREE ENERGY PREDICTED BY IDOCK:   40.20 KCAL/MOL
REMARK 923 INTER-LIGAND FREE ENERGY PREDICTED BY IDOCK:   40.60 KCAL/MOL
REMARK 924 INTRA-LIGAND FREE ENERGY PREDICTED BY IDOCK:   -0.40 KCAL/MOL
REMARK 927      BINDING AFFINITY PREDICTED BY RF-SCORE:    0.00 PKD
ROOT
HETATM    1  C   UNL     1     -11.497  16.325  73.407  1.00  0.00     0.462 C  
HETATM    2  C   UNL     1     -10.993  16.603  72.022  1.00  0.00     1.277 A  
HETATM    3  C   UNL     1      -9.772  16.094  71.568  1.00  0.00     4.012 A  
HETATM    4  C   UNL     1      -9.302  16.404  70.284  1.00  0.00     1.474 A  
HETATM    5  C   UNL     1     -10.044  17.229  69.428  1.00  0.00    -0.091 A  
HETATM    6  C   UNL     1     -11.258  17.744  69.901  1.00  0.00     1.983 A  
HETATM    7  C   UNL     1     -11.738  17.421  71.171  1.00  0.00     2.628 A  
ENDROOT
BRANCH   5   8
HETATM    8  C   UNL     1      -9.486  17.606  68.119  1.00  0.00    -0.286 C  
HETATM    9  C   UNL     1      -9.192  16.758  67.124  1.00  0.00    -0.233 C  
HETATM   10  C   UNL     1      -9.241  15.247  67.010  1.00  0.00    -0.235 C  
HETATM   11  C   UNL     1     -10.438  14.940  66.077  1.00  0.00    -0.326 C  
HETATM   12  C   UNL     1      -9.925  15.367  64.682  1.00  0.00     0.676 C  
HETATM   13  C   UNL     1      -8.485  15.860  64.971  1.00  0.00     4.013 C  
HETATM   14  C   UNL     1      -7.607  15.968  63.747  1.00  0.00    18.949 C  
HETATM   15  C   UNL     1      -8.006  14.927  66.121  1.00  0.00     1.440 C  
HETATM   16  C   UNL     1      -8.684  17.158  65.761  1.00  0.00     0.227 C  
HETATM   17  O   UNL     1      -8.512  18.299  65.374  1.00  0.00     0.168 OA 
HETATM   18  C   UNL     1      -6.650  15.325  66.747  1.00  0.00     1.004 C  
HETATM   19  C   UNL     1      -7.901  13.434  65.760  1.00  0.00     3.460 C  
ENDBRANCH   5   8
TORSDOF 1
ENDMDL
