MODEL        1
REMARK 921   NORMALIZED FREE ENERGY PREDICTED BY IDOCK:   -4.79 KCAL/MOL
REMARK 922        TOTAL FREE ENERGY PREDICTED BY IDOCK:   -5.88 KCAL/MOL
REMARK 923 INTER-LIGAND FREE ENERGY PREDICTED BY IDOCK:   -5.63 KCAL/MOL
REMARK 924 INTRA-LIGAND FREE ENERGY PREDICTED BY IDOCK:   -0.25 KCAL/MOL
REMARK 927      BINDING AFFINITY PREDICTED BY RF-SCORE:    0.00 PKD
ROOT
HETATM    1  C   UNL     1     -11.081  16.085  70.245  1.00  0.00    -0.374 C  
HETATM    2  N   UNL     1     -12.008  16.233  71.361  1.00  0.00    -0.644 NA 
HETATM    3  H   UNL     1     -12.910  16.585  71.038  1.00  0.00     0.000 HD 
ENDROOT
BRANCH   2   4
HETATM    4  C   UNL     1     -12.180  14.990  72.149  1.00  0.00    -0.368 C  
HETATM    5  C   UNL     1     -12.576  15.300  73.602  1.00  0.00    -0.712 C  
BRANCH   4   6
HETATM    6  C   UNL     1     -13.258  14.047  71.513  1.00  0.00    -0.359 C  
HETATM    7  O   UNL     1     -14.364  13.890  72.412  1.00  0.00    -0.647 OA 
HETATM    8  H   UNL     1     -15.017  13.318  72.025  1.00  0.00     0.000 HD 
BRANCH   6   9
HETATM    9  C   UNL     1     -12.762  12.660  71.146  1.00  0.00    -0.347 A  
HETATM   10  C   UNL     1     -12.004  12.470  69.980  1.00  0.00    -0.372 A  
HETATM   11  C   UNL     1     -11.560  11.197  69.620  1.00  0.00    -0.398 A  
HETATM   12  C   UNL     1     -11.869  10.097  70.419  1.00  0.00    -0.373 A  
HETATM   13  C   UNL     1     -12.622  10.269  71.578  1.00  0.00    -0.544 A  
HETATM   14  C   UNL     1     -13.070  11.543  71.938  1.00  0.00    -0.492 A  
ENDBRANCH   6   9
ENDBRANCH   4   6
ENDBRANCH   2   4
TORSDOF 3
ENDMDL
MODEL        2
REMARK 921   NORMALIZED FREE ENERGY PREDICTED BY IDOCK:   -4.71 KCAL/MOL
REMARK 922        TOTAL FREE ENERGY PREDICTED BY IDOCK:   -5.78 KCAL/MOL
REMARK 923 INTER-LIGAND FREE ENERGY PREDICTED BY IDOCK:   -5.59 KCAL/MOL
REMARK 924 INTRA-LIGAND FREE ENERGY PREDICTED BY IDOCK:   -0.20 KCAL/MOL
REMARK 927      BINDING AFFINITY PREDICTED BY RF-SCORE:    0.00 PKD
ROOT
HETATM    1  C   UNL     1     -13.768   8.310  71.888  1.00  0.00    -0.369 C  
HETATM    2  N   UNL     1     -13.537   9.414  70.964  1.00  0.00    -0.569 NA 
HETATM    3  H   UNL     1     -14.392   9.952  70.821  1.00  0.00     0.000 HD 
ENDROOT
BRANCH   2   4
HETATM    4  C   UNL     1     -12.421  10.298  71.377  1.00  0.00    -0.424 C  
HETATM    5  C   UNL     1     -11.110   9.510  71.529  1.00  0.00    -0.406 C  
BRANCH   4   6
HETATM    6  C   UNL     1     -12.202  11.466  70.354  1.00  0.00    -0.362 C  
HETATM    7  O   UNL     1     -10.819  11.541  69.984  1.00  0.00    -0.431 OA 
HETATM    8  H   UNL     1     -10.687  12.249  69.364  1.00  0.00     0.000 HD 
BRANCH   6   9
HETATM    9  C   UNL     1     -12.622  12.839  70.848  1.00  0.00    -0.342 A  
HETATM   10  C   UNL     1     -13.446  12.959  71.977  1.00  0.00    -0.568 A  
HETATM   11  C   UNL     1     -13.857  14.214  72.429  1.00  0.00    -0.638 A  
HETATM   12  C   UNL     1     -13.449  15.365  71.757  1.00  0.00    -0.581 A  
HETATM   13  C   UNL     1     -12.633  15.263  70.633  1.00  0.00    -0.471 A  
HETATM   14  C   UNL     1     -12.223  14.007  70.178  1.00  0.00    -0.425 A  
ENDBRANCH   6   9
ENDBRANCH   4   6
ENDBRANCH   2   4
TORSDOF 3
ENDMDL
MODEL        3
REMARK 921   NORMALIZED FREE ENERGY PREDICTED BY IDOCK:   -4.68 KCAL/MOL
REMARK 922        TOTAL FREE ENERGY PREDICTED BY IDOCK:   -5.75 KCAL/MOL
REMARK 923 INTER-LIGAND FREE ENERGY PREDICTED BY IDOCK:   -5.48 KCAL/MOL
REMARK 924 INTRA-LIGAND FREE ENERGY PREDICTED BY IDOCK:   -0.27 KCAL/MOL
REMARK 927      BINDING AFFINITY PREDICTED BY RF-SCORE:    0.00 PKD
ROOT
HETATM    1  C   UNL     1     -11.076   6.110  72.458  1.00  0.00    -0.274 C  
HETATM    2  N   UNL     1     -12.520   6.314  72.424  1.00  0.00    -0.545 NA 
HETATM    3  H   UNL     1     -12.906   6.326  73.368  1.00  0.00     0.000 HD 
ENDROOT
BRANCH   2   4
HETATM    4  C   UNL     1     -12.922   7.528  71.675  1.00  0.00    -0.358 C  
HETATM    5  C   UNL     1     -14.400   7.461  71.256  1.00  0.00    -0.408 C  
BRANCH   4   6
HETATM    6  C   UNL     1     -12.685   8.829  72.515  1.00  0.00    -0.311 C  
HETATM    7  O   UNL     1     -13.801   9.062  73.385  1.00  0.00    -1.173 OA 
HETATM    8  H   UNL     1     -13.657   9.851  73.894  1.00  0.00     0.000 HD 
BRANCH   6   9
HETATM    9  C   UNL     1     -12.468  10.091  71.698  1.00  0.00    -0.513 A  
HETATM   10  C   UNL     1     -13.172  11.263  72.014  1.00  0.00    -0.437 A  
HETATM   11  C   UNL     1     -12.998  12.423  71.259  1.00  0.00    -0.297 A  
HETATM   12  C   UNL     1     -12.119  12.426  70.177  1.00  0.00    -0.366 A  
HETATM   13  C   UNL     1     -11.414  11.271  69.849  1.00  0.00    -0.373 A  
HETATM   14  C   UNL     1     -11.590  10.107  70.603  1.00  0.00    -0.429 A  
ENDBRANCH   6   9
ENDBRANCH   4   6
ENDBRANCH   2   4
TORSDOF 3
ENDMDL
MODEL        4
REMARK 921   NORMALIZED FREE ENERGY PREDICTED BY IDOCK:   -4.67 KCAL/MOL
REMARK 922        TOTAL FREE ENERGY PREDICTED BY IDOCK:   -5.75 KCAL/MOL
REMARK 923 INTER-LIGAND FREE ENERGY PREDICTED BY IDOCK:   -5.53 KCAL/MOL
REMARK 924 INTRA-LIGAND FREE ENERGY PREDICTED BY IDOCK:   -0.22 KCAL/MOL
REMARK 927      BINDING AFFINITY PREDICTED BY RF-SCORE:    0.00 PKD
ROOT
HETATM    1  C   UNL     1     -12.071  13.498  66.294  1.00  0.00    -0.428 C  
HETATM    2  N   UNL     1     -12.161  14.580  67.267  1.00  0.00    -0.581 NA 
HETATM    3  H   UNL     1     -12.996  15.144  67.105  1.00  0.00     0.000 HD 
ENDROOT
BRANCH   2   4
HETATM    4  C   UNL     1     -12.108  14.110  68.672  1.00  0.00    -0.285 C  
HETATM    5  C   UNL     1     -11.239  12.848  68.806  1.00  0.00    -0.323 C  
BRANCH   4   6
HETATM    6  C   UNL     1     -11.552  15.219  69.630  1.00  0.00    -0.321 C  
HETATM    7  O   UNL     1     -10.195  14.924  69.988  1.00  0.00    -0.459 OA 
HETATM    8  H   UNL     1      -9.859  15.597  70.568  1.00  0.00     0.000 HD 
BRANCH   6   9
HETATM    9  C   UNL     1     -12.337  15.408  70.917  1.00  0.00    -0.452 A  
HETATM   10  C   UNL     1     -11.700  15.916  72.059  1.00  0.00    -0.588 A  
HETATM   11  C   UNL     1     -12.404  16.074  73.255  1.00  0.00    -0.644 A  
HETATM   12  C   UNL     1     -13.752  15.726  73.323  1.00  0.00    -0.378 A  
HETATM   13  C   UNL     1     -14.397  15.218  72.198  1.00  0.00    -0.651 A  
HETATM   14  C   UNL     1     -13.693  15.056  71.001  1.00  0.00    -0.417 A  
ENDBRANCH   6   9
ENDBRANCH   4   6
ENDBRANCH   2   4
TORSDOF 3
ENDMDL
MODEL        5
REMARK 921   NORMALIZED FREE ENERGY PREDICTED BY IDOCK:   -4.67 KCAL/MOL
REMARK 922        TOTAL FREE ENERGY PREDICTED BY IDOCK:   -5.74 KCAL/MOL
REMARK 923 INTER-LIGAND FREE ENERGY PREDICTED BY IDOCK:   -5.54 KCAL/MOL
REMARK 924 INTRA-LIGAND FREE ENERGY PREDICTED BY IDOCK:   -0.20 KCAL/MOL
REMARK 927      BINDING AFFINITY PREDICTED BY RF-SCORE:    0.00 PKD
ROOT
HETATM    1  C   UNL     1     -11.923  13.565  66.234  1.00  0.00    -0.413 C  
HETATM    2  N   UNL     1     -12.375  14.321  67.395  1.00  0.00    -0.591 NA 
HETATM    3  H   UNL     1     -13.392  14.295  67.471  1.00  0.00     0.000 HD 
ENDROOT
BRANCH   2   4
HETATM    4  C   UNL     1     -11.741  13.885  68.662  1.00  0.00    -0.361 C  
HETATM    5  C   UNL     1     -10.537  12.966  68.397  1.00  0.00    -0.267 C  
BRANCH   4   6
HETATM    6  C   UNL     1     -11.275  15.107  69.525  1.00  0.00    -0.273 C  
HETATM    7  O   UNL     1      -9.889  14.966  69.866  1.00  0.00    -0.451 OA 
HETATM    8  H   UNL     1      -9.607  15.707  70.389  1.00  0.00     0.000 HD 
BRANCH   6   9
HETATM    9  C   UNL     1     -12.048  15.314  70.816  1.00  0.00    -0.399 A  
HETATM   10  C   UNL     1     -13.381  14.889  70.912  1.00  0.00    -0.393 A  
HETATM   11  C   UNL     1     -14.110  15.092  72.086  1.00  0.00    -0.654 A  
HETATM   12  C   UNL     1     -13.515  15.725  73.176  1.00  0.00    -0.652 A  
HETATM   13  C   UNL     1     -12.193  16.155  73.095  1.00  0.00    -0.643 A  
HETATM   14  C   UNL     1     -11.463  15.954  71.920  1.00  0.00    -0.442 A  
ENDBRANCH   6   9
ENDBRANCH   4   6
ENDBRANCH   2   4
TORSDOF 3
ENDMDL
MODEL        6
REMARK 921   NORMALIZED FREE ENERGY PREDICTED BY IDOCK:   -4.63 KCAL/MOL
REMARK 922        TOTAL FREE ENERGY PREDICTED BY IDOCK:   -5.69 KCAL/MOL
REMARK 923 INTER-LIGAND FREE ENERGY PREDICTED BY IDOCK:   -5.55 KCAL/MOL
REMARK 924 INTRA-LIGAND FREE ENERGY PREDICTED BY IDOCK:   -0.14 KCAL/MOL
REMARK 927      BINDING AFFINITY PREDICTED BY RF-SCORE:    0.00 PKD
ROOT
HETATM    1  C   UNL     1     -12.109  12.714  63.344  1.00  0.00    -0.525 C  
HETATM    2  N   UNL     1     -12.326  14.139  63.565  1.00  0.00    -1.127 NA 
HETATM    3  H   UNL     1     -13.264  14.413  63.271  1.00  0.00     0.000 HD 
ENDROOT
BRANCH   2   4
HETATM    4  C   UNL     1     -12.068  14.560  64.962  1.00  0.00    -0.389 C  
HETATM    5  C   UNL     1     -12.212  13.380  65.938  1.00  0.00    -0.502 C  
BRANCH   4   6
HETATM    6  C   UNL     1     -10.640  15.187  65.122  1.00  0.00    -0.424 C  
HETATM    7  O   UNL     1      -9.690  14.165  65.450  1.00  0.00    -0.538 OA 
HETATM    8  H   UNL     1      -8.824  14.545  65.546  1.00  0.00     0.000 HD 
BRANCH   6   9
HETATM    9  C   UNL     1     -10.530  16.274  66.176  1.00  0.00    -0.330 A  
HETATM   10  C   UNL     1     -10.436  17.620  65.792  1.00  0.00    -0.208 A  
HETATM   11  C   UNL     1     -10.313  18.627  66.750  1.00  0.00    -0.449 A  
HETATM   12  C   UNL     1     -10.281  18.301  68.105  1.00  0.00    -0.406 A  
HETATM   13  C   UNL     1     -10.371  16.970  68.503  1.00  0.00    -0.359 A  
HETATM   14  C   UNL     1     -10.491  15.960  67.545  1.00  0.00    -0.298 A  
ENDBRANCH   6   9
ENDBRANCH   4   6
ENDBRANCH   2   4
TORSDOF 3
ENDMDL
MODEL        7
REMARK 921   NORMALIZED FREE ENERGY PREDICTED BY IDOCK:   -4.58 KCAL/MOL
REMARK 922        TOTAL FREE ENERGY PREDICTED BY IDOCK:   -5.64 KCAL/MOL
REMARK 923 INTER-LIGAND FREE ENERGY PREDICTED BY IDOCK:   -5.40 KCAL/MOL
REMARK 924 INTRA-LIGAND FREE ENERGY PREDICTED BY IDOCK:   -0.24 KCAL/MOL
REMARK 927      BINDING AFFINITY PREDICTED BY RF-SCORE:    0.00 PKD
ROOT
HETATM    1  C   UNL     1     -10.589  11.791  63.690  1.00  0.00    -0.439 C  
HETATM    2  N   UNL     1     -10.126  13.166  63.836  1.00  0.00    -0.764 NA 
HETATM    3  H   UNL     1     -10.368  13.719  63.013  1.00  0.00     0.000 HD 
ENDROOT
BRANCH   2   4
HETATM    4  C   UNL     1     -10.615  13.821  65.072  1.00  0.00    -0.389 C  
HETATM    5  C   UNL     1     -10.978  15.294  64.818  1.00  0.00    -0.403 C  
BRANCH   4   6
HETATM    6  C   UNL     1     -11.863  13.080  65.663  1.00  0.00    -0.399 C  
HETATM    7  O   UNL     1     -13.059  13.810  65.356  1.00  0.00    -0.727 OA 
HETATM    8  H   UNL     1     -13.815  13.360  65.714  1.00  0.00     0.000 HD 
BRANCH   6   9
HETATM    9  C   UNL     1     -11.829  12.863  67.165  1.00  0.00    -0.424 A  
HETATM   10  C   UNL     1     -11.732  11.563  67.686  1.00  0.00    -0.283 A  
HETATM   11  C   UNL     1     -11.722  11.348  69.065  1.00  0.00    -0.409 A  
HETATM   12  C   UNL     1     -11.809  12.429  69.941  1.00  0.00    -0.376 A  
HETATM   13  C   UNL     1     -11.908  13.725  69.440  1.00  0.00    -0.392 A  
HETATM   14  C   UNL     1     -11.922  13.941  68.059  1.00  0.00    -0.390 A  
ENDBRANCH   6   9
ENDBRANCH   4   6
ENDBRANCH   2   4
TORSDOF 3
ENDMDL
MODEL        8
REMARK 921   NORMALIZED FREE ENERGY PREDICTED BY IDOCK:   -4.58 KCAL/MOL
REMARK 922        TOTAL FREE ENERGY PREDICTED BY IDOCK:   -5.63 KCAL/MOL
REMARK 923 INTER-LIGAND FREE ENERGY PREDICTED BY IDOCK:   -5.55 KCAL/MOL
REMARK 924 INTRA-LIGAND FREE ENERGY PREDICTED BY IDOCK:   -0.08 KCAL/MOL
REMARK 927      BINDING AFFINITY PREDICTED BY RF-SCORE:    0.00 PKD
ROOT
HETATM    1  C   UNL     1      -9.909  11.792  63.321  1.00  0.00    -0.377 C  
HETATM    2  N   UNL     1     -10.281  13.117  63.800  1.00  0.00    -0.706 NA 
HETATM    3  H   UNL     1      -9.682  13.833  63.387  1.00  0.00     0.000 HD 
ENDROOT
BRANCH   2   4
HETATM    4  C   UNL     1     -11.712  13.439  63.583  1.00  0.00    -0.327 C  
HETATM    5  C   UNL     1     -12.609  12.227  63.883  1.00  0.00    -0.544 C  
BRANCH   4   6
HETATM    6  C   UNL     1     -12.171  14.649  64.466  1.00  0.00    -0.456 C  
HETATM    7  O   UNL     1     -12.059  15.870  63.722  1.00  0.00    -1.239 OA 
HETATM    8  H   UNL     1     -12.338  16.603  64.259  1.00  0.00     0.000 HD 
BRANCH   6   9
HETATM    9  C   UNL     1     -11.400  14.828  65.762  1.00  0.00    -0.336 A  
HETATM   10  C   UNL     1     -11.819  14.167  66.927  1.00  0.00    -0.458 A  
HETATM   11  C   UNL     1     -11.132  14.339  68.130  1.00  0.00    -0.275 A  
HETATM   12  C   UNL     1     -10.018  15.174  68.183  1.00  0.00    -0.221 A  
HETATM   13  C   UNL     1      -9.590  15.839  67.037  1.00  0.00    -0.236 A  
HETATM   14  C   UNL     1     -10.278  15.670  65.833  1.00  0.00    -0.372 A  
ENDBRANCH   6   9
ENDBRANCH   4   6
ENDBRANCH   2   4
TORSDOF 3
ENDMDL
MODEL        9
REMARK 921   NORMALIZED FREE ENERGY PREDICTED BY IDOCK:   -4.57 KCAL/MOL
REMARK 922        TOTAL FREE ENERGY PREDICTED BY IDOCK:   -5.62 KCAL/MOL
REMARK 923 INTER-LIGAND FREE ENERGY PREDICTED BY IDOCK:   -5.49 KCAL/MOL
REMARK 924 INTRA-LIGAND FREE ENERGY PREDICTED BY IDOCK:   -0.13 KCAL/MOL
REMARK 927      BINDING AFFINITY PREDICTED BY RF-SCORE:    0.00 PKD
ROOT
HETATM    1  C   UNL     1     -10.012  11.627  64.182  1.00  0.00    -0.277 C  
HETATM    2  N   UNL     1     -10.238  13.040  63.905  1.00  0.00    -0.713 NA 
HETATM    3  H   UNL     1      -9.558  13.391  63.230  1.00  0.00     0.000 HD 
ENDROOT
BRANCH   2   4
HETATM    4  C   UNL     1     -11.621  13.337  63.461  1.00  0.00    -0.251 C  
HETATM    5  C   UNL     1     -12.504  12.078  63.504  1.00  0.00    -0.654 C  
BRANCH   4   6
HETATM    6  C   UNL     1     -12.281  14.456  64.336  1.00  0.00    -0.458 C  
HETATM    7  O   UNL     1     -12.134  15.731  63.695  1.00  0.00    -1.126 OA 
HETATM    8  H   UNL     1     -12.534  16.409  64.226  1.00  0.00     0.000 HD 
BRANCH   6   9
HETATM    9  C   UNL     1     -11.724  14.583  65.743  1.00  0.00    -0.344 A  
HETATM   10  C   UNL     1     -10.699  15.503  66.014  1.00  0.00    -0.331 A  
HETATM   11  C   UNL     1     -10.164  15.614  67.298  1.00  0.00    -0.266 A  
HETATM   12  C   UNL     1     -10.646  14.808  68.328  1.00  0.00    -0.241 A  
HETATM   13  C   UNL     1     -11.661  13.889  68.075  1.00  0.00    -0.387 A  
HETATM   14  C   UNL     1     -12.196  13.773  66.789  1.00  0.00    -0.440 A  
ENDBRANCH   6   9
ENDBRANCH   4   6
ENDBRANCH   2   4
TORSDOF 3
ENDMDL
MODEL       10
REMARK 921   NORMALIZED FREE ENERGY PREDICTED BY IDOCK:   -4.56 KCAL/MOL
REMARK 922        TOTAL FREE ENERGY PREDICTED BY IDOCK:   -5.61 KCAL/MOL
REMARK 923 INTER-LIGAND FREE ENERGY PREDICTED BY IDOCK:   -5.36 KCAL/MOL
REMARK 924 INTRA-LIGAND FREE ENERGY PREDICTED BY IDOCK:   -0.25 KCAL/MOL
REMARK 927      BINDING AFFINITY PREDICTED BY RF-SCORE:    0.00 PKD
ROOT
HETATM    1  C   UNL     1     -14.409   8.500  72.317  1.00  0.00    -0.390 C  
HETATM    2  N   UNL     1     -13.214   9.043  72.951  1.00  0.00    -0.791 NA 
HETATM    3  H   UNL     1     -12.752   8.335  73.520  1.00  0.00     0.000 HD 
ENDROOT
BRANCH   2   4
HETATM    4  C   UNL     1     -12.263   9.647  71.987  1.00  0.00    -0.256 C  
HETATM    5  C   UNL     1     -11.459   8.567  71.245  1.00  0.00    -0.329 C  
BRANCH   4   6
HETATM    6  C   UNL     1     -13.000  10.551  70.939  1.00  0.00    -0.367 C  
HETATM    7  O   UNL     1     -12.495  10.286  69.623  1.00  0.00    -0.542 OA 
HETATM    8  H   UNL     1     -12.941  10.834  68.989  1.00  0.00     0.000 HD 
BRANCH   6   9
HETATM    9  C   UNL     1     -12.884  12.044  71.185  1.00  0.00    -0.331 A  
HETATM   10  C   UNL     1     -12.153  12.848  70.297  1.00  0.00    -0.377 A  
HETATM   11  C   UNL     1     -12.021  14.220  70.523  1.00  0.00    -0.402 A  
HETATM   12  C   UNL     1     -12.617  14.804  71.639  1.00  0.00    -0.394 A  
HETATM   13  C   UNL     1     -13.344  14.019  72.531  1.00  0.00    -0.639 A  
HETATM   14  C   UNL     1     -13.475  12.646  72.308  1.00  0.00    -0.541 A  
ENDBRANCH   6   9
ENDBRANCH   4   6
ENDBRANCH   2   4
TORSDOF 3
ENDMDL
MODEL       11
REMARK 921   NORMALIZED FREE ENERGY PREDICTED BY IDOCK:   -4.56 KCAL/MOL
REMARK 922        TOTAL FREE ENERGY PREDICTED BY IDOCK:   -5.61 KCAL/MOL
REMARK 923 INTER-LIGAND FREE ENERGY PREDICTED BY IDOCK:   -5.32 KCAL/MOL
REMARK 924 INTRA-LIGAND FREE ENERGY PREDICTED BY IDOCK:   -0.29 KCAL/MOL
REMARK 927      BINDING AFFINITY PREDICTED BY RF-SCORE:    0.00 PKD
ROOT
HETATM    1  C   UNL     1     -11.369  15.824  64.569  1.00  0.00    -0.316 C  
HETATM    2  N   UNL     1     -12.060  14.812  63.780  1.00  0.00    -0.930 NA 
HETATM    3  H   UNL     1     -11.663  14.750  62.842  1.00  0.00     0.000 HD 
ENDROOT
BRANCH   2   4
HETATM    4  C   UNL     1     -12.087  13.480  64.430  1.00  0.00    -0.420 C  
HETATM    5  C   UNL     1     -12.618  12.401  63.471  1.00  0.00    -0.535 C  
BRANCH   4   6
HETATM    6  C   UNL     1     -10.667  13.058  64.941  1.00  0.00    -0.332 C  
HETATM    7  O   UNL     1      -9.805  12.786  63.827  1.00  0.00    -0.679 OA 
HETATM    8  H   UNL     1      -8.945  12.531  64.138  1.00  0.00     0.000 HD 
BRANCH   6   9
HETATM    9  C   UNL     1     -10.646  11.840  65.847  1.00  0.00    -0.314 A  
HETATM   10  C   UNL     1      -9.998  10.667  65.432  1.00  0.00    -0.343 A  
HETATM   11  C   UNL     1      -9.989   9.533  66.246  1.00  0.00    -0.344 A  
HETATM   12  C   UNL     1     -10.628   9.558  67.485  1.00  0.00    -0.338 A  
HETATM   13  C   UNL     1     -11.277  10.714  67.910  1.00  0.00    -0.376 A  
HETATM   14  C   UNL     1     -11.290  11.849  67.095  1.00  0.00    -0.393 A  
ENDBRANCH   6   9
ENDBRANCH   4   6
ENDBRANCH   2   4
TORSDOF 3
ENDMDL
MODEL       12
REMARK 921   NORMALIZED FREE ENERGY PREDICTED BY IDOCK:   -4.56 KCAL/MOL
REMARK 922        TOTAL FREE ENERGY PREDICTED BY IDOCK:   -5.61 KCAL/MOL
REMARK 923 INTER-LIGAND FREE ENERGY PREDICTED BY IDOCK:   -5.32 KCAL/MOL
REMARK 924 INTRA-LIGAND FREE ENERGY PREDICTED BY IDOCK:   -0.29 KCAL/MOL
REMARK 927      BINDING AFFINITY PREDICTED BY RF-SCORE:    0.00 PKD
ROOT
HETATM    1  C   UNL     1     -11.512  15.711  64.550  1.00  0.00    -0.300 C  
HETATM    2  N   UNL     1     -12.317  14.699  63.877  1.00  0.00    -1.060 NA 
HETATM    3  H   UNL     1     -12.059  14.627  62.893  1.00  0.00     0.000 HD 
ENDROOT
BRANCH   2   4
HETATM    4  C   UNL     1     -12.260  13.372  64.535  1.00  0.00    -0.398 C  
HETATM    5  C   UNL     1     -12.233  12.236  63.499  1.00  0.00    -0.669 C  
BRANCH   4   6
HETATM    6  C   UNL     1     -11.009  13.245  65.470  1.00  0.00    -0.282 C  
HETATM    7  O   UNL     1     -10.033  12.383  64.868  1.00  0.00    -0.381 OA 
HETATM    8  H   UNL     1      -9.274  12.307  65.435  1.00  0.00     0.000 HD 
BRANCH   6   9
HETATM    9  C   UNL     1     -11.298  12.711  66.861  1.00  0.00    -0.373 A  
HETATM   10  C   UNL     1     -11.780  13.572  67.859  1.00  0.00    -0.392 A  
HETATM   11  C   UNL     1     -12.031  13.099  69.148  1.00  0.00    -0.329 A  
HETATM   12  C   UNL     1     -11.801  11.759  69.456  1.00  0.00    -0.402 A  
HETATM   13  C   UNL     1     -11.321  10.892  68.478  1.00  0.00    -0.367 A  
HETATM   14  C   UNL     1     -11.067  11.365  67.188  1.00  0.00    -0.366 A  
ENDBRANCH   6   9
ENDBRANCH   4   6
ENDBRANCH   2   4
TORSDOF 3
ENDMDL
MODEL       13
REMARK 921   NORMALIZED FREE ENERGY PREDICTED BY IDOCK:   -4.52 KCAL/MOL
REMARK 922        TOTAL FREE ENERGY PREDICTED BY IDOCK:   -5.56 KCAL/MOL
REMARK 923 INTER-LIGAND FREE ENERGY PREDICTED BY IDOCK:   -5.29 KCAL/MOL
REMARK 924 INTRA-LIGAND FREE ENERGY PREDICTED BY IDOCK:   -0.27 KCAL/MOL
REMARK 927      BINDING AFFINITY PREDICTED BY RF-SCORE:    0.00 PKD
ROOT
HETATM    1  C   UNL     1     -10.699  16.192  67.661  1.00  0.00    -0.318 C  
HETATM    2  N   UNL     1     -11.160  15.048  66.885  1.00  0.00    -0.330 NA 
HETATM    3  H   UNL     1     -10.397  14.651  66.335  1.00  0.00     0.000 HD 
ENDROOT
BRANCH   2   4
HETATM    4  C   UNL     1     -11.811  14.003  67.710  1.00  0.00    -0.384 C  
HETATM    5  C   UNL     1     -11.715  12.622  67.041  1.00  0.00    -0.438 C  
BRANCH   4   6
HETATM    6  C   UNL     1     -11.181  13.925  69.143  1.00  0.00    -0.269 C  
HETATM    7  O   UNL     1     -10.480  12.684  69.304  1.00  0.00    -0.436 OA 
HETATM    8  H   UNL     1     -10.098  12.637  70.172  1.00  0.00     0.000 HD 
BRANCH   6   9
HETATM    9  C   UNL     1     -12.172  14.044  70.288  1.00  0.00    -0.430 A  
HETATM   10  C   UNL     1     -12.514  12.912  71.043  1.00  0.00    -0.374 A  
HETATM   11  C   UNL     1     -13.439  13.003  72.084  1.00  0.00    -0.638 A  
HETATM   12  C   UNL     1     -14.035  14.227  72.383  1.00  0.00    -0.597 A  
HETATM   13  C   UNL     1     -13.708  15.360  71.641  1.00  0.00    -0.606 A  
HETATM   14  C   UNL     1     -12.784  15.269  70.597  1.00  0.00    -0.470 A  
ENDBRANCH   6   9
ENDBRANCH   4   6
ENDBRANCH   2   4
TORSDOF 3
ENDMDL
MODEL       14
REMARK 921   NORMALIZED FREE ENERGY PREDICTED BY IDOCK:   -4.47 KCAL/MOL
REMARK 922        TOTAL FREE ENERGY PREDICTED BY IDOCK:   -5.50 KCAL/MOL
REMARK 923 INTER-LIGAND FREE ENERGY PREDICTED BY IDOCK:   -5.32 KCAL/MOL
REMARK 924 INTRA-LIGAND FREE ENERGY PREDICTED BY IDOCK:   -0.18 KCAL/MOL
REMARK 927      BINDING AFFINITY PREDICTED BY RF-SCORE:    0.00 PKD
ROOT
HETATM    1  C   UNL     1     -12.174  13.539  65.393  1.00  0.00    -0.447 C  
HETATM    2  N   UNL     1     -12.604  14.003  66.706  1.00  0.00    -0.490 NA 
HETATM    3  H   UNL     1     -13.621  13.991  66.780  1.00  0.00     0.000 HD 
ENDROOT
BRANCH   2   4
HETATM    4  C   UNL     1     -11.986  13.252  67.824  1.00  0.00    -0.314 C  
HETATM    5  C   UNL     1     -10.791  12.413  67.341  1.00  0.00    -0.273 C  
BRANCH   4   6
HETATM    6  C   UNL     1     -11.510  14.210  68.970  1.00  0.00    -0.285 C  
HETATM    7  O   UNL     1     -10.153  13.913  69.326  1.00  0.00    -0.430 OA 
HETATM    8  H   UNL     1      -9.866  14.494  70.021  1.00  0.00     0.000 HD 
BRANCH   6   9
HETATM    9  C   UNL     1     -12.342  14.155  70.239  1.00  0.00    -0.421 A  
HETATM   10  C   UNL     1     -12.520  12.936  70.910  1.00  0.00    -0.383 A  
HETATM   11  C   UNL     1     -13.299  12.867  72.067  1.00  0.00    -0.579 A  
HETATM   12  C   UNL     1     -13.911  14.016  72.566  1.00  0.00    -0.610 A  
HETATM   13  C   UNL     1     -13.745  15.234  71.910  1.00  0.00    -0.601 A  
HETATM   14  C   UNL     1     -12.967  15.304  70.751  1.00  0.00    -0.492 A  
ENDBRANCH   6   9
ENDBRANCH   4   6
ENDBRANCH   2   4
TORSDOF 3
ENDMDL
MODEL       15
REMARK 921   NORMALIZED FREE ENERGY PREDICTED BY IDOCK:   -4.46 KCAL/MOL
REMARK 922        TOTAL FREE ENERGY PREDICTED BY IDOCK:   -5.50 KCAL/MOL
REMARK 923 INTER-LIGAND FREE ENERGY PREDICTED BY IDOCK:   -5.32 KCAL/MOL
REMARK 924 INTRA-LIGAND FREE ENERGY PREDICTED BY IDOCK:   -0.17 KCAL/MOL
REMARK 927      BINDING AFFINITY PREDICTED BY RF-SCORE:    0.00 PKD
ROOT
HETATM    1  C   UNL     1     -12.196  13.455  65.338  1.00  0.00    -0.452 C  
HETATM    2  N   UNL     1     -12.514  14.062  66.625  1.00  0.00    -0.523 NA 
HETATM    3  H   UNL     1     -13.519  14.218  66.713  1.00  0.00     0.000 HD 
ENDROOT
BRANCH   2   4
HETATM    4  C   UNL     1     -11.998  13.291  67.780  1.00  0.00    -0.314 C  
HETATM    5  C   UNL     1     -10.814  12.398  67.372  1.00  0.00    -0.273 C  
BRANCH   4   6
HETATM    6  C   UNL     1     -11.551  14.234  68.950  1.00  0.00    -0.305 C  
HETATM    7  O   UNL     1     -10.194  13.950  69.318  1.00  0.00    -0.431 OA 
HETATM    8  H   UNL     1      -9.924  14.521  70.026  1.00  0.00     0.000 HD 
BRANCH   6   9
HETATM    9  C   UNL     1     -12.397  14.143  70.207  1.00  0.00    -0.421 A  
HETATM   10  C   UNL     1     -13.033  15.288  70.711  1.00  0.00    -0.492 A  
HETATM   11  C   UNL     1     -13.796  15.223  71.878  1.00  0.00    -0.624 A  
HETATM   12  C   UNL     1     -13.933  14.013  72.556  1.00  0.00    -0.553 A  
HETATM   13  C   UNL     1     -13.307  12.868  72.070  1.00  0.00    -0.579 A  
HETATM   14  C   UNL     1     -12.540  12.932  70.904  1.00  0.00    -0.355 A  
ENDBRANCH   6   9
ENDBRANCH   4   6
ENDBRANCH   2   4
TORSDOF 3
ENDMDL
MODEL       16
REMARK 921   NORMALIZED FREE ENERGY PREDICTED BY IDOCK:   -4.43 KCAL/MOL
REMARK 922        TOTAL FREE ENERGY PREDICTED BY IDOCK:   -5.45 KCAL/MOL
REMARK 923 INTER-LIGAND FREE ENERGY PREDICTED BY IDOCK:   -5.26 KCAL/MOL
REMARK 924 INTRA-LIGAND FREE ENERGY PREDICTED BY IDOCK:   -0.19 KCAL/MOL
REMARK 927      BINDING AFFINITY PREDICTED BY RF-SCORE:    0.00 PKD
ROOT
HETATM    1  C   UNL     1      -7.733  15.509  69.173  1.00  0.00    -0.210 C  
HETATM    2  N   UNL     1      -8.925  14.670  69.189  1.00  0.00    -0.370 NA 
HETATM    3  H   UNL     1      -8.946  14.084  70.024  1.00  0.00     0.000 HD 
ENDROOT
BRANCH   2   4
HETATM    4  C   UNL     1     -10.185  15.440  69.055  1.00  0.00    -0.233 C  
HETATM    5  C   UNL     1     -10.369  15.965  67.622  1.00  0.00    -0.281 C  
BRANCH   4   6
HETATM    6  C   UNL     1     -11.432  14.578  69.451  1.00  0.00    -0.285 C  
HETATM    7  O   UNL     1     -12.512  14.831  68.541  1.00  0.00    -0.582 OA 
HETATM    8  H   UNL     1     -13.268  14.308  68.782  1.00  0.00     0.000 HD 
BRANCH   6   9
HETATM    9  C   UNL     1     -11.953  14.810  70.859  1.00  0.00    -0.384 A  
HETATM   10  C   UNL     1     -12.889  13.926  71.416  1.00  0.00    -0.439 A  
HETATM   11  C   UNL     1     -13.392  14.138  72.701  1.00  0.00    -0.638 A  
HETATM   12  C   UNL     1     -12.966  15.238  73.444  1.00  0.00    -0.656 A  
HETATM   13  C   UNL     1     -12.039  16.126  72.904  1.00  0.00    -0.643 A  
HETATM   14  C   UNL     1     -11.537  15.916  71.617  1.00  0.00    -0.541 A  
ENDBRANCH   6   9
ENDBRANCH   4   6
ENDBRANCH   2   4
TORSDOF 3
ENDMDL
MODEL       17
REMARK 921   NORMALIZED FREE ENERGY PREDICTED BY IDOCK:   -4.43 KCAL/MOL
REMARK 922        TOTAL FREE ENERGY PREDICTED BY IDOCK:   -5.45 KCAL/MOL
REMARK 923 INTER-LIGAND FREE ENERGY PREDICTED BY IDOCK:   -5.39 KCAL/MOL
REMARK 924 INTRA-LIGAND FREE ENERGY PREDICTED BY IDOCK:   -0.06 KCAL/MOL
REMARK 927      BINDING AFFINITY PREDICTED BY RF-SCORE:    0.00 PKD
ROOT
HETATM    1  C   UNL     1      -9.371  10.981  62.955  1.00  0.00    -0.361 C  
HETATM    2  N   UNL     1     -10.609  11.746  62.865  1.00  0.00    -0.639 NA 
HETATM    3  H   UNL     1     -11.128  11.498  62.023  1.00  0.00     0.000 HD 
ENDROOT
BRANCH   2   4
HETATM    4  C   UNL     1     -11.465  11.617  64.068  1.00  0.00    -0.316 C  
HETATM    5  C   UNL     1     -10.633  11.263  65.312  1.00  0.00    -0.323 C  
BRANCH   4   6
HETATM    6  C   UNL     1     -12.271  12.932  64.347  1.00  0.00    -0.417 C  
HETATM    7  O   UNL     1     -12.433  13.675  63.131  1.00  0.00    -1.033 OA 
HETATM    8  H   UNL     1     -12.921  14.472  63.300  1.00  0.00     0.000 HD 
BRANCH   6   9
HETATM    9  C   UNL     1     -11.650  13.860  65.374  1.00  0.00    -0.331 A  
HETATM   10  C   UNL     1     -12.144  13.887  66.688  1.00  0.00    -0.485 A  
HETATM   11  C   UNL     1     -11.596  14.751  67.637  1.00  0.00    -0.374 A  
HETATM   12  C   UNL     1     -10.548  15.600  67.285  1.00  0.00    -0.305 A  
HETATM   13  C   UNL     1     -10.048  15.588  65.985  1.00  0.00    -0.354 A  
HETATM   14  C   UNL     1     -10.597  14.725  65.033  1.00  0.00    -0.452 A  
ENDBRANCH   6   9
ENDBRANCH   4   6
ENDBRANCH   2   4
TORSDOF 3
ENDMDL
MODEL       18
REMARK 921   NORMALIZED FREE ENERGY PREDICTED BY IDOCK:   -4.41 KCAL/MOL
REMARK 922        TOTAL FREE ENERGY PREDICTED BY IDOCK:   -5.43 KCAL/MOL
REMARK 923 INTER-LIGAND FREE ENERGY PREDICTED BY IDOCK:   -5.25 KCAL/MOL
REMARK 924 INTRA-LIGAND FREE ENERGY PREDICTED BY IDOCK:   -0.18 KCAL/MOL
REMARK 927      BINDING AFFINITY PREDICTED BY RF-SCORE:    0.00 PKD
ROOT
HETATM    1  C   UNL     1     -10.041  17.714  66.708  1.00  0.00    -0.334 C  
HETATM    2  N   UNL     1     -10.380  17.635  68.124  1.00  0.00    -0.367 NA 
HETATM    3  H   UNL     1     -10.859  18.482  68.430  1.00  0.00     0.000 HD 
ENDROOT
BRANCH   2   4
HETATM    4  C   UNL     1     -11.168  16.429  68.472  1.00  0.00    -0.334 C  
HETATM    5  C   UNL     1     -11.018  15.335  67.401  1.00  0.00    -0.321 C  
BRANCH   4   6
HETATM    6  C   UNL     1     -10.746  15.846  69.864  1.00  0.00    -0.334 C  
HETATM    7  O   UNL     1     -10.183  14.537  69.697  1.00  0.00    -0.426 OA 
HETATM    8  H   UNL     1      -9.927  14.184  70.542  1.00  0.00     0.000 HD 
BRANCH   6   9
HETATM    9  C   UNL     1     -11.868  15.738  70.882  1.00  0.00    -0.451 A  
HETATM   10  C   UNL     1     -11.680  16.213  72.188  1.00  0.00    -0.569 A  
HETATM   11  C   UNL     1     -12.695  16.101  73.140  1.00  0.00    -0.578 A  
HETATM   12  C   UNL     1     -13.910  15.511  72.797  1.00  0.00    -0.606 A  
HETATM   13  C   UNL     1     -14.112  15.032  71.505  1.00  0.00    -0.613 A  
HETATM   14  C   UNL     1     -13.096  15.141  70.552  1.00  0.00    -0.320 A  
ENDBRANCH   6   9
ENDBRANCH   4   6
ENDBRANCH   2   4
TORSDOF 3
ENDMDL
MODEL       19
REMARK 921   NORMALIZED FREE ENERGY PREDICTED BY IDOCK:   -4.40 KCAL/MOL
REMARK 922        TOTAL FREE ENERGY PREDICTED BY IDOCK:   -5.42 KCAL/MOL
REMARK 923 INTER-LIGAND FREE ENERGY PREDICTED BY IDOCK:   -5.15 KCAL/MOL
REMARK 924 INTRA-LIGAND FREE ENERGY PREDICTED BY IDOCK:   -0.28 KCAL/MOL
REMARK 927      BINDING AFFINITY PREDICTED BY RF-SCORE:    0.00 PKD
ROOT
HETATM    1  C   UNL     1     -11.503  16.053  64.465  1.00  0.00    -0.271 C  
HETATM    2  N   UNL     1     -12.359  14.955  64.035  1.00  0.00    -1.021 NA 
HETATM    3  H   UNL     1     -12.161  14.698  63.068  1.00  0.00     0.000 HD 
ENDROOT
BRANCH   2   4
HETATM    4  C   UNL     1     -12.281  13.770  64.921  1.00  0.00    -0.415 C  
HETATM    5  C   UNL     1     -12.145  12.472  64.107  1.00  0.00    -0.530 C  
BRANCH   4   6
HETATM    6  C   UNL     1     -11.081  13.876  65.923  1.00  0.00    -0.291 C  
HETATM    7  O   UNL     1     -10.019  13.005  65.510  1.00  0.00    -0.355 OA 
HETATM    8  H   UNL     1      -9.291  13.070  66.118  1.00  0.00     0.000 HD 
BRANCH   6   9
HETATM    9  C   UNL     1     -11.417  13.541  67.365  1.00  0.00    -0.366 A  
HETATM   10  C   UNL     1     -11.416  12.205  67.795  1.00  0.00    -0.398 A  
HETATM   11  C   UNL     1     -11.743  11.881  69.113  1.00  0.00    -0.380 A  
HETATM   12  C   UNL     1     -12.076  12.888  70.017  1.00  0.00    -0.357 A  
HETATM   13  C   UNL     1     -12.083  14.219  69.606  1.00  0.00    -0.396 A  
HETATM   14  C   UNL     1     -11.759  14.544  68.286  1.00  0.00    -0.368 A  
ENDBRANCH   6   9
ENDBRANCH   4   6
ENDBRANCH   2   4
TORSDOF 3
ENDMDL
MODEL       20
REMARK 921   NORMALIZED FREE ENERGY PREDICTED BY IDOCK:   -4.38 KCAL/MOL
REMARK 922        TOTAL FREE ENERGY PREDICTED BY IDOCK:   -5.40 KCAL/MOL
REMARK 923 INTER-LIGAND FREE ENERGY PREDICTED BY IDOCK:   -5.17 KCAL/MOL
REMARK 924 INTRA-LIGAND FREE ENERGY PREDICTED BY IDOCK:   -0.23 KCAL/MOL
REMARK 927      BINDING AFFINITY PREDICTED BY RF-SCORE:    0.00 PKD
ROOT
HETATM    1  C   UNL     1     -12.579  12.123  63.459  1.00  0.00    -0.506 C  
HETATM    2  N   UNL     1     -13.022  12.635  64.751  1.00  0.00    -0.867 NA 
HETATM    3  H   UNL     1     -13.717  12.015  65.167  1.00  0.00     0.000 HD 
ENDROOT
BRANCH   2   4
HETATM    4  C   UNL     1     -11.907  12.885  65.695  1.00  0.00    -0.417 C  
HETATM    5  C   UNL     1     -11.031  11.633  65.869  1.00  0.00    -0.334 C  
BRANCH   4   6
HETATM    6  C   UNL     1     -11.008  14.079  65.223  1.00  0.00    -0.334 C  
HETATM    7  O   UNL     1      -9.687  13.609  64.920  1.00  0.00    -0.584 OA 
HETATM    8  H   UNL     1      -9.143  14.333  64.634  1.00  0.00     0.000 HD 
BRANCH   6   9
HETATM    9  C   UNL     1     -10.874  15.216  66.221  1.00  0.00    -0.333 A  
HETATM   10  C   UNL     1     -10.347  16.450  65.813  1.00  0.00    -0.388 A  
HETATM   11  C   UNL     1     -10.199  17.497  66.724  1.00  0.00    -0.327 A  
HETATM   12  C   UNL     1     -10.576  17.322  68.055  1.00  0.00    -0.394 A  
HETATM   13  C   UNL     1     -11.099  16.102  68.476  1.00  0.00    -0.357 A  
HETATM   14  C   UNL     1     -11.245  15.052  67.565  1.00  0.00    -0.333 A  
ENDBRANCH   6   9
ENDBRANCH   4   6
ENDBRANCH   2   4
TORSDOF 3
ENDMDL
MODEL       21
REMARK 921   NORMALIZED FREE ENERGY PREDICTED BY IDOCK:   -4.33 KCAL/MOL
REMARK 922        TOTAL FREE ENERGY PREDICTED BY IDOCK:   -5.34 KCAL/MOL
REMARK 923 INTER-LIGAND FREE ENERGY PREDICTED BY IDOCK:   -5.16 KCAL/MOL
REMARK 924 INTRA-LIGAND FREE ENERGY PREDICTED BY IDOCK:   -0.18 KCAL/MOL
REMARK 927      BINDING AFFINITY PREDICTED BY RF-SCORE:    0.00 PKD
ROOT
HETATM    1  C   UNL     1     -12.648  12.042  63.466  1.00  0.00    -0.507 C  
HETATM    2  N   UNL     1     -12.842  12.558  64.816  1.00  0.00    -0.820 NA 
HETATM    3  H   UNL     1     -13.401  11.912  65.374  1.00  0.00     0.000 HD 
ENDROOT
BRANCH   2   4
HETATM    4  C   UNL     1     -11.572  12.887  65.505  1.00  0.00    -0.358 C  
HETATM    5  C   UNL     1     -10.576  13.562  64.548  1.00  0.00    -0.439 C  
BRANCH   4   6
HETATM    6  C   UNL     1     -11.812  13.822  66.740  1.00  0.00    -0.420 C  
HETATM    7  O   UNL     1     -10.773  14.808  66.818  1.00  0.00    -0.297 OA 
HETATM    8  H   UNL     1     -10.919  15.374  67.567  1.00  0.00     0.000 HD 
BRANCH   6   9
HETATM    9  C   UNL     1     -11.874  13.112  68.081  1.00  0.00    -0.386 A  
HETATM   10  C   UNL     1     -11.695  11.722  68.149  1.00  0.00    -0.377 A  
HETATM   11  C   UNL     1     -11.770  11.054  69.372  1.00  0.00    -0.394 A  
HETATM   12  C   UNL     1     -12.026  11.766  70.542  1.00  0.00    -0.383 A  
HETATM   13  C   UNL     1     -12.208  13.146  70.491  1.00  0.00    -0.405 A  
HETATM   14  C   UNL     1     -12.136  13.816  69.267  1.00  0.00    -0.374 A  
ENDBRANCH   6   9
ENDBRANCH   4   6
ENDBRANCH   2   4
TORSDOF 3
ENDMDL
MODEL       22
REMARK 921   NORMALIZED FREE ENERGY PREDICTED BY IDOCK:   -4.33 KCAL/MOL
REMARK 922        TOTAL FREE ENERGY PREDICTED BY IDOCK:   -5.34 KCAL/MOL
REMARK 923 INTER-LIGAND FREE ENERGY PREDICTED BY IDOCK:   -5.08 KCAL/MOL
REMARK 924 INTRA-LIGAND FREE ENERGY PREDICTED BY IDOCK:   -0.27 KCAL/MOL
REMARK 927      BINDING AFFINITY PREDICTED BY RF-SCORE:    0.00 PKD
ROOT
HETATM    1  C   UNL     1      -8.717  14.402  68.692  1.00  0.00    -0.164 C  
HETATM    2  N   UNL     1      -8.824  15.835  68.943  1.00  0.00    -0.203 NA 
HETATM    3  H   UNL     1      -8.400  16.368  68.183  1.00  0.00     0.000 HD 
ENDROOT
BRANCH   2   4
HETATM    4  C   UNL     1     -10.215  16.284  69.188  1.00  0.00    -0.266 C  
HETATM    5  C   UNL     1     -10.736  17.148  68.028  1.00  0.00    -0.372 C  
BRANCH   4   6
HETATM    6  C   UNL     1     -11.184  15.071  69.401  1.00  0.00    -0.284 C  
HETATM    7  O   UNL     1     -12.192  15.063  68.380  1.00  0.00    -0.573 OA 
HETATM    8  H   UNL     1     -12.779  14.328  68.510  1.00  0.00     0.000 HD 
BRANCH   6   9
HETATM    9  C   UNL     1     -11.891  15.042  70.745  1.00  0.00    -0.372 A  
HETATM   10  C   UNL     1     -11.740  16.110  71.642  1.00  0.00    -0.558 A  
HETATM   11  C   UNL     1     -12.367  16.086  72.889  1.00  0.00    -0.609 A  
HETATM   12  C   UNL     1     -13.151  14.994  73.255  1.00  0.00    -0.607 A  
HETATM   13  C   UNL     1     -13.309  13.924  72.377  1.00  0.00    -0.629 A  
HETATM   14  C   UNL     1     -12.680  13.945  71.129  1.00  0.00    -0.441 A  
ENDBRANCH   6   9
ENDBRANCH   4   6
ENDBRANCH   2   4
TORSDOF 3
ENDMDL
MODEL       23
REMARK 921   NORMALIZED FREE ENERGY PREDICTED BY IDOCK:   -4.33 KCAL/MOL
REMARK 922        TOTAL FREE ENERGY PREDICTED BY IDOCK:   -5.34 KCAL/MOL
REMARK 923 INTER-LIGAND FREE ENERGY PREDICTED BY IDOCK:   -5.15 KCAL/MOL
REMARK 924 INTRA-LIGAND FREE ENERGY PREDICTED BY IDOCK:   -0.18 KCAL/MOL
REMARK 927      BINDING AFFINITY PREDICTED BY RF-SCORE:    0.00 PKD
ROOT
HETATM    1  C   UNL     1     -10.086  11.253  65.830  1.00  0.00    -0.247 C  
HETATM    2  N   UNL     1      -9.713  12.516  65.203  1.00  0.00    -0.465 NA 
HETATM    3  H   UNL     1      -8.761  12.472  64.837  1.00  0.00     0.000 HD 
ENDROOT
BRANCH   2   4
HETATM    4  C   UNL     1     -10.662  12.952  64.152  1.00  0.00    -0.415 C  
HETATM    5  C   UNL     1     -11.281  11.746  63.424  1.00  0.00    -0.440 C  
BRANCH   4   6
HETATM    6  C   UNL     1     -11.810  13.839  64.743  1.00  0.00    -0.391 C  
HETATM    7  O   UNL     1     -12.426  14.605  63.699  1.00  0.00    -1.070 OA 
HETATM    8  H   UNL     1     -13.122  15.143  64.058  1.00  0.00     0.000 HD 
BRANCH   6   9
HETATM    9  C   UNL     1     -11.378  14.808  65.830  1.00  0.00    -0.331 A  
HETATM   10  C   UNL     1     -10.536  15.885  65.518  1.00  0.00    -0.425 A  
HETATM   11  C   UNL     1     -10.114  16.771  66.511  1.00  0.00    -0.322 A  
HETATM   12  C   UNL     1     -10.528  16.590  67.829  1.00  0.00    -0.308 A  
HETATM   13  C   UNL     1     -11.363  15.524  68.156  1.00  0.00    -0.348 A  
HETATM   14  C   UNL     1     -11.784  14.635  67.164  1.00  0.00    -0.392 A  
ENDBRANCH   6   9
ENDBRANCH   4   6
ENDBRANCH   2   4
TORSDOF 3
ENDMDL
MODEL       24
REMARK 921   NORMALIZED FREE ENERGY PREDICTED BY IDOCK:   -4.29 KCAL/MOL
REMARK 922        TOTAL FREE ENERGY PREDICTED BY IDOCK:   -5.29 KCAL/MOL
REMARK 923 INTER-LIGAND FREE ENERGY PREDICTED BY IDOCK:   -5.14 KCAL/MOL
REMARK 924 INTRA-LIGAND FREE ENERGY PREDICTED BY IDOCK:   -0.15 KCAL/MOL
REMARK 927      BINDING AFFINITY PREDICTED BY RF-SCORE:    0.00 PKD
ROOT
HETATM    1  C   UNL     1     -12.592  12.049  63.414  1.00  0.00    -0.469 C  
HETATM    2  N   UNL     1     -13.076  12.624  64.663  1.00  0.00    -0.848 NA 
HETATM    3  H   UNL     1     -13.721  11.985  65.129  1.00  0.00     0.000 HD 
ENDROOT
BRANCH   2   4
HETATM    4  C   UNL     1     -11.987  13.035  65.579  1.00  0.00    -0.424 C  
HETATM    5  C   UNL     1     -10.969  11.901  65.782  1.00  0.00    -0.359 C  
BRANCH   4   6
HETATM    6  C   UNL     1     -11.240  14.308  65.052  1.00  0.00    -0.364 C  
HETATM    7  O   UNL     1     -10.003  13.930  64.433  1.00  0.00    -0.719 OA 
HETATM    8  H   UNL     1      -9.550  14.702  64.114  1.00  0.00     0.000 HD 
BRANCH   6   9
HETATM    9  C   UNL     1     -10.925  15.352  66.110  1.00  0.00    -0.279 A  
HETATM   10  C   UNL     1     -11.187  15.084  67.462  1.00  0.00    -0.333 A  
HETATM   11  C   UNL     1     -10.922  16.043  68.441  1.00  0.00    -0.331 A  
HETATM   12  C   UNL     1     -10.392  17.280  68.082  1.00  0.00    -0.357 A  
HETATM   13  C   UNL     1     -10.127  17.562  66.744  1.00  0.00    -0.320 A  
HETATM   14  C   UNL     1     -10.395  16.605  65.761  1.00  0.00    -0.338 A  
ENDBRANCH   6   9
ENDBRANCH   4   6
ENDBRANCH   2   4
TORSDOF 3
ENDMDL
MODEL       25
REMARK 921   NORMALIZED FREE ENERGY PREDICTED BY IDOCK:   -4.28 KCAL/MOL
REMARK 922        TOTAL FREE ENERGY PREDICTED BY IDOCK:   -5.28 KCAL/MOL
REMARK 923 INTER-LIGAND FREE ENERGY PREDICTED BY IDOCK:   -5.05 KCAL/MOL
REMARK 924 INTRA-LIGAND FREE ENERGY PREDICTED BY IDOCK:   -0.23 KCAL/MOL
REMARK 927      BINDING AFFINITY PREDICTED BY RF-SCORE:    0.00 PKD
ROOT
HETATM    1  C   UNL     1     -11.849  13.331  67.552  1.00  0.00    -0.358 C  
HETATM    2  N   UNL     1     -12.547  14.051  66.493  1.00  0.00    -0.503 NA 
HETATM    3  H   UNL     1     -13.008  14.882  66.864  1.00  0.00     0.000 HD 
ENDROOT
BRANCH   2   4
HETATM    4  C   UNL     1     -11.673  14.400  65.348  1.00  0.00    -0.362 C  
HETATM    5  C   UNL     1     -12.158  13.730  64.051  1.00  0.00    -0.448 C  
BRANCH   4   6
HETATM    6  C   UNL     1     -11.602  15.951  65.129  1.00  0.00     0.126 C  
HETATM    7  O   UNL     1     -11.626  16.249  63.726  1.00  0.00    -1.539 OA 
HETATM    8  H   UNL     1     -11.582  17.189  63.594  1.00  0.00     0.000 HD 
BRANCH   6   9
HETATM    9  C   UNL     1     -10.379  16.627  65.722  1.00  0.00    -0.338 A  
HETATM   10  C   UNL     1     -10.407  18.000  66.013  1.00  0.00    -0.333 A  
HETATM   11  C   UNL     1      -9.283  18.639  66.539  1.00  0.00    -0.322 A  
HETATM   12  C   UNL     1      -8.117  17.915  66.781  1.00  0.00    -0.262 A  
HETATM   13  C   UNL     1      -8.073  16.552  66.496  1.00  0.00    -0.341 A  
HETATM   14  C   UNL     1      -9.196  15.911  65.966  1.00  0.00    -0.372 A  
ENDBRANCH   6   9
ENDBRANCH   4   6
ENDBRANCH   2   4
TORSDOF 3
ENDMDL
MODEL       26
REMARK 921   NORMALIZED FREE ENERGY PREDICTED BY IDOCK:   -4.28 KCAL/MOL
REMARK 922        TOTAL FREE ENERGY PREDICTED BY IDOCK:   -5.28 KCAL/MOL
REMARK 923 INTER-LIGAND FREE ENERGY PREDICTED BY IDOCK:   -5.03 KCAL/MOL
REMARK 924 INTRA-LIGAND FREE ENERGY PREDICTED BY IDOCK:   -0.25 KCAL/MOL
REMARK 927      BINDING AFFINITY PREDICTED BY RF-SCORE:    0.00 PKD
ROOT
HETATM    1  C   UNL     1      -8.771  13.992  67.023  1.00  0.00    -0.203 C  
HETATM    2  N   UNL     1      -9.522  14.460  65.865  1.00  0.00    -0.515 NA 
HETATM    3  H   UNL     1      -9.664  13.704  65.195  1.00  0.00     0.000 HD 
ENDROOT
BRANCH   2   4
HETATM    4  C   UNL     1     -10.812  15.097  66.221  1.00  0.00    -0.333 C  
HETATM    5  C   UNL     1     -11.940  14.056  66.322  1.00  0.00    -0.454 C  
BRANCH   4   6
HETATM    6  C   UNL     1     -10.715  15.880  67.575  1.00  0.00    -0.318 C  
HETATM    7  O   UNL     1     -11.919  15.701  68.334  1.00  0.00    -0.481 OA 
HETATM    8  H   UNL     1     -11.858  16.175  69.155  1.00  0.00     0.000 HD 
BRANCH   6   9
HETATM    9  C   UNL     1     -10.475  17.373  67.438  1.00  0.00    -0.336 A  
HETATM   10  C   UNL     1     -10.539  17.982  66.176  1.00  0.00    -0.269 A  
HETATM   11  C   UNL     1     -10.301  19.350  66.032  1.00  0.00    -0.584 A  
HETATM   12  C   UNL     1      -9.995  20.126  67.149  1.00  0.00    -0.595 A  
HETATM   13  C   UNL     1      -9.926  19.536  68.409  1.00  0.00    -0.540 A  
HETATM   14  C   UNL     1     -10.161  18.166  68.553  1.00  0.00    -0.399 A  
ENDBRANCH   6   9
ENDBRANCH   4   6
ENDBRANCH   2   4
TORSDOF 3
ENDMDL
MODEL       27
REMARK 921   NORMALIZED FREE ENERGY PREDICTED BY IDOCK:   -4.27 KCAL/MOL
REMARK 922        TOTAL FREE ENERGY PREDICTED BY IDOCK:   -5.27 KCAL/MOL
REMARK 923 INTER-LIGAND FREE ENERGY PREDICTED BY IDOCK:   -5.14 KCAL/MOL
REMARK 924 INTRA-LIGAND FREE ENERGY PREDICTED BY IDOCK:   -0.13 KCAL/MOL
REMARK 927      BINDING AFFINITY PREDICTED BY RF-SCORE:    0.00 PKD
ROOT
HETATM    1  C   UNL     1     -10.437  12.050  63.461  1.00  0.00    -0.464 C  
HETATM    2  N   UNL     1      -9.928  13.291  64.032  1.00  0.00    -0.750 NA 
HETATM    3  H   UNL     1      -9.603  13.921  63.298  1.00  0.00     0.000 HD 
ENDROOT
BRANCH   2   4
HETATM    4  C   UNL     1     -10.903  13.973  64.916  1.00  0.00    -0.410 C  
HETATM    5  C   UNL     1     -12.252  14.179  64.207  1.00  0.00    -0.449 C  
BRANCH   4   6
HETATM    6  C   UNL     1     -11.137  13.171  66.243  1.00  0.00    -0.287 C  
HETATM    7  O   UNL     1     -12.297  12.337  66.113  1.00  0.00    -0.588 OA 
HETATM    8  H   UNL     1     -12.438  11.852  66.918  1.00  0.00     0.000 HD 
BRANCH   6   9
HETATM    9  C   UNL     1     -11.320  14.024  67.485  1.00  0.00    -0.343 A  
HETATM   10  C   UNL     1     -11.848  13.458  68.655  1.00  0.00    -0.397 A  
HETATM   11  C   UNL     1     -12.042  14.236  69.798  1.00  0.00    -0.401 A  
HETATM   12  C   UNL     1     -11.710  15.590  69.785  1.00  0.00    -0.362 A  
HETATM   13  C   UNL     1     -11.187  16.167  68.631  1.00  0.00    -0.369 A  
HETATM   14  C   UNL     1     -10.996  15.391  67.485  1.00  0.00    -0.315 A  
ENDBRANCH   6   9
ENDBRANCH   4   6
ENDBRANCH   2   4
TORSDOF 3
ENDMDL
MODEL       28
REMARK 921   NORMALIZED FREE ENERGY PREDICTED BY IDOCK:   -4.26 KCAL/MOL
REMARK 922        TOTAL FREE ENERGY PREDICTED BY IDOCK:   -5.25 KCAL/MOL
REMARK 923 INTER-LIGAND FREE ENERGY PREDICTED BY IDOCK:   -4.97 KCAL/MOL
REMARK 924 INTRA-LIGAND FREE ENERGY PREDICTED BY IDOCK:   -0.28 KCAL/MOL
REMARK 927      BINDING AFFINITY PREDICTED BY RF-SCORE:    0.00 PKD
ROOT
HETATM    1  C   UNL     1      -8.729  12.252  68.060  1.00  0.00    -0.181 C  
HETATM    2  N   UNL     1      -9.560  13.102  67.216  1.00  0.00    -0.226 NA 
HETATM    3  H   UNL     1      -9.443  12.860  66.231  1.00  0.00     0.000 HD 
ENDROOT
BRANCH   2   4
HETATM    4  C   UNL     1     -10.992  13.084  67.595  1.00  0.00    -0.254 C  
HETATM    5  C   UNL     1     -11.893  12.872  66.367  1.00  0.00    -0.478 C  
BRANCH   4   6
HETATM    6  C   UNL     1     -11.295  11.968  68.653  1.00  0.00    -0.277 C  
HETATM    7  O   UNL     1     -12.072  10.922  68.054  1.00  0.00    -0.780 OA 
HETATM    8  H   UNL     1     -12.255  10.246  68.695  1.00  0.00     0.000 HD 
BRANCH   6   9
HETATM    9  C   UNL     1     -12.036  12.440  69.891  1.00  0.00    -0.369 A  
HETATM   10  C   UNL     1     -12.233  13.812  70.112  1.00  0.00    -0.425 A  
HETATM   11  C   UNL     1     -12.894  14.261  71.257  1.00  0.00    -0.422 A  
HETATM   12  C   UNL     1     -13.365  13.344  72.195  1.00  0.00    -0.613 A  
HETATM   13  C   UNL     1     -13.175  11.980  71.992  1.00  0.00    -0.481 A  
HETATM   14  C   UNL     1     -12.511  11.529  70.848  1.00  0.00    -0.464 A  
ENDBRANCH   6   9
ENDBRANCH   4   6
ENDBRANCH   2   4
TORSDOF 3
ENDMDL
MODEL       29
REMARK 921   NORMALIZED FREE ENERGY PREDICTED BY IDOCK:   -4.25 KCAL/MOL
REMARK 922        TOTAL FREE ENERGY PREDICTED BY IDOCK:   -5.25 KCAL/MOL
REMARK 923 INTER-LIGAND FREE ENERGY PREDICTED BY IDOCK:   -5.02 KCAL/MOL
REMARK 924 INTRA-LIGAND FREE ENERGY PREDICTED BY IDOCK:   -0.23 KCAL/MOL
REMARK 927      BINDING AFFINITY PREDICTED BY RF-SCORE:    0.00 PKD
ROOT
HETATM    1  C   UNL     1      -7.647  17.246  67.366  1.00  0.00    -0.182 C  
HETATM    2  N   UNL     1      -8.277  17.334  66.054  1.00  0.00    -0.533 NA 
HETATM    3  H   UNL     1      -7.877  16.649  65.413  1.00  0.00     0.000 HD 
ENDROOT
BRANCH   2   4
HETATM    4  C   UNL     1      -9.753  17.209  66.104  1.00  0.00    -0.242 C  
HETATM    5  C   UNL     1     -10.435  18.583  65.986  1.00  0.00    -0.433 C  
BRANCH   4   6
HETATM    6  C   UNL     1     -10.291  16.270  64.971  1.00  0.00     0.008 C  
HETATM    7  O   UNL     1     -11.295  16.950  64.205  1.00  0.00    -1.389 OA 
HETATM    8  H   UNL     1     -11.620  16.380  63.518  1.00  0.00     0.000 HD 
BRANCH   6   9
HETATM    9  C   UNL     1     -10.890  14.960  65.453  1.00  0.00    -0.379 A  
HETATM   10  C   UNL     1     -11.622  14.154  64.568  1.00  0.00    -0.400 A  
HETATM   11  C   UNL     1     -12.196  12.958  65.002  1.00  0.00    -0.515 A  
HETATM   12  C   UNL     1     -12.045  12.553  66.328  1.00  0.00    -0.315 A  
HETATM   13  C   UNL     1     -11.323  13.343  67.219  1.00  0.00    -0.348 A  
HETATM   14  C   UNL     1     -10.751  14.542  66.786  1.00  0.00    -0.291 A  
ENDBRANCH   6   9
ENDBRANCH   4   6
ENDBRANCH   2   4
TORSDOF 3
ENDMDL
MODEL       30
REMARK 921   NORMALIZED FREE ENERGY PREDICTED BY IDOCK:   -4.25 KCAL/MOL
REMARK 922        TOTAL FREE ENERGY PREDICTED BY IDOCK:   -5.24 KCAL/MOL
REMARK 923 INTER-LIGAND FREE ENERGY PREDICTED BY IDOCK:   -5.06 KCAL/MOL
REMARK 924 INTRA-LIGAND FREE ENERGY PREDICTED BY IDOCK:   -0.18 KCAL/MOL
REMARK 927      BINDING AFFINITY PREDICTED BY RF-SCORE:    0.00 PKD
ROOT
HETATM    1  C   UNL     1     -11.796  11.311  68.980  1.00  0.00    -0.352 C  
HETATM    2  N   UNL     1     -12.759  10.418  69.612  1.00  0.00    -0.614 NA 
HETATM    3  H   UNL     1     -12.766   9.507  69.152  1.00  0.00     0.000 HD 
ENDROOT
BRANCH   2   4
HETATM    4  C   UNL     1     -12.548  10.267  71.072  1.00  0.00    -0.390 C  
HETATM    5  C   UNL     1     -13.206  11.418  71.853  1.00  0.00    -0.485 C  
BRANCH   4   6
HETATM    6  C   UNL     1     -13.109   8.902  71.598  1.00  0.00    -0.357 C  
HETATM    7  O   UNL     1     -13.764   9.095  72.860  1.00  0.00    -0.847 OA 
HETATM    8  H   UNL     1     -14.105   8.267  73.178  1.00  0.00     0.000 HD 
BRANCH   6   9
HETATM    9  C   UNL     1     -12.072   7.809  71.781  1.00  0.00    -0.332 A  
HETATM   10  C   UNL     1     -11.261   7.794  72.926  1.00  0.00    -0.434 A  
HETATM   11  C   UNL     1     -10.289   6.807  73.097  1.00  0.00    -0.270 A  
HETATM   12  C   UNL     1     -10.115   5.823  72.125  1.00  0.00    -0.219 A  
HETATM   13  C   UNL     1     -10.910   5.825  70.982  1.00  0.00    -0.316 A  
HETATM   14  C   UNL     1     -11.882   6.815  70.808  1.00  0.00    -0.446 A  
ENDBRANCH   6   9
ENDBRANCH   4   6
ENDBRANCH   2   4
TORSDOF 3
ENDMDL
MODEL       31
REMARK 921   NORMALIZED FREE ENERGY PREDICTED BY IDOCK:   -4.23 KCAL/MOL
REMARK 922        TOTAL FREE ENERGY PREDICTED BY IDOCK:   -5.23 KCAL/MOL
REMARK 923 INTER-LIGAND FREE ENERGY PREDICTED BY IDOCK:   -4.98 KCAL/MOL
REMARK 924 INTRA-LIGAND FREE ENERGY PREDICTED BY IDOCK:   -0.25 KCAL/MOL
REMARK 927      BINDING AFFINITY PREDICTED BY RF-SCORE:    0.00 PKD
ROOT
HETATM    1  C   UNL     1     -11.634  11.096  69.190  1.00  0.00    -0.324 C  
HETATM    2  N   UNL     1     -10.964  12.047  68.311  1.00  0.00    -0.219 NA 
HETATM    3  H   UNL     1     -11.464  12.137  67.426  1.00  0.00     0.000 HD 
ENDROOT
BRANCH   2   4
HETATM    4  C   UNL     1     -10.755  13.375  68.935  1.00  0.00    -0.190 C  
HETATM    5  C   UNL     1      -9.901  14.286  68.037  1.00  0.00    -0.224 C  
BRANCH   4   6
HETATM    6  C   UNL     1     -12.116  14.088  69.243  1.00  0.00    -0.338 C  
HETATM    7  O   UNL     1     -12.224  15.293  68.472  1.00  0.00    -0.572 OA 
HETATM    8  H   UNL     1     -13.049  15.725  68.659  1.00  0.00     0.000 HD 
BRANCH   6   9
HETATM    9  C   UNL     1     -12.334  14.454  70.700  1.00  0.00    -0.422 A  
HETATM   10  C   UNL     1     -11.739  15.608  71.232  1.00  0.00    -0.478 A  
HETATM   11  C   UNL     1     -11.914  15.944  72.576  1.00  0.00    -0.622 A  
HETATM   12  C   UNL     1     -12.685  15.131  73.404  1.00  0.00    -0.661 A  
HETATM   13  C   UNL     1     -13.280  13.980  72.892  1.00  0.00    -0.502 A  
HETATM   14  C   UNL     1     -13.104  13.641  71.548  1.00  0.00    -0.431 A  
ENDBRANCH   6   9
ENDBRANCH   4   6
ENDBRANCH   2   4
TORSDOF 3
ENDMDL
MODEL       32
REMARK 921   NORMALIZED FREE ENERGY PREDICTED BY IDOCK:   -4.23 KCAL/MOL
REMARK 922        TOTAL FREE ENERGY PREDICTED BY IDOCK:   -5.22 KCAL/MOL
REMARK 923 INTER-LIGAND FREE ENERGY PREDICTED BY IDOCK:   -5.00 KCAL/MOL
REMARK 924 INTRA-LIGAND FREE ENERGY PREDICTED BY IDOCK:   -0.22 KCAL/MOL
REMARK 927      BINDING AFFINITY PREDICTED BY RF-SCORE:    0.00 PKD
ROOT
HETATM    1  C   UNL     1     -12.433  12.166  63.696  1.00  0.00    -0.549 C  
HETATM    2  N   UNL     1     -12.960  12.781  64.907  1.00  0.00    -0.853 NA 
HETATM    3  H   UNL     1     -13.825  12.325  65.199  1.00  0.00     0.000 HD 
ENDROOT
BRANCH   2   4
HETATM    4  C   UNL     1     -11.983  12.815  66.021  1.00  0.00    -0.432 C  
HETATM    5  C   UNL     1     -10.638  12.197  65.602  1.00  0.00    -0.297 C  
BRANCH   4   6
HETATM    6  C   UNL     1     -11.740  14.277  66.531  1.00  0.00    -0.394 C  
HETATM    7  O   UNL     1     -10.463  14.749  66.078  1.00  0.00    -0.280 OA 
HETATM    8  H   UNL     1     -10.317  15.635  66.388  1.00  0.00     0.000 HD 
BRANCH   6   9
HETATM    9  C   UNL     1     -11.784  14.446  68.039  1.00  0.00    -0.374 A  
HETATM   10  C   UNL     1     -11.515  15.697  68.615  1.00  0.00    -0.381 A  
HETATM   11  C   UNL     1     -11.531  15.862  70.001  1.00  0.00    -0.354 A  
HETATM   12  C   UNL     1     -11.815  14.778  70.829  1.00  0.00    -0.370 A  
HETATM   13  C   UNL     1     -12.083  13.529  70.274  1.00  0.00    -0.425 A  
HETATM   14  C   UNL     1     -12.064  13.361  68.887  1.00  0.00    -0.289 A  
ENDBRANCH   6   9
ENDBRANCH   4   6
ENDBRANCH   2   4
TORSDOF 3
ENDMDL
MODEL       33
REMARK 921   NORMALIZED FREE ENERGY PREDICTED BY IDOCK:   -4.21 KCAL/MOL
REMARK 922        TOTAL FREE ENERGY PREDICTED BY IDOCK:   -5.20 KCAL/MOL
REMARK 923 INTER-LIGAND FREE ENERGY PREDICTED BY IDOCK:   -5.01 KCAL/MOL
REMARK 924 INTRA-LIGAND FREE ENERGY PREDICTED BY IDOCK:   -0.19 KCAL/MOL
REMARK 927      BINDING AFFINITY PREDICTED BY RF-SCORE:    0.00 PKD
ROOT
HETATM    1  C   UNL     1     -11.896  12.655  66.490  1.00  0.00    -0.396 C  
HETATM    2  N   UNL     1     -12.024  11.660  67.548  1.00  0.00    -0.621 NA 
HETATM    3  H   UNL     1     -11.733  10.740  67.217  1.00  0.00     0.000 HD 
ENDROOT
BRANCH   2   4
HETATM    4  C   UNL     1     -11.301  12.028  68.788  1.00  0.00    -0.278 C  
HETATM    5  C   UNL     1     -10.667  13.424  68.673  1.00  0.00    -0.275 C  
BRANCH   4   6
HETATM    6  C   UNL     1     -12.245  11.994  70.039  1.00  0.00    -0.206 C  
HETATM    7  O   UNL     1     -11.991  13.130  70.876  1.00  0.00    -0.484 OA 
HETATM    8  H   UNL     1     -12.564  13.109  71.634  1.00  0.00     0.000 HD 
BRANCH   6   9
HETATM    9  C   UNL     1     -12.124  10.750  70.902  1.00  0.00    -0.475 A  
HETATM   10  C   UNL     1     -10.977   9.946  70.818  1.00  0.00    -0.407 A  
HETATM   11  C   UNL     1     -10.862   8.788  71.590  1.00  0.00    -0.399 A  
HETATM   12  C   UNL     1     -11.892   8.420  72.454  1.00  0.00    -0.452 A  
HETATM   13  C   UNL     1     -13.038   9.208  72.547  1.00  0.00    -0.445 A  
HETATM   14  C   UNL     1     -13.156  10.365  71.773  1.00  0.00    -0.567 A  
ENDBRANCH   6   9
ENDBRANCH   4   6
ENDBRANCH   2   4
TORSDOF 3
ENDMDL
MODEL       34
REMARK 921   NORMALIZED FREE ENERGY PREDICTED BY IDOCK:   -4.20 KCAL/MOL
REMARK 922        TOTAL FREE ENERGY PREDICTED BY IDOCK:   -5.19 KCAL/MOL
REMARK 923 INTER-LIGAND FREE ENERGY PREDICTED BY IDOCK:   -4.93 KCAL/MOL
REMARK 924 INTRA-LIGAND FREE ENERGY PREDICTED BY IDOCK:   -0.26 KCAL/MOL
REMARK 927      BINDING AFFINITY PREDICTED BY RF-SCORE:    0.00 PKD
ROOT
HETATM    1  C   UNL     1     -12.626  12.016  63.394  1.00  0.00    -0.469 C  
HETATM    2  N   UNL     1     -12.112  13.375  63.514  1.00  0.00    -0.828 NA 
HETATM    3  H   UNL     1     -12.858  14.058  63.385  1.00  0.00     0.000 HD 
ENDROOT
BRANCH   2   4
HETATM    4  C   UNL     1     -11.390  13.618  64.786  1.00  0.00    -0.354 C  
HETATM    5  C   UNL     1     -10.857  15.059  64.859  1.00  0.00    -0.430 C  
BRANCH   4   6
HETATM    6  C   UNL     1     -12.304  13.345  66.029  1.00  0.00    -0.413 C  
HETATM    7  O   UNL     1     -12.576  14.573  66.717  1.00  0.00    -0.494 OA 
HETATM    8  H   UNL     1     -13.131  14.407  67.471  1.00  0.00     0.000 HD 
BRANCH   6   9
HETATM    9  C   UNL     1     -11.735  12.366  67.042  1.00  0.00    -0.423 A  
HETATM   10  C   UNL     1     -11.074  11.208  66.605  1.00  0.00    -0.255 A  
HETATM   11  C   UNL     1     -10.565  10.290  67.525  1.00  0.00    -0.320 A  
HETATM   12  C   UNL     1     -10.712  10.517  68.893  1.00  0.00    -0.253 A  
HETATM   13  C   UNL     1     -11.368  11.661  69.342  1.00  0.00    -0.342 A  
HETATM   14  C   UNL     1     -11.880  12.580  68.422  1.00  0.00    -0.353 A  
ENDBRANCH   6   9
ENDBRANCH   4   6
ENDBRANCH   2   4
TORSDOF 3
ENDMDL
MODEL       35
REMARK 921   NORMALIZED FREE ENERGY PREDICTED BY IDOCK:   -4.20 KCAL/MOL
REMARK 922        TOTAL FREE ENERGY PREDICTED BY IDOCK:   -5.19 KCAL/MOL
REMARK 923 INTER-LIGAND FREE ENERGY PREDICTED BY IDOCK:   -4.98 KCAL/MOL
REMARK 924 INTRA-LIGAND FREE ENERGY PREDICTED BY IDOCK:   -0.21 KCAL/MOL
REMARK 927      BINDING AFFINITY PREDICTED BY RF-SCORE:    0.00 PKD
ROOT
HETATM    1  C   UNL     1     -10.917  15.713  68.650  1.00  0.00    -0.294 C  
HETATM    2  N   UNL     1     -10.223  15.681  67.368  1.00  0.00    -0.259 NA 
HETATM    3  H   UNL     1     -10.093  14.720  67.050  1.00  0.00     0.000 HD 
ENDROOT
BRANCH   2   4
HETATM    4  C   UNL     1     -10.885  16.497  66.323  1.00  0.00    -0.037 C  
HETATM    5  C   UNL     1     -10.377  17.948  66.341  1.00  0.00    -0.365 C  
BRANCH   4   6
HETATM    6  C   UNL     1     -10.664  15.892  64.894  1.00  0.00    -0.341 C  
HETATM    7  O   UNL     1     -11.418  16.635  63.925  1.00  0.00    -1.604 OA 
HETATM    8  H   UNL     1     -11.284  16.268  63.059  1.00  0.00     0.000 HD 
BRANCH   6   9
HETATM    9  C   UNL     1     -11.044  14.429  64.749  1.00  0.00    -0.402 A  
HETATM   10  C   UNL     1     -12.356  14.013  65.025  1.00  0.00    -0.458 A  
HETATM   11  C   UNL     1     -12.713  12.668  64.917  1.00  0.00    -0.450 A  
HETATM   12  C   UNL     1     -11.765  11.722  64.532  1.00  0.00    -0.269 A  
HETATM   13  C   UNL     1     -10.458  12.119  64.257  1.00  0.00    -0.373 A  
HETATM   14  C   UNL     1     -10.098  13.465  64.368  1.00  0.00    -0.128 A  
ENDBRANCH   6   9
ENDBRANCH   4   6
ENDBRANCH   2   4
TORSDOF 3
ENDMDL
MODEL       36
REMARK 921   NORMALIZED FREE ENERGY PREDICTED BY IDOCK:   -4.20 KCAL/MOL
REMARK 922        TOTAL FREE ENERGY PREDICTED BY IDOCK:   -5.19 KCAL/MOL
REMARK 923 INTER-LIGAND FREE ENERGY PREDICTED BY IDOCK:   -4.97 KCAL/MOL
REMARK 924 INTRA-LIGAND FREE ENERGY PREDICTED BY IDOCK:   -0.22 KCAL/MOL
REMARK 927      BINDING AFFINITY PREDICTED BY RF-SCORE:    0.00 PKD
ROOT
HETATM    1  C   UNL     1      -9.664   9.070  69.260  1.00  0.00    -0.168 C  
HETATM    2  N   UNL     1      -9.640  10.420  69.810  1.00  0.00    -0.413 NA 
HETATM    3  H   UNL     1      -8.782  10.904  69.545  1.00  0.00     0.000 HD 
ENDROOT
BRANCH   2   4
HETATM    4  C   UNL     1     -10.831  11.223  69.444  1.00  0.00    -0.189 C  
HETATM    5  C   UNL     1     -11.454  10.731  68.127  1.00  0.00    -0.346 C  
BRANCH   4   6
HETATM    6  C   UNL     1     -11.919  11.187  70.571  1.00  0.00    -0.380 C  
HETATM    7  O   UNL     1     -13.007  10.340  70.176  1.00  0.00    -0.576 OA 
HETATM    8  H   UNL     1     -13.666  10.319  70.860  1.00  0.00     0.000 HD 
BRANCH   6   9
HETATM    9  C   UNL     1     -12.501  12.539  70.946  1.00  0.00    -0.361 A  
HETATM   10  C   UNL     1     -12.205  13.671  70.171  1.00  0.00    -0.413 A  
HETATM   11  C   UNL     1     -12.716  14.923  70.516  1.00  0.00    -0.399 A  
HETATM   12  C   UNL     1     -13.529  15.060  71.640  1.00  0.00    -0.504 A  
HETATM   13  C   UNL     1     -13.830  13.947  72.421  1.00  0.00    -0.668 A  
HETATM   14  C   UNL     1     -13.317  12.693  72.078  1.00  0.00    -0.555 A  
ENDBRANCH   6   9
ENDBRANCH   4   6
ENDBRANCH   2   4
TORSDOF 3
ENDMDL
MODEL       37
REMARK 921   NORMALIZED FREE ENERGY PREDICTED BY IDOCK:   -4.16 KCAL/MOL
REMARK 922        TOTAL FREE ENERGY PREDICTED BY IDOCK:   -5.13 KCAL/MOL
REMARK 923 INTER-LIGAND FREE ENERGY PREDICTED BY IDOCK:   -4.98 KCAL/MOL
REMARK 924 INTRA-LIGAND FREE ENERGY PREDICTED BY IDOCK:   -0.16 KCAL/MOL
REMARK 927      BINDING AFFINITY PREDICTED BY RF-SCORE:    0.00 PKD
ROOT
HETATM    1  C   UNL     1     -10.460   7.716  73.113  1.00  0.00    -0.374 C  
HETATM    2  N   UNL     1     -10.684   8.670  72.034  1.00  0.00    -0.337 NA 
HETATM    3  H   UNL     1      -9.854   8.756  71.447  1.00  0.00     0.000 HD 
ENDROOT
BRANCH   2   4
HETATM    4  C   UNL     1     -11.879   8.357  71.215  1.00  0.00    -0.289 C  
HETATM    5  C   UNL     1     -12.363   6.918  71.459  1.00  0.00    -0.420 C  
BRANCH   4   6
HETATM    6  C   UNL     1     -13.055   9.351  71.507  1.00  0.00    -0.377 C  
HETATM    7  O   UNL     1     -14.247   8.909  70.843  1.00  0.00    -0.581 OA 
HETATM    8  H   UNL     1     -14.960   9.512  71.021  1.00  0.00     0.000 HD 
BRANCH   6   9
HETATM    9  C   UNL     1     -12.801  10.788  71.088  1.00  0.00    -0.513 A  
HETATM   10  C   UNL     1     -12.124  11.062  69.890  1.00  0.00    -0.435 A  
HETATM   11  C   UNL     1     -11.866  12.378  69.504  1.00  0.00    -0.368 A  
HETATM   12  C   UNL     1     -12.279  13.437  70.311  1.00  0.00    -0.405 A  
HETATM   13  C   UNL     1     -12.951  13.182  71.504  1.00  0.00    -0.412 A  
HETATM   14  C   UNL     1     -13.208  11.864  71.894  1.00  0.00    -0.467 A  
ENDBRANCH   6   9
ENDBRANCH   4   6
ENDBRANCH   2   4
TORSDOF 3
ENDMDL
MODEL       38
REMARK 921   NORMALIZED FREE ENERGY PREDICTED BY IDOCK:   -4.15 KCAL/MOL
REMARK 922        TOTAL FREE ENERGY PREDICTED BY IDOCK:   -5.13 KCAL/MOL
REMARK 923 INTER-LIGAND FREE ENERGY PREDICTED BY IDOCK:   -4.95 KCAL/MOL
REMARK 924 INTRA-LIGAND FREE ENERGY PREDICTED BY IDOCK:   -0.18 KCAL/MOL
REMARK 927      BINDING AFFINITY PREDICTED BY RF-SCORE:    0.00 PKD
ROOT
HETATM    1  C   UNL     1     -12.846  15.765  71.658  1.00  0.00    -0.448 C  
HETATM    2  N   UNL     1     -13.011  15.872  70.213  1.00  0.00    -0.693 NA 
HETATM    3  H   UNL     1     -13.308  16.812  69.951  1.00  0.00     0.000 HD 
ENDROOT
BRANCH   2   4
HETATM    4  C   UNL     1     -11.802  15.471  69.454  1.00  0.00    -0.374 C  
HETATM    5  C   UNL     1     -10.545  15.527  70.337  1.00  0.00    -0.294 C  
BRANCH   4   6
HETATM    6  C   UNL     1     -11.948  14.030  68.857  1.00  0.00    -0.352 C  
HETATM    7  O   UNL     1     -11.200  13.094  69.646  1.00  0.00    -0.450 OA 
HETATM    8  H   UNL     1     -11.289  12.221  69.284  1.00  0.00     0.000 HD 
BRANCH   6   9
HETATM    9  C   UNL     1     -11.493  13.883  67.416  1.00  0.00    -0.374 A  
HETATM   10  C   UNL     1     -10.691  14.872  66.827  1.00  0.00    -0.312 A  
HETATM   11  C   UNL     1     -10.283  14.760  65.497  1.00  0.00    -0.400 A  
HETATM   12  C   UNL     1     -10.673  13.658  64.738  1.00  0.00    -0.420 A  
HETATM   13  C   UNL     1     -11.471  12.668  65.307  1.00  0.00    -0.368 A  
HETATM   14  C   UNL     1     -11.882  12.780  66.638  1.00  0.00    -0.462 A  
ENDBRANCH   6   9
ENDBRANCH   4   6
ENDBRANCH   2   4
TORSDOF 3
ENDMDL
MODEL       39
REMARK 921   NORMALIZED FREE ENERGY PREDICTED BY IDOCK:   -4.12 KCAL/MOL
REMARK 922        TOTAL FREE ENERGY PREDICTED BY IDOCK:   -5.10 KCAL/MOL
REMARK 923 INTER-LIGAND FREE ENERGY PREDICTED BY IDOCK:   -4.85 KCAL/MOL
REMARK 924 INTRA-LIGAND FREE ENERGY PREDICTED BY IDOCK:   -0.25 KCAL/MOL
REMARK 927      BINDING AFFINITY PREDICTED BY RF-SCORE:    0.00 PKD
ROOT
HETATM    1  C   UNL     1     -13.796  13.094  72.328  1.00  0.00    -0.490 C  
HETATM    2  N   UNL     1     -14.254  14.281  71.615  1.00  0.00    -0.410 NA 
HETATM    3  H   UNL     1     -14.936  14.797  72.171  1.00  0.00     0.000 HD 
ENDROOT
BRANCH   2   4
HETATM    4  C   UNL     1     -13.148  15.168  71.183  1.00  0.00    -0.450 C  
HETATM    5  C   UNL     1     -12.762  16.161  72.293  1.00  0.00    -0.369 C  
BRANCH   4   6
HETATM    6  C   UNL     1     -11.879  14.347  70.766  1.00  0.00    -0.285 C  
HETATM    7  O   UNL     1     -10.691  15.088  71.077  1.00  0.00    -0.551 OA 
HETATM    8  H   UNL     1      -9.923  14.590  70.823  1.00  0.00     0.000 HD 
BRANCH   6   9
HETATM    9  C   UNL     1     -11.814  13.969  69.296  1.00  0.00    -0.389 A  
HETATM   10  C   UNL     1     -11.692  12.622  68.922  1.00  0.00    -0.370 A  
HETATM   11  C   UNL     1     -11.610  12.263  67.576  1.00  0.00    -0.422 A  
HETATM   12  C   UNL     1     -11.647  13.245  66.587  1.00  0.00    -0.408 A  
HETATM   13  C   UNL     1     -11.766  14.586  66.943  1.00  0.00    -0.399 A  
HETATM   14  C   UNL     1     -11.846  14.948  68.290  1.00  0.00    -0.308 A  
ENDBRANCH   6   9
ENDBRANCH   4   6
ENDBRANCH   2   4
TORSDOF 3
ENDMDL
MODEL       40
REMARK 921   NORMALIZED FREE ENERGY PREDICTED BY IDOCK:   -4.12 KCAL/MOL
REMARK 922        TOTAL FREE ENERGY PREDICTED BY IDOCK:   -5.09 KCAL/MOL
REMARK 923 INTER-LIGAND FREE ENERGY PREDICTED BY IDOCK:   -4.88 KCAL/MOL
REMARK 924 INTRA-LIGAND FREE ENERGY PREDICTED BY IDOCK:   -0.21 KCAL/MOL
REMARK 927      BINDING AFFINITY PREDICTED BY RF-SCORE:    0.00 PKD
ROOT
HETATM    1  C   UNL     1     -11.278  13.427  67.718  1.00  0.00    -0.279 C  
HETATM    2  N   UNL     1     -12.232  14.522  67.846  1.00  0.00    -0.622 NA 
HETATM    3  H   UNL     1     -13.125  14.185  68.205  1.00  0.00     0.000 HD 
ENDROOT
BRANCH   2   4
HETATM    4  C   UNL     1     -11.726  15.647  68.668  1.00  0.00    -0.352 C  
HETATM    5  C   UNL     1     -11.669  15.270  70.157  1.00  0.00    -0.342 C  
BRANCH   4   6
HETATM    6  C   UNL     1     -10.303  16.108  68.200  1.00  0.00    -0.269 C  
HETATM    7  O   UNL     1      -9.340  15.847  69.230  1.00  0.00    -0.238 OA 
HETATM    8  H   UNL     1      -8.477  16.127  68.946  1.00  0.00     0.000 HD 
BRANCH   6   9
HETATM    9  C   UNL     1     -10.193  17.577  67.830  1.00  0.00    -0.350 A  
HETATM   10  C   UNL     1     -10.022  18.544  68.833  1.00  0.00    -0.383 A  
HETATM   11  C   UNL     1      -9.941  19.899  68.508  1.00  0.00    -0.507 A  
HETATM   12  C   UNL     1     -10.030  20.305  67.178  1.00  0.00    -0.593 A  
HETATM   13  C   UNL     1     -10.202  19.357  66.171  1.00  0.00    -0.570 A  
HETATM   14  C   UNL     1     -10.286  18.001  66.495  1.00  0.00    -0.376 A  
ENDBRANCH   6   9
ENDBRANCH   4   6
ENDBRANCH   2   4
TORSDOF 3
ENDMDL
MODEL       41
REMARK 921   NORMALIZED FREE ENERGY PREDICTED BY IDOCK:   -4.11 KCAL/MOL
REMARK 922        TOTAL FREE ENERGY PREDICTED BY IDOCK:   -5.08 KCAL/MOL
REMARK 923 INTER-LIGAND FREE ENERGY PREDICTED BY IDOCK:   -4.88 KCAL/MOL
REMARK 924 INTRA-LIGAND FREE ENERGY PREDICTED BY IDOCK:   -0.19 KCAL/MOL
REMARK 927      BINDING AFFINITY PREDICTED BY RF-SCORE:    0.00 PKD
ROOT
HETATM    1  C   UNL     1     -12.403  13.596  65.700  1.00  0.00    -0.478 C  
HETATM    2  N   UNL     1     -12.266  14.476  66.854  1.00  0.00    -0.509 NA 
HETATM    3  H   UNL     1     -13.160  14.589  67.332  1.00  0.00     0.000 HD 
ENDROOT
BRANCH   2   4
HETATM    4  C   UNL     1     -11.215  14.038  67.803  1.00  0.00    -0.281 C  
HETATM    5  C   UNL     1      -9.872  14.727  67.506  1.00  0.00    -0.218 C  
BRANCH   4   6
HETATM    6  C   UNL     1     -11.622  14.327  69.288  1.00  0.00    -0.306 C  
HETATM    7  O   UNL     1     -10.533  14.949  69.984  1.00  0.00    -0.432 OA 
HETATM    8  H   UNL     1     -10.781  15.124  70.884  1.00  0.00     0.000 HD 
BRANCH   6   9
HETATM    9  C   UNL     1     -12.040  13.106  70.088  1.00  0.00    -0.392 A  
HETATM   10  C   UNL     1     -12.863  13.252  71.216  1.00  0.00    -0.398 A  
HETATM   11  C   UNL     1     -13.238  12.140  71.972  1.00  0.00    -0.496 A  
HETATM   12  C   UNL     1     -12.794  10.869  71.612  1.00  0.00    -0.554 A  
HETATM   13  C   UNL     1     -11.975  10.707  70.497  1.00  0.00    -0.446 A  
HETATM   14  C   UNL     1     -11.596  11.820  69.741  1.00  0.00    -0.372 A  
ENDBRANCH   6   9
ENDBRANCH   4   6
ENDBRANCH   2   4
TORSDOF 3
ENDMDL
MODEL       42
REMARK 921   NORMALIZED FREE ENERGY PREDICTED BY IDOCK:   -4.09 KCAL/MOL
REMARK 922        TOTAL FREE ENERGY PREDICTED BY IDOCK:   -5.06 KCAL/MOL
REMARK 923 INTER-LIGAND FREE ENERGY PREDICTED BY IDOCK:   -4.84 KCAL/MOL
REMARK 924 INTRA-LIGAND FREE ENERGY PREDICTED BY IDOCK:   -0.22 KCAL/MOL
REMARK 927      BINDING AFFINITY PREDICTED BY RF-SCORE:    0.00 PKD
ROOT
HETATM    1  C   UNL     1     -11.690  11.265  69.017  1.00  0.00    -0.342 C  
HETATM    2  N   UNL     1     -12.582  10.373  69.746  1.00  0.00    -0.560 NA 
HETATM    3  H   UNL     1     -12.499   9.416  69.402  1.00  0.00     0.000 HD 
ENDROOT
BRANCH   2   4
HETATM    4  C   UNL     1     -12.388  10.422  71.215  1.00  0.00    -0.401 C  
HETATM    5  C   UNL     1     -13.389  11.382  71.879  1.00  0.00    -0.409 C  
BRANCH   4   6
HETATM    6  C   UNL     1     -12.529   9.002  71.864  1.00  0.00    -0.384 C  
HETATM    7  O   UNL     1     -13.449   9.055  72.963  1.00  0.00    -0.888 OA 
HETATM    8  H   UNL     1     -13.534   8.194  73.356  1.00  0.00     0.000 HD 
BRANCH   6   9
HETATM    9  C   UNL     1     -11.234   8.398  72.376  1.00  0.00    -0.438 A  
HETATM   10  C   UNL     1     -11.267   7.358  73.317  1.00  0.00    -0.203 A  
HETATM   11  C   UNL     1     -10.084   6.808  73.812  1.00  0.00    -0.349 A  
HETATM   12  C   UNL     1      -8.852   7.290  73.373  1.00  0.00    -0.194 A  
HETATM   13  C   UNL     1      -8.802   8.324  72.440  1.00  0.00    -0.286 A  
HETATM   14  C   UNL     1      -9.986   8.878  71.946  1.00  0.00    -0.384 A  
ENDBRANCH   6   9
ENDBRANCH   4   6
ENDBRANCH   2   4
TORSDOF 3
ENDMDL
MODEL       43
REMARK 921   NORMALIZED FREE ENERGY PREDICTED BY IDOCK:   -4.09 KCAL/MOL
REMARK 922        TOTAL FREE ENERGY PREDICTED BY IDOCK:   -5.06 KCAL/MOL
REMARK 923 INTER-LIGAND FREE ENERGY PREDICTED BY IDOCK:   -4.83 KCAL/MOL
REMARK 924 INTRA-LIGAND FREE ENERGY PREDICTED BY IDOCK:   -0.23 KCAL/MOL
REMARK 927      BINDING AFFINITY PREDICTED BY RF-SCORE:    0.00 PKD
ROOT
HETATM    1  C   UNL     1      -7.258  18.193  66.958  1.00  0.00    -0.201 C  
HETATM    2  N   UNL     1      -8.229  18.471  65.907  1.00  0.00    -0.489 NA 
HETATM    3  H   UNL     1      -7.989  17.971  65.050  1.00  0.00     0.000 HD 
ENDROOT
BRANCH   2   4
HETATM    4  C   UNL     1      -9.626  18.184  66.309  1.00  0.00    -0.239 C  
HETATM    5  C   UNL     1     -10.555  19.367  65.986  1.00  0.00    -0.573 C  
BRANCH   4   6
HETATM    6  C   UNL     1     -10.176  16.894  65.609  1.00  0.00    -0.206 C  
HETATM    7  O   UNL     1     -11.153  17.250  64.621  1.00  0.00    -1.052 OA 
HETATM    8  H   UNL     1     -11.485  16.468  64.197  1.00  0.00     0.000 HD 
BRANCH   6   9
HETATM    9  C   UNL     1     -10.812  15.878  66.541  1.00  0.00    -0.198 A  
HETATM   10  C   UNL     1     -11.318  14.674  66.028  1.00  0.00    -0.344 A  
HETATM   11  C   UNL     1     -11.925  13.741  66.870  1.00  0.00    -0.460 A  
HETATM   12  C   UNL     1     -12.034  14.000  68.235  1.00  0.00    -0.384 A  
HETATM   13  C   UNL     1     -11.539  15.192  68.759  1.00  0.00    -0.369 A  
HETATM   14  C   UNL     1     -10.934  16.129  67.917  1.00  0.00    -0.318 A  
ENDBRANCH   6   9
ENDBRANCH   4   6
ENDBRANCH   2   4
TORSDOF 3
ENDMDL
MODEL       44
REMARK 921   NORMALIZED FREE ENERGY PREDICTED BY IDOCK:   -4.07 KCAL/MOL
REMARK 922        TOTAL FREE ENERGY PREDICTED BY IDOCK:   -5.03 KCAL/MOL
REMARK 923 INTER-LIGAND FREE ENERGY PREDICTED BY IDOCK:   -4.83 KCAL/MOL
REMARK 924 INTRA-LIGAND FREE ENERGY PREDICTED BY IDOCK:   -0.21 KCAL/MOL
REMARK 927      BINDING AFFINITY PREDICTED BY RF-SCORE:    0.00 PKD
ROOT
HETATM    1  C   UNL     1      -9.164   9.296  66.061  1.00  0.00    -0.206 C  
HETATM    2  N   UNL     1      -9.507   9.319  64.644  1.00  0.00    -0.409 NA 
HETATM    3  H   UNL     1     -10.355   8.778  64.468  1.00  0.00     0.000 HD 
ENDROOT
BRANCH   2   4
HETATM    4  C   UNL     1      -9.633  10.689  64.094  1.00  0.00    -0.300 C  
HETATM    5  C   UNL     1      -9.259  10.728  62.602  1.00  0.00    -0.349 C  
BRANCH   4   6
HETATM    6  C   UNL     1     -11.084  11.253  64.274  1.00  0.00    -0.222 C  
HETATM    7  O   UNL     1     -11.712  11.409  62.994  1.00  0.00    -0.887 OA 
HETATM    8  H   UNL     1     -12.592  11.750  63.105  1.00  0.00     0.000 HD 
BRANCH   6   9
HETATM    9  C   UNL     1     -11.169  12.587  64.994  1.00  0.00    -0.344 A  
HETATM   10  C   UNL     1     -10.457  13.695  64.509  1.00  0.00    -0.411 A  
HETATM   11  C   UNL     1     -10.510  14.921  65.173  1.00  0.00    -0.442 A  
HETATM   12  C   UNL     1     -11.275  15.056  66.330  1.00  0.00    -0.310 A  
HETATM   13  C   UNL     1     -11.986  13.965  66.826  1.00  0.00    -0.472 A  
HETATM   14  C   UNL     1     -11.931  12.736  66.164  1.00  0.00    -0.476 A  
ENDBRANCH   6   9
ENDBRANCH   4   6
ENDBRANCH   2   4
TORSDOF 3
ENDMDL
MODEL       45
REMARK 921   NORMALIZED FREE ENERGY PREDICTED BY IDOCK:   -4.06 KCAL/MOL
REMARK 922        TOTAL FREE ENERGY PREDICTED BY IDOCK:   -5.02 KCAL/MOL
REMARK 923 INTER-LIGAND FREE ENERGY PREDICTED BY IDOCK:   -4.91 KCAL/MOL
REMARK 924 INTRA-LIGAND FREE ENERGY PREDICTED BY IDOCK:   -0.11 KCAL/MOL
REMARK 927      BINDING AFFINITY PREDICTED BY RF-SCORE:    0.00 PKD
ROOT
HETATM    1  C   UNL     1      -8.220  18.964  68.298  1.00  0.00    -0.329 C  
HETATM    2  N   UNL     1      -9.660  18.801  68.461  1.00  0.00    -0.350 NA 
HETATM    3  H   UNL     1     -10.094  19.679  68.747  1.00  0.00     0.000 HD 
ENDROOT
BRANCH   2   4
HETATM    4  C   UNL     1     -10.326  18.251  67.256  1.00  0.00    -0.390 C  
HETATM    5  C   UNL     1     -10.313  19.264  66.099  1.00  0.00    -0.578 C  
BRANCH   4   6
HETATM    6  C   UNL     1      -9.652  16.919  66.781  1.00  0.00    -0.262 C  
HETATM    7  O   UNL     1      -8.789  17.177  65.664  1.00  0.00    -0.482 OA 
HETATM    8  H   UNL     1      -8.381  16.369  65.377  1.00  0.00     0.000 HD 
BRANCH   6   9
HETATM    9  C   UNL     1     -10.618  15.821  66.371  1.00  0.00    -0.307 A  
HETATM   10  C   UNL     1     -11.188  14.988  67.345  1.00  0.00    -0.337 A  
HETATM   11  C   UNL     1     -12.061  13.961  66.981  1.00  0.00    -0.451 A  
HETATM   12  C   UNL     1     -12.373  13.754  65.638  1.00  0.00    -0.517 A  
HETATM   13  C   UNL     1     -11.813  14.571  64.659  1.00  0.00    -0.462 A  
HETATM   14  C   UNL     1     -10.937  15.597  65.022  1.00  0.00    -0.445 A  
ENDBRANCH   6   9
ENDBRANCH   4   6
ENDBRANCH   2   4
TORSDOF 3
ENDMDL
MODEL       46
REMARK 921   NORMALIZED FREE ENERGY PREDICTED BY IDOCK:   -4.04 KCAL/MOL
REMARK 922        TOTAL FREE ENERGY PREDICTED BY IDOCK:   -5.00 KCAL/MOL
REMARK 923 INTER-LIGAND FREE ENERGY PREDICTED BY IDOCK:   -5.01 KCAL/MOL
REMARK 924 INTRA-LIGAND FREE ENERGY PREDICTED BY IDOCK:    0.01 KCAL/MOL
REMARK 927      BINDING AFFINITY PREDICTED BY RF-SCORE:    0.00 PKD
ROOT
HETATM    1  C   UNL     1     -12.411  13.969  66.560  1.00  0.00    -0.404 C  
HETATM    2  N   UNL     1     -12.911  14.023  65.192  1.00  0.00    -0.771 NA 
HETATM    3  H   UNL     1     -13.494  14.849  65.052  1.00  0.00     0.000 HD 
ENDROOT
BRANCH   2   4
HETATM    4  C   UNL     1     -11.838  13.957  64.172  1.00  0.00    -0.385 C  
HETATM    5  C   UNL     1     -10.457  14.222  64.796  1.00  0.00    -0.421 C  
BRANCH   4   6
HETATM    6  C   UNL     1     -11.816  12.568  63.447  1.00  0.00    -0.503 C  
HETATM    7  O   UNL     1     -13.072  11.899  63.630  1.00  0.00    -0.696 OA 
HETATM    8  H   UNL     1     -13.057  11.057  63.191  1.00  0.00     0.000 HD 
BRANCH   6   9
HETATM    9  C   UNL     1     -10.720  11.622  63.905  1.00  0.00    -0.459 A  
HETATM   10  C   UNL     1     -10.764  11.066  65.193  1.00  0.00    -0.253 A  
HETATM   11  C   UNL     1      -9.752  10.212  65.634  1.00  0.00    -0.322 A  
HETATM   12  C   UNL     1      -8.683   9.903  64.794  1.00  0.00    -0.210 A  
HETATM   13  C   UNL     1      -8.624  10.448  63.514  1.00  0.00    -0.188 A  
HETATM   14  C   UNL     1      -9.635  11.305  63.072  1.00  0.00    -0.397 A  
ENDBRANCH   6   9
ENDBRANCH   4   6
ENDBRANCH   2   4
TORSDOF 3
ENDMDL
MODEL       47
REMARK 921   NORMALIZED FREE ENERGY PREDICTED BY IDOCK:   -4.02 KCAL/MOL
REMARK 922        TOTAL FREE ENERGY PREDICTED BY IDOCK:   -4.98 KCAL/MOL
REMARK 923 INTER-LIGAND FREE ENERGY PREDICTED BY IDOCK:   -4.74 KCAL/MOL
REMARK 924 INTRA-LIGAND FREE ENERGY PREDICTED BY IDOCK:   -0.24 KCAL/MOL
REMARK 927      BINDING AFFINITY PREDICTED BY RF-SCORE:    0.00 PKD
ROOT
HETATM    1  C   UNL     1     -12.177  13.703  65.957  1.00  0.00    -0.449 C  
HETATM    2  N   UNL     1     -11.998  14.535  67.141  1.00  0.00    -0.483 NA 
HETATM    3  H   UNL     1     -12.011  13.968  67.989  1.00  0.00     0.000 HD 
ENDROOT
BRANCH   2   4
HETATM    4  C   UNL     1     -10.778  15.375  67.088  1.00  0.00    -0.314 C  
HETATM    5  C   UNL     1      -9.599  14.608  66.465  1.00  0.00    -0.308 C  
BRANCH   4   6
HETATM    6  C   UNL     1     -11.020  16.694  66.277  1.00  0.00     0.123 C  
HETATM    7  O   UNL     1     -10.415  16.590  64.981  1.00  0.00    -0.652 OA 
HETATM    8  H   UNL     1     -10.562  17.390  64.490  1.00  0.00     0.000 HD 
BRANCH   6   9
HETATM    9  C   UNL     1     -10.490  17.957  66.933  1.00  0.00    -0.334 A  
HETATM   10  C   UNL     1     -10.138  17.949  68.291  1.00  0.00    -0.376 A  
HETATM   11  C   UNL     1      -9.669  19.109  68.911  1.00  0.00    -0.474 A  
HETATM   12  C   UNL     1      -9.548  20.291  68.182  1.00  0.00    -0.318 A  
HETATM   13  C   UNL     1      -9.896  20.315  66.833  1.00  0.00    -0.597 A  
HETATM   14  C   UNL     1     -10.368  19.156  66.212  1.00  0.00    -0.553 A  
ENDBRANCH   6   9
ENDBRANCH   4   6
ENDBRANCH   2   4
TORSDOF 3
ENDMDL
MODEL       48
REMARK 921   NORMALIZED FREE ENERGY PREDICTED BY IDOCK:   -3.98 KCAL/MOL
REMARK 922        TOTAL FREE ENERGY PREDICTED BY IDOCK:   -4.93 KCAL/MOL
REMARK 923 INTER-LIGAND FREE ENERGY PREDICTED BY IDOCK:   -4.81 KCAL/MOL
REMARK 924 INTRA-LIGAND FREE ENERGY PREDICTED BY IDOCK:   -0.11 KCAL/MOL
REMARK 927      BINDING AFFINITY PREDICTED BY RF-SCORE:    0.00 PKD
ROOT
HETATM    1  C   UNL     1      -8.255  12.173  68.313  1.00  0.00    -0.168 C  
HETATM    2  N   UNL     1      -9.563  11.845  68.867  1.00  0.00    -0.413 NA 
HETATM    3  H   UNL     1      -9.510  11.738  69.881  1.00  0.00     0.000 HD 
ENDROOT
BRANCH   2   4
HETATM    4  C   UNL     1     -10.618  12.817  68.494  1.00  0.00    -0.252 C  
HETATM    5  C   UNL     1     -10.046  13.963  67.644  1.00  0.00    -0.241 C  
BRANCH   4   6
HETATM    6  C   UNL     1     -11.785  12.127  67.708  1.00  0.00    -0.320 C  
HETATM    7  O   UNL     1     -12.003  10.803  68.215  1.00  0.00    -0.768 OA 
HETATM    8  H   UNL     1     -12.711  10.386  67.738  1.00  0.00     0.000 HD 
BRANCH   6   9
HETATM    9  C   UNL     1     -11.573  12.016  66.209  1.00  0.00    -0.378 A  
HETATM   10  C   UNL     1     -10.628  11.113  65.698  1.00  0.00    -0.286 A  
HETATM   11  C   UNL     1     -10.407  11.016  64.323  1.00  0.00    -0.430 A  
HETATM   12  C   UNL     1     -11.127  11.821  63.442  1.00  0.00    -0.448 A  
HETATM   13  C   UNL     1     -12.067  12.724  63.933  1.00  0.00    -0.562 A  
HETATM   14  C   UNL     1     -12.287  12.824  65.310  1.00  0.00    -0.546 A  
ENDBRANCH   6   9
ENDBRANCH   4   6
ENDBRANCH   2   4
TORSDOF 3
ENDMDL
MODEL       49
REMARK 921   NORMALIZED FREE ENERGY PREDICTED BY IDOCK:   -3.97 KCAL/MOL
REMARK 922        TOTAL FREE ENERGY PREDICTED BY IDOCK:   -4.92 KCAL/MOL
REMARK 923 INTER-LIGAND FREE ENERGY PREDICTED BY IDOCK:   -4.71 KCAL/MOL
REMARK 924 INTRA-LIGAND FREE ENERGY PREDICTED BY IDOCK:   -0.21 KCAL/MOL
REMARK 927      BINDING AFFINITY PREDICTED BY RF-SCORE:    0.00 PKD
ROOT
HETATM    1  C   UNL     1     -11.587  14.754  66.080  1.00  0.00    -0.286 C  
HETATM    2  N   UNL     1     -12.153  14.429  67.383  1.00  0.00    -0.588 NA 
HETATM    3  H   UNL     1     -13.128  14.725  67.439  1.00  0.00     0.000 HD 
ENDROOT
BRANCH   2   4
HETATM    4  C   UNL     1     -12.016  12.997  67.741  1.00  0.00    -0.295 C  
HETATM    5  C   UNL     1     -11.348  12.199  66.608  1.00  0.00    -0.405 C  
BRANCH   4   6
HETATM    6  C   UNL     1     -11.190  12.808  69.059  1.00  0.00    -0.264 C  
HETATM    7  O   UNL     1      -9.913  12.229  68.758  1.00  0.00    -0.376 OA 
HETATM    8  H   UNL     1      -9.412  12.114  69.558  1.00  0.00     0.000 HD 
BRANCH   6   9
HETATM    9  C   UNL     1     -11.852  11.939  70.113  1.00  0.00    -0.390 A  
HETATM   10  C   UNL     1     -11.670  10.547  70.093  1.00  0.00    -0.410 A  
HETATM   11  C   UNL     1     -12.290   9.735  71.044  1.00  0.00    -0.422 A  
HETATM   12  C   UNL     1     -13.101  10.302  72.025  1.00  0.00    -0.529 A  
HETATM   13  C   UNL     1     -13.293  11.681  72.058  1.00  0.00    -0.405 A  
HETATM   14  C   UNL     1     -12.676  12.496  71.105  1.00  0.00    -0.340 A  
ENDBRANCH   6   9
ENDBRANCH   4   6
ENDBRANCH   2   4
TORSDOF 3
ENDMDL
MODEL       50
REMARK 921   NORMALIZED FREE ENERGY PREDICTED BY IDOCK:   -3.97 KCAL/MOL
REMARK 922        TOTAL FREE ENERGY PREDICTED BY IDOCK:   -4.92 KCAL/MOL
REMARK 923 INTER-LIGAND FREE ENERGY PREDICTED BY IDOCK:   -4.98 KCAL/MOL
REMARK 924 INTRA-LIGAND FREE ENERGY PREDICTED BY IDOCK:    0.06 KCAL/MOL
REMARK 927      BINDING AFFINITY PREDICTED BY RF-SCORE:    0.00 PKD
ROOT
HETATM    1  C   UNL     1     -10.930   6.092  68.596  1.00  0.00    -0.336 C  
HETATM    2  N   UNL     1     -11.676   6.829  69.610  1.00  0.00    -0.642 NA 
HETATM    3  H   UNL     1     -12.677   6.801  69.415  1.00  0.00     0.000 HD 
ENDROOT
BRANCH   2   4
HETATM    4  C   UNL     1     -11.396   6.371  70.991  1.00  0.00    -0.328 C  
HETATM    5  C   UNL     1     -10.270   5.323  71.016  1.00  0.00    -0.299 C  
BRANCH   4   6
HETATM    6  C   UNL     1     -11.005   7.566  71.927  1.00  0.00    -0.235 C  
HETATM    7  O   UNL     1     -11.459   7.312  73.263  1.00  0.00    -0.575 OA 
HETATM    8  H   UNL     1     -11.221   8.037  73.830  1.00  0.00     0.000 HD 
BRANCH   6   9
HETATM    9  C   UNL     1     -11.553   8.918  71.505  1.00  0.00    -0.388 A  
HETATM   10  C   UNL     1     -10.875   9.683  70.543  1.00  0.00    -0.371 A  
HETATM   11  C   UNL     1     -11.356  10.936  70.162  1.00  0.00    -0.367 A  
HETATM   12  C   UNL     1     -12.521  11.441  70.737  1.00  0.00    -0.460 A  
HETATM   13  C   UNL     1     -13.205  10.695  71.694  1.00  0.00    -0.495 A  
HETATM   14  C   UNL     1     -12.723   9.442  72.079  1.00  0.00    -0.483 A  
ENDBRANCH   6   9
ENDBRANCH   4   6
ENDBRANCH   2   4
TORSDOF 3
ENDMDL
MODEL       51
REMARK 921   NORMALIZED FREE ENERGY PREDICTED BY IDOCK:   -3.96 KCAL/MOL
REMARK 922        TOTAL FREE ENERGY PREDICTED BY IDOCK:   -4.91 KCAL/MOL
REMARK 923 INTER-LIGAND FREE ENERGY PREDICTED BY IDOCK:   -4.70 KCAL/MOL
REMARK 924 INTRA-LIGAND FREE ENERGY PREDICTED BY IDOCK:   -0.21 KCAL/MOL
REMARK 927      BINDING AFFINITY PREDICTED BY RF-SCORE:    0.00 PKD
ROOT
HETATM    1  C   UNL     1     -11.061  10.302  70.003  1.00  0.00    -0.311 C  
HETATM    2  N   UNL     1     -12.173  10.698  69.147  1.00  0.00    -0.731 NA 
HETATM    3  H   UNL     1     -13.051  10.687  69.666  1.00  0.00     0.000 HD 
ENDROOT
BRANCH   2   4
HETATM    4  C   UNL     1     -11.966  12.009  68.488  1.00  0.00    -0.214 C  
HETATM    5  C   UNL     1     -11.694  13.117  69.520  1.00  0.00    -0.382 C  
BRANCH   4   6
HETATM    6  C   UNL     1     -10.782  11.960  67.464  1.00  0.00    -0.225 C  
HETATM    7  O   UNL     1      -9.743  12.862  67.870  1.00  0.00    -0.204 OA 
HETATM    8  H   UNL     1      -9.025  12.831  67.249  1.00  0.00     0.000 HD 
BRANCH   6   9
HETATM    9  C   UNL     1     -11.155  12.303  66.033  1.00  0.00    -0.347 A  
HETATM   10  C   UNL     1     -10.839  11.418  64.991  1.00  0.00    -0.311 A  
HETATM   11  C   UNL     1     -11.157  11.731  63.669  1.00  0.00    -0.518 A  
HETATM   12  C   UNL     1     -11.795  12.933  63.371  1.00  0.00    -0.576 A  
HETATM   13  C   UNL     1     -12.114  13.824  64.393  1.00  0.00    -0.474 A  
HETATM   14  C   UNL     1     -11.793  13.514  65.717  1.00  0.00    -0.403 A  
ENDBRANCH   6   9
ENDBRANCH   4   6
ENDBRANCH   2   4
TORSDOF 3
ENDMDL
MODEL       52
REMARK 921   NORMALIZED FREE ENERGY PREDICTED BY IDOCK:   -3.96 KCAL/MOL
REMARK 922        TOTAL FREE ENERGY PREDICTED BY IDOCK:   -4.90 KCAL/MOL
REMARK 923 INTER-LIGAND FREE ENERGY PREDICTED BY IDOCK:   -4.67 KCAL/MOL
REMARK 924 INTRA-LIGAND FREE ENERGY PREDICTED BY IDOCK:   -0.23 KCAL/MOL
REMARK 927      BINDING AFFINITY PREDICTED BY RF-SCORE:    0.00 PKD
ROOT
HETATM    1  C   UNL     1     -11.495   6.286  72.197  1.00  0.00    -0.307 C  
HETATM    2  N   UNL     1     -12.167   7.468  72.723  1.00  0.00    -0.544 NA 
HETATM    3  H   UNL     1     -11.533   8.018  73.303  1.00  0.00     0.000 HD 
ENDROOT
BRANCH   2   4
HETATM    4  C   UNL     1     -12.780   8.311  71.669  1.00  0.00    -0.327 C  
HETATM    5  C   UNL     1     -14.309   8.379  71.826  1.00  0.00    -0.558 C  
BRANCH   4   6
HETATM    6  C   UNL     1     -12.198   9.766  71.681  1.00  0.00    -0.404 C  
HETATM    7  O   UNL     1     -13.179  10.683  72.184  1.00  0.00    -0.561 OA 
HETATM    8  H   UNL     1     -12.825  11.564  72.191  1.00  0.00     0.000 HD 
BRANCH   6   9
HETATM    9  C   UNL     1     -11.733  10.283  70.332  1.00  0.00    -0.404 A  
HETATM   10  C   UNL     1     -12.065  11.584  69.925  1.00  0.00    -0.389 A  
HETATM   11  C   UNL     1     -11.663  12.066  68.679  1.00  0.00    -0.380 A  
HETATM   12  C   UNL     1     -10.923  11.252  67.822  1.00  0.00    -0.305 A  
HETATM   13  C   UNL     1     -10.587   9.957  68.210  1.00  0.00    -0.269 A  
HETATM   14  C   UNL     1     -10.992   9.473  69.456  1.00  0.00    -0.217 A  
ENDBRANCH   6   9
ENDBRANCH   4   6
ENDBRANCH   2   4
TORSDOF 3
ENDMDL
MODEL       53
REMARK 921   NORMALIZED FREE ENERGY PREDICTED BY IDOCK:   -3.94 KCAL/MOL
REMARK 922        TOTAL FREE ENERGY PREDICTED BY IDOCK:   -4.88 KCAL/MOL
REMARK 923 INTER-LIGAND FREE ENERGY PREDICTED BY IDOCK:   -4.64 KCAL/MOL
REMARK 924 INTRA-LIGAND FREE ENERGY PREDICTED BY IDOCK:   -0.24 KCAL/MOL
REMARK 927      BINDING AFFINITY PREDICTED BY RF-SCORE:    0.00 PKD
ROOT
HETATM    1  C   UNL     1      -7.723  11.875  67.791  1.00  0.00    -0.136 C  
HETATM    2  N   UNL     1      -8.837  11.948  68.729  1.00  0.00    -0.378 NA 
HETATM    3  H   UNL     1      -9.179  12.905  68.812  1.00  0.00     0.000 HD 
ENDROOT
BRANCH   2   4
HETATM    4  C   UNL     1      -9.944  11.020  68.397  1.00  0.00    -0.186 C  
HETATM    5  C   UNL     1     -10.285  10.108  69.587  1.00  0.00    -0.272 C  
BRANCH   4   6
HETATM    6  C   UNL     1     -11.234  11.795  67.959  1.00  0.00    -0.263 C  
HETATM    7  O   UNL     1     -12.403  11.084  68.388  1.00  0.00    -0.762 OA 
HETATM    8  H   UNL     1     -13.185  11.554  68.122  1.00  0.00     0.000 HD 
BRANCH   6   9
HETATM    9  C   UNL     1     -11.364  12.033  66.465  1.00  0.00    -0.413 A  
HETATM   10  C   UNL     1     -12.236  13.022  65.983  1.00  0.00    -0.463 A  
HETATM   11  C   UNL     1     -12.381  13.237  64.612  1.00  0.00    -0.447 A  
HETATM   12  C   UNL     1     -11.656  12.467  63.704  1.00  0.00    -0.580 A  
HETATM   13  C   UNL     1     -10.787  11.480  64.166  1.00  0.00    -0.435 A  
HETATM   14  C   UNL     1     -10.644  11.262  65.538  1.00  0.00    -0.306 A  
ENDBRANCH   6   9
ENDBRANCH   4   6
ENDBRANCH   2   4
TORSDOF 3
ENDMDL
MODEL       54
REMARK 921   NORMALIZED FREE ENERGY PREDICTED BY IDOCK:   -3.94 KCAL/MOL
REMARK 922        TOTAL FREE ENERGY PREDICTED BY IDOCK:   -4.88 KCAL/MOL
REMARK 923 INTER-LIGAND FREE ENERGY PREDICTED BY IDOCK:   -4.68 KCAL/MOL
REMARK 924 INTRA-LIGAND FREE ENERGY PREDICTED BY IDOCK:   -0.20 KCAL/MOL
REMARK 927      BINDING AFFINITY PREDICTED BY RF-SCORE:    0.00 PKD
ROOT
HETATM    1  C   UNL     1     -10.040  10.317  68.982  1.00  0.00    -0.213 C  
HETATM    2  N   UNL     1     -10.096  11.773  69.038  1.00  0.00    -0.416 NA 
HETATM    3  H   UNL     1      -9.523  12.186  68.302  1.00  0.00     0.000 HD 
ENDROOT
BRANCH   2   4
HETATM    4  C   UNL     1     -11.478  12.308  68.992  1.00  0.00    -0.297 C  
HETATM    5  C   UNL     1     -12.101  12.367  70.397  1.00  0.00    -0.381 C  
BRANCH   4   6
HETATM    6  C   UNL     1     -11.522  13.737  68.351  1.00  0.00    -0.316 C  
HETATM    7  O   UNL     1     -12.581  14.506  68.936  1.00  0.00    -0.560 OA 
HETATM    8  H   UNL     1     -12.607  15.372  68.547  1.00  0.00     0.000 HD 
BRANCH   6   9
HETATM    9  C   UNL     1     -11.716  13.760  66.845  1.00  0.00    -0.424 A  
HETATM   10  C   UNL     1     -12.151  12.606  66.175  1.00  0.00    -0.399 A  
HETATM   11  C   UNL     1     -12.313  12.607  64.788  1.00  0.00    -0.556 A  
HETATM   12  C   UNL     1     -12.041  13.760  64.054  1.00  0.00    -0.448 A  
HETATM   13  C   UNL     1     -11.607  14.913  64.704  1.00  0.00    -0.395 A  
HETATM   14  C   UNL     1     -11.441  14.913  66.092  1.00  0.00    -0.272 A  
ENDBRANCH   6   9
ENDBRANCH   4   6
ENDBRANCH   2   4
TORSDOF 3
ENDMDL
MODEL       55
REMARK 921   NORMALIZED FREE ENERGY PREDICTED BY IDOCK:   -3.92 KCAL/MOL
REMARK 922        TOTAL FREE ENERGY PREDICTED BY IDOCK:   -4.86 KCAL/MOL
REMARK 923 INTER-LIGAND FREE ENERGY PREDICTED BY IDOCK:   -4.63 KCAL/MOL
REMARK 924 INTRA-LIGAND FREE ENERGY PREDICTED BY IDOCK:   -0.23 KCAL/MOL
REMARK 927      BINDING AFFINITY PREDICTED BY RF-SCORE:    0.00 PKD
ROOT
HETATM    1  C   UNL     1     -10.059   9.818  69.861  1.00  0.00    -0.251 C  
HETATM    2  N   UNL     1     -11.495   9.573  69.798  1.00  0.00    -0.440 NA 
HETATM    3  H   UNL     1     -11.784   8.920  70.526  1.00  0.00     0.000 HD 
ENDROOT
BRANCH   2   4
HETATM    4  C   UNL     1     -12.303  10.815  69.852  1.00  0.00    -0.271 C  
HETATM    5  C   UNL     1     -12.913  11.023  71.249  1.00  0.00    -0.472 C  
BRANCH   4   6
HETATM    6  C   UNL     1     -11.452  12.074  69.470  1.00  0.00    -0.282 C  
HETATM    7  O   UNL     1     -11.763  13.162  70.351  1.00  0.00    -0.526 OA 
HETATM    8  H   UNL     1     -11.247  13.925  70.119  1.00  0.00     0.000 HD 
BRANCH   6   9
HETATM    9  C   UNL     1     -11.640  12.568  68.046  1.00  0.00    -0.395 A  
HETATM   10  C   UNL     1     -12.085  13.877  67.809  1.00  0.00    -0.328 A  
HETATM   11  C   UNL     1     -12.281  14.337  66.506  1.00  0.00    -0.419 A  
HETATM   12  C   UNL     1     -12.036  13.493  65.423  1.00  0.00    -0.447 A  
HETATM   13  C   UNL     1     -11.596  12.190  65.642  1.00  0.00    -0.409 A  
HETATM   14  C   UNL     1     -11.402  11.727  66.947  1.00  0.00    -0.386 A  
ENDBRANCH   6   9
ENDBRANCH   4   6
ENDBRANCH   2   4
TORSDOF 3
ENDMDL
MODEL       56
REMARK 921   NORMALIZED FREE ENERGY PREDICTED BY IDOCK:   -3.91 KCAL/MOL
REMARK 922        TOTAL FREE ENERGY PREDICTED BY IDOCK:   -4.85 KCAL/MOL
REMARK 923 INTER-LIGAND FREE ENERGY PREDICTED BY IDOCK:   -4.63 KCAL/MOL
REMARK 924 INTRA-LIGAND FREE ENERGY PREDICTED BY IDOCK:   -0.23 KCAL/MOL
REMARK 927      BINDING AFFINITY PREDICTED BY RF-SCORE:    0.00 PKD
ROOT
HETATM    1  C   UNL     1      -9.040  15.498  66.902  1.00  0.00    -0.241 C  
HETATM    2  N   UNL     1      -9.537  14.840  65.700  1.00  0.00    -0.501 NA 
HETATM    3  H   UNL     1      -9.230  13.868  65.665  1.00  0.00     0.000 HD 
ENDROOT
BRANCH   2   4
HETATM    4  C   UNL     1     -11.008  14.934  65.546  1.00  0.00    -0.350 C  
HETATM    5  C   UNL     1     -11.399  16.086  64.605  1.00  0.00    -0.312 C  
BRANCH   4   6
HETATM    6  C   UNL     1     -11.618  13.597  65.001  1.00  0.00    -0.332 C  
HETATM    7  O   UNL     1     -13.049  13.687  64.970  1.00  0.00    -0.742 OA 
HETATM    8  H   UNL     1     -13.417  12.876  64.640  1.00  0.00     0.000 HD 
BRANCH   6   9
HETATM    9  C   UNL     1     -11.252  12.355  65.795  1.00  0.00    -0.370 A  
HETATM   10  C   UNL     1     -11.659  12.230  67.132  1.00  0.00    -0.423 A  
HETATM   11  C   UNL     1     -11.312  11.103  67.879  1.00  0.00    -0.378 A  
HETATM   12  C   UNL     1     -10.554  10.087  67.299  1.00  0.00    -0.319 A  
HETATM   13  C   UNL     1     -10.141  10.197  65.974  1.00  0.00    -0.317 A  
HETATM   14  C   UNL     1     -10.485  11.326  65.225  1.00  0.00    -0.341 A  
ENDBRANCH   6   9
ENDBRANCH   4   6
ENDBRANCH   2   4
TORSDOF 3
ENDMDL
MODEL       57
REMARK 921   NORMALIZED FREE ENERGY PREDICTED BY IDOCK:   -3.91 KCAL/MOL
REMARK 922        TOTAL FREE ENERGY PREDICTED BY IDOCK:   -4.84 KCAL/MOL
REMARK 923 INTER-LIGAND FREE ENERGY PREDICTED BY IDOCK:   -4.60 KCAL/MOL
REMARK 924 INTRA-LIGAND FREE ENERGY PREDICTED BY IDOCK:   -0.24 KCAL/MOL
REMARK 927      BINDING AFFINITY PREDICTED BY RF-SCORE:    0.00 PKD
ROOT
HETATM    1  C   UNL     1     -11.824  15.234  68.995  1.00  0.00    -0.318 C  
HETATM    2  N   UNL     1     -12.154  14.828  67.635  1.00  0.00    -0.548 NA 
HETATM    3  H   UNL     1     -12.284  15.642  67.035  1.00  0.00     0.000 HD 
ENDROOT
BRANCH   2   4
HETATM    4  C   UNL     1     -11.166  13.892  67.047  1.00  0.00    -0.313 C  
HETATM    5  C   UNL     1     -10.069  13.528  68.061  1.00  0.00    -0.244 C  
BRANCH   4   6
HETATM    6  C   UNL     1     -11.850  12.578  66.536  1.00  0.00    -0.367 C  
HETATM    7  O   UNL     1     -12.032  11.664  67.626  1.00  0.00    -0.618 OA 
HETATM    8  H   UNL     1     -12.446  10.867  67.316  1.00  0.00     0.000 HD 
BRANCH   6   9
HETATM    9  C   UNL     1     -11.093  11.844  65.443  1.00  0.00    -0.360 A  
HETATM   10  C   UNL     1     -10.380  10.674  65.745  1.00  0.00    -0.287 A  
HETATM   11  C   UNL     1      -9.664  10.001  64.754  1.00  0.00    -0.363 A  
HETATM   12  C   UNL     1      -9.650  10.489  63.449  1.00  0.00    -0.376 A  
HETATM   13  C   UNL     1     -10.351  11.651  63.133  1.00  0.00    -0.383 A  
HETATM   14  C   UNL     1     -11.067  12.327  64.124  1.00  0.00    -0.423 A  
ENDBRANCH   6   9
ENDBRANCH   4   6
ENDBRANCH   2   4
TORSDOF 3
ENDMDL
MODEL       58
REMARK 921   NORMALIZED FREE ENERGY PREDICTED BY IDOCK:   -3.91 KCAL/MOL
REMARK 922        TOTAL FREE ENERGY PREDICTED BY IDOCK:   -4.84 KCAL/MOL
REMARK 923 INTER-LIGAND FREE ENERGY PREDICTED BY IDOCK:   -4.61 KCAL/MOL
REMARK 924 INTRA-LIGAND FREE ENERGY PREDICTED BY IDOCK:   -0.24 KCAL/MOL
REMARK 927      BINDING AFFINITY PREDICTED BY RF-SCORE:    0.00 PKD
ROOT
HETATM    1  C   UNL     1      -9.457  12.050  66.148  1.00  0.00    -0.232 C  
HETATM    2  N   UNL     1      -9.594  13.274  65.367  1.00  0.00    -0.495 NA 
HETATM    3  H   UNL     1      -9.950  13.070  64.433  1.00  0.00     0.000 HD 
ENDROOT
BRANCH   2   4
HETATM    4  C   UNL     1     -10.425  14.304  66.034  1.00  0.00    -0.301 C  
HETATM    5  C   UNL     1     -10.872  15.390  65.041  1.00  0.00    -0.462 C  
BRANCH   4   6
HETATM    6  C   UNL     1     -11.690  13.675  66.712  1.00  0.00    -0.392 C  
HETATM    7  O   UNL     1     -12.879  14.132  66.052  1.00  0.00    -0.485 OA 
HETATM    8  H   UNL     1     -13.645  13.750  66.463  1.00  0.00     0.000 HD 
BRANCH   6   9
HETATM    9  C   UNL     1     -11.842  13.975  68.192  1.00  0.00    -0.402 A  
HETATM   10  C   UNL     1     -12.013  12.926  69.108  1.00  0.00    -0.308 A  
HETATM   11  C   UNL     1     -12.175  13.188  70.470  1.00  0.00    -0.405 A  
HETATM   12  C   UNL     1     -12.169  14.503  70.932  1.00  0.00    -0.409 A  
HETATM   13  C   UNL     1     -12.002  15.556  70.036  1.00  0.00    -0.385 A  
HETATM   14  C   UNL     1     -11.843  15.295  68.672  1.00  0.00    -0.329 A  
ENDBRANCH   6   9
ENDBRANCH   4   6
ENDBRANCH   2   4
TORSDOF 3
ENDMDL
MODEL       59
REMARK 921   NORMALIZED FREE ENERGY PREDICTED BY IDOCK:   -3.89 KCAL/MOL
REMARK 922        TOTAL FREE ENERGY PREDICTED BY IDOCK:   -4.83 KCAL/MOL
REMARK 923 INTER-LIGAND FREE ENERGY PREDICTED BY IDOCK:   -4.62 KCAL/MOL
REMARK 924 INTRA-LIGAND FREE ENERGY PREDICTED BY IDOCK:   -0.21 KCAL/MOL
REMARK 927      BINDING AFFINITY PREDICTED BY RF-SCORE:    0.00 PKD
ROOT
HETATM    1  C   UNL     1     -12.054  12.618  65.602  1.00  0.00    -0.443 C  
HETATM    2  N   UNL     1     -11.471  12.761  66.930  1.00  0.00    -0.321 NA 
HETATM    3  H   UNL     1     -11.904  13.534  67.435  1.00  0.00     0.000 HD 
ENDROOT
BRANCH   2   4
HETATM    4  C   UNL     1     -11.524  11.514  67.731  1.00  0.00    -0.286 C  
HETATM    5  C   UNL     1     -10.781  10.366  67.026  1.00  0.00    -0.298 C  
BRANCH   4   6
HETATM    6  C   UNL     1     -10.914  11.720  69.160  1.00  0.00    -0.209 C  
HETATM    7  O   UNL     1      -9.485  11.611  69.104  1.00  0.00    -0.407 OA 
HETATM    8  H   UNL     1      -9.116  11.736  69.970  1.00  0.00     0.000 HD 
BRANCH   6   9
HETATM    9  C   UNL     1     -11.409  10.746  70.215  1.00  0.00    -0.374 A  
HETATM   10  C   UNL     1     -12.652  10.951  70.833  1.00  0.00    -0.494 A  
HETATM   11  C   UNL     1     -13.109  10.076  71.819  1.00  0.00    -0.562 A  
HETATM   12  C   UNL     1     -12.329   8.986  72.202  1.00  0.00    -0.442 A  
HETATM   13  C   UNL     1     -11.092   8.770  71.600  1.00  0.00    -0.398 A  
HETATM   14  C   UNL     1     -10.631   9.647  70.614  1.00  0.00    -0.386 A  
ENDBRANCH   6   9
ENDBRANCH   4   6
ENDBRANCH   2   4
TORSDOF 3
ENDMDL
MODEL       60
REMARK 921   NORMALIZED FREE ENERGY PREDICTED BY IDOCK:   -3.89 KCAL/MOL
REMARK 922        TOTAL FREE ENERGY PREDICTED BY IDOCK:   -4.82 KCAL/MOL
REMARK 923 INTER-LIGAND FREE ENERGY PREDICTED BY IDOCK:   -4.58 KCAL/MOL
REMARK 924 INTRA-LIGAND FREE ENERGY PREDICTED BY IDOCK:   -0.24 KCAL/MOL
REMARK 927      BINDING AFFINITY PREDICTED BY RF-SCORE:    0.00 PKD
ROOT
HETATM    1  C   UNL     1      -8.880  14.474  68.371  1.00  0.00    -0.180 C  
HETATM    2  N   UNL     1      -9.381  13.168  68.782  1.00  0.00    -0.401 NA 
HETATM    3  H   UNL     1      -9.230  13.020  69.780  1.00  0.00     0.000 HD 
ENDROOT
BRANCH   2   4
HETATM    4  C   UNL     1     -10.802  12.947  68.426  1.00  0.00    -0.254 C  
HETATM    5  C   UNL     1     -11.731  13.271  69.609  1.00  0.00    -0.369 C  
BRANCH   4   6
HETATM    6  C   UNL     1     -11.228  13.809  67.188  1.00  0.00    -0.311 C  
HETATM    7  O   UNL     1     -12.532  14.366  67.403  1.00  0.00    -0.603 OA 
HETATM    8  H   UNL     1     -12.789  14.889  66.652  1.00  0.00     0.000 HD 
BRANCH   6   9
HETATM    9  C   UNL     1     -11.259  13.063  65.866  1.00  0.00    -0.315 A  
HETATM   10  C   UNL     1     -12.314  13.272  64.965  1.00  0.00    -0.499 A  
HETATM   11  C   UNL     1     -12.366  12.577  63.756  1.00  0.00    -0.595 A  
HETATM   12  C   UNL     1     -11.365  11.663  63.432  1.00  0.00    -0.380 A  
HETATM   13  C   UNL     1     -10.312  11.442  64.317  1.00  0.00    -0.383 A  
HETATM   14  C   UNL     1     -10.260  12.135  65.529  1.00  0.00    -0.294 A  
ENDBRANCH   6   9
ENDBRANCH   4   6
ENDBRANCH   2   4
TORSDOF 3
ENDMDL
MODEL       61
REMARK 921   NORMALIZED FREE ENERGY PREDICTED BY IDOCK:   -3.89 KCAL/MOL
REMARK 922        TOTAL FREE ENERGY PREDICTED BY IDOCK:   -4.82 KCAL/MOL
REMARK 923 INTER-LIGAND FREE ENERGY PREDICTED BY IDOCK:   -4.65 KCAL/MOL
REMARK 924 INTRA-LIGAND FREE ENERGY PREDICTED BY IDOCK:   -0.18 KCAL/MOL
REMARK 927      BINDING AFFINITY PREDICTED BY RF-SCORE:    0.00 PKD
ROOT
HETATM    1  C   UNL     1     -13.310  12.763  72.007  1.00  0.00    -0.466 C  
HETATM    2  N   UNL     1     -12.480  13.207  70.893  1.00  0.00    -0.359 NA 
HETATM    3  H   UNL     1     -12.544  12.556  70.111  1.00  0.00     0.000 HD 
ENDROOT
BRANCH   2   4
HETATM    4  C   UNL     1     -12.780  14.590  70.453  1.00  0.00    -0.322 C  
HETATM    5  C   UNL     1     -13.585  15.353  71.519  1.00  0.00    -0.604 C  
BRANCH   4   6
HETATM    6  C   UNL     1     -11.472  15.389  70.129  1.00  0.00    -0.317 C  
HETATM    7  O   UNL     1     -11.521  16.683  70.746  1.00  0.00    -0.540 OA 
HETATM    8  H   UNL     1     -10.728  17.167  70.549  1.00  0.00     0.000 HD 
BRANCH   6   9
HETATM    9  C   UNL     1     -11.196  15.596  68.650  1.00  0.00    -0.338 A  
HETATM   10  C   UNL     1     -11.491  14.577  67.731  1.00  0.00    -0.362 A  
HETATM   11  C   UNL     1     -11.223  14.746  66.371  1.00  0.00    -0.342 A  
HETATM   12  C   UNL     1     -10.655  15.934  65.914  1.00  0.00    -0.348 A  
HETATM   13  C   UNL     1     -10.354  16.953  66.814  1.00  0.00    -0.298 A  
HETATM   14  C   UNL     1     -10.620  16.785  68.175  1.00  0.00    -0.350 A  
ENDBRANCH   6   9
ENDBRANCH   4   6
ENDBRANCH   2   4
TORSDOF 3
ENDMDL
MODEL       62
REMARK 921   NORMALIZED FREE ENERGY PREDICTED BY IDOCK:   -3.88 KCAL/MOL
REMARK 922        TOTAL FREE ENERGY PREDICTED BY IDOCK:   -4.81 KCAL/MOL
REMARK 923 INTER-LIGAND FREE ENERGY PREDICTED BY IDOCK:   -4.63 KCAL/MOL
REMARK 924 INTRA-LIGAND FREE ENERGY PREDICTED BY IDOCK:   -0.19 KCAL/MOL
REMARK 927      BINDING AFFINITY PREDICTED BY RF-SCORE:    0.00 PKD
ROOT
HETATM    1  C   UNL     1     -13.891   8.015  71.591  1.00  0.00    -0.379 C  
HETATM    2  N   UNL     1     -13.596   9.292  70.951  1.00  0.00    -0.575 NA 
HETATM    3  H   UNL     1     -14.352   9.959  71.107  1.00  0.00     0.000 HD 
ENDROOT
BRANCH   2   4
HETATM    4  C   UNL     1     -12.294   9.867  71.362  1.00  0.00    -0.404 C  
HETATM    5  C   UNL     1     -11.474   8.860  72.186  1.00  0.00    -0.387 C  
BRANCH   4   6
HETATM    6  C   UNL     1     -11.449  10.326  70.125  1.00  0.00    -0.309 C  
HETATM    7  O   UNL     1     -10.051  10.157  70.395  1.00  0.00    -0.403 OA 
HETATM    8  H   UNL     1      -9.539  10.435  69.644  1.00  0.00     0.000 HD 
BRANCH   6   9
HETATM    9  C   UNL     1     -11.664  11.768  69.699  1.00  0.00    -0.413 A  
HETATM   10  C   UNL     1     -12.129  12.712  70.627  1.00  0.00    -0.315 A  
HETATM   11  C   UNL     1     -12.351  14.036  70.244  1.00  0.00    -0.425 A  
HETATM   12  C   UNL     1     -12.112  14.432  68.930  1.00  0.00    -0.288 A  
HETATM   13  C   UNL     1     -11.652  13.506  67.996  1.00  0.00    -0.372 A  
HETATM   14  C   UNL     1     -11.432  12.180  68.377  1.00  0.00    -0.356 A  
ENDBRANCH   6   9
ENDBRANCH   4   6
ENDBRANCH   2   4
TORSDOF 3
ENDMDL
MODEL       63
REMARK 921   NORMALIZED FREE ENERGY PREDICTED BY IDOCK:   -3.84 KCAL/MOL
REMARK 922        TOTAL FREE ENERGY PREDICTED BY IDOCK:   -4.76 KCAL/MOL
REMARK 923 INTER-LIGAND FREE ENERGY PREDICTED BY IDOCK:   -4.56 KCAL/MOL
REMARK 924 INTRA-LIGAND FREE ENERGY PREDICTED BY IDOCK:   -0.20 KCAL/MOL
REMARK 927      BINDING AFFINITY PREDICTED BY RF-SCORE:    0.00 PKD
ROOT
HETATM    1  C   UNL     1     -13.125  13.908  71.721  1.00  0.00    -0.377 C  
HETATM    2  N   UNL     1     -12.129  13.371  70.802  1.00  0.00    -0.497 NA 
HETATM    3  H   UNL     1     -12.392  12.437  70.487  1.00  0.00     0.000 HD 
ENDROOT
BRANCH   2   4
HETATM    4  C   UNL     1     -11.860  14.260  69.647  1.00  0.00    -0.318 C  
HETATM    5  C   UNL     1     -11.203  15.576  70.095  1.00  0.00    -0.331 C  
BRANCH   4   6
HETATM    6  C   UNL     1     -10.941  13.564  68.585  1.00  0.00    -0.263 C  
HETATM    7  O   UNL     1      -9.576  13.955  68.784  1.00  0.00    -0.352 OA 
HETATM    8  H   UNL     1      -9.020  13.533  68.140  1.00  0.00     0.000 HD 
BRANCH   6   9
HETATM    9  C   UNL     1     -11.297  13.856  67.138  1.00  0.00    -0.346 A  
HETATM   10  C   UNL     1     -10.653  14.897  66.452  1.00  0.00    -0.307 A  
HETATM   11  C   UNL     1     -10.985  15.190  65.128  1.00  0.00    -0.428 A  
HETATM   12  C   UNL     1     -11.966  14.447  64.474  1.00  0.00    -0.487 A  
HETATM   13  C   UNL     1     -12.615  13.411  65.141  1.00  0.00    -0.495 A  
HETATM   14  C   UNL     1     -12.286  13.118  66.467  1.00  0.00    -0.358 A  
ENDBRANCH   6   9
ENDBRANCH   4   6
ENDBRANCH   2   4
TORSDOF 3
ENDMDL
MODEL       64
REMARK 921   NORMALIZED FREE ENERGY PREDICTED BY IDOCK:   -3.83 KCAL/MOL
REMARK 922        TOTAL FREE ENERGY PREDICTED BY IDOCK:   -4.76 KCAL/MOL
REMARK 923 INTER-LIGAND FREE ENERGY PREDICTED BY IDOCK:   -4.49 KCAL/MOL
REMARK 924 INTRA-LIGAND FREE ENERGY PREDICTED BY IDOCK:   -0.27 KCAL/MOL
REMARK 927      BINDING AFFINITY PREDICTED BY RF-SCORE:    0.00 PKD
ROOT
HETATM    1  C   UNL     1      -8.596  12.249  67.988  1.00  0.00    -0.176 C  
HETATM    2  N   UNL     1      -9.397  13.371  68.462  1.00  0.00    -0.348 NA 
HETATM    3  H   UNL     1      -9.458  14.100  67.751  1.00  0.00     0.000 HD 
ENDROOT
BRANCH   2   4
HETATM    4  C   UNL     1     -10.748  12.972  68.924  1.00  0.00    -0.167 C  
HETATM    5  C   UNL     1     -11.842  13.804  68.234  1.00  0.00    -0.413 C  
BRANCH   4   6
HETATM    6  C   UNL     1     -11.020  11.451  68.666  1.00  0.00    -0.220 C  
HETATM    7  O   UNL     1     -12.074  11.296  67.706  1.00  0.00    -0.631 OA 
HETATM    8  H   UNL     1     -12.238  10.374  67.550  1.00  0.00     0.000 HD 
BRANCH   6   9
HETATM    9  C   UNL     1     -11.399  10.648  69.898  1.00  0.00    -0.386 A  
HETATM   10  C   UNL     1     -12.639  10.860  70.521  1.00  0.00    -0.409 A  
HETATM   11  C   UNL     1     -12.991  10.144  71.666  1.00  0.00    -0.561 A  
HETATM   12  C   UNL     1     -12.109   9.209  72.204  1.00  0.00    -0.389 A  
HETATM   13  C   UNL     1     -10.874   8.988  71.599  1.00  0.00    -0.437 A  
HETATM   14  C   UNL     1     -10.518   9.706  70.454  1.00  0.00    -0.352 A  
ENDBRANCH   6   9
ENDBRANCH   4   6
ENDBRANCH   2   4
TORSDOF 3
ENDMDL
MODEL       65
REMARK 921   NORMALIZED FREE ENERGY PREDICTED BY IDOCK:   -3.83 KCAL/MOL
REMARK 922        TOTAL FREE ENERGY PREDICTED BY IDOCK:   -4.76 KCAL/MOL
REMARK 923 INTER-LIGAND FREE ENERGY PREDICTED BY IDOCK:   -4.54 KCAL/MOL
REMARK 924 INTRA-LIGAND FREE ENERGY PREDICTED BY IDOCK:   -0.22 KCAL/MOL
REMARK 927      BINDING AFFINITY PREDICTED BY RF-SCORE:    0.00 PKD
ROOT
HETATM    1  C   UNL     1     -10.233  17.839  68.115  1.00  0.00    -0.382 C  
HETATM    2  N   UNL     1      -9.630  16.781  67.314  1.00  0.00    -0.231 NA 
HETATM    3  H   UNL     1      -8.612  16.850  67.328  1.00  0.00     0.000 HD 
ENDROOT
BRANCH   2   4
HETATM    4  C   UNL     1     -10.070  15.422  67.713  1.00  0.00    -0.227 C  
HETATM    5  C   UNL     1     -10.142  15.285  69.243  1.00  0.00    -0.252 C  
BRANCH   4   6
HETATM    6  C   UNL     1     -11.467  15.066  67.098  1.00  0.00    -0.297 C  
HETATM    7  O   UNL     1     -12.326  14.526  68.113  1.00  0.00    -0.596 OA 
HETATM    8  H   UNL     1     -13.172  14.310  67.740  1.00  0.00     0.000 HD 
BRANCH   6   9
HETATM    9  C   UNL     1     -11.429  14.071  65.951  1.00  0.00    -0.330 A  
HETATM   10  C   UNL     1     -10.230  13.841  65.260  1.00  0.00    -0.355 A  
HETATM   11  C   UNL     1     -10.186  12.946  64.190  1.00  0.00    -0.311 A  
HETATM   12  C   UNL     1     -11.340  12.269  63.798  1.00  0.00    -0.534 A  
HETATM   13  C   UNL     1     -12.539  12.488  64.473  1.00  0.00    -0.503 A  
HETATM   14  C   UNL     1     -12.585  13.387  65.542  1.00  0.00    -0.520 A  
ENDBRANCH   6   9
ENDBRANCH   4   6
ENDBRANCH   2   4
TORSDOF 3
ENDMDL
MODEL       66
REMARK 921   NORMALIZED FREE ENERGY PREDICTED BY IDOCK:   -3.80 KCAL/MOL
REMARK 922        TOTAL FREE ENERGY PREDICTED BY IDOCK:   -4.71 KCAL/MOL
REMARK 923 INTER-LIGAND FREE ENERGY PREDICTED BY IDOCK:   -4.50 KCAL/MOL
REMARK 924 INTRA-LIGAND FREE ENERGY PREDICTED BY IDOCK:   -0.21 KCAL/MOL
REMARK 927      BINDING AFFINITY PREDICTED BY RF-SCORE:    0.00 PKD
ROOT
HETATM    1  C   UNL     1     -10.656   7.725  67.415  1.00  0.00    -0.275 C  
HETATM    2  N   UNL     1     -10.978   9.145  67.471  1.00  0.00    -0.449 NA 
HETATM    3  H   UNL     1     -11.956   9.305  67.227  1.00  0.00     0.000 HD 
ENDROOT
BRANCH   2   4
HETATM    4  C   UNL     1     -10.653   9.769  68.776  1.00  0.00    -0.219 C  
HETATM    5  C   UNL     1      -9.174   9.562  69.141  1.00  0.00    -0.163 C  
BRANCH   4   6
HETATM    6  C   UNL     1     -10.972  11.304  68.777  1.00  0.00    -0.220 C  
HETATM    7  O   UNL     1      -9.753  12.058  68.749  1.00  0.00    -0.374 OA 
HETATM    8  H   UNL     1      -9.947  12.988  68.750  1.00  0.00     0.000 HD 
BRANCH   6   9
HETATM    9  C   UNL     1     -11.787  11.789  69.962  1.00  0.00    -0.422 A  
HETATM   10  C   UNL     1     -12.343  10.864  70.860  1.00  0.00    -0.501 A  
HETATM   11  C   UNL     1     -13.111  11.296  71.942  1.00  0.00    -0.510 A  
HETATM   12  C   UNL     1     -13.336  12.657  72.140  1.00  0.00    -0.570 A  
HETATM   13  C   UNL     1     -12.793  13.588  71.257  1.00  0.00    -0.420 A  
HETATM   14  C   UNL     1     -12.026  13.157  70.172  1.00  0.00    -0.381 A  
ENDBRANCH   6   9
ENDBRANCH   4   6
ENDBRANCH   2   4
TORSDOF 3
ENDMDL
MODEL       67
REMARK 921   NORMALIZED FREE ENERGY PREDICTED BY IDOCK:   -3.79 KCAL/MOL
REMARK 922        TOTAL FREE ENERGY PREDICTED BY IDOCK:   -4.70 KCAL/MOL
REMARK 923 INTER-LIGAND FREE ENERGY PREDICTED BY IDOCK:   -4.51 KCAL/MOL
REMARK 924 INTRA-LIGAND FREE ENERGY PREDICTED BY IDOCK:   -0.19 KCAL/MOL
REMARK 927      BINDING AFFINITY PREDICTED BY RF-SCORE:    0.00 PKD
ROOT
HETATM    1  C   UNL     1      -7.951  14.490  68.240  1.00  0.00    -0.137 C  
HETATM    2  N   UNL     1      -9.387  14.335  68.035  1.00  0.00    -0.194 NA 
HETATM    3  H   UNL     1      -9.630  13.353  67.904  1.00  0.00     0.000 HD 
ENDROOT
BRANCH   2   4
HETATM    4  C   UNL     1     -10.201  14.938  69.117  1.00  0.00    -0.242 C  
HETATM    5  C   UNL     1     -10.079  16.471  69.119  1.00  0.00    -0.287 C  
BRANCH   4   6
HETATM    6  C   UNL     1     -11.713  14.543  68.989  1.00  0.00    -0.311 C  
HETATM    7  O   UNL     1     -12.535  15.715  69.077  1.00  0.00    -0.596 OA 
HETATM    8  H   UNL     1     -13.451  15.475  68.999  1.00  0.00     0.000 HD 
BRANCH   6   9
HETATM    9  C   UNL     1     -12.209  13.554  70.029  1.00  0.00    -0.381 A  
HETATM   10  C   UNL     1     -11.966  12.182  69.866  1.00  0.00    -0.380 A  
HETATM   11  C   UNL     1     -12.435  11.260  70.803  1.00  0.00    -0.471 A  
HETATM   12  C   UNL     1     -13.152  11.698  71.915  1.00  0.00    -0.490 A  
HETATM   13  C   UNL     1     -13.403  13.057  72.090  1.00  0.00    -0.622 A  
HETATM   14  C   UNL     1     -12.937  13.981  71.151  1.00  0.00    -0.402 A  
ENDBRANCH   6   9
ENDBRANCH   4   6
ENDBRANCH   2   4
TORSDOF 3
ENDMDL
MODEL       68
REMARK 921   NORMALIZED FREE ENERGY PREDICTED BY IDOCK:   -3.78 KCAL/MOL
REMARK 922        TOTAL FREE ENERGY PREDICTED BY IDOCK:   -4.69 KCAL/MOL
REMARK 923 INTER-LIGAND FREE ENERGY PREDICTED BY IDOCK:   -4.47 KCAL/MOL
REMARK 924 INTRA-LIGAND FREE ENERGY PREDICTED BY IDOCK:   -0.22 KCAL/MOL
REMARK 927      BINDING AFFINITY PREDICTED BY RF-SCORE:    0.00 PKD
ROOT
HETATM    1  C   UNL     1     -11.724  11.342  69.609  1.00  0.00    -0.350 C  
HETATM    2  N   UNL     1     -11.748  12.768  69.911  1.00  0.00    -0.484 NA 
HETATM    3  H   UNL     1     -10.931  13.035  70.461  1.00  0.00     0.000 HD 
ENDROOT
BRANCH   2   4
HETATM    4  C   UNL     1     -11.874  13.620  68.706  1.00  0.00    -0.360 C  
HETATM    5  C   UNL     1     -11.958  15.109  69.081  1.00  0.00    -0.304 C  
BRANCH   4   6
HETATM    6  C   UNL     1     -10.674  13.406  67.720  1.00  0.00    -0.248 C  
HETATM    7  O   UNL     1      -9.944  14.631  67.563  1.00  0.00    -0.222 OA 
HETATM    8  H   UNL     1      -9.217  14.500  66.965  1.00  0.00     0.000 HD 
BRANCH   6   9
HETATM    9  C   UNL     1     -11.060  12.920  66.334  1.00  0.00    -0.316 A  
HETATM   10  C   UNL     1     -12.237  13.387  65.728  1.00  0.00    -0.507 A  
HETATM   11  C   UNL     1     -12.615  12.932  64.464  1.00  0.00    -0.420 A  
HETATM   12  C   UNL     1     -11.822  12.004  63.790  1.00  0.00    -0.581 A  
HETATM   13  C   UNL     1     -10.652  11.529  64.379  1.00  0.00    -0.392 A  
HETATM   14  C   UNL     1     -10.274  11.982  65.646  1.00  0.00    -0.284 A  
ENDBRANCH   6   9
ENDBRANCH   4   6
ENDBRANCH   2   4
TORSDOF 3
ENDMDL
MODEL       69
REMARK 921   NORMALIZED FREE ENERGY PREDICTED BY IDOCK:   -3.77 KCAL/MOL
REMARK 922        TOTAL FREE ENERGY PREDICTED BY IDOCK:   -4.68 KCAL/MOL
REMARK 923 INTER-LIGAND FREE ENERGY PREDICTED BY IDOCK:   -4.47 KCAL/MOL
REMARK 924 INTRA-LIGAND FREE ENERGY PREDICTED BY IDOCK:   -0.21 KCAL/MOL
REMARK 927      BINDING AFFINITY PREDICTED BY RF-SCORE:    0.00 PKD
ROOT
HETATM    1  C   UNL     1     -10.051   5.775  72.621  1.00  0.00    -0.180 C  
HETATM    2  N   UNL     1      -9.718   6.934  71.801  1.00  0.00    -0.160 NA 
HETATM    3  H   UNL     1      -8.771   6.855  71.429  1.00  0.00     0.000 HD 
ENDROOT
BRANCH   2   4
HETATM    4  C   UNL     1     -10.692   7.180  70.711  1.00  0.00    -0.231 C  
HETATM    5  C   UNL     1     -11.017   5.884  69.949  1.00  0.00    -0.444 C  
BRANCH   4   6
HETATM    6  C   UNL     1     -12.023   7.802  71.257  1.00  0.00    -0.302 C  
HETATM    7  O   UNL     1     -13.149   7.205  70.599  1.00  0.00    -0.582 OA 
HETATM    8  H   UNL     1     -13.956   7.582  70.930  1.00  0.00     0.000 HD 
BRANCH   6   9
HETATM    9  C   UNL     1     -12.142   9.307  71.097  1.00  0.00    -0.389 A  
HETATM   10  C   UNL     1     -12.979  10.041  71.951  1.00  0.00    -0.547 A  
HETATM   11  C   UNL     1     -13.113  11.422  71.802  1.00  0.00    -0.523 A  
HETATM   12  C   UNL     1     -12.414  12.087  70.796  1.00  0.00    -0.372 A  
HETATM   13  C   UNL     1     -11.580  11.373  69.939  1.00  0.00    -0.402 A  
HETATM   14  C   UNL     1     -11.447   9.989  70.085  1.00  0.00    -0.344 A  
ENDBRANCH   6   9
ENDBRANCH   4   6
ENDBRANCH   2   4
TORSDOF 3
ENDMDL
MODEL       70
REMARK 921   NORMALIZED FREE ENERGY PREDICTED BY IDOCK:   -3.75 KCAL/MOL
REMARK 922        TOTAL FREE ENERGY PREDICTED BY IDOCK:   -4.66 KCAL/MOL
REMARK 923 INTER-LIGAND FREE ENERGY PREDICTED BY IDOCK:   -4.75 KCAL/MOL
REMARK 924 INTRA-LIGAND FREE ENERGY PREDICTED BY IDOCK:    0.09 KCAL/MOL
REMARK 927      BINDING AFFINITY PREDICTED BY RF-SCORE:    0.00 PKD
ROOT
HETATM    1  C   UNL     1     -11.833  15.928  72.710  1.00  0.00    -0.478 C  
HETATM    2  N   UNL     1     -11.253  15.093  71.664  1.00  0.00    -0.562 NA 
HETATM    3  H   UNL     1     -11.777  14.224  71.562  1.00  0.00     0.000 HD 
ENDROOT
BRANCH   2   4
HETATM    4  C   UNL     1     -11.128  15.789  70.362  1.00  0.00    -0.366 C  
HETATM    5  C   UNL     1      -9.775  15.487  69.695  1.00  0.00    -0.276 C  
BRANCH   4   6
HETATM    6  C   UNL     1     -12.284  15.390  69.381  1.00  0.00    -0.219 C  
HETATM    7  O   UNL     1     -13.488  15.141  70.119  1.00  0.00    -0.515 OA 
HETATM    8  H   UNL     1     -14.188  14.900  69.524  1.00  0.00     0.000 HD 
BRANCH   6   9
HETATM    9  C   UNL     1     -12.007  14.167  68.526  1.00  0.00    -0.367 A  
HETATM   10  C   UNL     1     -11.909  14.291  67.131  1.00  0.00    -0.454 A  
HETATM   11  C   UNL     1     -11.676  13.172  66.331  1.00  0.00    -0.429 A  
HETATM   12  C   UNL     1     -11.539  11.913  66.915  1.00  0.00    -0.358 A  
HETATM   13  C   UNL     1     -11.636  11.772  68.297  1.00  0.00    -0.373 A  
HETATM   14  C   UNL     1     -11.872  12.892  69.099  1.00  0.00    -0.353 A  
ENDBRANCH   6   9
ENDBRANCH   4   6
ENDBRANCH   2   4
TORSDOF 3
ENDMDL
MODEL       71
REMARK 921   NORMALIZED FREE ENERGY PREDICTED BY IDOCK:   -3.75 KCAL/MOL
REMARK 922        TOTAL FREE ENERGY PREDICTED BY IDOCK:   -4.65 KCAL/MOL
REMARK 923 INTER-LIGAND FREE ENERGY PREDICTED BY IDOCK:   -4.48 KCAL/MOL
REMARK 924 INTRA-LIGAND FREE ENERGY PREDICTED BY IDOCK:   -0.17 KCAL/MOL
REMARK 927      BINDING AFFINITY PREDICTED BY RF-SCORE:    0.00 PKD
ROOT
HETATM    1  C   UNL     1      -9.105  13.732  67.836  1.00  0.00    -0.193 C  
HETATM    2  N   UNL     1      -9.345  13.864  66.404  1.00  0.00    -0.431 NA 
HETATM    3  H   UNL     1      -9.016  13.038  65.904  1.00  0.00     0.000 HD 
ENDROOT
BRANCH   2   4
HETATM    4  C   UNL     1     -10.761  14.152  66.072  1.00  0.00    -0.299 C  
HETATM    5  C   UNL     1     -10.870  15.227  64.978  1.00  0.00    -0.457 C  
BRANCH   4   6
HETATM    6  C   UNL     1     -11.516  12.862  65.600  1.00  0.00    -0.332 C  
HETATM    7  O   UNL     1     -12.133  12.216  66.723  1.00  0.00    -0.609 OA 
HETATM    8  H   UNL     1     -12.590  11.435  66.437  1.00  0.00     0.000 HD 
BRANCH   6   9
HETATM    9  C   UNL     1     -10.651  11.832  64.896  1.00  0.00    -0.344 A  
HETATM   10  C   UNL     1     -10.426  11.929  63.514  1.00  0.00    -0.505 A  
HETATM   11  C   UNL     1      -9.650  10.978  62.851  1.00  0.00    -0.369 A  
HETATM   12  C   UNL     1      -9.090   9.916  63.559  1.00  0.00    -0.289 A  
HETATM   13  C   UNL     1      -9.305   9.804  64.931  1.00  0.00    -0.327 A  
HETATM   14  C   UNL     1     -10.084  10.754  65.596  1.00  0.00    -0.327 A  
ENDBRANCH   6   9
ENDBRANCH   4   6
ENDBRANCH   2   4
TORSDOF 3
ENDMDL
MODEL       72
REMARK 921   NORMALIZED FREE ENERGY PREDICTED BY IDOCK:   -3.74 KCAL/MOL
REMARK 922        TOTAL FREE ENERGY PREDICTED BY IDOCK:   -4.65 KCAL/MOL
REMARK 923 INTER-LIGAND FREE ENERGY PREDICTED BY IDOCK:   -4.40 KCAL/MOL
REMARK 924 INTRA-LIGAND FREE ENERGY PREDICTED BY IDOCK:   -0.25 KCAL/MOL
REMARK 927      BINDING AFFINITY PREDICTED BY RF-SCORE:    0.00 PKD
ROOT
HETATM    1  C   UNL     1     -11.924  11.019  69.709  1.00  0.00    -0.356 C  
HETATM    2  N   UNL     1     -10.998  12.142  69.634  1.00  0.00    -0.466 NA 
HETATM    3  H   UNL     1     -10.326  12.109  70.401  1.00  0.00     0.000 HD 
ENDROOT
BRANCH   2   4
HETATM    4  C   UNL     1     -10.303  12.243  68.329  1.00  0.00    -0.221 C  
HETATM    5  C   UNL     1      -8.822  11.850  68.453  1.00  0.00    -0.159 C  
BRANCH   4   6
HETATM    6  C   UNL     1     -10.985  11.343  67.242  1.00  0.00    -0.282 C  
HETATM    7  O   UNL     1     -10.121  10.251  66.897  1.00  0.00    -0.202 OA 
HETATM    8  H   UNL     1     -10.535   9.706  66.238  1.00  0.00     0.000 HD 
BRANCH   6   9
HETATM    9  C   UNL     1     -11.357  12.059  65.956  1.00  0.00    -0.398 A  
HETATM   10  C   UNL     1     -12.061  13.272  66.005  1.00  0.00    -0.491 A  
HETATM   11  C   UNL     1     -12.428  13.930  64.830  1.00  0.00    -0.420 A  
HETATM   12  C   UNL     1     -12.096  13.384  63.591  1.00  0.00    -0.513 A  
HETATM   13  C   UNL     1     -11.398  12.181  63.525  1.00  0.00    -0.535 A  
HETATM   14  C   UNL     1     -11.033  11.519  64.701  1.00  0.00    -0.353 A  
ENDBRANCH   6   9
ENDBRANCH   4   6
ENDBRANCH   2   4
TORSDOF 3
ENDMDL
MODEL       73
REMARK 921   NORMALIZED FREE ENERGY PREDICTED BY IDOCK:   -3.74 KCAL/MOL
REMARK 922        TOTAL FREE ENERGY PREDICTED BY IDOCK:   -4.64 KCAL/MOL
REMARK 923 INTER-LIGAND FREE ENERGY PREDICTED BY IDOCK:   -4.44 KCAL/MOL
REMARK 924 INTRA-LIGAND FREE ENERGY PREDICTED BY IDOCK:   -0.20 KCAL/MOL
REMARK 927      BINDING AFFINITY PREDICTED BY RF-SCORE:    0.00 PKD
ROOT
HETATM    1  C   UNL     1     -12.612  14.068  65.806  1.00  0.00    -0.479 C  
HETATM    2  N   UNL     1     -12.383  12.629  65.861  1.00  0.00    -0.595 NA 
HETATM    3  H   UNL     1     -13.252  12.131  66.056  1.00  0.00     0.000 HD 
ENDROOT
BRANCH   2   4
HETATM    4  C   UNL     1     -11.731  12.093  64.643  1.00  0.00    -0.332 C  
HETATM    5  C   UNL     1     -12.104  12.917  63.400  1.00  0.00    -0.610 C  
BRANCH   4   6
HETATM    6  C   UNL     1     -10.171  12.062  64.790  1.00  0.00    -0.279 C  
HETATM    7  O   UNL     1      -9.556  12.587  63.606  1.00  0.00    -0.673 OA 
HETATM    8  H   UNL     1      -8.610  12.568  63.696  1.00  0.00     0.000 HD 
BRANCH   6   9
HETATM    9  C   UNL     1      -9.577  10.688  65.046  1.00  0.00    -0.319 A  
HETATM   10  C   UNL     1      -8.699  10.117  64.113  1.00  0.00    -0.216 A  
HETATM   11  C   UNL     1      -8.162   8.846  64.325  1.00  0.00    -0.169 A  
HETATM   12  C   UNL     1      -8.497   8.130  65.473  1.00  0.00    -0.174 A  
HETATM   13  C   UNL     1      -9.368   8.682  66.409  1.00  0.00    -0.271 A  
HETATM   14  C   UNL     1      -9.909   9.953  66.196  1.00  0.00    -0.324 A  
ENDBRANCH   6   9
ENDBRANCH   4   6
ENDBRANCH   2   4
TORSDOF 3
ENDMDL
MODEL       74
REMARK 921   NORMALIZED FREE ENERGY PREDICTED BY IDOCK:   -3.74 KCAL/MOL
REMARK 922        TOTAL FREE ENERGY PREDICTED BY IDOCK:   -4.64 KCAL/MOL
REMARK 923 INTER-LIGAND FREE ENERGY PREDICTED BY IDOCK:   -4.42 KCAL/MOL
REMARK 924 INTRA-LIGAND FREE ENERGY PREDICTED BY IDOCK:   -0.22 KCAL/MOL
REMARK 927      BINDING AFFINITY PREDICTED BY RF-SCORE:    0.00 PKD
ROOT
HETATM    1  C   UNL     1     -11.663  12.879  63.578  1.00  0.00    -0.512 C  
HETATM    2  N   UNL     1     -11.351  11.464  63.423  1.00  0.00    -0.801 NA 
HETATM    3  H   UNL     1     -10.971  11.276  62.495  1.00  0.00     0.000 HD 
ENDROOT
BRANCH   2   4
HETATM    4  C   UNL     1     -10.447  10.944  64.476  1.00  0.00    -0.323 C  
HETATM    5  C   UNL     1      -9.163  10.354  63.869  1.00  0.00    -0.301 C  
BRANCH   4   6
HETATM    6  C   UNL     1     -10.062  12.059  65.508  1.00  0.00    -0.252 C  
HETATM    7  O   UNL     1      -8.639  12.103  65.675  1.00  0.00    -0.264 OA 
HETATM    8  H   UNL     1      -8.406  12.779  66.301  1.00  0.00     0.000 HD 
BRANCH   6   9
HETATM    9  C   UNL     1     -10.682  11.902  66.885  1.00  0.00    -0.285 A  
HETATM   10  C   UNL     1     -10.546  10.692  67.583  1.00  0.00    -0.288 A  
HETATM   11  C   UNL     1     -11.129  10.526  68.841  1.00  0.00    -0.312 A  
HETATM   12  C   UNL     1     -11.856  11.567  69.416  1.00  0.00    -0.417 A  
HETATM   13  C   UNL     1     -12.002  12.773  68.735  1.00  0.00    -0.278 A  
HETATM   14  C   UNL     1     -11.422  12.940  67.474  1.00  0.00    -0.386 A  
ENDBRANCH   6   9
ENDBRANCH   4   6
ENDBRANCH   2   4
TORSDOF 3
ENDMDL
MODEL       75
REMARK 921   NORMALIZED FREE ENERGY PREDICTED BY IDOCK:   -3.73 KCAL/MOL
REMARK 922        TOTAL FREE ENERGY PREDICTED BY IDOCK:   -4.63 KCAL/MOL
REMARK 923 INTER-LIGAND FREE ENERGY PREDICTED BY IDOCK:   -4.38 KCAL/MOL
REMARK 924 INTRA-LIGAND FREE ENERGY PREDICTED BY IDOCK:   -0.25 KCAL/MOL
REMARK 927      BINDING AFFINITY PREDICTED BY RF-SCORE:    0.00 PKD
ROOT
HETATM    1  C   UNL     1     -10.457   7.359  67.140  1.00  0.00    -0.333 C  
HETATM    2  N   UNL     1     -11.493   6.676  67.904  1.00  0.00    -0.626 NA 
HETATM    3  H   UNL     1     -11.781   5.816  67.437  1.00  0.00     0.000 HD 
ENDROOT
BRANCH   2   4
HETATM    4  C   UNL     1     -11.104   6.407  69.309  1.00  0.00    -0.373 C  
HETATM    5  C   UNL     1     -10.156   5.200  69.404  1.00  0.00    -0.305 C  
BRANCH   4   6
HETATM    6  C   UNL     1     -10.418   7.653  69.966  1.00  0.00    -0.229 C  
HETATM    7  O   UNL     1      -9.576   7.235  71.049  1.00  0.00    -0.159 OA 
HETATM    8  H   UNL     1      -9.160   7.991  71.447  1.00  0.00     0.000 HD 
BRANCH   6   9
HETATM    9  C   UNL     1     -11.373   8.703  70.504  1.00  0.00    -0.241 A  
HETATM   10  C   UNL     1     -12.275   8.375  71.528  1.00  0.00    -0.340 A  
HETATM   11  C   UNL     1     -13.173   9.324  72.017  1.00  0.00    -0.519 A  
HETATM   12  C   UNL     1     -13.182  10.614  71.489  1.00  0.00    -0.460 A  
HETATM   13  C   UNL     1     -12.294  10.956  70.472  1.00  0.00    -0.463 A  
HETATM   14  C   UNL     1     -11.396  10.005  69.978  1.00  0.00    -0.334 A  
ENDBRANCH   6   9
ENDBRANCH   4   6
ENDBRANCH   2   4
TORSDOF 3
ENDMDL
MODEL       76
REMARK 921   NORMALIZED FREE ENERGY PREDICTED BY IDOCK:   -3.73 KCAL/MOL
REMARK 922        TOTAL FREE ENERGY PREDICTED BY IDOCK:   -4.63 KCAL/MOL
REMARK 923 INTER-LIGAND FREE ENERGY PREDICTED BY IDOCK:   -4.42 KCAL/MOL
REMARK 924 INTRA-LIGAND FREE ENERGY PREDICTED BY IDOCK:   -0.21 KCAL/MOL
REMARK 927      BINDING AFFINITY PREDICTED BY RF-SCORE:    0.00 PKD
ROOT
HETATM    1  C   UNL     1      -9.551  10.022  69.290  1.00  0.00    -0.216 C  
HETATM    2  N   UNL     1      -8.933  11.317  69.029  1.00  0.00    -0.381 NA 
HETATM    3  H   UNL     1      -8.085  11.208  68.472  1.00  0.00     0.000 HD 
ENDROOT
BRANCH   2   4
HETATM    4  C   UNL     1      -9.856  12.290  68.397  1.00  0.00    -0.199 C  
HETATM    5  C   UNL     1      -9.617  12.382  66.880  1.00  0.00    -0.219 C  
BRANCH   4   6
HETATM    6  C   UNL     1     -11.355  11.917  68.659  1.00  0.00    -0.276 C  
HETATM    7  O   UNL     1     -12.154  12.268  67.521  1.00  0.00    -0.514 OA 
HETATM    8  H   UNL     1     -13.063  12.042  67.680  1.00  0.00     0.000 HD 
BRANCH   6   9
HETATM    9  C   UNL     1     -11.977  12.575  69.878  1.00  0.00    -0.371 A  
HETATM   10  C   UNL     1     -12.618  11.792  70.849  1.00  0.00    -0.384 A  
HETATM   11  C   UNL     1     -13.212  12.386  71.964  1.00  0.00    -0.514 A  
HETATM   12  C   UNL     1     -13.174  13.770  72.121  1.00  0.00    -0.538 A  
HETATM   13  C   UNL     1     -12.543  14.562  71.164  1.00  0.00    -0.406 A  
HETATM   14  C   UNL     1     -11.950  13.969  70.046  1.00  0.00    -0.404 A  
ENDBRANCH   6   9
ENDBRANCH   4   6
ENDBRANCH   2   4
TORSDOF 3
ENDMDL
MODEL       77
REMARK 921   NORMALIZED FREE ENERGY PREDICTED BY IDOCK:   -3.70 KCAL/MOL
REMARK 922        TOTAL FREE ENERGY PREDICTED BY IDOCK:   -4.60 KCAL/MOL
REMARK 923 INTER-LIGAND FREE ENERGY PREDICTED BY IDOCK:   -4.39 KCAL/MOL
REMARK 924 INTRA-LIGAND FREE ENERGY PREDICTED BY IDOCK:   -0.22 KCAL/MOL
REMARK 927      BINDING AFFINITY PREDICTED BY RF-SCORE:    0.00 PKD
ROOT
HETATM    1  C   UNL     1     -12.007  16.089  72.439  1.00  0.00    -0.544 C  
HETATM    2  N   UNL     1     -12.589  15.944  71.110  1.00  0.00    -0.546 NA 
HETATM    3  H   UNL     1     -12.763  16.857  70.689  1.00  0.00     0.000 HD 
ENDROOT
BRANCH   2   4
HETATM    4  C   UNL     1     -11.779  15.093  70.206  1.00  0.00    -0.300 C  
HETATM    5  C   UNL     1     -12.236  13.626  70.261  1.00  0.00    -0.423 C  
BRANCH   4   6
HETATM    6  C   UNL     1     -11.848  15.598  68.724  1.00  0.00    -0.321 C  
HETATM    7  O   UNL     1     -12.453  14.597  67.893  1.00  0.00    -0.586 OA 
HETATM    8  H   UNL     1     -12.494  14.904  66.995  1.00  0.00     0.000 HD 
BRANCH   6   9
HETATM    9  C   UNL     1     -10.509  15.961  68.106  1.00  0.00    -0.270 A  
HETATM   10  C   UNL     1     -10.296  15.774  66.732  1.00  0.00    -0.293 A  
HETATM   11  C   UNL     1      -9.063  16.084  66.154  1.00  0.00    -0.387 A  
HETATM   12  C   UNL     1      -8.029  16.584  66.944  1.00  0.00    -0.260 A  
HETATM   13  C   UNL     1      -8.224  16.773  68.310  1.00  0.00    -0.204 A  
HETATM   14  C   UNL     1      -9.457  16.461  68.889  1.00  0.00    -0.254 A  
ENDBRANCH   6   9
ENDBRANCH   4   6
ENDBRANCH   2   4
TORSDOF 3
ENDMDL
MODEL       78
REMARK 921   NORMALIZED FREE ENERGY PREDICTED BY IDOCK:   -3.68 KCAL/MOL
REMARK 922        TOTAL FREE ENERGY PREDICTED BY IDOCK:   -4.57 KCAL/MOL
REMARK 923 INTER-LIGAND FREE ENERGY PREDICTED BY IDOCK:   -4.44 KCAL/MOL
REMARK 924 INTRA-LIGAND FREE ENERGY PREDICTED BY IDOCK:   -0.13 KCAL/MOL
REMARK 927      BINDING AFFINITY PREDICTED BY RF-SCORE:    0.00 PKD
ROOT
HETATM    1  C   UNL     1      -8.514   8.602  66.516  1.00  0.00    -0.113 C  
HETATM    2  N   UNL     1      -9.387   8.901  65.387  1.00  0.00    -0.433 NA 
HETATM    3  H   UNL     1     -10.358   8.978  65.690  1.00  0.00     0.000 HD 
ENDROOT
BRANCH   2   4
HETATM    4  C   UNL     1      -8.974  10.107  64.631  1.00  0.00    -0.209 C  
HETATM    5  C   UNL     1      -7.755   9.817  63.739  1.00  0.00    -0.135 C  
BRANCH   4   6
HETATM    6  C   UNL     1     -10.142  10.658  63.742  1.00  0.00    -0.270 C  
HETATM    7  O   UNL     1      -9.625  11.129  62.490  1.00  0.00    -0.548 OA 
HETATM    8  H   UNL     1     -10.333  11.463  61.952  1.00  0.00     0.000 HD 
BRANCH   6   9
HETATM    9  C   UNL     1     -10.944  11.788  64.363  1.00  0.00    -0.397 A  
HETATM   10  C   UNL     1     -11.110  11.849  65.755  1.00  0.00    -0.367 A  
HETATM   11  C   UNL     1     -11.863  12.870  66.337  1.00  0.00    -0.478 A  
HETATM   12  C   UNL     1     -12.459  13.842  65.536  1.00  0.00    -0.541 A  
HETATM   13  C   UNL     1     -12.304  13.795  64.152  1.00  0.00    -0.382 A  
HETATM   14  C   UNL     1     -11.554  12.771  63.568  1.00  0.00    -0.565 A  
ENDBRANCH   6   9
ENDBRANCH   4   6
ENDBRANCH   2   4
TORSDOF 3
ENDMDL
MODEL       79
REMARK 921   NORMALIZED FREE ENERGY PREDICTED BY IDOCK:   -3.68 KCAL/MOL
REMARK 922        TOTAL FREE ENERGY PREDICTED BY IDOCK:   -4.57 KCAL/MOL
REMARK 923 INTER-LIGAND FREE ENERGY PREDICTED BY IDOCK:   -4.28 KCAL/MOL
REMARK 924 INTRA-LIGAND FREE ENERGY PREDICTED BY IDOCK:   -0.29 KCAL/MOL
REMARK 927      BINDING AFFINITY PREDICTED BY RF-SCORE:    0.00 PKD
ROOT
HETATM    1  C   UNL     1     -10.947   6.927  73.069  1.00  0.00    -0.274 C  
HETATM    2  N   UNL     1     -11.957   7.976  72.982  1.00  0.00    -0.633 NA 
HETATM    3  H   UNL     1     -11.782   8.706  73.672  1.00  0.00     0.000 HD 
ENDROOT
BRANCH   2   4
HETATM    4  C   UNL     1     -12.085   8.554  71.623  1.00  0.00    -0.321 C  
HETATM    5  C   UNL     1     -12.725   9.951  71.669  1.00  0.00    -0.527 C  
BRANCH   4   6
HETATM    6  C   UNL     1     -10.695   8.649  70.904  1.00  0.00    -0.219 C  
HETATM    7  O   UNL     1     -10.280  10.020  70.819  1.00  0.00    -0.364 OA 
HETATM    8  H   UNL     1      -9.438  10.077  70.383  1.00  0.00     0.000 HD 
BRANCH   6   9
HETATM    9  C   UNL     1     -10.657   8.069  69.501  1.00  0.00    -0.216 A  
HETATM   10  C   UNL     1     -10.896   6.701  69.300  1.00  0.00    -0.335 A  
HETATM   11  C   UNL     1     -10.842   6.151  68.018  1.00  0.00    -0.398 A  
HETATM   12  C   UNL     1     -10.549   6.961  66.922  1.00  0.00    -0.372 A  
HETATM   13  C   UNL     1     -10.308   8.320  67.106  1.00  0.00    -0.387 A  
HETATM   14  C   UNL     1     -10.358   8.872  68.389  1.00  0.00    -0.237 A  
ENDBRANCH   6   9
ENDBRANCH   4   6
ENDBRANCH   2   4
TORSDOF 3
ENDMDL
MODEL       80
REMARK 921   NORMALIZED FREE ENERGY PREDICTED BY IDOCK:   -3.67 KCAL/MOL
REMARK 922        TOTAL FREE ENERGY PREDICTED BY IDOCK:   -4.56 KCAL/MOL
REMARK 923 INTER-LIGAND FREE ENERGY PREDICTED BY IDOCK:   -4.35 KCAL/MOL
REMARK 924 INTRA-LIGAND FREE ENERGY PREDICTED BY IDOCK:   -0.21 KCAL/MOL
REMARK 927      BINDING AFFINITY PREDICTED BY RF-SCORE:    0.00 PKD
ROOT
HETATM    1  C   UNL     1     -11.288  14.682  69.671  1.00  0.00    -0.280 C  
HETATM    2  N   UNL     1     -12.054  14.843  68.441  1.00  0.00    -0.573 NA 
HETATM    3  H   UNL     1     -12.987  15.203  68.639  1.00  0.00     0.000 HD 
ENDROOT
BRANCH   2   4
HETATM    4  C   UNL     1     -11.369  15.683  67.430  1.00  0.00    -0.163 C  
HETATM    5  C   UNL     1     -10.712  16.913  68.079  1.00  0.00    -0.364 C  
BRANCH   4   6
HETATM    6  C   UNL     1     -10.279  14.872  66.648  1.00  0.00    -0.261 C  
HETATM    7  O   UNL     1      -9.400  15.771  65.958  1.00  0.00    -0.317 OA 
HETATM    8  H   UNL     1      -8.740  15.278  65.485  1.00  0.00     0.000 HD 
BRANCH   6   9
HETATM    9  C   UNL     1     -10.821  13.886  65.629  1.00  0.00    -0.292 A  
HETATM   10  C   UNL     1     -11.552  14.348  64.523  1.00  0.00    -0.393 A  
HETATM   11  C   UNL     1     -12.074  13.451  63.590  1.00  0.00    -0.513 A  
HETATM   12  C   UNL     1     -11.873  12.081  63.750  1.00  0.00    -0.581 A  
HETATM   13  C   UNL     1     -11.152  11.606  64.843  1.00  0.00    -0.317 A  
HETATM   14  C   UNL     1     -10.632  12.503  65.780  1.00  0.00    -0.299 A  
ENDBRANCH   6   9
ENDBRANCH   4   6
ENDBRANCH   2   4
TORSDOF 3
ENDMDL
MODEL       81
REMARK 921   NORMALIZED FREE ENERGY PREDICTED BY IDOCK:   -3.65 KCAL/MOL
REMARK 922        TOTAL FREE ENERGY PREDICTED BY IDOCK:   -4.54 KCAL/MOL
REMARK 923 INTER-LIGAND FREE ENERGY PREDICTED BY IDOCK:   -4.32 KCAL/MOL
REMARK 924 INTRA-LIGAND FREE ENERGY PREDICTED BY IDOCK:   -0.23 KCAL/MOL
REMARK 927      BINDING AFFINITY PREDICTED BY RF-SCORE:    0.00 PKD
ROOT
HETATM    1  C   UNL     1     -11.688  13.966  68.015  1.00  0.00    -0.352 C  
HETATM    2  N   UNL     1     -11.181  13.119  66.943  1.00  0.00    -0.287 NA 
HETATM    3  H   UNL     1     -11.920  12.519  66.575  1.00  0.00     0.000 HD 
ENDROOT
BRANCH   2   4
HETATM    4  C   UNL     1     -10.529  13.881  65.852  1.00  0.00    -0.305 C  
HETATM    5  C   UNL     1     -10.704  13.176  64.496  1.00  0.00    -0.416 C  
BRANCH   4   6
HETATM    6  C   UNL     1     -11.096  15.339  65.749  1.00  0.00    -0.301 C  
HETATM    7  O   UNL     1     -11.658  15.556  64.448  1.00  0.00    -0.638 OA 
HETATM    8  H   UNL     1     -12.001  16.439  64.386  1.00  0.00     0.000 HD 
BRANCH   6   9
HETATM    9  C   UNL     1     -10.082  16.441  66.001  1.00  0.00    -0.373 A  
HETATM   10  C   UNL     1      -8.716  16.132  66.094  1.00  0.00    -0.358 A  
HETATM   11  C   UNL     1      -7.776  17.132  66.346  1.00  0.00    -0.345 A  
HETATM   12  C   UNL     1      -8.188  18.453  66.510  1.00  0.00    -0.289 A  
HETATM   13  C   UNL     1      -9.541  18.776  66.422  1.00  0.00    -0.354 A  
HETATM   14  C   UNL     1     -10.484  17.775  66.173  1.00  0.00    -0.301 A  
ENDBRANCH   6   9
ENDBRANCH   4   6
ENDBRANCH   2   4
TORSDOF 3
ENDMDL
MODEL       82
REMARK 921   NORMALIZED FREE ENERGY PREDICTED BY IDOCK:   -3.65 KCAL/MOL
REMARK 922        TOTAL FREE ENERGY PREDICTED BY IDOCK:   -4.54 KCAL/MOL
REMARK 923 INTER-LIGAND FREE ENERGY PREDICTED BY IDOCK:   -4.32 KCAL/MOL
REMARK 924 INTRA-LIGAND FREE ENERGY PREDICTED BY IDOCK:   -0.22 KCAL/MOL
REMARK 927      BINDING AFFINITY PREDICTED BY RF-SCORE:    0.00 PKD
ROOT
HETATM    1  C   UNL     1     -12.775  15.267  70.498  1.00  0.00    -0.390 C  
HETATM    2  N   UNL     1     -12.534  15.906  69.210  1.00  0.00    -0.416 NA 
HETATM    3  H   UNL     1     -13.199  16.664  69.052  1.00  0.00     0.000 HD 
ENDROOT
BRANCH   2   4
HETATM    4  C   UNL     1     -11.141  16.385  69.046  1.00  0.00    -0.315 C  
HETATM    5  C   UNL     1     -10.137  15.417  69.693  1.00  0.00    -0.275 C  
BRANCH   4   6
HETATM    6  C   UNL     1     -10.771  16.575  67.534  1.00  0.00    -0.283 C  
HETATM    7  O   UNL     1     -10.044  15.432  67.061  1.00  0.00    -0.243 OA 
HETATM    8  H   UNL     1      -9.820  15.548  66.145  1.00  0.00     0.000 HD 
BRANCH   6   9
HETATM    9  C   UNL     1      -9.941  17.808  67.226  1.00  0.00    -0.324 A  
HETATM   10  C   UNL     1      -8.665  17.673  66.658  1.00  0.00    -0.286 A  
HETATM   11  C   UNL     1      -7.883  18.797  66.389  1.00  0.00    -0.297 A  
HETATM   12  C   UNL     1      -8.366  20.071  66.685  1.00  0.00    -0.363 A  
HETATM   13  C   UNL     1      -9.630  20.222  67.251  1.00  0.00    -0.581 A  
HETATM   14  C   UNL     1     -10.412  19.097  67.524  1.00  0.00    -0.549 A  
ENDBRANCH   6   9
ENDBRANCH   4   6
ENDBRANCH   2   4
TORSDOF 3
ENDMDL
MODEL       83
REMARK 921   NORMALIZED FREE ENERGY PREDICTED BY IDOCK:   -3.65 KCAL/MOL
REMARK 922        TOTAL FREE ENERGY PREDICTED BY IDOCK:   -4.54 KCAL/MOL
REMARK 923 INTER-LIGAND FREE ENERGY PREDICTED BY IDOCK:   -4.30 KCAL/MOL
REMARK 924 INTRA-LIGAND FREE ENERGY PREDICTED BY IDOCK:   -0.24 KCAL/MOL
REMARK 927      BINDING AFFINITY PREDICTED BY RF-SCORE:    0.00 PKD
ROOT
HETATM    1  C   UNL     1     -10.940  11.701  65.857  1.00  0.00    -0.280 C  
HETATM    2  N   UNL     1     -10.481  12.910  65.185  1.00  0.00    -0.301 NA 
HETATM    3  H   UNL     1     -10.457  12.776  64.174  1.00  0.00     0.000 HD 
ENDROOT
BRANCH   2   4
HETATM    4  C   UNL     1     -11.271  14.113  65.538  1.00  0.00    -0.317 C  
HETATM    5  C   UNL     1     -12.776  13.873  65.333  1.00  0.00    -0.525 C  
BRANCH   4   6
HETATM    6  C   UNL     1     -11.019  14.555  67.021  1.00  0.00    -0.312 C  
HETATM    7  O   UNL     1     -12.267  14.660  67.720  1.00  0.00    -0.595 OA 
HETATM    8  H   UNL     1     -12.113  14.927  68.619  1.00  0.00     0.000 HD 
BRANCH   6   9
HETATM    9  C   UNL     1     -10.289  15.876  67.182  1.00  0.00    -0.300 A  
HETATM   10  C   UNL     1     -10.667  16.769  68.197  1.00  0.00    -0.361 A  
HETATM   11  C   UNL     1     -10.018  17.996  68.343  1.00  0.00    -0.382 A  
HETATM   12  C   UNL     1      -8.984  18.346  67.477  1.00  0.00    -0.271 A  
HETATM   13  C   UNL     1      -8.598  17.472  66.464  1.00  0.00    -0.293 A  
HETATM   14  C   UNL     1      -9.249  16.245  66.314  1.00  0.00    -0.363 A  
ENDBRANCH   6   9
ENDBRANCH   4   6
ENDBRANCH   2   4
TORSDOF 3
ENDMDL
MODEL       84
REMARK 921   NORMALIZED FREE ENERGY PREDICTED BY IDOCK:   -3.60 KCAL/MOL
REMARK 922        TOTAL FREE ENERGY PREDICTED BY IDOCK:   -4.48 KCAL/MOL
REMARK 923 INTER-LIGAND FREE ENERGY PREDICTED BY IDOCK:   -4.42 KCAL/MOL
REMARK 924 INTRA-LIGAND FREE ENERGY PREDICTED BY IDOCK:   -0.07 KCAL/MOL
REMARK 927      BINDING AFFINITY PREDICTED BY RF-SCORE:    0.00 PKD
ROOT
HETATM    1  C   UNL     1     -10.299  19.484  67.341  1.00  0.00    -0.450 C  
HETATM    2  N   UNL     1     -10.767  18.168  66.923  1.00  0.00    -0.293 NA 
HETATM    3  H   UNL     1     -10.660  18.048  65.916  1.00  0.00     0.000 HD 
ENDROOT
BRANCH   2   4
HETATM    4  C   UNL     1     -10.119  17.055  67.657  1.00  0.00    -0.298 C  
HETATM    5  C   UNL     1     -11.130  16.305  68.541  1.00  0.00    -0.368 C  
BRANCH   4   6
HETATM    6  C   UNL     1      -9.438  16.038  66.679  1.00  0.00    -0.237 C  
HETATM    7  O   UNL     1      -8.824  16.740  65.590  1.00  0.00    -0.461 OA 
HETATM    8  H   UNL     1      -8.412  16.123  64.997  1.00  0.00     0.000 HD 
BRANCH   6   9
HETATM    9  C   UNL     1     -10.369  14.994  66.087  1.00  0.00    -0.310 A  
HETATM   10  C   UNL     1     -11.172  15.314  64.982  1.00  0.00    -0.409 A  
HETATM   11  C   UNL     1     -12.048  14.371  64.442  1.00  0.00    -0.491 A  
HETATM   12  C   UNL     1     -12.131  13.096  64.999  1.00  0.00    -0.458 A  
HETATM   13  C   UNL     1     -11.342  12.764  66.098  1.00  0.00    -0.371 A  
HETATM   14  C   UNL     1     -10.467  13.708  66.642  1.00  0.00    -0.272 A  
ENDBRANCH   6   9
ENDBRANCH   4   6
ENDBRANCH   2   4
TORSDOF 3
ENDMDL
MODEL       85
REMARK 921   NORMALIZED FREE ENERGY PREDICTED BY IDOCK:   -3.59 KCAL/MOL
REMARK 922        TOTAL FREE ENERGY PREDICTED BY IDOCK:   -4.47 KCAL/MOL
REMARK 923 INTER-LIGAND FREE ENERGY PREDICTED BY IDOCK:   -4.24 KCAL/MOL
REMARK 924 INTRA-LIGAND FREE ENERGY PREDICTED BY IDOCK:   -0.23 KCAL/MOL
REMARK 927      BINDING AFFINITY PREDICTED BY RF-SCORE:    0.00 PKD
ROOT
HETATM    1  C   UNL     1      -9.419  15.726  65.915  1.00  0.00    -0.342 C  
HETATM    2  N   UNL     1     -10.657  16.058  66.610  1.00  0.00    -0.316 NA 
HETATM    3  H   UNL     1     -11.468  15.791  66.052  1.00  0.00     0.000 HD 
ENDROOT
BRANCH   2   4
HETATM    4  C   UNL     1     -10.739  15.474  67.970  1.00  0.00    -0.283 C  
HETATM    5  C   UNL     1     -10.791  16.572  69.047  1.00  0.00    -0.329 C  
BRANCH   4   6
HETATM    6  C   UNL     1     -11.991  14.544  68.124  1.00  0.00    -0.261 C  
HETATM    7  O   UNL     1     -12.617  14.770  69.395  1.00  0.00    -0.569 OA 
HETATM    8  H   UNL     1     -13.376  14.206  69.488  1.00  0.00     0.000 HD 
BRANCH   6   9
HETATM    9  C   UNL     1     -11.705  13.058  68.010  1.00  0.00    -0.397 A  
HETATM   10  C   UNL     1     -11.836  12.228  69.134  1.00  0.00    -0.355 A  
HETATM   11  C   UNL     1     -11.556  10.863  69.049  1.00  0.00    -0.387 A  
HETATM   12  C   UNL     1     -11.140  10.311  67.838  1.00  0.00    -0.341 A  
HETATM   13  C   UNL     1     -11.002  11.121  66.714  1.00  0.00    -0.309 A  
HETATM   14  C   UNL     1     -11.280  12.488  66.799  1.00  0.00    -0.347 A  
ENDBRANCH   6   9
ENDBRANCH   4   6
ENDBRANCH   2   4
TORSDOF 3
ENDMDL
MODEL       86
REMARK 921   NORMALIZED FREE ENERGY PREDICTED BY IDOCK:   -3.58 KCAL/MOL
REMARK 922        TOTAL FREE ENERGY PREDICTED BY IDOCK:   -4.45 KCAL/MOL
REMARK 923 INTER-LIGAND FREE ENERGY PREDICTED BY IDOCK:   -4.24 KCAL/MOL
REMARK 924 INTRA-LIGAND FREE ENERGY PREDICTED BY IDOCK:   -0.21 KCAL/MOL
REMARK 927      BINDING AFFINITY PREDICTED BY RF-SCORE:    0.00 PKD
ROOT
HETATM    1  C   UNL     1      -9.879   5.686  72.877  1.00  0.00    -0.166 C  
HETATM    2  N   UNL     1      -9.518   6.834  72.054  1.00  0.00    -0.142 NA 
HETATM    3  H   UNL     1      -8.542   6.777  71.761  1.00  0.00     0.000 HD 
ENDROOT
BRANCH   2   4
HETATM    4  C   UNL     1     -10.408   7.020  70.884  1.00  0.00    -0.198 C  
HETATM    5  C   UNL     1     -10.588   5.706  70.104  1.00  0.00    -0.380 C  
BRANCH   4   6
HETATM    6  C   UNL     1     -11.816   7.560  71.311  1.00  0.00    -0.294 C  
HETATM    7  O   UNL     1     -12.844   6.894  70.565  1.00  0.00    -0.535 OA 
HETATM    8  H   UNL     1     -13.697   7.222  70.825  1.00  0.00     0.000 HD 
BRANCH   6   9
HETATM    9  C   UNL     1     -12.012   9.055  71.129  1.00  0.00    -0.356 A  
HETATM   10  C   UNL     1     -11.288   9.745  70.145  1.00  0.00    -0.305 A  
HETATM   11  C   UNL     1     -11.443  11.122  69.982  1.00  0.00    -0.376 A  
HETATM   12  C   UNL     1     -12.323  11.828  70.801  1.00  0.00    -0.433 A  
HETATM   13  C   UNL     1     -13.048  11.158  71.784  1.00  0.00    -0.536 A  
HETATM   14  C   UNL     1     -12.891   9.779  71.950  1.00  0.00    -0.520 A  
ENDBRANCH   6   9
ENDBRANCH   4   6
ENDBRANCH   2   4
TORSDOF 3
ENDMDL
MODEL       87
REMARK 921   NORMALIZED FREE ENERGY PREDICTED BY IDOCK:   -3.57 KCAL/MOL
REMARK 922        TOTAL FREE ENERGY PREDICTED BY IDOCK:   -4.45 KCAL/MOL
REMARK 923 INTER-LIGAND FREE ENERGY PREDICTED BY IDOCK:   -4.32 KCAL/MOL
REMARK 924 INTRA-LIGAND FREE ENERGY PREDICTED BY IDOCK:   -0.13 KCAL/MOL
REMARK 927      BINDING AFFINITY PREDICTED BY RF-SCORE:    0.00 PKD
ROOT
HETATM    1  C   UNL     1     -10.670   7.165  66.967  1.00  0.00    -0.350 C  
HETATM    2  N   UNL     1     -10.818   8.178  68.005  1.00  0.00    -0.464 NA 
HETATM    3  H   UNL     1     -11.495   7.881  68.708  1.00  0.00     0.000 HD 
ENDROOT
BRANCH   2   4
HETATM    4  C   UNL     1      -9.533   8.559  68.639  1.00  0.00    -0.143 C  
HETATM    5  C   UNL     1      -8.484   8.949  67.585  1.00  0.00    -0.121 C  
BRANCH   4   6
HETATM    6  C   UNL     1      -9.716   9.747  69.645  1.00  0.00    -0.222 C  
HETATM    7  O   UNL     1      -8.570   9.846  70.501  1.00  0.00    -0.328 OA 
HETATM    8  H   UNL     1      -8.682  10.566  71.110  1.00  0.00     0.000 HD 
BRANCH   6   9
HETATM    9  C   UNL     1     -10.946   9.653  70.532  1.00  0.00    -0.374 A  
HETATM   10  C   UNL     1     -11.904  10.678  70.514  1.00  0.00    -0.453 A  
HETATM   11  C   UNL     1     -13.028  10.615  71.339  1.00  0.00    -0.545 A  
HETATM   12  C   UNL     1     -13.208   9.529  72.193  1.00  0.00    -0.539 A  
HETATM   13  C   UNL     1     -12.264   8.504  72.224  1.00  0.00    -0.454 A  
HETATM   14  C   UNL     1     -11.137   8.567  71.401  1.00  0.00    -0.328 A  
ENDBRANCH   6   9
ENDBRANCH   4   6
ENDBRANCH   2   4
TORSDOF 3
ENDMDL
MODEL       88
REMARK 921   NORMALIZED FREE ENERGY PREDICTED BY IDOCK:   -3.57 KCAL/MOL
REMARK 922        TOTAL FREE ENERGY PREDICTED BY IDOCK:   -4.44 KCAL/MOL
REMARK 923 INTER-LIGAND FREE ENERGY PREDICTED BY IDOCK:   -4.25 KCAL/MOL
REMARK 924 INTRA-LIGAND FREE ENERGY PREDICTED BY IDOCK:   -0.20 KCAL/MOL
REMARK 927      BINDING AFFINITY PREDICTED BY RF-SCORE:    0.00 PKD
ROOT
HETATM    1  C   UNL     1     -11.762  11.732  68.952  1.00  0.00    -0.323 C  
HETATM    2  N   UNL     1     -11.504  12.848  69.854  1.00  0.00    -0.515 NA 
HETATM    3  H   UNL     1     -10.581  12.763  70.280  1.00  0.00     0.000 HD 
ENDROOT
BRANCH   2   4
HETATM    4  C   UNL     1     -11.666  14.172  69.208  1.00  0.00    -0.323 C  
HETATM    5  C   UNL     1     -12.501  15.121  70.083  1.00  0.00    -0.361 C  
BRANCH   4   6
HETATM    6  C   UNL     1     -10.281  14.839  68.904  1.00  0.00    -0.237 C  
HETATM    7  O   UNL     1      -9.659  15.258  70.127  1.00  0.00    -0.448 OA 
HETATM    8  H   UNL     1      -8.819  15.662  69.942  1.00  0.00     0.000 HD 
BRANCH   6   9
HETATM    9  C   UNL     1     -10.337  16.043  67.980  1.00  0.00    -0.266 A  
HETATM   10  C   UNL     1     -10.478  15.861  66.596  1.00  0.00    -0.306 A  
HETATM   11  C   UNL     1     -10.509  16.957  65.733  1.00  0.00    -0.279 A  
HETATM   12  C   UNL     1     -10.399  18.250  66.243  1.00  0.00    -0.422 A  
HETATM   13  C   UNL     1     -10.256  18.447  67.614  1.00  0.00    -0.399 A  
HETATM   14  C   UNL     1     -10.222  17.350  68.479  1.00  0.00    -0.369 A  
ENDBRANCH   6   9
ENDBRANCH   4   6
ENDBRANCH   2   4
TORSDOF 3
ENDMDL
MODEL       89
REMARK 921   NORMALIZED FREE ENERGY PREDICTED BY IDOCK:   -3.57 KCAL/MOL
REMARK 922        TOTAL FREE ENERGY PREDICTED BY IDOCK:   -4.44 KCAL/MOL
REMARK 923 INTER-LIGAND FREE ENERGY PREDICTED BY IDOCK:   -4.24 KCAL/MOL
REMARK 924 INTRA-LIGAND FREE ENERGY PREDICTED BY IDOCK:   -0.20 KCAL/MOL
REMARK 927      BINDING AFFINITY PREDICTED BY RF-SCORE:    0.00 PKD
ROOT
HETATM    1  C   UNL     1     -11.802  11.200  70.374  1.00  0.00    -0.369 C  
HETATM    2  N   UNL     1     -10.990  12.115  69.580  1.00  0.00    -0.466 NA 
HETATM    3  H   UNL     1     -10.404  12.695  70.182  1.00  0.00     0.000 HD 
ENDROOT
BRANCH   2   4
HETATM    4  C   UNL     1     -10.172  11.430  68.551  1.00  0.00    -0.208 C  
HETATM    5  C   UNL     1      -9.255  10.368  69.181  1.00  0.00    -0.202 C  
BRANCH   4   6
HETATM    6  C   UNL     1     -11.068  10.752  67.459  1.00  0.00    -0.308 C  
HETATM    7  O   UNL     1     -11.044   9.327  67.620  1.00  0.00    -0.485 OA 
HETATM    8  H   UNL     1     -11.588   8.917  66.958  1.00  0.00     0.000 HD 
BRANCH   6   9
HETATM    9  C   UNL     1     -10.676  11.059  66.025  1.00  0.00    -0.242 A  
HETATM   10  C   UNL     1      -9.856  10.170  65.314  1.00  0.00    -0.388 A  
HETATM   11  C   UNL     1      -9.471  10.451  64.002  1.00  0.00    -0.351 A  
HETATM   12  C   UNL     1      -9.900  11.624  63.384  1.00  0.00    -0.424 A  
HETATM   13  C   UNL     1     -10.713  12.518  64.077  1.00  0.00    -0.449 A  
HETATM   14  C   UNL     1     -11.097  12.240  65.391  1.00  0.00    -0.353 A  
ENDBRANCH   6   9
ENDBRANCH   4   6
ENDBRANCH   2   4
TORSDOF 3
ENDMDL
MODEL       90
REMARK 921   NORMALIZED FREE ENERGY PREDICTED BY IDOCK:   -3.55 KCAL/MOL
REMARK 922        TOTAL FREE ENERGY PREDICTED BY IDOCK:   -4.43 KCAL/MOL
REMARK 923 INTER-LIGAND FREE ENERGY PREDICTED BY IDOCK:   -4.18 KCAL/MOL
REMARK 924 INTRA-LIGAND FREE ENERGY PREDICTED BY IDOCK:   -0.24 KCAL/MOL
REMARK 927      BINDING AFFINITY PREDICTED BY RF-SCORE:    0.00 PKD
ROOT
HETATM    1  C   UNL     1     -10.732   9.554  67.087  1.00  0.00    -0.182 C  
HETATM    2  N   UNL     1     -11.578  10.503  67.801  1.00  0.00    -0.667 NA 
HETATM    3  H   UNL     1     -11.797  10.161  68.737  1.00  0.00     0.000 HD 
ENDROOT
BRANCH   2   4
HETATM    4  C   UNL     1     -11.005  11.869  67.860  1.00  0.00    -0.222 C  
HETATM    5  C   UNL     1      -9.611  11.918  67.213  1.00  0.00    -0.181 C  
BRANCH   4   6
HETATM    6  C   UNL     1     -11.935  12.916  67.157  1.00  0.00    -0.310 C  
HETATM    7  O   UNL     1     -12.269  12.467  65.837  1.00  0.00    -0.629 OA 
HETATM    8  H   UNL     1     -12.833  13.102  65.411  1.00  0.00     0.000 HD 
BRANCH   6   9
HETATM    9  C   UNL     1     -11.352  14.313  67.034  1.00  0.00    -0.354 A  
HETATM   10  C   UNL     1     -11.111  15.078  68.186  1.00  0.00    -0.296 A  
HETATM   11  C   UNL     1     -10.596  16.371  68.086  1.00  0.00    -0.318 A  
HETATM   12  C   UNL     1     -10.315  16.916  66.834  1.00  0.00    -0.304 A  
HETATM   13  C   UNL     1     -10.551  16.170  65.682  1.00  0.00    -0.377 A  
HETATM   14  C   UNL     1     -11.070  14.876  65.780  1.00  0.00    -0.342 A  
ENDBRANCH   6   9
ENDBRANCH   4   6
ENDBRANCH   2   4
TORSDOF 3
ENDMDL
MODEL       91
REMARK 921   NORMALIZED FREE ENERGY PREDICTED BY IDOCK:   -3.55 KCAL/MOL
REMARK 922        TOTAL FREE ENERGY PREDICTED BY IDOCK:   -4.42 KCAL/MOL
REMARK 923 INTER-LIGAND FREE ENERGY PREDICTED BY IDOCK:   -4.26 KCAL/MOL
REMARK 924 INTRA-LIGAND FREE ENERGY PREDICTED BY IDOCK:   -0.17 KCAL/MOL
REMARK 927      BINDING AFFINITY PREDICTED BY RF-SCORE:    0.00 PKD
ROOT
HETATM    1  C   UNL     1      -9.653  16.304  68.860  1.00  0.00    -0.243 C  
HETATM    2  N   UNL     1     -10.041  16.786  67.540  1.00  0.00    -0.268 NA 
HETATM    3  H   UNL     1     -11.049  16.708  67.407  1.00  0.00     0.000 HD 
ENDROOT
BRANCH   2   4
HETATM    4  C   UNL     1      -9.578  18.166  67.261  1.00  0.00    -0.281 C  
HETATM    5  C   UNL     1     -10.663  18.984  66.540  1.00  0.00    -0.412 C  
BRANCH   4   6
HETATM    6  C   UNL     1      -9.161  18.911  68.575  1.00  0.00    -0.361 C  
HETATM    7  O   UNL     1     -10.214  19.789  68.996  1.00  0.00    -0.586 OA 
HETATM    8  H   UNL     1      -9.960  20.241  69.793  1.00  0.00     0.000 HD 
BRANCH   6   9
HETATM    9  C   UNL     1      -7.889  19.734  68.471  1.00  0.00    -0.310 A  
HETATM   10  C   UNL     1      -7.014  19.817  69.565  1.00  0.00    -0.299 A  
HETATM   11  C   UNL     1      -5.852  20.587  69.490  1.00  0.00    -0.387 A  
HETATM   12  C   UNL     1      -5.551  21.284  68.321  1.00  0.00    -0.313 A  
HETATM   13  C   UNL     1      -6.410  21.213  67.227  1.00  0.00    -0.425 A  
HETATM   14  C   UNL     1      -7.575  20.445  67.302  1.00  0.00    -0.371 A  
ENDBRANCH   6   9
ENDBRANCH   4   6
ENDBRANCH   2   4
TORSDOF 3
ENDMDL
MODEL       92
REMARK 921   NORMALIZED FREE ENERGY PREDICTED BY IDOCK:   -3.49 KCAL/MOL
REMARK 922        TOTAL FREE ENERGY PREDICTED BY IDOCK:   -4.36 KCAL/MOL
REMARK 923 INTER-LIGAND FREE ENERGY PREDICTED BY IDOCK:   -4.16 KCAL/MOL
REMARK 924 INTRA-LIGAND FREE ENERGY PREDICTED BY IDOCK:   -0.20 KCAL/MOL
REMARK 927      BINDING AFFINITY PREDICTED BY RF-SCORE:    0.00 PKD
ROOT
HETATM    1  C   UNL     1     -10.579  10.368  68.864  1.00  0.00    -0.216 C  
HETATM    2  N   UNL     1     -11.672  10.965  68.106  1.00  0.00    -0.665 NA 
HETATM    3  H   UNL     1     -12.430  11.251  68.727  1.00  0.00     0.000 HD 
ENDROOT
BRANCH   2   4
HETATM    4  C   UNL     1     -11.241  12.094  67.247  1.00  0.00    -0.306 C  
HETATM    5  C   UNL     1     -11.116  11.660  65.777  1.00  0.00    -0.313 C  
BRANCH   4   6
HETATM    6  C   UNL     1     -12.233  13.303  67.343  1.00  0.00    -0.186 C  
HETATM    7  O   UNL     1     -12.379  13.922  66.057  1.00  0.00    -0.443 OA 
HETATM    8  H   UNL     1     -12.980  14.655  66.116  1.00  0.00     0.000 HD 
BRANCH   6   9
HETATM    9  C   UNL     1     -11.833  14.385  68.331  1.00  0.00    -0.354 A  
HETATM   10  C   UNL     1     -11.061  15.476  67.904  1.00  0.00    -0.321 A  
HETATM   11  C   UNL     1     -10.669  16.466  68.806  1.00  0.00    -0.321 A  
HETATM   12  C   UNL     1     -11.043  16.378  70.146  1.00  0.00    -0.285 A  
HETATM   13  C   UNL     1     -11.808  15.300  70.586  1.00  0.00    -0.376 A  
HETATM   14  C   UNL     1     -12.199  14.306  69.685  1.00  0.00    -0.371 A  
ENDBRANCH   6   9
ENDBRANCH   4   6
ENDBRANCH   2   4
TORSDOF 3
ENDMDL
MODEL       93
REMARK 921   NORMALIZED FREE ENERGY PREDICTED BY IDOCK:   -3.49 KCAL/MOL
REMARK 922        TOTAL FREE ENERGY PREDICTED BY IDOCK:   -4.35 KCAL/MOL
REMARK 923 INTER-LIGAND FREE ENERGY PREDICTED BY IDOCK:   -4.12 KCAL/MOL
REMARK 924 INTRA-LIGAND FREE ENERGY PREDICTED BY IDOCK:   -0.23 KCAL/MOL
REMARK 927      BINDING AFFINITY PREDICTED BY RF-SCORE:    0.00 PKD
ROOT
HETATM    1  C   UNL     1      -7.169  16.791  69.050  1.00  0.00    -0.225 C  
HETATM    2  N   UNL     1      -7.902  15.595  68.652  1.00  0.00    -0.143 NA 
HETATM    3  H   UNL     1      -8.058  14.982  69.453  1.00  0.00     0.000 HD 
ENDROOT
BRANCH   2   4
HETATM    4  C   UNL     1      -9.179  15.893  67.961  1.00  0.00    -0.192 C  
HETATM    5  C   UNL     1      -9.529  17.388  68.055  1.00  0.00    -0.281 C  
BRANCH   4   6
HETATM    6  C   UNL     1      -9.131  15.470  66.453  1.00  0.00    -0.316 C  
HETATM    7  O   UNL     1      -9.077  16.635  65.618  1.00  0.00    -0.477 OA 
HETATM    8  H   UNL     1      -9.048  16.378  64.704  1.00  0.00     0.000 HD 
BRANCH   6   9
HETATM    9  C   UNL     1     -10.302  14.623  65.986  1.00  0.00    -0.317 A  
HETATM   10  C   UNL     1     -10.741  13.541  66.764  1.00  0.00    -0.278 A  
HETATM   11  C   UNL     1     -11.802  12.742  66.336  1.00  0.00    -0.472 A  
HETATM   12  C   UNL     1     -12.438  13.014  65.125  1.00  0.00    -0.552 A  
HETATM   13  C   UNL     1     -12.013  14.083  64.341  1.00  0.00    -0.480 A  
HETATM   14  C   UNL     1     -10.948  14.883  64.767  1.00  0.00    -0.390 A  
ENDBRANCH   6   9
ENDBRANCH   4   6
ENDBRANCH   2   4
TORSDOF 3
ENDMDL
MODEL       94
REMARK 921   NORMALIZED FREE ENERGY PREDICTED BY IDOCK:   -3.49 KCAL/MOL
REMARK 922        TOTAL FREE ENERGY PREDICTED BY IDOCK:   -4.35 KCAL/MOL
REMARK 923 INTER-LIGAND FREE ENERGY PREDICTED BY IDOCK:   -4.15 KCAL/MOL
REMARK 924 INTRA-LIGAND FREE ENERGY PREDICTED BY IDOCK:   -0.20 KCAL/MOL
REMARK 927      BINDING AFFINITY PREDICTED BY RF-SCORE:    0.00 PKD
ROOT
HETATM    1  C   UNL     1      -7.035  18.421  68.517  1.00  0.00    -0.261 C  
HETATM    2  N   UNL     1      -7.991  17.333  68.687  1.00  0.00    -0.264 NA 
HETATM    3  H   UNL     1      -7.931  16.941  69.627  1.00  0.00     0.000 HD 
ENDROOT
BRANCH   2   4
HETATM    4  C   UNL     1      -9.385  17.723  68.367  1.00  0.00    -0.294 C  
HETATM    5  C   UNL     1      -9.651  19.193  68.731  1.00  0.00    -0.474 C  
BRANCH   4   6
HETATM    6  C   UNL     1      -9.712  17.503  66.850  1.00  0.00    -0.291 C  
HETATM    7  O   UNL     1     -10.551  18.562  66.370  1.00  0.00    -0.393 OA 
HETATM    8  H   UNL     1     -10.749  18.428  65.451  1.00  0.00     0.000 HD 
BRANCH   6   9
HETATM    9  C   UNL     1     -10.400  16.189  66.526  1.00  0.00    -0.311 A  
HETATM   10  C   UNL     1     -10.210  15.586  65.273  1.00  0.00    -0.380 A  
HETATM   11  C   UNL     1     -10.853  14.389  64.954  1.00  0.00    -0.430 A  
HETATM   12  C   UNL     1     -11.694  13.779  65.883  1.00  0.00    -0.370 A  
HETATM   13  C   UNL     1     -11.895  14.365  67.130  1.00  0.00    -0.437 A  
HETATM   14  C   UNL     1     -11.254  15.566  67.450  1.00  0.00    -0.248 A  
ENDBRANCH   6   9
ENDBRANCH   4   6
ENDBRANCH   2   4
TORSDOF 3
ENDMDL
MODEL       95
REMARK 921   NORMALIZED FREE ENERGY PREDICTED BY IDOCK:   -3.48 KCAL/MOL
REMARK 922        TOTAL FREE ENERGY PREDICTED BY IDOCK:   -4.34 KCAL/MOL
REMARK 923 INTER-LIGAND FREE ENERGY PREDICTED BY IDOCK:   -4.08 KCAL/MOL
REMARK 924 INTRA-LIGAND FREE ENERGY PREDICTED BY IDOCK:   -0.26 KCAL/MOL
REMARK 927      BINDING AFFINITY PREDICTED BY RF-SCORE:    0.00 PKD
ROOT
HETATM    1  C   UNL     1      -8.285  19.243  68.229  1.00  0.00    -0.337 C  
HETATM    2  N   UNL     1      -9.550  18.619  68.597  1.00  0.00    -0.358 NA 
HETATM    3  H   UNL     1     -10.336  19.128  68.192  1.00  0.00     0.000 HD 
ENDROOT
BRANCH   2   4
HETATM    4  C   UNL     1      -9.618  17.181  68.247  1.00  0.00    -0.280 C  
HETATM    5  C   UNL     1      -8.581  16.364  69.037  1.00  0.00    -0.230 C  
BRANCH   4   6
HETATM    6  C   UNL     1     -11.045  16.590  68.510  1.00  0.00    -0.335 C  
HETATM    7  O   UNL     1     -11.313  16.563  69.919  1.00  0.00    -0.374 OA 
HETATM    8  H   UNL     1     -12.179  16.205  70.077  1.00  0.00     0.000 HD 
BRANCH   6   9
HETATM    9  C   UNL     1     -11.269  15.187  67.973  1.00  0.00    -0.329 A  
HETATM   10  C   UNL     1     -11.172  14.939  66.595  1.00  0.00    -0.340 A  
HETATM   11  C   UNL     1     -11.396  13.658  66.085  1.00  0.00    -0.324 A  
HETATM   12  C   UNL     1     -11.720  12.611  66.946  1.00  0.00    -0.453 A  
HETATM   13  C   UNL     1     -11.821  12.842  68.316  1.00  0.00    -0.357 A  
HETATM   14  C   UNL     1     -11.600  14.124  68.828  1.00  0.00    -0.362 A  
ENDBRANCH   6   9
ENDBRANCH   4   6
ENDBRANCH   2   4
TORSDOF 3
ENDMDL
MODEL       96
REMARK 921   NORMALIZED FREE ENERGY PREDICTED BY IDOCK:   -3.48 KCAL/MOL
REMARK 922        TOTAL FREE ENERGY PREDICTED BY IDOCK:   -4.34 KCAL/MOL
REMARK 923 INTER-LIGAND FREE ENERGY PREDICTED BY IDOCK:   -4.07 KCAL/MOL
REMARK 924 INTRA-LIGAND FREE ENERGY PREDICTED BY IDOCK:   -0.27 KCAL/MOL
REMARK 927      BINDING AFFINITY PREDICTED BY RF-SCORE:    0.00 PKD
ROOT
HETATM    1  C   UNL     1      -9.364  13.972  67.824  1.00  0.00    -0.205 C  
HETATM    2  N   UNL     1     -10.770  14.067  67.448  1.00  0.00    -0.281 NA 
HETATM    3  H   UNL     1     -10.875  14.553  66.558  1.00  0.00     0.000 HD 
ENDROOT
BRANCH   2   4
HETATM    4  C   UNL     1     -11.457  12.754  67.416  1.00  0.00    -0.340 C  
HETATM    5  C   UNL     1     -11.898  12.389  65.988  1.00  0.00    -0.459 C  
BRANCH   4   6
HETATM    6  C   UNL     1     -10.544  11.611  67.979  1.00  0.00    -0.202 C  
HETATM    7  O   UNL     1     -10.442  10.548  67.021  1.00  0.00    -0.225 OA 
HETATM    8  H   UNL     1      -9.888   9.856  67.363  1.00  0.00     0.000 HD 
BRANCH   6   9
HETATM    9  C   UNL     1     -11.011  11.004  69.291  1.00  0.00    -0.305 A  
HETATM   10  C   UNL     1     -10.333   9.903  69.836  1.00  0.00    -0.298 A  
HETATM   11  C   UNL     1     -10.764   9.323  71.030  1.00  0.00    -0.387 A  
HETATM   12  C   UNL     1     -11.877   9.835  71.693  1.00  0.00    -0.429 A  
HETATM   13  C   UNL     1     -12.562  10.926  71.164  1.00  0.00    -0.532 A  
HETATM   14  C   UNL     1     -12.134  11.507  69.967  1.00  0.00    -0.408 A  
ENDBRANCH   6   9
ENDBRANCH   4   6
ENDBRANCH   2   4
TORSDOF 3
ENDMDL
MODEL       97
REMARK 921   NORMALIZED FREE ENERGY PREDICTED BY IDOCK:   -3.47 KCAL/MOL
REMARK 922        TOTAL FREE ENERGY PREDICTED BY IDOCK:   -4.33 KCAL/MOL
REMARK 923 INTER-LIGAND FREE ENERGY PREDICTED BY IDOCK:   -4.19 KCAL/MOL
REMARK 924 INTRA-LIGAND FREE ENERGY PREDICTED BY IDOCK:   -0.14 KCAL/MOL
REMARK 927      BINDING AFFINITY PREDICTED BY RF-SCORE:    0.00 PKD
ROOT
HETATM    1  C   UNL     1     -12.744  12.152  63.481  1.00  0.00    -0.431 C  
HETATM    2  N   UNL     1     -12.883  12.479  64.895  1.00  0.00    -0.800 NA 
HETATM    3  H   UNL     1     -12.711  11.658  65.476  1.00  0.00     0.000 HD 
ENDROOT
BRANCH   2   4
HETATM    4  C   UNL     1     -12.030  13.613  65.321  1.00  0.00    -0.376 C  
HETATM    5  C   UNL     1     -12.713  14.444  66.420  1.00  0.00     0.121 C  
BRANCH   4   6
HETATM    6  C   UNL     1     -10.635  13.123  65.840  1.00  0.00    -0.280 C  
HETATM    7  O   UNL     1      -9.655  13.239  64.799  1.00  0.00    -0.497 OA 
HETATM    8  H   UNL     1      -8.810  12.942  65.115  1.00  0.00     0.000 HD 
BRANCH   6   9
HETATM    9  C   UNL     1     -10.604  11.690  66.343  1.00  0.00    -0.299 A  
HETATM   10  C   UNL     1     -11.174  11.368  67.584  1.00  0.00    -0.346 A  
HETATM   11  C   UNL     1     -11.134  10.059  68.068  1.00  0.00    -0.263 A  
HETATM   12  C   UNL     1     -10.523   9.056  67.317  1.00  0.00    -0.343 A  
HETATM   13  C   UNL     1      -9.951   9.360  66.084  1.00  0.00    -0.351 A  
HETATM   14  C   UNL     1      -9.987  10.670  65.600  1.00  0.00    -0.327 A  
ENDBRANCH   6   9
ENDBRANCH   4   6
ENDBRANCH   2   4
TORSDOF 3
ENDMDL
MODEL       98
REMARK 921   NORMALIZED FREE ENERGY PREDICTED BY IDOCK:   -3.45 KCAL/MOL
REMARK 922        TOTAL FREE ENERGY PREDICTED BY IDOCK:   -4.30 KCAL/MOL
REMARK 923 INTER-LIGAND FREE ENERGY PREDICTED BY IDOCK:   -4.09 KCAL/MOL
REMARK 924 INTRA-LIGAND FREE ENERGY PREDICTED BY IDOCK:   -0.22 KCAL/MOL
REMARK 927      BINDING AFFINITY PREDICTED BY RF-SCORE:    0.00 PKD
ROOT
HETATM    1  C   UNL     1     -11.846  13.117  66.985  1.00  0.00    -0.379 C  
HETATM    2  N   UNL     1     -12.028  11.782  67.541  1.00  0.00    -0.607 NA 
HETATM    3  H   UNL     1     -11.569  11.081  66.958  1.00  0.00     0.000 HD 
ENDROOT
BRANCH   2   4
HETATM    4  C   UNL     1     -11.582  11.668  68.950  1.00  0.00    -0.314 C  
HETATM    5  C   UNL     1     -12.238  12.744  69.832  1.00  0.00    -0.245 C  
BRANCH   4   6
HETATM    6  C   UNL     1     -11.901  10.254  69.544  1.00  0.00    -0.077 C  
HETATM    7  O   UNL     1     -13.049  10.329  70.401  1.00  0.00    -0.556 OA 
HETATM    8  H   UNL     1     -13.241   9.471  70.761  1.00  0.00     0.000 HD 
BRANCH   6   9
HETATM    9  C   UNL     1     -10.773   9.622  70.340  1.00  0.00    -0.356 A  
HETATM   10  C   UNL     1     -11.053   8.930  71.528  1.00  0.00    -0.397 A  
HETATM   11  C   UNL     1     -10.023   8.362  72.281  1.00  0.00    -0.383 A  
HETATM   12  C   UNL     1      -8.701   8.481  71.857  1.00  0.00    -0.270 A  
HETATM   13  C   UNL     1      -8.406   9.167  70.681  1.00  0.00    -0.239 A  
HETATM   14  C   UNL     1      -9.436   9.738  69.927  1.00  0.00    -0.264 A  
ENDBRANCH   6   9
ENDBRANCH   4   6
ENDBRANCH   2   4
TORSDOF 3
ENDMDL
MODEL       99
REMARK 921   NORMALIZED FREE ENERGY PREDICTED BY IDOCK:   -3.45 KCAL/MOL
REMARK 922        TOTAL FREE ENERGY PREDICTED BY IDOCK:   -4.30 KCAL/MOL
REMARK 923 INTER-LIGAND FREE ENERGY PREDICTED BY IDOCK:   -4.07 KCAL/MOL
REMARK 924 INTRA-LIGAND FREE ENERGY PREDICTED BY IDOCK:   -0.23 KCAL/MOL
REMARK 927      BINDING AFFINITY PREDICTED BY RF-SCORE:    0.00 PKD
ROOT
HETATM    1  C   UNL     1      -7.405  18.927  66.534  1.00  0.00    -0.235 C  
HETATM    2  N   UNL     1      -8.394  17.992  66.012  1.00  0.00    -0.519 NA 
HETATM    3  H   UNL     1      -8.053  17.537  65.166  1.00  0.00     0.000 HD 
ENDROOT
BRANCH   2   4
HETATM    4  C   UNL     1      -8.833  16.987  67.009  1.00  0.00    -0.224 C  
HETATM    5  C   UNL     1      -8.035  17.112  68.318  1.00  0.00    -0.236 C  
BRANCH   4   6
HETATM    6  C   UNL     1     -10.363  17.118  67.326  1.00  0.00    -0.320 C  
HETATM    7  O   UNL     1     -10.605  18.306  68.091  1.00  0.00    -0.361 OA 
HETATM    8  H   UNL     1     -11.532  18.385  68.283  1.00  0.00     0.000 HD 
BRANCH   6   9
HETATM    9  C   UNL     1     -10.963  15.949  68.088  1.00  0.00    -0.335 A  
HETATM   10  C   UNL     1     -11.269  14.755  67.417  1.00  0.00    -0.346 A  
HETATM   11  C   UNL     1     -11.841  13.681  68.100  1.00  0.00    -0.407 A  
HETATM   12  C   UNL     1     -12.115  13.787  69.463  1.00  0.00    -0.386 A  
HETATM   13  C   UNL     1     -11.820  14.967  70.143  1.00  0.00    -0.357 A  
HETATM   14  C   UNL     1     -11.250  16.044  69.459  1.00  0.00    -0.348 A  
ENDBRANCH   6   9
ENDBRANCH   4   6
ENDBRANCH   2   4
TORSDOF 3
ENDMDL
MODEL      100
REMARK 921   NORMALIZED FREE ENERGY PREDICTED BY IDOCK:   -3.45 KCAL/MOL
REMARK 922        TOTAL FREE ENERGY PREDICTED BY IDOCK:   -4.30 KCAL/MOL
REMARK 923 INTER-LIGAND FREE ENERGY PREDICTED BY IDOCK:   -4.24 KCAL/MOL
REMARK 924 INTRA-LIGAND FREE ENERGY PREDICTED BY IDOCK:   -0.06 KCAL/MOL
REMARK 927      BINDING AFFINITY PREDICTED BY RF-SCORE:    0.00 PKD
ROOT
HETATM    1  C   UNL     1     -11.442  11.903  69.497  1.00  0.00    -0.288 C  
HETATM    2  N   UNL     1     -10.629  12.233  68.333  1.00  0.00    -0.229 NA 
HETATM    3  H   UNL     1     -11.071  11.900  67.475  1.00  0.00     0.000 HD 
ENDROOT
BRANCH   2   4
HETATM    4  C   UNL     1     -10.307  13.677  68.233  1.00  0.00    -0.251 C  
HETATM    5  C   UNL     1      -8.815  13.897  67.935  1.00  0.00    -0.184 C  
BRANCH   4   6
HETATM    6  C   UNL     1     -11.162  14.383  67.126  1.00  0.00    -0.328 C  
HETATM    7  O   UNL     1     -12.448  14.740  67.651  1.00  0.00    -0.511 OA 
HETATM    8  H   UNL     1     -12.966  15.168  66.979  1.00  0.00     0.000 HD 
BRANCH   6   9
HETATM    9  C   UNL     1     -11.391  13.561  65.869  1.00  0.00    -0.321 A  
HETATM   10  C   UNL     1     -10.309  13.229  65.040  1.00  0.00    -0.355 A  
HETATM   11  C   UNL     1     -10.508  12.493  63.871  1.00  0.00    -0.464 A  
HETATM   12  C   UNL     1     -11.791  12.080  63.516  1.00  0.00    -0.587 A  
HETATM   13  C   UNL     1     -12.876  12.403  64.328  1.00  0.00    -0.356 A  
HETATM   14  C   UNL     1     -12.679  13.143  65.496  1.00  0.00    -0.367 A  
ENDBRANCH   6   9
ENDBRANCH   4   6
ENDBRANCH   2   4
TORSDOF 3
ENDMDL
MODEL      101
REMARK 921   NORMALIZED FREE ENERGY PREDICTED BY IDOCK:   -3.44 KCAL/MOL
REMARK 922        TOTAL FREE ENERGY PREDICTED BY IDOCK:   -4.29 KCAL/MOL
REMARK 923 INTER-LIGAND FREE ENERGY PREDICTED BY IDOCK:   -4.21 KCAL/MOL
REMARK 924 INTRA-LIGAND FREE ENERGY PREDICTED BY IDOCK:   -0.08 KCAL/MOL
REMARK 927      BINDING AFFINITY PREDICTED BY RF-SCORE:    0.00 PKD
ROOT
HETATM    1  C   UNL     1     -12.249  16.109  71.982  1.00  0.00    -0.453 C  
HETATM    2  N   UNL     1     -12.538  15.274  70.822  1.00  0.00    -0.386 NA 
HETATM    3  H   UNL     1     -12.044  15.616  69.998  1.00  0.00     0.000 HD 
ENDROOT
BRANCH   2   4
HETATM    4  C   UNL     1     -12.253  13.837  71.049  1.00  0.00    -0.319 C  
HETATM    5  C   UNL     1     -13.374  13.166  71.860  1.00  0.00    -0.546 C  
BRANCH   4   6
HETATM    6  C   UNL     1     -12.065  13.066  69.698  1.00  0.00    -0.241 C  
HETATM    7  O   UNL     1     -11.340  11.849  69.924  1.00  0.00    -0.471 OA 
HETATM    8  H   UNL     1     -11.227  11.382  69.104  1.00  0.00     0.000 HD 
BRANCH   6   9
HETATM    9  C   UNL     1     -11.337  13.840  68.612  1.00  0.00    -0.321 A  
HETATM   10  C   UNL     1     -11.935  14.018  67.355  1.00  0.00    -0.439 A  
HETATM   11  C   UNL     1     -11.269  14.709  66.342  1.00  0.00    -0.336 A  
HETATM   12  C   UNL     1      -9.996  15.229  66.572  1.00  0.00    -0.278 A  
HETATM   13  C   UNL     1      -9.388  15.059  67.814  1.00  0.00    -0.186 A  
HETATM   14  C   UNL     1     -10.053  14.365  68.828  1.00  0.00    -0.234 A  
ENDBRANCH   6   9
ENDBRANCH   4   6
ENDBRANCH   2   4
TORSDOF 3
ENDMDL
MODEL      102
REMARK 921   NORMALIZED FREE ENERGY PREDICTED BY IDOCK:   -3.44 KCAL/MOL
REMARK 922        TOTAL FREE ENERGY PREDICTED BY IDOCK:   -4.29 KCAL/MOL
REMARK 923 INTER-LIGAND FREE ENERGY PREDICTED BY IDOCK:   -3.99 KCAL/MOL
REMARK 924 INTRA-LIGAND FREE ENERGY PREDICTED BY IDOCK:   -0.30 KCAL/MOL
REMARK 927      BINDING AFFINITY PREDICTED BY RF-SCORE:    0.00 PKD
ROOT
HETATM    1  C   UNL     1      -9.506  11.202  62.716  1.00  0.00    -0.329 C  
HETATM    2  N   UNL     1      -9.898  10.065  63.539  1.00  0.00    -0.500 NA 
HETATM    3  H   UNL     1      -9.209   9.315  63.475  1.00  0.00     0.000 HD 
ENDROOT
BRANCH   2   4
HETATM    4  C   UNL     1     -10.153  10.426  64.954  1.00  0.00    -0.312 C  
HETATM    5  C   UNL     1      -9.671   9.320  65.908  1.00  0.00    -0.355 C  
BRANCH   4   6
HETATM    6  C   UNL     1      -9.456  11.776  65.339  1.00  0.00    -0.140 C  
HETATM    7  O   UNL     1      -8.248  11.514  66.068  1.00  0.00    -0.359 OA 
HETATM    8  H   UNL     1      -7.827  12.333  66.300  1.00  0.00     0.000 HD 
BRANCH   6   9
HETATM    9  C   UNL     1     -10.302  12.720  66.174  1.00  0.00    -0.283 A  
HETATM   10  C   UNL     1     -11.614  13.023  65.780  1.00  0.00    -0.396 A  
HETATM   11  C   UNL     1     -12.396  13.906  66.527  1.00  0.00    -0.447 A  
HETATM   12  C   UNL     1     -11.876  14.497  67.677  1.00  0.00    -0.395 A  
HETATM   13  C   UNL     1     -10.574  14.208  68.081  1.00  0.00    -0.249 A  
HETATM   14  C   UNL     1      -9.789  13.327  67.332  1.00  0.00    -0.227 A  
ENDBRANCH   6   9
ENDBRANCH   4   6
ENDBRANCH   2   4
TORSDOF 3
ENDMDL
MODEL      103
REMARK 921   NORMALIZED FREE ENERGY PREDICTED BY IDOCK:   -3.43 KCAL/MOL
REMARK 922        TOTAL FREE ENERGY PREDICTED BY IDOCK:   -4.29 KCAL/MOL
REMARK 923 INTER-LIGAND FREE ENERGY PREDICTED BY IDOCK:   -4.08 KCAL/MOL
REMARK 924 INTRA-LIGAND FREE ENERGY PREDICTED BY IDOCK:   -0.21 KCAL/MOL
REMARK 927      BINDING AFFINITY PREDICTED BY RF-SCORE:    0.00 PKD
ROOT
HETATM    1  C   UNL     1      -8.974   7.358  66.933  1.00  0.00    -0.135 C  
HETATM    2  N   UNL     1     -10.234   7.885  66.424  1.00  0.00    -0.485 NA 
HETATM    3  H   UNL     1     -10.973   7.185  66.491  1.00  0.00     0.000 HD 
ENDROOT
BRANCH   2   4
HETATM    4  C   UNL     1     -10.647   9.149  67.079  1.00  0.00    -0.195 C  
HETATM    5  C   UNL     1     -10.425   9.089  68.600  1.00  0.00    -0.229 C  
BRANCH   4   6
HETATM    6  C   UNL     1      -9.873  10.380  66.495  1.00  0.00    -0.206 C  
HETATM    7  O   UNL     1      -9.323  11.165  67.562  1.00  0.00    -0.165 OA 
HETATM    8  H   UNL     1      -8.853  11.911  67.208  1.00  0.00     0.000 HD 
BRANCH   6   9
HETATM    9  C   UNL     1     -10.703  11.307  65.624  1.00  0.00    -0.279 A  
HETATM   10  C   UNL     1     -10.572  11.263  64.227  1.00  0.00    -0.422 A  
HETATM   11  C   UNL     1     -11.313  12.123  63.416  1.00  0.00    -0.495 A  
HETATM   12  C   UNL     1     -12.193  13.039  63.990  1.00  0.00    -0.489 A  
HETATM   13  C   UNL     1     -12.333  13.096  65.374  1.00  0.00    -0.532 A  
HETATM   14  C   UNL     1     -11.590  12.237  66.188  1.00  0.00    -0.450 A  
ENDBRANCH   6   9
ENDBRANCH   4   6
ENDBRANCH   2   4
TORSDOF 3
ENDMDL
MODEL      104
REMARK 921   NORMALIZED FREE ENERGY PREDICTED BY IDOCK:   -3.43 KCAL/MOL
REMARK 922        TOTAL FREE ENERGY PREDICTED BY IDOCK:   -4.29 KCAL/MOL
REMARK 923 INTER-LIGAND FREE ENERGY PREDICTED BY IDOCK:   -4.07 KCAL/MOL
REMARK 924 INTRA-LIGAND FREE ENERGY PREDICTED BY IDOCK:   -0.21 KCAL/MOL
REMARK 927      BINDING AFFINITY PREDICTED BY RF-SCORE:    0.00 PKD
ROOT
HETATM    1  C   UNL     1      -7.574  11.174  68.026  1.00  0.00    -0.100 C  
HETATM    2  N   UNL     1      -8.606  11.494  69.004  1.00  0.00    -0.375 NA 
HETATM    3  H   UNL     1      -8.620  12.494  69.203  1.00  0.00     0.000 HD 
ENDROOT
BRANCH   2   4
HETATM    4  C   UNL     1      -9.954  11.017  68.611  1.00  0.00    -0.199 C  
HETATM    5  C   UNL     1     -10.087  10.918  67.082  1.00  0.00    -0.235 C  
BRANCH   4   6
HETATM    6  C   UNL     1     -10.281   9.622  69.246  1.00  0.00    -0.205 C  
HETATM    7  O   UNL     1     -10.714   8.709  68.229  1.00  0.00    -0.400 OA 
HETATM    8  H   UNL     1     -10.912   7.864  68.615  1.00  0.00     0.000 HD 
BRANCH   6   9
HETATM    9  C   UNL     1     -11.345   9.644  70.329  1.00  0.00    -0.311 A  
HETATM   10  C   UNL     1     -11.617   8.483  71.070  1.00  0.00    -0.317 A  
HETATM   11  C   UNL     1     -12.607   8.483  72.054  1.00  0.00    -0.414 A  
HETATM   12  C   UNL     1     -13.338   9.642  72.309  1.00  0.00    -0.498 A  
HETATM   13  C   UNL     1     -13.080  10.801  71.582  1.00  0.00    -0.551 A  
HETATM   14  C   UNL     1     -12.092  10.802  70.594  1.00  0.00    -0.467 A  
ENDBRANCH   6   9
ENDBRANCH   4   6
ENDBRANCH   2   4
TORSDOF 3
ENDMDL
MODEL      105
REMARK 921   NORMALIZED FREE ENERGY PREDICTED BY IDOCK:   -3.43 KCAL/MOL
REMARK 922        TOTAL FREE ENERGY PREDICTED BY IDOCK:   -4.28 KCAL/MOL
REMARK 923 INTER-LIGAND FREE ENERGY PREDICTED BY IDOCK:   -3.98 KCAL/MOL
REMARK 924 INTRA-LIGAND FREE ENERGY PREDICTED BY IDOCK:   -0.30 KCAL/MOL
REMARK 927      BINDING AFFINITY PREDICTED BY RF-SCORE:    0.00 PKD
ROOT
HETATM    1  C   UNL     1     -11.011   6.639  67.437  1.00  0.00    -0.360 C  
HETATM    2  N   UNL     1     -10.805   7.895  68.147  1.00  0.00    -0.441 NA 
HETATM    3  H   UNL     1     -11.555   8.556  67.940  1.00  0.00     0.000 HD 
ENDROOT
BRANCH   2   4
HETATM    4  C   UNL     1     -10.647   7.721  69.611  1.00  0.00    -0.242 C  
HETATM    5  C   UNL     1     -10.933   9.031  70.364  1.00  0.00    -0.283 C  
BRANCH   4   6
HETATM    6  C   UNL     1     -11.587   6.596  70.163  1.00  0.00    -0.386 C  
HETATM    7  O   UNL     1     -12.799   7.173  70.668  1.00  0.00    -0.609 OA 
HETATM    8  H   UNL     1     -13.369   6.491  71.003  1.00  0.00     0.000 HD 
BRANCH   6   9
HETATM    9  C   UNL     1     -10.989   5.743  71.268  1.00  0.00    -0.299 A  
HETATM   10  C   UNL     1      -9.900   4.901  70.994  1.00  0.00    -0.266 A  
HETATM   11  C   UNL     1      -9.354   4.096  71.995  1.00  0.00    -0.184 A  
HETATM   12  C   UNL     1      -9.889   4.122  73.281  1.00  0.00    -0.169 A  
HETATM   13  C   UNL     1     -10.971   4.951  73.569  1.00  0.00    -0.397 A  
HETATM   14  C   UNL     1     -11.521   5.755  72.567  1.00  0.00    -0.349 A  
ENDBRANCH   6   9
ENDBRANCH   4   6
ENDBRANCH   2   4
TORSDOF 3
ENDMDL
MODEL      106
REMARK 921   NORMALIZED FREE ENERGY PREDICTED BY IDOCK:   -3.43 KCAL/MOL
REMARK 922        TOTAL FREE ENERGY PREDICTED BY IDOCK:   -4.28 KCAL/MOL
REMARK 923 INTER-LIGAND FREE ENERGY PREDICTED BY IDOCK:   -4.24 KCAL/MOL
REMARK 924 INTRA-LIGAND FREE ENERGY PREDICTED BY IDOCK:   -0.03 KCAL/MOL
REMARK 927      BINDING AFFINITY PREDICTED BY RF-SCORE:    0.00 PKD
ROOT
HETATM    1  C   UNL     1     -10.862  15.933  67.630  1.00  0.00    -0.312 C  
HETATM    2  N   UNL     1     -10.132  17.136  68.011  1.00  0.00    -0.295 NA 
HETATM    3  H   UNL     1      -9.192  16.903  68.332  1.00  0.00     0.000 HD 
ENDROOT
BRANCH   2   4
HETATM    4  C   UNL     1     -10.084  18.157  66.938  1.00  0.00    -0.357 C  
HETATM    5  C   UNL     1     -10.644  19.505  67.423  1.00  0.00    -0.607 C  
BRANCH   4   6
HETATM    6  C   UNL     1      -8.624  18.369  66.407  1.00  0.00    -0.247 C  
HETATM    7  O   UNL     1      -8.014  17.101  66.132  1.00  0.00    -0.366 OA 
HETATM    8  H   UNL     1      -7.129  17.230  65.810  1.00  0.00     0.000 HD 
BRANCH   6   9
HETATM    9  C   UNL     1      -7.704  19.128  67.347  1.00  0.00    -0.261 A  
HETATM   10  C   UNL     1      -7.199  20.383  66.974  1.00  0.00    -0.347 A  
HETATM   11  C   UNL     1      -6.335  21.082  67.818  1.00  0.00    -0.410 A  
HETATM   12  C   UNL     1      -5.964  20.535  69.045  1.00  0.00    -0.383 A  
HETATM   13  C   UNL     1      -6.454  19.289  69.429  1.00  0.00    -0.346 A  
HETATM   14  C   UNL     1      -7.317  18.587  68.583  1.00  0.00    -0.313 A  
ENDBRANCH   6   9
ENDBRANCH   4   6
ENDBRANCH   2   4
TORSDOF 3
ENDMDL
MODEL      107
REMARK 921   NORMALIZED FREE ENERGY PREDICTED BY IDOCK:   -3.42 KCAL/MOL
REMARK 922        TOTAL FREE ENERGY PREDICTED BY IDOCK:   -4.27 KCAL/MOL
REMARK 923 INTER-LIGAND FREE ENERGY PREDICTED BY IDOCK:   -4.23 KCAL/MOL
REMARK 924 INTRA-LIGAND FREE ENERGY PREDICTED BY IDOCK:   -0.03 KCAL/MOL
REMARK 927      BINDING AFFINITY PREDICTED BY RF-SCORE:    0.00 PKD
ROOT
HETATM    1  C   UNL     1     -10.170  12.107  63.623  1.00  0.00    -0.433 C  
HETATM    2  N   UNL     1     -10.345  13.252  64.509  1.00  0.00    -0.527 NA 
HETATM    3  H   UNL     1     -11.092  13.860  64.171  1.00  0.00     0.000 HD 
ENDROOT
BRANCH   2   4
HETATM    4  C   UNL     1     -10.576  12.870  65.922  1.00  0.00    -0.269 C  
HETATM    5  C   UNL     1      -9.260  12.857  66.719  1.00  0.00    -0.230 C  
BRANCH   4   6
HETATM    6  C   UNL     1     -11.591  13.837  66.623  1.00  0.00    -0.369 C  
HETATM    7  O   UNL     1     -12.780  13.957  65.831  1.00  0.00    -0.489 OA 
HETATM    8  H   UNL     1     -13.395  14.543  66.256  1.00  0.00     0.000 HD 
BRANCH   6   9
HETATM    9  C   UNL     1     -11.068  15.238  66.883  1.00  0.00    -0.288 A  
HETATM   10  C   UNL     1     -10.887  15.688  68.200  1.00  0.00    -0.301 A  
HETATM   11  C   UNL     1     -10.427  16.981  68.454  1.00  0.00    -0.370 A  
HETATM   12  C   UNL     1     -10.144  17.841  67.395  1.00  0.00    -0.338 A  
HETATM   13  C   UNL     1     -10.320  17.411  66.082  1.00  0.00    -0.329 A  
HETATM   14  C   UNL     1     -10.783  16.118  65.827  1.00  0.00    -0.289 A  
ENDBRANCH   6   9
ENDBRANCH   4   6
ENDBRANCH   2   4
TORSDOF 3
ENDMDL
MODEL      108
REMARK 921   NORMALIZED FREE ENERGY PREDICTED BY IDOCK:   -3.40 KCAL/MOL
REMARK 922        TOTAL FREE ENERGY PREDICTED BY IDOCK:   -4.25 KCAL/MOL
REMARK 923 INTER-LIGAND FREE ENERGY PREDICTED BY IDOCK:   -4.13 KCAL/MOL
REMARK 924 INTRA-LIGAND FREE ENERGY PREDICTED BY IDOCK:   -0.12 KCAL/MOL
REMARK 927      BINDING AFFINITY PREDICTED BY RF-SCORE:    0.00 PKD
ROOT
HETATM    1  C   UNL     1     -10.725  19.700  65.708  1.00  0.00    -0.392 C  
HETATM    2  N   UNL     1     -10.099  18.480  66.202  1.00  0.00    -0.497 NA 
HETATM    3  H   UNL     1      -9.090  18.600  66.290  1.00  0.00     0.000 HD 
ENDROOT
BRANCH   2   4
HETATM    4  C   UNL     1     -10.683  17.996  67.475  1.00  0.00    -0.336 C  
HETATM    5  C   UNL     1     -10.717  16.459  67.526  1.00  0.00    -0.298 C  
BRANCH   4   6
HETATM    6  C   UNL     1      -9.890  18.534  68.715  1.00  0.00    -0.376 C  
HETATM    7  O   UNL     1     -10.382  19.828  69.089  1.00  0.00    -0.628 OA 
HETATM    8  H   UNL     1      -9.901  20.153  69.841  1.00  0.00     0.000 HD 
BRANCH   6   9
HETATM    9  C   UNL     1      -8.390  18.652  68.516  1.00  0.00    -0.369 A  
HETATM   10  C   UNL     1      -7.823  19.887  68.166  1.00  0.00    -0.307 A  
HETATM   11  C   UNL     1      -6.447  20.006  67.959  1.00  0.00    -0.291 A  
HETATM   12  C   UNL     1      -5.622  18.891  68.098  1.00  0.00    -0.185 A  
HETATM   13  C   UNL     1      -6.170  17.658  68.443  1.00  0.00    -0.177 A  
HETATM   14  C   UNL     1      -7.547  17.537  68.647  1.00  0.00    -0.273 A  
ENDBRANCH   6   9
ENDBRANCH   4   6
ENDBRANCH   2   4
TORSDOF 3
ENDMDL
MODEL      109
REMARK 921   NORMALIZED FREE ENERGY PREDICTED BY IDOCK:   -3.39 KCAL/MOL
REMARK 922        TOTAL FREE ENERGY PREDICTED BY IDOCK:   -4.24 KCAL/MOL
REMARK 923 INTER-LIGAND FREE ENERGY PREDICTED BY IDOCK:   -3.94 KCAL/MOL
REMARK 924 INTRA-LIGAND FREE ENERGY PREDICTED BY IDOCK:   -0.30 KCAL/MOL
REMARK 927      BINDING AFFINITY PREDICTED BY RF-SCORE:    0.00 PKD
ROOT
HETATM    1  C   UNL     1      -7.687   6.933  70.289  1.00  0.00    -0.100 C  
HETATM    2  N   UNL     1      -8.674   6.439  69.337  1.00  0.00    -0.129 NA 
HETATM    3  H   UNL     1      -8.767   5.425  69.404  1.00  0.00     0.000 HD 
ENDROOT
BRANCH   2   4
HETATM    4  C   UNL     1      -9.995   7.098  69.467  1.00  0.00    -0.164 C  
HETATM    5  C   UNL     1     -11.086   6.316  68.716  1.00  0.00    -0.424 C  
BRANCH   4   6
HETATM    6  C   UNL     1     -10.416   7.254  70.968  1.00  0.00    -0.215 C  
HETATM    7  O   UNL     1     -10.976   6.025  71.451  1.00  0.00    -0.260 OA 
HETATM    8  H   UNL     1     -11.231   6.120  72.361  1.00  0.00     0.000 HD 
BRANCH   6   9
HETATM    9  C   UNL     1     -11.424   8.356  71.242  1.00  0.00    -0.325 A  
HETATM   10  C   UNL     1     -11.195   9.654  70.758  1.00  0.00    -0.403 A  
HETATM   11  C   UNL     1     -12.102  10.681  71.020  1.00  0.00    -0.473 A  
HETATM   12  C   UNL     1     -13.250  10.426  71.769  1.00  0.00    -0.529 A  
HETATM   13  C   UNL     1     -13.490   9.144  72.258  1.00  0.00    -0.546 A  
HETATM   14  C   UNL     1     -12.581   8.115  71.999  1.00  0.00    -0.366 A  
ENDBRANCH   6   9
ENDBRANCH   4   6
ENDBRANCH   2   4
TORSDOF 3
ENDMDL
MODEL      110
REMARK 921   NORMALIZED FREE ENERGY PREDICTED BY IDOCK:   -3.39 KCAL/MOL
REMARK 922        TOTAL FREE ENERGY PREDICTED BY IDOCK:   -4.23 KCAL/MOL
REMARK 923 INTER-LIGAND FREE ENERGY PREDICTED BY IDOCK:   -3.95 KCAL/MOL
REMARK 924 INTRA-LIGAND FREE ENERGY PREDICTED BY IDOCK:   -0.29 KCAL/MOL
REMARK 927      BINDING AFFINITY PREDICTED BY RF-SCORE:    0.00 PKD
ROOT
HETATM    1  C   UNL     1      -9.570  10.417  69.100  1.00  0.00    -0.213 C  
HETATM    2  N   UNL     1      -8.328  10.476  68.339  1.00  0.00    -0.121 NA 
HETATM    3  H   UNL     1      -7.779   9.627  68.474  1.00  0.00     0.000 HD 
ENDROOT
BRANCH   2   4
HETATM    4  C   UNL     1      -8.536  10.745  66.896  1.00  0.00    -0.131 C  
HETATM    5  C   UNL     1      -7.499  10.006  66.035  1.00  0.00    -0.112 C  
BRANCH   4   6
HETATM    6  C   UNL     1      -9.975  10.332  66.435  1.00  0.00    -0.229 C  
HETATM    7  O   UNL     1      -9.914   9.131  65.653  1.00  0.00    -0.447 OA 
HETATM    8  H   UNL     1     -10.787   8.881  65.373  1.00  0.00     0.000 HD 
BRANCH   6   9
HETATM    9  C   UNL     1     -10.712  11.377  65.616  1.00  0.00    -0.301 A  
HETATM   10  C   UNL     1     -11.476  12.363  66.258  1.00  0.00    -0.423 A  
HETATM   11  C   UNL     1     -12.176  13.317  65.517  1.00  0.00    -0.506 A  
HETATM   12  C   UNL     1     -12.121  13.296  64.124  1.00  0.00    -0.494 A  
HETATM   13  C   UNL     1     -11.368  12.323  63.471  1.00  0.00    -0.549 A  
HETATM   14  C   UNL     1     -10.670  11.365  64.212  1.00  0.00    -0.420 A  
ENDBRANCH   6   9
ENDBRANCH   4   6
ENDBRANCH   2   4
TORSDOF 3
ENDMDL
MODEL      111
REMARK 921   NORMALIZED FREE ENERGY PREDICTED BY IDOCK:   -3.37 KCAL/MOL
REMARK 922        TOTAL FREE ENERGY PREDICTED BY IDOCK:   -4.21 KCAL/MOL
REMARK 923 INTER-LIGAND FREE ENERGY PREDICTED BY IDOCK:   -4.02 KCAL/MOL
REMARK 924 INTRA-LIGAND FREE ENERGY PREDICTED BY IDOCK:   -0.20 KCAL/MOL
REMARK 927      BINDING AFFINITY PREDICTED BY RF-SCORE:    0.00 PKD
ROOT
HETATM    1  C   UNL     1      -6.707  11.015  66.068  1.00  0.00    -0.024 C  
HETATM    2  N   UNL     1      -6.757  10.391  64.752  1.00  0.00    -0.293 NA 
HETATM    3  H   UNL     1      -6.360   9.452  64.781  1.00  0.00     0.000 HD 
ENDROOT
BRANCH   2   4
HETATM    4  C   UNL     1      -8.117  10.369  64.165  1.00  0.00    -0.095 C  
HETATM    5  C   UNL     1      -8.313   9.148  63.251  1.00  0.00    -0.193 C  
BRANCH   4   6
HETATM    6  C   UNL     1      -9.224  10.363  65.275  1.00  0.00    -0.199 C  
HETATM    7  O   UNL     1      -9.764   9.042  65.421  1.00  0.00    -0.461 OA 
HETATM    8  H   UNL     1     -10.435   9.038  66.094  1.00  0.00     0.000 HD 
BRANCH   6   9
HETATM    9  C   UNL     1     -10.386  11.309  65.029  1.00  0.00    -0.359 A  
HETATM   10  C   UNL     1     -11.078  11.868  66.114  1.00  0.00    -0.374 A  
HETATM   11  C   UNL     1     -12.161  12.724  65.903  1.00  0.00    -0.485 A  
HETATM   12  C   UNL     1     -12.566  13.030  64.605  1.00  0.00    -0.425 A  
HETATM   13  C   UNL     1     -11.890  12.482  63.517  1.00  0.00    -0.616 A  
HETATM   14  C   UNL     1     -10.808  11.623  63.727  1.00  0.00    -0.493 A  
ENDBRANCH   6   9
ENDBRANCH   4   6
ENDBRANCH   2   4
TORSDOF 3
ENDMDL
MODEL      112
REMARK 921   NORMALIZED FREE ENERGY PREDICTED BY IDOCK:   -3.36 KCAL/MOL
REMARK 922        TOTAL FREE ENERGY PREDICTED BY IDOCK:   -4.20 KCAL/MOL
REMARK 923 INTER-LIGAND FREE ENERGY PREDICTED BY IDOCK:   -4.02 KCAL/MOL
REMARK 924 INTRA-LIGAND FREE ENERGY PREDICTED BY IDOCK:   -0.18 KCAL/MOL
REMARK 927      BINDING AFFINITY PREDICTED BY RF-SCORE:    0.00 PKD
ROOT
HETATM    1  C   UNL     1     -12.373   6.886  71.009  1.00  0.00    -0.351 C  
HETATM    2  N   UNL     1     -11.547   7.554  70.010  1.00  0.00    -0.488 NA 
HETATM    3  H   UNL     1     -11.934   7.427  69.075  1.00  0.00     0.000 HD 
ENDROOT
BRANCH   2   4
HETATM    4  C   UNL     1     -11.327   8.991  70.298  1.00  0.00    -0.178 C  
HETATM    5  C   UNL     1     -10.726   9.195  71.699  1.00  0.00    -0.441 C  
BRANCH   4   6
HETATM    6  C   UNL     1     -10.386   9.655  69.235  1.00  0.00    -0.209 C  
HETATM    7  O   UNL     1      -9.154  10.053  69.851  1.00  0.00    -0.284 OA 
HETATM    8  H   UNL     1      -8.584  10.455  69.205  1.00  0.00     0.000 HD 
BRANCH   6   9
HETATM    9  C   UNL     1     -10.965  10.872  68.536  1.00  0.00    -0.278 A  
HETATM   10  C   UNL     1     -10.997  10.929  67.134  1.00  0.00    -0.334 A  
HETATM   11  C   UNL     1     -11.507  12.051  66.478  1.00  0.00    -0.413 A  
HETATM   12  C   UNL     1     -11.991  13.130  67.216  1.00  0.00    -0.389 A  
HETATM   13  C   UNL     1     -11.965  13.090  68.608  1.00  0.00    -0.298 A  
HETATM   14  C   UNL     1     -11.452  11.969  69.265  1.00  0.00    -0.361 A  
ENDBRANCH   6   9
ENDBRANCH   4   6
ENDBRANCH   2   4
TORSDOF 3
ENDMDL
MODEL      113
REMARK 921   NORMALIZED FREE ENERGY PREDICTED BY IDOCK:   -3.36 KCAL/MOL
REMARK 922        TOTAL FREE ENERGY PREDICTED BY IDOCK:   -4.19 KCAL/MOL
REMARK 923 INTER-LIGAND FREE ENERGY PREDICTED BY IDOCK:   -4.02 KCAL/MOL
REMARK 924 INTRA-LIGAND FREE ENERGY PREDICTED BY IDOCK:   -0.17 KCAL/MOL
REMARK 927      BINDING AFFINITY PREDICTED BY RF-SCORE:    0.00 PKD
ROOT
HETATM    1  C   UNL     1     -10.238   4.122  72.330  1.00  0.00    -0.170 C  
HETATM    2  N   UNL     1      -9.431   5.334  72.409  1.00  0.00    -0.140 NA 
HETATM    3  H   UNL     1      -9.049   5.575  71.495  1.00  0.00     0.000 HD 
ENDROOT
BRANCH   2   4
HETATM    4  C   UNL     1     -10.159   6.484  72.996  1.00  0.00    -0.191 C  
HETATM    5  C   UNL     1      -9.950   6.560  74.518  1.00  0.00    -0.358 C  
BRANCH   4   6
HETATM    6  C   UNL     1      -9.713   7.840  72.348  1.00  0.00    -0.192 C  
HETATM    7  O   UNL     1      -8.934   8.598  73.283  1.00  0.00    -0.288 OA 
HETATM    8  H   UNL     1      -8.664   9.419  72.890  1.00  0.00     0.000 HD 
BRANCH   6   9
HETATM    9  C   UNL     1     -10.849   8.727  71.870  1.00  0.00    -0.431 A  
HETATM   10  C   UNL     1     -12.143   8.552  72.384  1.00  0.00    -0.436 A  
HETATM   11  C   UNL     1     -13.200   9.347  71.938  1.00  0.00    -0.507 A  
HETATM   12  C   UNL     1     -12.977  10.326  70.972  1.00  0.00    -0.488 A  
HETATM   13  C   UNL     1     -11.699  10.512  70.450  1.00  0.00    -0.434 A  
HETATM   14  C   UNL     1     -10.640   9.715  70.894  1.00  0.00    -0.386 A  
ENDBRANCH   6   9
ENDBRANCH   4   6
ENDBRANCH   2   4
TORSDOF 3
ENDMDL
MODEL      114
REMARK 921   NORMALIZED FREE ENERGY PREDICTED BY IDOCK:   -3.35 KCAL/MOL
REMARK 922        TOTAL FREE ENERGY PREDICTED BY IDOCK:   -4.19 KCAL/MOL
REMARK 923 INTER-LIGAND FREE ENERGY PREDICTED BY IDOCK:   -4.10 KCAL/MOL
REMARK 924 INTRA-LIGAND FREE ENERGY PREDICTED BY IDOCK:   -0.10 KCAL/MOL
REMARK 927      BINDING AFFINITY PREDICTED BY RF-SCORE:    0.00 PKD
ROOT
HETATM    1  C   UNL     1      -7.762  11.006  66.213  1.00  0.00    -0.132 C  
HETATM    2  N   UNL     1      -9.217  10.942  66.135  1.00  0.00    -0.178 NA 
HETATM    3  H   UNL     1      -9.559  10.044  66.477  1.00  0.00     0.000 HD 
ENDROOT
BRANCH   2   4
HETATM    4  C   UNL     1      -9.891  12.063  66.832  1.00  0.00    -0.204 C  
HETATM    5  C   UNL     1      -9.925  13.326  65.955  1.00  0.00    -0.297 C  
BRANCH   4   6
HETATM    6  C   UNL     1     -11.354  11.687  67.247  1.00  0.00    -0.305 C  
HETATM    7  O   UNL     1     -12.284  12.189  66.278  1.00  0.00    -0.604 OA 
HETATM    8  H   UNL     1     -13.171  11.961  66.530  1.00  0.00     0.000 HD 
BRANCH   6   9
HETATM    9  C   UNL     1     -11.787  12.201  68.609  1.00  0.00    -0.358 A  
HETATM   10  C   UNL     1     -11.831  13.582  68.858  1.00  0.00    -0.384 A  
HETATM   11  C   UNL     1     -12.206  14.067  70.111  1.00  0.00    -0.425 A  
HETATM   12  C   UNL     1     -12.543  13.180  71.132  1.00  0.00    -0.403 A  
HETATM   13  C   UNL     1     -12.503  11.807  70.901  1.00  0.00    -0.416 A  
HETATM   14  C   UNL     1     -12.124  11.319  69.648  1.00  0.00    -0.391 A  
ENDBRANCH   6   9
ENDBRANCH   4   6
ENDBRANCH   2   4
TORSDOF 3
ENDMDL
MODEL      115
REMARK 921   NORMALIZED FREE ENERGY PREDICTED BY IDOCK:   -3.34 KCAL/MOL
REMARK 922        TOTAL FREE ENERGY PREDICTED BY IDOCK:   -4.18 KCAL/MOL
REMARK 923 INTER-LIGAND FREE ENERGY PREDICTED BY IDOCK:   -4.02 KCAL/MOL
REMARK 924 INTRA-LIGAND FREE ENERGY PREDICTED BY IDOCK:   -0.16 KCAL/MOL
REMARK 927      BINDING AFFINITY PREDICTED BY RF-SCORE:    0.00 PKD
ROOT
HETATM    1  C   UNL     1      -7.891   9.432  67.305  1.00  0.00    -0.099 C  
HETATM    2  N   UNL     1      -8.803  10.045  66.347  1.00  0.00    -0.141 NA 
HETATM    3  H   UNL     1      -8.599   9.729  65.398  1.00  0.00     0.000 HD 
ENDROOT
BRANCH   2   4
HETATM    4  C   UNL     1     -10.232   9.831  66.677  1.00  0.00    -0.226 C  
HETATM    5  C   UNL     1     -10.423   8.570  67.536  1.00  0.00    -0.328 C  
BRANCH   4   6
HETATM    6  C   UNL     1     -10.840  11.063  67.432  1.00  0.00    -0.274 C  
HETATM    7  O   UNL     1     -12.152  10.744  67.914  1.00  0.00    -0.702 OA 
HETATM    8  H   UNL     1     -12.520  11.491  68.371  1.00  0.00     0.000 HD 
BRANCH   6   9
HETATM    9  C   UNL     1     -10.949  12.332  66.606  1.00  0.00    -0.321 A  
HETATM   10  C   UNL     1     -12.028  12.507  65.726  1.00  0.00    -0.482 A  
HETATM   11  C   UNL     1     -12.130  13.660  64.945  1.00  0.00    -0.426 A  
HETATM   12  C   UNL     1     -11.154  14.651  65.033  1.00  0.00    -0.401 A  
HETATM   13  C   UNL     1     -10.076  14.492  65.900  1.00  0.00    -0.346 A  
HETATM   14  C   UNL     1      -9.971  13.337  66.681  1.00  0.00    -0.272 A  
ENDBRANCH   6   9
ENDBRANCH   4   6
ENDBRANCH   2   4
TORSDOF 3
ENDMDL
MODEL      116
REMARK 921   NORMALIZED FREE ENERGY PREDICTED BY IDOCK:   -3.32 KCAL/MOL
REMARK 922        TOTAL FREE ENERGY PREDICTED BY IDOCK:   -4.15 KCAL/MOL
REMARK 923 INTER-LIGAND FREE ENERGY PREDICTED BY IDOCK:   -3.91 KCAL/MOL
REMARK 924 INTRA-LIGAND FREE ENERGY PREDICTED BY IDOCK:   -0.24 KCAL/MOL
REMARK 927      BINDING AFFINITY PREDICTED BY RF-SCORE:    0.00 PKD
ROOT
HETATM    1  C   UNL     1     -11.038  14.976  65.392  1.00  0.00    -0.374 C  
HETATM    2  N   UNL     1     -11.139  14.228  64.145  1.00  0.00    -0.563 NA 
HETATM    3  H   UNL     1     -10.282  14.316  63.598  1.00  0.00     0.000 HD 
ENDROOT
BRANCH   2   4
HETATM    4  C   UNL     1     -11.491  12.802  64.345  1.00  0.00    -0.354 C  
HETATM    5  C   UNL     1     -12.787  12.436  63.602  1.00  0.00    -0.359 C  
BRANCH   4   6
HETATM    6  C   UNL     1     -10.340  11.851  63.866  1.00  0.00    -0.389 C  
HETATM    7  O   UNL     1     -10.863  10.858  62.973  1.00  0.00    -0.757 OA 
HETATM    8  H   UNL     1     -10.165  10.283  62.684  1.00  0.00     0.000 HD 
BRANCH   6   9
HETATM    9  C   UNL     1      -9.601  11.127  64.977  1.00  0.00    -0.278 A  
HETATM   10  C   UNL     1     -10.062  11.212  66.300  1.00  0.00    -0.277 A  
HETATM   11  C   UNL     1      -9.380  10.569  67.334  1.00  0.00    -0.158 A  
HETATM   12  C   UNL     1      -8.228   9.834  67.060  1.00  0.00    -0.117 A  
HETATM   13  C   UNL     1      -7.756   9.741  65.753  1.00  0.00    -0.110 A  
HETATM   14  C   UNL     1      -8.436  10.387  64.716  1.00  0.00    -0.176 A  
ENDBRANCH   6   9
ENDBRANCH   4   6
ENDBRANCH   2   4
TORSDOF 3
ENDMDL
MODEL      117
REMARK 921   NORMALIZED FREE ENERGY PREDICTED BY IDOCK:   -3.32 KCAL/MOL
REMARK 922        TOTAL FREE ENERGY PREDICTED BY IDOCK:   -4.15 KCAL/MOL
REMARK 923 INTER-LIGAND FREE ENERGY PREDICTED BY IDOCK:   -3.94 KCAL/MOL
REMARK 924 INTRA-LIGAND FREE ENERGY PREDICTED BY IDOCK:   -0.21 KCAL/MOL
REMARK 927      BINDING AFFINITY PREDICTED BY RF-SCORE:    0.00 PKD
ROOT
HETATM    1  C   UNL     1      -9.829  10.596  63.590  1.00  0.00    -0.333 C  
HETATM    2  N   UNL     1     -11.043  11.261  64.045  1.00  0.00    -0.446 NA 
HETATM    3  H   UNL     1     -11.762  10.578  64.288  1.00  0.00     0.000 HD 
ENDROOT
BRANCH   2   4
HETATM    4  C   UNL     1     -10.811  12.203  65.166  1.00  0.00    -0.300 C  
HETATM    5  C   UNL     1     -10.699  13.652  64.663  1.00  0.00    -0.433 C  
BRANCH   4   6
HETATM    6  C   UNL     1     -11.952  12.118  66.237  1.00  0.00    -0.134 C  
HETATM    7  O   UNL     1     -12.368  13.437  66.617  1.00  0.00    -0.361 OA 
HETATM    8  H   UNL     1     -13.060  13.384  67.266  1.00  0.00     0.000 HD 
BRANCH   6   9
HETATM    9  C   UNL     1     -11.588  11.367  67.505  1.00  0.00    -0.298 A  
HETATM   10  C   UNL     1     -11.887  11.920  68.760  1.00  0.00    -0.371 A  
HETATM   11  C   UNL     1     -11.539  11.250  69.934  1.00  0.00    -0.413 A  
HETATM   12  C   UNL     1     -10.886  10.020  69.869  1.00  0.00    -0.328 A  
HETATM   13  C   UNL     1     -10.581   9.459  68.631  1.00  0.00    -0.230 A  
HETATM   14  C   UNL     1     -10.926  10.129  67.455  1.00  0.00    -0.295 A  
ENDBRANCH   6   9
ENDBRANCH   4   6
ENDBRANCH   2   4
TORSDOF 3
ENDMDL
MODEL      118
REMARK 921   NORMALIZED FREE ENERGY PREDICTED BY IDOCK:   -3.32 KCAL/MOL
REMARK 922        TOTAL FREE ENERGY PREDICTED BY IDOCK:   -4.15 KCAL/MOL
REMARK 923 INTER-LIGAND FREE ENERGY PREDICTED BY IDOCK:   -3.92 KCAL/MOL
REMARK 924 INTRA-LIGAND FREE ENERGY PREDICTED BY IDOCK:   -0.22 KCAL/MOL
REMARK 927      BINDING AFFINITY PREDICTED BY RF-SCORE:    0.00 PKD
ROOT
HETATM    1  C   UNL     1     -10.871   9.626  69.173  1.00  0.00    -0.190 C  
HETATM    2  N   UNL     1     -11.600   8.785  70.114  1.00  0.00    -0.462 NA 
HETATM    3  H   UNL     1     -12.284   8.204  69.627  1.00  0.00     0.000 HD 
ENDROOT
BRANCH   2   4
HETATM    4  C   UNL     1     -10.715   7.954  70.965  1.00  0.00    -0.220 C  
HETATM    5  C   UNL     1      -9.745   8.826  71.779  1.00  0.00    -0.380 C  
BRANCH   4   6
HETATM    6  C   UNL     1     -11.540   7.050  71.945  1.00  0.00    -0.284 C  
HETATM    7  O   UNL     1     -11.653   7.690  73.224  1.00  0.00    -0.643 OA 
HETATM    8  H   UNL     1     -12.153   7.141  73.817  1.00  0.00     0.000 HD 
BRANCH   6   9
HETATM    9  C   UNL     1     -10.967   5.663  72.174  1.00  0.00    -0.307 A  
HETATM   10  C   UNL     1     -11.268   4.963  73.352  1.00  0.00    -0.415 A  
HETATM   11  C   UNL     1     -10.732   3.696  73.585  1.00  0.00    -0.307 A  
HETATM   12  C   UNL     1      -9.887   3.112  72.643  1.00  0.00    -0.208 A  
HETATM   13  C   UNL     1      -9.576   3.794  71.469  1.00  0.00    -0.232 A  
HETATM   14  C   UNL     1     -10.110   5.064  71.236  1.00  0.00    -0.276 A  
ENDBRANCH   6   9
ENDBRANCH   4   6
ENDBRANCH   2   4
TORSDOF 3
ENDMDL
MODEL      119
REMARK 921   NORMALIZED FREE ENERGY PREDICTED BY IDOCK:   -3.31 KCAL/MOL
REMARK 922        TOTAL FREE ENERGY PREDICTED BY IDOCK:   -4.15 KCAL/MOL
REMARK 923 INTER-LIGAND FREE ENERGY PREDICTED BY IDOCK:   -4.08 KCAL/MOL
REMARK 924 INTRA-LIGAND FREE ENERGY PREDICTED BY IDOCK:   -0.06 KCAL/MOL
REMARK 927      BINDING AFFINITY PREDICTED BY RF-SCORE:    0.00 PKD
ROOT
HETATM    1  C   UNL     1      -6.641  19.089  65.493  1.00  0.00    -0.274 C  
HETATM    2  N   UNL     1      -7.969  18.612  65.859  1.00  0.00    -0.490 NA 
HETATM    3  H   UNL     1      -7.910  17.725  66.360  1.00  0.00     0.000 HD 
ENDROOT
BRANCH   2   4
HETATM    4  C   UNL     1      -8.754  19.602  66.634  1.00  0.00    -0.349 C  
HETATM    5  C   UNL     1     -10.134  19.842  65.999  1.00  0.00    -0.589 C  
BRANCH   4   6
HETATM    6  C   UNL     1      -8.946  19.149  68.122  1.00  0.00    -0.322 C  
HETATM    7  O   UNL     1      -7.735  19.364  68.860  1.00  0.00    -0.352 OA 
HETATM    8  H   UNL     1      -7.852  19.089  69.762  1.00  0.00     0.000 HD 
BRANCH   6   9
HETATM    9  C   UNL     1      -9.344  17.696  68.305  1.00  0.00    -0.290 A  
HETATM   10  C   UNL     1      -8.405  16.762  68.770  1.00  0.00    -0.248 A  
HETATM   11  C   UNL     1      -8.752  15.419  68.922  1.00  0.00    -0.208 A  
HETATM   12  C   UNL     1     -10.042  14.992  68.611  1.00  0.00    -0.233 A  
HETATM   13  C   UNL     1     -10.985  15.905  68.147  1.00  0.00    -0.335 A  
HETATM   14  C   UNL     1     -10.638  17.250  67.991  1.00  0.00    -0.394 A  
ENDBRANCH   6   9
ENDBRANCH   4   6
ENDBRANCH   2   4
TORSDOF 3
ENDMDL
MODEL      120
REMARK 921   NORMALIZED FREE ENERGY PREDICTED BY IDOCK:   -3.31 KCAL/MOL
REMARK 922        TOTAL FREE ENERGY PREDICTED BY IDOCK:   -4.14 KCAL/MOL
REMARK 923 INTER-LIGAND FREE ENERGY PREDICTED BY IDOCK:   -4.19 KCAL/MOL
REMARK 924 INTRA-LIGAND FREE ENERGY PREDICTED BY IDOCK:    0.04 KCAL/MOL
REMARK 927      BINDING AFFINITY PREDICTED BY RF-SCORE:    0.00 PKD
ROOT
HETATM    1  C   UNL     1      -7.379  14.708  67.399  1.00  0.00    -0.168 C  
HETATM    2  N   UNL     1      -8.272  15.790  67.797  1.00  0.00    -0.141 NA 
HETATM    3  H   UNL     1      -8.253  16.546  67.112  1.00  0.00     0.000 HD 
ENDROOT
BRANCH   2   4
HETATM    4  C   UNL     1      -9.662  15.341  68.047  1.00  0.00    -0.211 C  
HETATM    5  C   UNL     1      -9.971  15.289  69.552  1.00  0.00    -0.247 C  
BRANCH   4   6
HETATM    6  C   UNL     1     -10.705  16.273  67.340  1.00  0.00    -0.287 C  
HETATM    7  O   UNL     1     -10.866  15.879  65.970  1.00  0.00    -0.305 OA 
HETATM    8  H   UNL     1     -11.499  16.444  65.543  1.00  0.00     0.000 HD 
BRANCH   6   9
HETATM    9  C   UNL     1     -10.360  17.751  67.356  1.00  0.00    -0.370 A  
HETATM   10  C   UNL     1     -10.211  18.452  66.149  1.00  0.00    -0.408 A  
HETATM   11  C   UNL     1      -9.873  19.806  66.149  1.00  0.00    -0.544 A  
HETATM   12  C   UNL     1      -9.679  20.477  67.355  1.00  0.00    -0.587 A  
HETATM   13  C   UNL     1      -9.821  19.796  68.561  1.00  0.00    -0.506 A  
HETATM   14  C   UNL     1     -10.156  18.439  68.563  1.00  0.00    -0.413 A  
ENDBRANCH   6   9
ENDBRANCH   4   6
ENDBRANCH   2   4
TORSDOF 3
ENDMDL
MODEL      121
REMARK 921   NORMALIZED FREE ENERGY PREDICTED BY IDOCK:   -3.31 KCAL/MOL
REMARK 922        TOTAL FREE ENERGY PREDICTED BY IDOCK:   -4.14 KCAL/MOL
REMARK 923 INTER-LIGAND FREE ENERGY PREDICTED BY IDOCK:   -3.94 KCAL/MOL
REMARK 924 INTRA-LIGAND FREE ENERGY PREDICTED BY IDOCK:   -0.20 KCAL/MOL
REMARK 927      BINDING AFFINITY PREDICTED BY RF-SCORE:    0.00 PKD
ROOT
HETATM    1  C   UNL     1     -12.200  12.183  63.330  1.00  0.00    -0.530 C  
HETATM    2  N   UNL     1     -11.701  13.531  63.575  1.00  0.00    -0.692 NA 
HETATM    3  H   UNL     1     -12.463  14.161  63.824  1.00  0.00     0.000 HD 
ENDROOT
BRANCH   2   4
HETATM    4  C   UNL     1     -10.623  13.580  64.592  1.00  0.00    -0.427 C  
HETATM    5  C   UNL     1     -10.420  15.010  65.121  1.00  0.00    -0.438 C  
BRANCH   4   6
HETATM    6  C   UNL     1     -10.923  12.624  65.797  1.00  0.00    -0.280 C  
HETATM    7  O   UNL     1     -11.059  13.385  67.005  1.00  0.00    -0.282 OA 
HETATM    8  H   UNL     1     -11.241  12.805  67.735  1.00  0.00     0.000 HD 
BRANCH   6   9
HETATM    9  C   UNL     1      -9.875  11.553  66.043  1.00  0.00    -0.255 A  
HETATM   10  C   UNL     1      -8.792  11.813  66.897  1.00  0.00    -0.191 A  
HETATM   11  C   UNL     1      -7.810  10.846  67.116  1.00  0.00    -0.127 A  
HETATM   12  C   UNL     1      -7.898   9.607  66.484  1.00  0.00    -0.108 A  
HETATM   13  C   UNL     1      -8.966   9.334  65.632  1.00  0.00    -0.243 A  
HETATM   14  C   UNL     1      -9.948  10.303  65.409  1.00  0.00    -0.371 A  
ENDBRANCH   6   9
ENDBRANCH   4   6
ENDBRANCH   2   4
TORSDOF 3
ENDMDL
MODEL      122
REMARK 921   NORMALIZED FREE ENERGY PREDICTED BY IDOCK:   -3.29 KCAL/MOL
REMARK 922        TOTAL FREE ENERGY PREDICTED BY IDOCK:   -4.12 KCAL/MOL
REMARK 923 INTER-LIGAND FREE ENERGY PREDICTED BY IDOCK:   -3.88 KCAL/MOL
REMARK 924 INTRA-LIGAND FREE ENERGY PREDICTED BY IDOCK:   -0.24 KCAL/MOL
REMARK 927      BINDING AFFINITY PREDICTED BY RF-SCORE:    0.00 PKD
ROOT
HETATM    1  C   UNL     1      -6.581  19.350  65.487  1.00  0.00    -0.267 C  
HETATM    2  N   UNL     1      -7.875  18.713  65.695  1.00  0.00    -0.432 NA 
HETATM    3  H   UNL     1      -7.762  17.718  65.893  1.00  0.00     0.000 HD 
ENDROOT
BRANCH   2   4
HETATM    4  C   UNL     1      -8.689  19.368  66.746  1.00  0.00    -0.319 C  
HETATM    5  C   UNL     1     -10.059  19.806  66.201  1.00  0.00    -0.600 C  
BRANCH   4   6
HETATM    6  C   UNL     1      -8.904  18.427  67.981  1.00  0.00    -0.287 C  
HETATM    7  O   UNL     1      -9.860  19.007  68.879  1.00  0.00    -0.401 OA 
HETATM    8  H   UNL     1      -9.990  18.436  69.627  1.00  0.00     0.000 HD 
BRANCH   6   9
HETATM    9  C   UNL     1      -7.650  18.119  68.780  1.00  0.00    -0.285 A  
HETATM   10  C   UNL     1      -6.864  19.165  69.287  1.00  0.00    -0.336 A  
HETATM   11  C   UNL     1      -5.698  18.896  70.005  1.00  0.00    -0.262 A  
HETATM   12  C   UNL     1      -5.302  17.578  70.224  1.00  0.00    -0.248 A  
HETATM   13  C   UNL     1      -6.070  16.528  69.726  1.00  0.00    -0.215 A  
HETATM   14  C   UNL     1      -7.236  16.796  69.005  1.00  0.00    -0.225 A  
ENDBRANCH   6   9
ENDBRANCH   4   6
ENDBRANCH   2   4
TORSDOF 3
ENDMDL
MODEL      123
REMARK 921   NORMALIZED FREE ENERGY PREDICTED BY IDOCK:   -3.27 KCAL/MOL
REMARK 922        TOTAL FREE ENERGY PREDICTED BY IDOCK:   -4.09 KCAL/MOL
REMARK 923 INTER-LIGAND FREE ENERGY PREDICTED BY IDOCK:   -3.91 KCAL/MOL
REMARK 924 INTRA-LIGAND FREE ENERGY PREDICTED BY IDOCK:   -0.18 KCAL/MOL
REMARK 927      BINDING AFFINITY PREDICTED BY RF-SCORE:    0.00 PKD
ROOT
HETATM    1  C   UNL     1     -10.496  13.352  64.536  1.00  0.00    -0.413 C  
HETATM    2  N   UNL     1     -10.375  13.970  65.851  1.00  0.00    -0.308 NA 
HETATM    3  H   UNL     1     -10.873  14.860  65.880  1.00  0.00     0.000 HD 
ENDROOT
BRANCH   2   4
HETATM    4  C   UNL     1     -10.813  13.086  66.957  1.00  0.00    -0.261 C  
HETATM    5  C   UNL     1     -10.613  11.604  66.599  1.00  0.00    -0.281 C  
BRANCH   4   6
HETATM    6  C   UNL     1     -10.046  13.402  68.286  1.00  0.00    -0.247 C  
HETATM    7  O   UNL     1      -9.663  12.180  68.934  1.00  0.00    -0.409 OA 
HETATM    8  H   UNL     1      -9.198  12.373  69.739  1.00  0.00     0.000 HD 
BRANCH   6   9
HETATM    9  C   UNL     1     -10.821  14.233  69.293  1.00  0.00    -0.241 A  
HETATM   10  C   UNL     1     -10.530  15.596  69.452  1.00  0.00    -0.253 A  
HETATM   11  C   UNL     1     -11.220  16.367  70.389  1.00  0.00    -0.253 A  
HETATM   12  C   UNL     1     -12.209  15.784  71.180  1.00  0.00    -0.473 A  
HETATM   13  C   UNL     1     -12.508  14.432  71.036  1.00  0.00    -0.425 A  
HETATM   14  C   UNL     1     -11.816  13.658  70.100  1.00  0.00    -0.351 A  
ENDBRANCH   6   9
ENDBRANCH   4   6
ENDBRANCH   2   4
TORSDOF 3
ENDMDL
MODEL      124
REMARK 921   NORMALIZED FREE ENERGY PREDICTED BY IDOCK:   -3.26 KCAL/MOL
REMARK 922        TOTAL FREE ENERGY PREDICTED BY IDOCK:   -4.09 KCAL/MOL
REMARK 923 INTER-LIGAND FREE ENERGY PREDICTED BY IDOCK:   -3.86 KCAL/MOL
REMARK 924 INTRA-LIGAND FREE ENERGY PREDICTED BY IDOCK:   -0.22 KCAL/MOL
REMARK 927      BINDING AFFINITY PREDICTED BY RF-SCORE:    0.00 PKD
ROOT
HETATM    1  C   UNL     1     -11.881  11.202  69.606  1.00  0.00    -0.348 C  
HETATM    2  N   UNL     1     -11.691  12.579  70.045  1.00  0.00    -0.514 NA 
HETATM    3  H   UNL     1     -11.192  12.611  70.934  1.00  0.00     0.000 HD 
ENDROOT
BRANCH   2   4
HETATM    4  C   UNL     1     -11.019  13.429  69.033  1.00  0.00    -0.224 C  
HETATM    5  C   UNL     1     -11.552  13.142  67.619  1.00  0.00    -0.392 C  
BRANCH   4   6
HETATM    6  C   UNL     1     -11.199  14.954  69.349  1.00  0.00    -0.283 C  
HETATM    7  O   UNL     1     -12.249  15.502  68.541  1.00  0.00    -0.546 OA 
HETATM    8  H   UNL     1     -12.357  16.426  68.734  1.00  0.00     0.000 HD 
BRANCH   6   9
HETATM    9  C   UNL     1      -9.960  15.804  69.133  1.00  0.00    -0.241 A  
HETATM   10  C   UNL     1      -8.686  15.261  69.358  1.00  0.00    -0.216 A  
HETATM   11  C   UNL     1      -7.539  16.038  69.183  1.00  0.00    -0.225 A  
HETATM   12  C   UNL     1      -7.652  17.368  68.783  1.00  0.00    -0.252 A  
HETATM   13  C   UNL     1      -8.910  17.923  68.557  1.00  0.00    -0.293 A  
HETATM   14  C   UNL     1     -10.059  17.147  68.735  1.00  0.00    -0.329 A  
ENDBRANCH   6   9
ENDBRANCH   4   6
ENDBRANCH   2   4
TORSDOF 3
ENDMDL
MODEL      125
REMARK 921   NORMALIZED FREE ENERGY PREDICTED BY IDOCK:   -3.26 KCAL/MOL
REMARK 922        TOTAL FREE ENERGY PREDICTED BY IDOCK:   -4.08 KCAL/MOL
REMARK 923 INTER-LIGAND FREE ENERGY PREDICTED BY IDOCK:   -3.85 KCAL/MOL
REMARK 924 INTRA-LIGAND FREE ENERGY PREDICTED BY IDOCK:   -0.23 KCAL/MOL
REMARK 927      BINDING AFFINITY PREDICTED BY RF-SCORE:    0.00 PKD
ROOT
HETATM    1  C   UNL     1     -10.846  13.706  64.301  1.00  0.00    -0.280 C  
HETATM    2  N   UNL     1     -11.276  14.763  65.208  1.00  0.00    -0.350 NA 
HETATM    3  H   UNL     1     -12.238  14.611  65.512  1.00  0.00     0.000 HD 
ENDROOT
BRANCH   2   4
HETATM    4  C   UNL     1     -10.377  14.936  66.374  1.00  0.00    -0.286 C  
HETATM    5  C   UNL     1      -9.827  13.585  66.861  1.00  0.00    -0.257 C  
BRANCH   4   6
HETATM    6  C   UNL     1      -9.178  15.889  66.041  1.00  0.00    -0.337 C  
HETATM    7  O   UNL     1      -7.938  15.256  66.384  1.00  0.00    -0.286 OA 
HETATM    8  H   UNL     1      -7.212  15.834  66.182  1.00  0.00     0.000 HD 
BRANCH   6   9
HETATM    9  C   UNL     1      -9.216  17.237  66.740  1.00  0.00    -0.270 A  
HETATM   10  C   UNL     1      -8.031  17.965  66.927  1.00  0.00    -0.249 A  
HETATM   11  C   UNL     1      -8.048  19.195  67.586  1.00  0.00    -0.299 A  
HETATM   12  C   UNL     1      -9.249  19.712  68.069  1.00  0.00    -0.409 A  
HETATM   13  C   UNL     1     -10.433  19.000  67.893  1.00  0.00    -0.474 A  
HETATM   14  C   UNL     1     -10.417  17.767  67.236  1.00  0.00    -0.356 A  
ENDBRANCH   6   9
ENDBRANCH   4   6
ENDBRANCH   2   4
TORSDOF 3
ENDMDL
MODEL      126
REMARK 921   NORMALIZED FREE ENERGY PREDICTED BY IDOCK:   -3.25 KCAL/MOL
REMARK 922        TOTAL FREE ENERGY PREDICTED BY IDOCK:   -4.07 KCAL/MOL
REMARK 923 INTER-LIGAND FREE ENERGY PREDICTED BY IDOCK:   -4.02 KCAL/MOL
REMARK 924 INTRA-LIGAND FREE ENERGY PREDICTED BY IDOCK:   -0.04 KCAL/MOL
REMARK 927      BINDING AFFINITY PREDICTED BY RF-SCORE:    0.00 PKD
ROOT
HETATM    1  C   UNL     1      -7.778  18.793  66.807  1.00  0.00    -0.241 C  
HETATM    2  N   UNL     1      -8.214  17.909  65.733  1.00  0.00    -0.506 NA 
HETATM    3  H   UNL     1      -7.487  17.815  65.023  1.00  0.00     0.000 HD 
ENDROOT
BRANCH   2   4
HETATM    4  C   UNL     1      -8.655  16.577  66.213  1.00  0.00    -0.332 C  
HETATM    5  C   UNL     1      -7.990  16.217  67.552  1.00  0.00    -0.171 C  
BRANCH   4   6
HETATM    6  C   UNL     1     -10.212  16.512  66.379  1.00  0.00    -0.316 C  
HETATM    7  O   UNL     1     -10.627  17.364  67.455  1.00  0.00    -0.356 OA 
HETATM    8  H   UNL     1     -11.571  17.323  67.555  1.00  0.00     0.000 HD 
BRANCH   6   9
HETATM    9  C   UNL     1     -10.771  15.126  66.648  1.00  0.00    -0.310 A  
HETATM   10  C   UNL     1     -11.052  14.724  67.963  1.00  0.00    -0.294 A  
HETATM   11  C   UNL     1     -11.546  13.445  68.226  1.00  0.00    -0.379 A  
HETATM   12  C   UNL     1     -11.765  12.552  67.179  1.00  0.00    -0.425 A  
HETATM   13  C   UNL     1     -11.490  12.935  65.868  1.00  0.00    -0.387 A  
HETATM   14  C   UNL     1     -10.992  14.214  65.603  1.00  0.00    -0.308 A  
ENDBRANCH   6   9
ENDBRANCH   4   6
ENDBRANCH   2   4
TORSDOF 3
ENDMDL
MODEL      127
REMARK 921   NORMALIZED FREE ENERGY PREDICTED BY IDOCK:   -3.24 KCAL/MOL
REMARK 922        TOTAL FREE ENERGY PREDICTED BY IDOCK:   -4.06 KCAL/MOL
REMARK 923 INTER-LIGAND FREE ENERGY PREDICTED BY IDOCK:   -3.88 KCAL/MOL
REMARK 924 INTRA-LIGAND FREE ENERGY PREDICTED BY IDOCK:   -0.18 KCAL/MOL
REMARK 927      BINDING AFFINITY PREDICTED BY RF-SCORE:    0.00 PKD
ROOT
HETATM    1  C   UNL     1      -6.099  12.330  67.605  1.00  0.00    -0.120 C  
HETATM    2  N   UNL     1      -7.326  12.651  66.886  1.00  0.00    -0.376 NA 
HETATM    3  H   UNL     1      -7.135  12.808  65.896  1.00  0.00     0.000 HD 
ENDROOT
BRANCH   2   4
HETATM    4  C   UNL     1      -8.391  11.636  67.062  1.00  0.00    -0.169 C  
HETATM    5  C   UNL     1      -8.137  10.769  68.306  1.00  0.00    -0.121 C  
BRANCH   4   6
HETATM    6  C   UNL     1      -9.807  12.299  67.179  1.00  0.00    -0.203 C  
HETATM    7  O   UNL     1     -10.572  11.643  68.199  1.00  0.00    -0.187 OA 
HETATM    8  H   UNL     1     -11.430  12.046  68.270  1.00  0.00     0.000 HD 
BRANCH   6   9
HETATM    9  C   UNL     1     -10.631  12.283  65.904  1.00  0.00    -0.290 A  
HETATM   10  C   UNL     1     -10.054  11.854  64.699  1.00  0.00    -0.301 A  
HETATM   11  C   UNL     1     -10.793  11.855  63.515  1.00  0.00    -0.502 A  
HETATM   12  C   UNL     1     -12.119  12.285  63.521  1.00  0.00    -0.649 A  
HETATM   13  C   UNL     1     -12.706  12.716  64.708  1.00  0.00    -0.460 A  
HETATM   14  C   UNL     1     -11.966  12.719  65.893  1.00  0.00    -0.506 A  
ENDBRANCH   6   9
ENDBRANCH   4   6
ENDBRANCH   2   4
TORSDOF 3
ENDMDL
MODEL      128
REMARK 921   NORMALIZED FREE ENERGY PREDICTED BY IDOCK:   -3.24 KCAL/MOL
REMARK 922        TOTAL FREE ENERGY PREDICTED BY IDOCK:   -4.06 KCAL/MOL
REMARK 923 INTER-LIGAND FREE ENERGY PREDICTED BY IDOCK:   -3.88 KCAL/MOL
REMARK 924 INTRA-LIGAND FREE ENERGY PREDICTED BY IDOCK:   -0.18 KCAL/MOL
REMARK 927      BINDING AFFINITY PREDICTED BY RF-SCORE:    0.00 PKD
ROOT
HETATM    1  C   UNL     1      -8.221  11.587  68.494  1.00  0.00    -0.148 C  
HETATM    2  N   UNL     1      -9.425  11.206  69.222  1.00  0.00    -0.413 NA 
HETATM    3  H   UNL     1     -10.240  11.700  68.859  1.00  0.00     0.000 HD 
ENDROOT
BRANCH   2   4
HETATM    4  C   UNL     1      -9.660   9.743  69.240  1.00  0.00    -0.197 C  
HETATM    5  C   UNL     1      -8.511   8.984  68.556  1.00  0.00    -0.128 C  
BRANCH   4   6
HETATM    6  C   UNL     1      -9.834   9.204  70.701  1.00  0.00    -0.249 C  
HETATM    7  O   UNL     1      -9.137   7.960  70.851  1.00  0.00    -0.148 OA 
HETATM    8  H   UNL     1      -9.243   7.633  71.737  1.00  0.00     0.000 HD 
BRANCH   6   9
HETATM    9  C   UNL     1     -11.272   8.981  71.137  1.00  0.00    -0.375 A  
HETATM   10  C   UNL     1     -12.080  10.076  71.481  1.00  0.00    -0.475 A  
HETATM   11  C   UNL     1     -13.396   9.884  71.903  1.00  0.00    -0.524 A  
HETATM   12  C   UNL     1     -13.921   8.596  71.988  1.00  0.00    -0.506 A  
HETATM   13  C   UNL     1     -13.132   7.499  71.651  1.00  0.00    -0.401 A  
HETATM   14  C   UNL     1     -11.813   7.689  71.231  1.00  0.00    -0.316 A  
ENDBRANCH   6   9
ENDBRANCH   4   6
ENDBRANCH   2   4
TORSDOF 3
ENDMDL
MODEL      129
REMARK 921   NORMALIZED FREE ENERGY PREDICTED BY IDOCK:   -3.22 KCAL/MOL
REMARK 922        TOTAL FREE ENERGY PREDICTED BY IDOCK:   -4.04 KCAL/MOL
REMARK 923 INTER-LIGAND FREE ENERGY PREDICTED BY IDOCK:   -3.80 KCAL/MOL
REMARK 924 INTRA-LIGAND FREE ENERGY PREDICTED BY IDOCK:   -0.24 KCAL/MOL
REMARK 927      BINDING AFFINITY PREDICTED BY RF-SCORE:    0.00 PKD
ROOT
HETATM    1  C   UNL     1      -9.744   9.520  65.784  1.00  0.00    -0.287 C  
HETATM    2  N   UNL     1      -8.966  10.221  66.798  1.00  0.00    -0.133 NA 
HETATM    3  H   UNL     1      -8.288  10.849  66.365  1.00  0.00     0.000 HD 
ENDROOT
BRANCH   2   4
HETATM    4  C   UNL     1      -9.805  10.949  67.780  1.00  0.00    -0.175 C  
HETATM    5  C   UNL     1     -10.418  12.216  67.160  1.00  0.00    -0.241 C  
BRANCH   4   6
HETATM    6  C   UNL     1     -10.954  10.044  68.341  1.00  0.00    -0.217 C  
HETATM    7  O   UNL     1     -12.191  10.769  68.348  1.00  0.00    -0.832 OA 
HETATM    8  H   UNL     1     -12.887  10.219  68.688  1.00  0.00     0.000 HD 
BRANCH   6   9
HETATM    9  C   UNL     1     -10.725   9.511  69.744  1.00  0.00    -0.259 A  
HETATM   10  C   UNL     1     -11.818   9.265  70.589  1.00  0.00    -0.246 A  
HETATM   11  C   UNL     1     -11.621   8.795  71.889  1.00  0.00    -0.432 A  
HETATM   12  C   UNL     1     -10.329   8.567  72.360  1.00  0.00    -0.372 A  
HETATM   13  C   UNL     1      -9.234   8.808  71.534  1.00  0.00    -0.332 A  
HETATM   14  C   UNL     1      -9.429   9.281  70.234  1.00  0.00    -0.277 A  
ENDBRANCH   6   9
ENDBRANCH   4   6
ENDBRANCH   2   4
TORSDOF 3
ENDMDL
MODEL      130
REMARK 921   NORMALIZED FREE ENERGY PREDICTED BY IDOCK:   -3.22 KCAL/MOL
REMARK 922        TOTAL FREE ENERGY PREDICTED BY IDOCK:   -4.04 KCAL/MOL
REMARK 923 INTER-LIGAND FREE ENERGY PREDICTED BY IDOCK:   -3.93 KCAL/MOL
REMARK 924 INTRA-LIGAND FREE ENERGY PREDICTED BY IDOCK:   -0.11 KCAL/MOL
REMARK 927      BINDING AFFINITY PREDICTED BY RF-SCORE:    0.00 PKD
ROOT
HETATM    1  C   UNL     1      -8.513  18.150  68.043  1.00  0.00    -0.262 C  
HETATM    2  N   UNL     1      -9.888  17.677  67.936  1.00  0.00    -0.288 NA 
HETATM    3  H   UNL     1     -10.527  18.454  67.771  1.00  0.00     0.000 HD 
ENDROOT
BRANCH   2   4
HETATM    4  C   UNL     1     -10.066  16.623  66.909  1.00  0.00    -0.280 C  
HETATM    5  C   UNL     1      -8.734  16.286  66.217  1.00  0.00    -0.370 C  
BRANCH   4   6
HETATM    6  C   UNL     1     -10.669  15.314  67.525  1.00  0.00    -0.285 C  
HETATM    7  O   UNL     1      -9.774  14.776  68.509  1.00  0.00    -0.206 OA 
HETATM    8  H   UNL     1     -10.141  13.983  68.882  1.00  0.00     0.000 HD 
BRANCH   6   9
HETATM    9  C   UNL     1     -10.968  14.212  66.524  1.00  0.00    -0.309 A  
HETATM   10  C   UNL     1     -12.200  14.186  65.854  1.00  0.00    -0.458 A  
HETATM   11  C   UNL     1     -12.497  13.167  64.948  1.00  0.00    -0.490 A  
HETATM   12  C   UNL     1     -11.565  12.160  64.700  1.00  0.00    -0.392 A  
HETATM   13  C   UNL     1     -10.338  12.170  65.359  1.00  0.00    -0.301 A  
HETATM   14  C   UNL     1     -10.041  13.188  66.269  1.00  0.00    -0.285 A  
ENDBRANCH   6   9
ENDBRANCH   4   6
ENDBRANCH   2   4
TORSDOF 3
ENDMDL
MODEL      131
REMARK 921   NORMALIZED FREE ENERGY PREDICTED BY IDOCK:   -3.19 KCAL/MOL
REMARK 922        TOTAL FREE ENERGY PREDICTED BY IDOCK:   -4.00 KCAL/MOL
REMARK 923 INTER-LIGAND FREE ENERGY PREDICTED BY IDOCK:   -3.86 KCAL/MOL
REMARK 924 INTRA-LIGAND FREE ENERGY PREDICTED BY IDOCK:   -0.15 KCAL/MOL
REMARK 927      BINDING AFFINITY PREDICTED BY RF-SCORE:    0.00 PKD
ROOT
HETATM    1  C   UNL     1     -11.205  15.505  68.238  1.00  0.00    -0.343 C  
HETATM    2  N   UNL     1     -10.807  14.816  67.016  1.00  0.00    -0.308 NA 
HETATM    3  H   UNL     1     -11.588  14.287  66.627  1.00  0.00     0.000 HD 
ENDROOT
BRANCH   2   4
HETATM    4  C   UNL     1     -10.225  15.721  65.997  1.00  0.00    -0.333 C  
HETATM    5  C   UNL     1     -10.760  15.397  64.591  1.00  0.00    -0.214 C  
BRANCH   4   6
HETATM    6  C   UNL     1     -10.520  17.225  66.324  1.00  0.00    -0.268 C  
HETATM    7  O   UNL     1     -11.007  17.896  65.154  1.00  0.00    -0.642 OA 
HETATM    8  H   UNL     1     -11.186  18.807  65.353  1.00  0.00     0.000 HD 
BRANCH   6   9
HETATM    9  C   UNL     1      -9.332  18.014  66.846  1.00  0.00    -0.276 A  
HETATM   10  C   UNL     1      -8.030  17.663  66.458  1.00  0.00    -0.302 A  
HETATM   11  C   UNL     1      -6.928  18.366  66.946  1.00  0.00    -0.214 A  
HETATM   12  C   UNL     1      -7.113  19.428  67.830  1.00  0.00    -0.290 A  
HETATM   13  C   UNL     1      -8.399  19.787  68.227  1.00  0.00    -0.312 A  
HETATM   14  C   UNL     1      -9.503  19.082  67.741  1.00  0.00    -0.353 A  
ENDBRANCH   6   9
ENDBRANCH   4   6
ENDBRANCH   2   4
TORSDOF 3
ENDMDL
MODEL      132
REMARK 921   NORMALIZED FREE ENERGY PREDICTED BY IDOCK:   -3.19 KCAL/MOL
REMARK 922        TOTAL FREE ENERGY PREDICTED BY IDOCK:   -4.00 KCAL/MOL
REMARK 923 INTER-LIGAND FREE ENERGY PREDICTED BY IDOCK:   -3.80 KCAL/MOL
REMARK 924 INTRA-LIGAND FREE ENERGY PREDICTED BY IDOCK:   -0.20 KCAL/MOL
REMARK 927      BINDING AFFINITY PREDICTED BY RF-SCORE:    0.00 PKD
ROOT
HETATM    1  C   UNL     1      -8.626   6.271  65.811  1.00  0.00    -0.150 C  
HETATM    2  N   UNL     1      -8.809   7.478  66.608  1.00  0.00    -0.139 NA 
HETATM    3  H   UNL     1      -8.382   8.284  66.150  1.00  0.00     0.000 HD 
ENDROOT
BRANCH   2   4
HETATM    4  C   UNL     1     -10.227   7.752  66.940  1.00  0.00    -0.303 C  
HETATM    5  C   UNL     1     -11.012   6.448  67.158  1.00  0.00    -0.476 C  
BRANCH   4   6
HETATM    6  C   UNL     1     -10.357   8.650  68.218  1.00  0.00    -0.207 C  
HETATM    7  O   UNL     1     -11.277   8.056  69.144  1.00  0.00    -0.424 OA 
HETATM    8  H   UNL     1     -11.356   8.600  69.918  1.00  0.00     0.000 HD 
BRANCH   6   9
HETATM    9  C   UNL     1     -10.819  10.073  67.960  1.00  0.00    -0.311 A  
HETATM   10  C   UNL     1     -11.448  10.804  68.979  1.00  0.00    -0.368 A  
HETATM   11  C   UNL     1     -11.897  12.105  68.749  1.00  0.00    -0.356 A  
HETATM   12  C   UNL     1     -11.724  12.692  67.496  1.00  0.00    -0.429 A  
HETATM   13  C   UNL     1     -11.104  11.979  66.473  1.00  0.00    -0.362 A  
HETATM   14  C   UNL     1     -10.657  10.675  66.701  1.00  0.00    -0.276 A  
ENDBRANCH   6   9
ENDBRANCH   4   6
ENDBRANCH   2   4
TORSDOF 3
ENDMDL
MODEL      133
REMARK 921   NORMALIZED FREE ENERGY PREDICTED BY IDOCK:   -3.19 KCAL/MOL
REMARK 922        TOTAL FREE ENERGY PREDICTED BY IDOCK:   -4.00 KCAL/MOL
REMARK 923 INTER-LIGAND FREE ENERGY PREDICTED BY IDOCK:   -3.94 KCAL/MOL
REMARK 924 INTRA-LIGAND FREE ENERGY PREDICTED BY IDOCK:   -0.06 KCAL/MOL
REMARK 927      BINDING AFFINITY PREDICTED BY RF-SCORE:    0.00 PKD
ROOT
HETATM    1  C   UNL     1      -9.351  11.843  68.287  1.00  0.00    -0.193 C  
HETATM    2  N   UNL     1      -9.921  13.114  68.720  1.00  0.00    -0.426 NA 
HETATM    3  H   UNL     1      -9.518  13.890  68.195  1.00  0.00     0.000 HD 
ENDROOT
BRANCH   2   4
HETATM    4  C   UNL     1     -11.401  13.145  68.652  1.00  0.00    -0.289 C  
HETATM    5  C   UNL     1     -12.028  13.019  70.051  1.00  0.00    -0.383 C  
BRANCH   4   6
HETATM    6  C   UNL     1     -11.920  14.460  67.974  1.00  0.00    -0.291 C  
HETATM    7  O   UNL     1     -12.661  14.141  66.788  1.00  0.00    -0.554 OA 
HETATM    8  H   UNL     1     -12.975  14.938  66.378  1.00  0.00     0.000 HD 
BRANCH   6   9
HETATM    9  C   UNL     1     -10.838  15.453  67.588  1.00  0.00    -0.304 A  
HETATM   10  C   UNL     1     -10.489  16.489  68.466  1.00  0.00    -0.302 A  
HETATM   11  C   UNL     1      -9.512  17.422  68.115  1.00  0.00    -0.288 A  
HETATM   12  C   UNL     1      -8.871  17.330  66.880  1.00  0.00    -0.259 A  
HETATM   13  C   UNL     1      -9.208  16.308  65.996  1.00  0.00    -0.351 A  
HETATM   14  C   UNL     1     -10.188  15.376  66.345  1.00  0.00    -0.296 A  
ENDBRANCH   6   9
ENDBRANCH   4   6
ENDBRANCH   2   4
TORSDOF 3
ENDMDL
MODEL      134
REMARK 921   NORMALIZED FREE ENERGY PREDICTED BY IDOCK:   -3.18 KCAL/MOL
REMARK 922        TOTAL FREE ENERGY PREDICTED BY IDOCK:   -3.99 KCAL/MOL
REMARK 923 INTER-LIGAND FREE ENERGY PREDICTED BY IDOCK:   -3.72 KCAL/MOL
REMARK 924 INTRA-LIGAND FREE ENERGY PREDICTED BY IDOCK:   -0.28 KCAL/MOL
REMARK 927      BINDING AFFINITY PREDICTED BY RF-SCORE:    0.00 PKD
ROOT
HETATM    1  C   UNL     1     -12.377  14.198  65.203  1.00  0.00    -0.451 C  
HETATM    2  N   UNL     1     -12.150  13.706  66.557  1.00  0.00    -0.421 NA 
HETATM    3  H   UNL     1     -11.753  12.766  66.539  1.00  0.00     0.000 HD 
ENDROOT
BRANCH   2   4
HETATM    4  C   UNL     1     -11.314  14.614  67.378  1.00  0.00    -0.356 C  
HETATM    5  C   UNL     1     -11.060  14.027  68.777  1.00  0.00    -0.287 C  
BRANCH   4   6
HETATM    6  C   UNL     1      -9.939  14.914  66.689  1.00  0.00    -0.258 C  
HETATM    7  O   UNL     1      -8.942  14.001  67.167  1.00  0.00    -0.212 OA 
HETATM    8  H   UNL     1      -8.108  14.183  66.749  1.00  0.00     0.000 HD 
BRANCH   6   9
HETATM    9  C   UNL     1      -9.410  16.322  66.896  1.00  0.00    -0.241 A  
HETATM   10  C   UNL     1     -10.291  17.361  67.235  1.00  0.00    -0.336 A  
HETATM   11  C   UNL     1      -9.821  18.664  67.407  1.00  0.00    -0.347 A  
HETATM   12  C   UNL     1      -8.466  18.945  67.241  1.00  0.00    -0.293 A  
HETATM   13  C   UNL     1      -7.580  17.926  66.903  1.00  0.00    -0.236 A  
HETATM   14  C   UNL     1      -8.049  16.621  66.727  1.00  0.00    -0.281 A  
ENDBRANCH   6   9
ENDBRANCH   4   6
ENDBRANCH   2   4
TORSDOF 3
ENDMDL
MODEL      135
REMARK 921   NORMALIZED FREE ENERGY PREDICTED BY IDOCK:   -3.16 KCAL/MOL
REMARK 922        TOTAL FREE ENERGY PREDICTED BY IDOCK:   -3.96 KCAL/MOL
REMARK 923 INTER-LIGAND FREE ENERGY PREDICTED BY IDOCK:   -3.86 KCAL/MOL
REMARK 924 INTRA-LIGAND FREE ENERGY PREDICTED BY IDOCK:   -0.10 KCAL/MOL
REMARK 927      BINDING AFFINITY PREDICTED BY RF-SCORE:    0.00 PKD
ROOT
HETATM    1  C   UNL     1     -12.879   9.566  72.016  1.00  0.00    -0.414 C  
HETATM    2  N   UNL     1     -12.624   8.768  70.822  1.00  0.00    -0.483 NA 
HETATM    3  H   UNL     1     -13.116   9.155  70.016  1.00  0.00     0.000 HD 
ENDROOT
BRANCH   2   4
HETATM    4  C   UNL     1     -11.182   8.599  70.527  1.00  0.00    -0.241 C  
HETATM    5  C   UNL     1     -10.315   8.983  71.739  1.00  0.00    -0.407 C  
BRANCH   4   6
HETATM    6  C   UNL     1     -10.848   7.128  70.103  1.00  0.00    -0.257 C  
HETATM    7  O   UNL     1     -11.943   6.571  69.362  1.00  0.00    -0.568 OA 
HETATM    8  H   UNL     1     -11.740   5.679  69.105  1.00  0.00     0.000 HD 
BRANCH   6   9
HETATM    9  C   UNL     1     -10.541   6.182  71.250  1.00  0.00    -0.295 A  
HETATM   10  C   UNL     1      -9.262   5.618  71.372  1.00  0.00    -0.163 A  
HETATM   11  C   UNL     1      -8.972   4.730  72.410  1.00  0.00    -0.138 A  
HETATM   12  C   UNL     1      -9.956   4.396  73.338  1.00  0.00    -0.175 A  
HETATM   13  C   UNL     1     -11.231   4.947  73.230  1.00  0.00    -0.423 A  
HETATM   14  C   UNL     1     -11.524   5.833  72.190  1.00  0.00    -0.295 A  
ENDBRANCH   6   9
ENDBRANCH   4   6
ENDBRANCH   2   4
TORSDOF 3
ENDMDL
MODEL      136
REMARK 921   NORMALIZED FREE ENERGY PREDICTED BY IDOCK:   -3.15 KCAL/MOL
REMARK 922        TOTAL FREE ENERGY PREDICTED BY IDOCK:   -3.95 KCAL/MOL
REMARK 923 INTER-LIGAND FREE ENERGY PREDICTED BY IDOCK:   -3.75 KCAL/MOL
REMARK 924 INTRA-LIGAND FREE ENERGY PREDICTED BY IDOCK:   -0.20 KCAL/MOL
REMARK 927      BINDING AFFINITY PREDICTED BY RF-SCORE:    0.00 PKD
ROOT
HETATM    1  C   UNL     1     -10.767   5.428  66.663  1.00  0.00    -0.236 C  
HETATM    2  N   UNL     1     -11.366   6.730  66.931  1.00  0.00    -0.792 NA 
HETATM    3  H   UNL     1     -12.343   6.630  67.207  1.00  0.00     0.000 HD 
ENDROOT
BRANCH   2   4
HETATM    4  C   UNL     1     -10.615   7.526  67.930  1.00  0.00    -0.185 C  
HETATM    5  C   UNL     1     -10.006   6.626  69.018  1.00  0.00    -0.162 C  
BRANCH   4   6
HETATM    6  C   UNL     1      -9.473   8.365  67.259  1.00  0.00    -0.154 C  
HETATM    7  O   UNL     1      -8.549   8.821  68.257  1.00  0.00    -0.132 OA 
HETATM    8  H   UNL     1      -7.857   9.329  67.849  1.00  0.00     0.000 HD 
BRANCH   6   9
HETATM    9  C   UNL     1      -9.942   9.579  66.478  1.00  0.00    -0.329 A  
HETATM   10  C   UNL     1      -9.649   9.691  65.110  1.00  0.00    -0.324 A  
HETATM   11  C   UNL     1     -10.056  10.811  64.384  1.00  0.00    -0.419 A  
HETATM   12  C   UNL     1     -10.761  11.834  65.017  1.00  0.00    -0.344 A  
HETATM   13  C   UNL     1     -11.058  11.739  66.374  1.00  0.00    -0.360 A  
HETATM   14  C   UNL     1     -10.648  10.619  67.103  1.00  0.00    -0.312 A  
ENDBRANCH   6   9
ENDBRANCH   4   6
ENDBRANCH   2   4
TORSDOF 3
ENDMDL
MODEL      137
REMARK 921   NORMALIZED FREE ENERGY PREDICTED BY IDOCK:   -3.11 KCAL/MOL
REMARK 922        TOTAL FREE ENERGY PREDICTED BY IDOCK:   -3.91 KCAL/MOL
REMARK 923 INTER-LIGAND FREE ENERGY PREDICTED BY IDOCK:   -3.89 KCAL/MOL
REMARK 924 INTRA-LIGAND FREE ENERGY PREDICTED BY IDOCK:   -0.02 KCAL/MOL
REMARK 927      BINDING AFFINITY PREDICTED BY RF-SCORE:    0.00 PKD
ROOT
HETATM    1  C   UNL     1     -11.558  15.447  71.329  1.00  0.00    -0.386 C  
HETATM    2  N   UNL     1     -11.264  14.693  70.116  1.00  0.00    -0.406 NA 
HETATM    3  H   UNL     1     -11.750  13.796  70.120  1.00  0.00     0.000 HD 
ENDROOT
BRANCH   2   4
HETATM    4  C   UNL     1     -11.558  15.445  68.873  1.00  0.00    -0.354 C  
HETATM    5  C   UNL     1     -10.660  16.688  68.747  1.00  0.00    -0.340 C  
BRANCH   4   6
HETATM    6  C   UNL     1     -11.376  14.549  67.600  1.00  0.00    -0.337 C  
HETATM    7  O   UNL     1     -12.637  14.376  66.938  1.00  0.00    -0.540 OA 
HETATM    8  H   UNL     1     -12.526  13.833  66.167  1.00  0.00     0.000 HD 
BRANCH   6   9
HETATM    9  C   UNL     1     -10.801  13.169  67.863  1.00  0.00    -0.260 A  
HETATM   10  C   UNL     1     -11.658  12.087  68.117  1.00  0.00    -0.403 A  
HETATM   11  C   UNL     1     -11.142  10.817  68.382  1.00  0.00    -0.323 A  
HETATM   12  C   UNL     1      -9.764  10.613  68.396  1.00  0.00    -0.172 A  
HETATM   13  C   UNL     1      -8.900  11.677  68.147  1.00  0.00    -0.164 A  
HETATM   14  C   UNL     1      -9.414  12.949  67.886  1.00  0.00    -0.208 A  
ENDBRANCH   6   9
ENDBRANCH   4   6
ENDBRANCH   2   4
TORSDOF 3
ENDMDL
MODEL      138
REMARK 921   NORMALIZED FREE ENERGY PREDICTED BY IDOCK:   -3.10 KCAL/MOL
REMARK 922        TOTAL FREE ENERGY PREDICTED BY IDOCK:   -3.89 KCAL/MOL
REMARK 923 INTER-LIGAND FREE ENERGY PREDICTED BY IDOCK:   -3.77 KCAL/MOL
REMARK 924 INTRA-LIGAND FREE ENERGY PREDICTED BY IDOCK:   -0.12 KCAL/MOL
REMARK 927      BINDING AFFINITY PREDICTED BY RF-SCORE:    0.00 PKD
ROOT
HETATM    1  C   UNL     1     -12.096   7.396  71.108  1.00  0.00    -0.325 C  
HETATM    2  N   UNL     1     -12.533   8.770  70.889  1.00  0.00    -0.492 NA 
HETATM    3  H   UNL     1     -13.274   9.023  71.543  1.00  0.00     0.000 HD 
ENDROOT
BRANCH   2   4
HETATM    4  C   UNL     1     -11.425   9.753  70.943  1.00  0.00    -0.369 C  
HETATM    5  C   UNL     1     -10.098   9.079  71.331  1.00  0.00    -0.399 C  
BRANCH   4   6
HETATM    6  C   UNL     1     -11.244  10.494  69.574  1.00  0.00    -0.271 C  
HETATM    7  O   UNL     1     -12.506  10.597  68.901  1.00  0.00    -0.791 OA 
HETATM    8  H   UNL     1     -12.396  11.046  68.071  1.00  0.00     0.000 HD 
BRANCH   6   9
HETATM    9  C   UNL     1     -10.264   9.840  68.615  1.00  0.00    -0.210 A  
HETATM   10  C   UNL     1      -8.943  10.307  68.534  1.00  0.00    -0.134 A  
HETATM   11  C   UNL     1      -8.038   9.729  67.642  1.00  0.00    -0.113 A  
HETATM   12  C   UNL     1      -8.442   8.679  66.819  1.00  0.00    -0.117 A  
HETATM   13  C   UNL     1      -9.751   8.207  66.886  1.00  0.00    -0.291 A  
HETATM   14  C   UNL     1     -10.659   8.786  67.776  1.00  0.00    -0.256 A  
ENDBRANCH   6   9
ENDBRANCH   4   6
ENDBRANCH   2   4
TORSDOF 3
ENDMDL
MODEL      139
REMARK 921   NORMALIZED FREE ENERGY PREDICTED BY IDOCK:   -3.09 KCAL/MOL
REMARK 922        TOTAL FREE ENERGY PREDICTED BY IDOCK:   -3.88 KCAL/MOL
REMARK 923 INTER-LIGAND FREE ENERGY PREDICTED BY IDOCK:   -3.58 KCAL/MOL
REMARK 924 INTRA-LIGAND FREE ENERGY PREDICTED BY IDOCK:   -0.30 KCAL/MOL
REMARK 927      BINDING AFFINITY PREDICTED BY RF-SCORE:    0.00 PKD
ROOT
HETATM    1  C   UNL     1     -10.127   4.350  65.529  1.00  0.00    -0.236 C  
HETATM    2  N   UNL     1      -9.187   5.458  65.639  1.00  0.00    -0.243 NA 
HETATM    3  H   UNL     1      -9.259   6.077  64.831  1.00  0.00     0.000 HD 
ENDROOT
BRANCH   2   4
HETATM    4  C   UNL     1      -9.327   6.223  66.901  1.00  0.00    -0.136 C  
HETATM    5  C   UNL     1      -9.155   7.733  66.662  1.00  0.00    -0.195 C  
BRANCH   4   6
HETATM    6  C   UNL     1     -10.716   5.965  67.580  1.00  0.00    -0.276 C  
HETATM    7  O   UNL     1     -11.584   7.086  67.362  1.00  0.00    -0.550 OA 
HETATM    8  H   UNL     1     -12.426   6.929  67.774  1.00  0.00     0.000 HD 
BRANCH   6   9
HETATM    9  C   UNL     1     -10.662   5.710  69.076  1.00  0.00    -0.307 A  
HETATM   10  C   UNL     1      -9.893   4.649  69.580  1.00  0.00    -0.293 A  
HETATM   11  C   UNL     1      -9.852   4.390  70.951  1.00  0.00    -0.266 A  
HETATM   12  C   UNL     1     -10.578   5.187  71.835  1.00  0.00    -0.256 A  
HETATM   13  C   UNL     1     -11.346   6.242  71.350  1.00  0.00    -0.353 A  
HETATM   14  C   UNL     1     -11.392   6.501  69.977  1.00  0.00    -0.472 A  
ENDBRANCH   6   9
ENDBRANCH   4   6
ENDBRANCH   2   4
TORSDOF 3
ENDMDL
MODEL      140
REMARK 921   NORMALIZED FREE ENERGY PREDICTED BY IDOCK:   -3.09 KCAL/MOL
REMARK 922        TOTAL FREE ENERGY PREDICTED BY IDOCK:   -3.88 KCAL/MOL
REMARK 923 INTER-LIGAND FREE ENERGY PREDICTED BY IDOCK:   -3.86 KCAL/MOL
REMARK 924 INTRA-LIGAND FREE ENERGY PREDICTED BY IDOCK:   -0.02 KCAL/MOL
REMARK 927      BINDING AFFINITY PREDICTED BY RF-SCORE:    0.00 PKD
ROOT
HETATM    1  C   UNL     1     -12.729  14.205  65.545  1.00  0.00    -0.443 C  
HETATM    2  N   UNL     1     -12.142  13.593  66.731  1.00  0.00    -0.407 NA 
HETATM    3  H   UNL     1     -12.710  12.809  67.054  1.00  0.00     0.000 HD 
ENDROOT
BRANCH   2   4
HETATM    4  C   UNL     1     -10.732  13.178  66.540  1.00  0.00    -0.279 C  
HETATM    5  C   UNL     1     -10.258  13.455  65.104  1.00  0.00    -0.316 C  
BRANCH   4   6
HETATM    6  C   UNL     1      -9.775  13.906  67.546  1.00  0.00    -0.232 C  
HETATM    7  O   UNL     1     -10.161  13.607  68.894  1.00  0.00    -0.373 OA 
HETATM    8  H   UNL     1      -9.581  14.048  69.503  1.00  0.00     0.000 HD 
BRANCH   6   9
HETATM    9  C   UNL     1      -9.726  15.417  67.406  1.00  0.00    -0.215 A  
HETATM   10  C   UNL     1      -8.790  16.014  66.547  1.00  0.00    -0.340 A  
HETATM   11  C   UNL     1      -8.720  17.402  66.425  1.00  0.00    -0.275 A  
HETATM   12  C   UNL     1      -9.584  18.212  67.161  1.00  0.00    -0.277 A  
HETATM   13  C   UNL     1     -10.517  17.636  68.019  1.00  0.00    -0.395 A  
HETATM   14  C   UNL     1     -10.587  16.246  68.144  1.00  0.00    -0.307 A  
ENDBRANCH   6   9
ENDBRANCH   4   6
ENDBRANCH   2   4
TORSDOF 3
ENDMDL
MODEL      141
REMARK 921   NORMALIZED FREE ENERGY PREDICTED BY IDOCK:   -3.07 KCAL/MOL
REMARK 922        TOTAL FREE ENERGY PREDICTED BY IDOCK:   -3.86 KCAL/MOL
REMARK 923 INTER-LIGAND FREE ENERGY PREDICTED BY IDOCK:   -3.62 KCAL/MOL
REMARK 924 INTRA-LIGAND FREE ENERGY PREDICTED BY IDOCK:   -0.24 KCAL/MOL
REMARK 927      BINDING AFFINITY PREDICTED BY RF-SCORE:    0.00 PKD
ROOT
HETATM    1  C   UNL     1     -12.203  12.643  65.141  1.00  0.00    -0.481 C  
HETATM    2  N   UNL     1     -10.934  12.191  65.697  1.00  0.00    -0.285 NA 
HETATM    3  H   UNL     1     -10.276  12.966  65.776  1.00  0.00     0.000 HD 
ENDROOT
BRANCH   2   4
HETATM    4  C   UNL     1     -11.079  11.489  66.994  1.00  0.00    -0.307 C  
HETATM    5  C   UNL     1     -10.702  10.003  66.871  1.00  0.00    -0.211 C  
BRANCH   4   6
HETATM    6  C   UNL     1     -10.200  12.151  68.110  1.00  0.00    -0.203 C  
HETATM    7  O   UNL     1     -10.445  11.512  69.371  1.00  0.00    -0.426 OA 
HETATM    8  H   UNL     1      -9.911  11.914  70.047  1.00  0.00     0.000 HD 
BRANCH   6   9
HETATM    9  C   UNL     1     -10.418  13.642  68.299  1.00  0.00    -0.253 A  
HETATM   10  C   UNL     1     -11.688  14.128  68.645  1.00  0.00    -0.385 A  
HETATM   11  C   UNL     1     -11.907  15.498  68.802  1.00  0.00    -0.335 A  
HETATM   12  C   UNL     1     -10.859  16.398  68.614  1.00  0.00    -0.331 A  
HETATM   13  C   UNL     1      -9.594  15.931  68.268  1.00  0.00    -0.205 A  
HETATM   14  C   UNL     1      -9.373  14.561  68.108  1.00  0.00    -0.197 A  
ENDBRANCH   6   9
ENDBRANCH   4   6
ENDBRANCH   2   4
TORSDOF 3
ENDMDL
MODEL      142
REMARK 921   NORMALIZED FREE ENERGY PREDICTED BY IDOCK:   -3.05 KCAL/MOL
REMARK 922        TOTAL FREE ENERGY PREDICTED BY IDOCK:   -3.84 KCAL/MOL
REMARK 923 INTER-LIGAND FREE ENERGY PREDICTED BY IDOCK:   -3.76 KCAL/MOL
REMARK 924 INTRA-LIGAND FREE ENERGY PREDICTED BY IDOCK:   -0.08 KCAL/MOL
REMARK 927      BINDING AFFINITY PREDICTED BY RF-SCORE:    0.00 PKD
ROOT
HETATM    1  C   UNL     1     -11.360  15.065  68.519  1.00  0.00    -0.303 C  
HETATM    2  N   UNL     1     -11.493  14.484  67.189  1.00  0.00    -0.354 NA 
HETATM    3  H   UNL     1     -11.541  15.213  66.478  1.00  0.00     0.000 HD 
ENDROOT
BRANCH   2   4
HETATM    4  C   UNL     1     -10.428  13.505  66.868  1.00  0.00    -0.271 C  
HETATM    5  C   UNL     1      -9.309  13.530  67.923  1.00  0.00    -0.215 C  
BRANCH   4   6
HETATM    6  C   UNL     1     -10.997  12.048  66.758  1.00  0.00    -0.285 C  
HETATM    7  O   UNL     1     -12.341  12.083  66.258  1.00  0.00    -0.432 OA 
HETATM    8  H   UNL     1     -12.685  11.200  66.191  1.00  0.00     0.000 HD 
BRANCH   6   9
HETATM    9  C   UNL     1     -11.010  11.264  68.058  1.00  0.00    -0.302 A  
HETATM   10  C   UNL     1     -11.923  11.595  69.070  1.00  0.00    -0.368 A  
HETATM   11  C   UNL     1     -11.932  10.895  70.278  1.00  0.00    -0.448 A  
HETATM   12  C   UNL     1     -11.027   9.857  70.489  1.00  0.00    -0.391 A  
HETATM   13  C   UNL     1     -10.112   9.517  69.495  1.00  0.00    -0.218 A  
HETATM   14  C   UNL     1     -10.100  10.218  68.287  1.00  0.00    -0.176 A  
ENDBRANCH   6   9
ENDBRANCH   4   6
ENDBRANCH   2   4
TORSDOF 3
ENDMDL
MODEL      143
REMARK 921   NORMALIZED FREE ENERGY PREDICTED BY IDOCK:   -3.05 KCAL/MOL
REMARK 922        TOTAL FREE ENERGY PREDICTED BY IDOCK:   -3.83 KCAL/MOL
REMARK 923 INTER-LIGAND FREE ENERGY PREDICTED BY IDOCK:   -3.73 KCAL/MOL
REMARK 924 INTRA-LIGAND FREE ENERGY PREDICTED BY IDOCK:   -0.10 KCAL/MOL
REMARK 927      BINDING AFFINITY PREDICTED BY RF-SCORE:    0.00 PKD
ROOT
HETATM    1  C   UNL     1     -10.715   5.579  73.429  1.00  0.00    -0.278 C  
HETATM    2  N   UNL     1     -11.895   6.269  72.922  1.00  0.00    -0.476 NA 
HETATM    3  H   UNL     1     -12.671   6.193  73.581  1.00  0.00     0.000 HD 
ENDROOT
BRANCH   2   4
HETATM    4  C   UNL     1     -11.639   7.686  72.573  1.00  0.00    -0.330 C  
HETATM    5  C   UNL     1     -10.172   8.069  72.829  1.00  0.00    -0.389 C  
BRANCH   4   6
HETATM    6  C   UNL     1     -11.993   7.984  71.075  1.00  0.00    -0.245 C  
HETATM    7  O   UNL     1     -13.279   7.435  70.756  1.00  0.00    -0.603 OA 
HETATM    8  H   UNL     1     -13.493   7.616  69.849  1.00  0.00     0.000 HD 
BRANCH   6   9
HETATM    9  C   UNL     1     -10.999   7.446  70.061  1.00  0.00    -0.264 A  
HETATM   10  C   UNL     1     -10.050   8.303  69.483  1.00  0.00    -0.197 A  
HETATM   11  C   UNL     1      -9.145   7.827  68.534  1.00  0.00    -0.132 A  
HETATM   12  C   UNL     1      -9.176   6.487  68.150  1.00  0.00    -0.112 A  
HETATM   13  C   UNL     1     -10.113   5.624  68.713  1.00  0.00    -0.245 A  
HETATM   14  C   UNL     1     -11.022   6.100  69.661  1.00  0.00    -0.459 A  
ENDBRANCH   6   9
ENDBRANCH   4   6
ENDBRANCH   2   4
TORSDOF 3
ENDMDL
MODEL      144
REMARK 921   NORMALIZED FREE ENERGY PREDICTED BY IDOCK:   -3.04 KCAL/MOL
REMARK 922        TOTAL FREE ENERGY PREDICTED BY IDOCK:   -3.83 KCAL/MOL
REMARK 923 INTER-LIGAND FREE ENERGY PREDICTED BY IDOCK:   -3.67 KCAL/MOL
REMARK 924 INTRA-LIGAND FREE ENERGY PREDICTED BY IDOCK:   -0.16 KCAL/MOL
REMARK 927      BINDING AFFINITY PREDICTED BY RF-SCORE:    0.00 PKD
ROOT
HETATM    1  C   UNL     1     -11.343  11.243  65.487  1.00  0.00     0.096 C  
HETATM    2  N   UNL     1     -10.869  11.569  66.827  1.00  0.00    -0.270 NA 
HETATM    3  H   UNL     1     -11.219  12.480  67.124  1.00  0.00     0.000 HD 
ENDROOT
BRANCH   2   4
HETATM    4  C   UNL     1     -11.193  10.528  67.831  1.00  0.00    -0.289 C  
HETATM    5  C   UNL     1     -10.613   9.162  67.428  1.00  0.00    -0.315 C  
BRANCH   4   6
HETATM    6  C   UNL     1     -10.659  10.913  69.254  1.00  0.00    -0.217 C  
HETATM    7  O   UNL     1     -10.287   9.731  69.975  1.00  0.00    -0.227 OA 
HETATM    8  H   UNL     1      -9.963   9.965  70.836  1.00  0.00     0.000 HD 
BRANCH   6   9
HETATM    9  C   UNL     1     -11.637  11.690  70.118  1.00  0.00    -0.303 A  
HETATM   10  C   UNL     1     -11.797  13.071  69.931  1.00  0.00    -0.377 A  
HETATM   11  C   UNL     1     -12.676  13.801  70.732  1.00  0.00    -0.361 A  
HETATM   12  C   UNL     1     -13.406  13.159  71.731  1.00  0.00    -0.477 A  
HETATM   13  C   UNL     1     -13.258  11.789  71.931  1.00  0.00    -0.468 A  
HETATM   14  C   UNL     1     -12.375  11.057  71.131  1.00  0.00    -0.465 A  
ENDBRANCH   6   9
ENDBRANCH   4   6
ENDBRANCH   2   4
TORSDOF 3
ENDMDL
MODEL      145
REMARK 921   NORMALIZED FREE ENERGY PREDICTED BY IDOCK:   -3.04 KCAL/MOL
REMARK 922        TOTAL FREE ENERGY PREDICTED BY IDOCK:   -3.83 KCAL/MOL
REMARK 923 INTER-LIGAND FREE ENERGY PREDICTED BY IDOCK:   -3.64 KCAL/MOL
REMARK 924 INTRA-LIGAND FREE ENERGY PREDICTED BY IDOCK:   -0.18 KCAL/MOL
REMARK 927      BINDING AFFINITY PREDICTED BY RF-SCORE:    0.00 PKD
ROOT
HETATM    1  C   UNL     1     -13.288  12.367  71.881  1.00  0.00    -0.349 C  
HETATM    2  N   UNL     1     -12.062  12.169  71.118  1.00  0.00    -0.250 NA 
HETATM    3  H   UNL     1     -11.241  12.323  71.703  1.00  0.00     0.000 HD 
ENDROOT
BRANCH   2   4
HETATM    4  C   UNL     1     -11.994  10.846  70.452  1.00  0.00    -0.362 C  
HETATM    5  C   UNL     1     -12.018  10.989  68.921  1.00  0.00    -0.332 C  
BRANCH   4   6
HETATM    6  C   UNL     1     -10.708  10.055  70.874  1.00  0.00    -0.133 C  
HETATM    7  O   UNL     1      -9.861   9.852  69.734  1.00  0.00    -0.212 OA 
HETATM    8  H   UNL     1      -9.083   9.372  69.990  1.00  0.00     0.000 HD 
BRANCH   6   9
HETATM    9  C   UNL     1     -10.967   8.696  71.501  1.00  0.00    -0.360 A  
HETATM   10  C   UNL     1     -11.927   7.836  70.946  1.00  0.00    -0.229 A  
HETATM   11  C   UNL     1     -12.190   6.594  71.525  1.00  0.00    -0.391 A  
HETATM   12  C   UNL     1     -11.498   6.196  72.668  1.00  0.00    -0.277 A  
HETATM   13  C   UNL     1     -10.544   7.039  73.233  1.00  0.00    -0.378 A  
HETATM   14  C   UNL     1     -10.282   8.285  72.656  1.00  0.00    -0.368 A  
ENDBRANCH   6   9
ENDBRANCH   4   6
ENDBRANCH   2   4
TORSDOF 3
ENDMDL
MODEL      146
REMARK 921   NORMALIZED FREE ENERGY PREDICTED BY IDOCK:   -3.02 KCAL/MOL
REMARK 922        TOTAL FREE ENERGY PREDICTED BY IDOCK:   -3.80 KCAL/MOL
REMARK 923 INTER-LIGAND FREE ENERGY PREDICTED BY IDOCK:   -3.60 KCAL/MOL
REMARK 924 INTRA-LIGAND FREE ENERGY PREDICTED BY IDOCK:   -0.21 KCAL/MOL
REMARK 927      BINDING AFFINITY PREDICTED BY RF-SCORE:    0.00 PKD
ROOT
HETATM    1  C   UNL     1      -8.370   6.730  66.899  1.00  0.00    -0.114 C  
HETATM    2  N   UNL     1      -9.255   7.599  66.134  1.00  0.00    -0.313 NA 
HETATM    3  H   UNL     1      -9.852   7.052  65.513  1.00  0.00     0.000 HD 
ENDROOT
BRANCH   2   4
HETATM    4  C   UNL     1     -10.067   8.503  66.983  1.00  0.00    -0.277 C  
HETATM    5  C   UNL     1     -10.134   7.997  68.434  1.00  0.00    -0.221 C  
BRANCH   4   6
HETATM    6  C   UNL     1      -9.502   9.965  66.975  1.00  0.00    -0.160 C  
HETATM    7  O   UNL     1      -9.282  10.413  68.319  1.00  0.00    -0.142 OA 
HETATM    8  H   UNL     1      -8.940  11.299  68.314  1.00  0.00     0.000 HD 
BRANCH   6   9
HETATM    9  C   UNL     1     -10.384  10.991  66.286  1.00  0.00    -0.304 A  
HETATM   10  C   UNL     1     -11.077  11.946  67.045  1.00  0.00    -0.354 A  
HETATM   11  C   UNL     1     -11.907  12.881  66.427  1.00  0.00    -0.478 A  
HETATM   12  C   UNL     1     -12.057  12.873  65.041  1.00  0.00    -0.480 A  
HETATM   13  C   UNL     1     -11.377  11.931  64.273  1.00  0.00    -0.425 A  
HETATM   14  C   UNL     1     -10.548  10.991  64.891  1.00  0.00    -0.328 A  
ENDBRANCH   6   9
ENDBRANCH   4   6
ENDBRANCH   2   4
TORSDOF 3
ENDMDL
MODEL      147
REMARK 921   NORMALIZED FREE ENERGY PREDICTED BY IDOCK:   -3.02 KCAL/MOL
REMARK 922        TOTAL FREE ENERGY PREDICTED BY IDOCK:   -3.80 KCAL/MOL
REMARK 923 INTER-LIGAND FREE ENERGY PREDICTED BY IDOCK:   -3.89 KCAL/MOL
REMARK 924 INTRA-LIGAND FREE ENERGY PREDICTED BY IDOCK:    0.09 KCAL/MOL
REMARK 927      BINDING AFFINITY PREDICTED BY RF-SCORE:    0.00 PKD
ROOT
HETATM    1  C   UNL     1     -13.020   6.624  71.628  1.00  0.00    -0.126 C  
HETATM    2  N   UNL     1     -12.225   7.142  70.521  1.00  0.00    -0.593 NA 
HETATM    3  H   UNL     1     -12.739   7.862  70.012  1.00  0.00     0.000 HD 
ENDROOT
BRANCH   2   4
HETATM    4  C   UNL     1     -10.894   7.642  70.939  1.00  0.00    -0.241 C  
HETATM    5  C   UNL     1      -9.801   6.588  70.696  1.00  0.00    -0.201 C  
BRANCH   4   6
HETATM    6  C   UNL     1     -10.510   8.962  70.186  1.00  0.00    -0.214 C  
HETATM    7  O   UNL     1      -9.168   9.343  70.517  1.00  0.00    -0.237 OA 
HETATM    8  H   UNL     1      -8.937  10.144  70.060  1.00  0.00     0.000 HD 
BRANCH   6   9
HETATM    9  C   UNL     1     -11.411  10.150  70.473  1.00  0.00    -0.417 A  
HETATM   10  C   UNL     1     -11.322  11.306  69.683  1.00  0.00    -0.359 A  
HETATM   11  C   UNL     1     -12.129  12.414  69.950  1.00  0.00    -0.317 A  
HETATM   12  C   UNL     1     -13.034  12.379  71.009  1.00  0.00    -0.151 A  
HETATM   13  C   UNL     1     -13.133  11.239  71.803  1.00  0.00    -0.527 A  
HETATM   14  C   UNL     1     -12.324  10.131  71.540  1.00  0.00    -0.505 A  
ENDBRANCH   6   9
ENDBRANCH   4   6
ENDBRANCH   2   4
TORSDOF 3
ENDMDL
MODEL      148
REMARK 921   NORMALIZED FREE ENERGY PREDICTED BY IDOCK:   -3.00 KCAL/MOL
REMARK 922        TOTAL FREE ENERGY PREDICTED BY IDOCK:   -3.78 KCAL/MOL
REMARK 923 INTER-LIGAND FREE ENERGY PREDICTED BY IDOCK:   -3.52 KCAL/MOL
REMARK 924 INTRA-LIGAND FREE ENERGY PREDICTED BY IDOCK:   -0.27 KCAL/MOL
REMARK 927      BINDING AFFINITY PREDICTED BY RF-SCORE:    0.00 PKD
ROOT
HETATM    1  C   UNL     1     -11.923  12.618  64.750  1.00  0.00    -0.402 C  
HETATM    2  N   UNL     1     -11.882  13.931  64.116  1.00  0.00    -0.573 NA 
HETATM    3  H   UNL     1     -12.817  14.333  64.056  1.00  0.00     0.000 HD 
ENDROOT
BRANCH   2   4
HETATM    4  C   UNL     1     -10.946  14.871  64.776  1.00  0.00    -0.375 C  
HETATM    5  C   UNL     1     -11.409  16.328  64.612  1.00  0.00    -0.237 C  
BRANCH   4   6
HETATM    6  C   UNL     1     -10.787  14.552  66.302  1.00  0.00    -0.317 C  
HETATM    7  O   UNL     1     -11.446  15.556  67.085  1.00  0.00    -0.223 OA 
HETATM    8  H   UNL     1     -11.349  15.362  68.010  1.00  0.00     0.000 HD 
BRANCH   6   9
HETATM    9  C   UNL     1      -9.353  14.454  66.792  1.00  0.00    -0.285 A  
HETATM   10  C   UNL     1      -8.829  13.215  67.193  1.00  0.00    -0.222 A  
HETATM   11  C   UNL     1      -7.520  13.115  67.665  1.00  0.00    -0.164 A  
HETATM   12  C   UNL     1      -6.717  14.252  67.744  1.00  0.00    -0.190 A  
HETATM   13  C   UNL     1      -7.222  15.490  67.351  1.00  0.00    -0.241 A  
HETATM   14  C   UNL     1      -8.534  15.592  66.881  1.00  0.00    -0.289 A  
ENDBRANCH   6   9
ENDBRANCH   4   6
ENDBRANCH   2   4
TORSDOF 3
ENDMDL
MODEL      149
REMARK 921   NORMALIZED FREE ENERGY PREDICTED BY IDOCK:   -3.00 KCAL/MOL
REMARK 922        TOTAL FREE ENERGY PREDICTED BY IDOCK:   -3.78 KCAL/MOL
REMARK 923 INTER-LIGAND FREE ENERGY PREDICTED BY IDOCK:   -3.59 KCAL/MOL
REMARK 924 INTRA-LIGAND FREE ENERGY PREDICTED BY IDOCK:   -0.19 KCAL/MOL
REMARK 927      BINDING AFFINITY PREDICTED BY RF-SCORE:    0.00 PKD
ROOT
HETATM    1  C   UNL     1      -8.822   8.887  68.632  1.00  0.00    -0.137 C  
HETATM    2  N   UNL     1      -9.135  10.198  69.185  1.00  0.00    -0.172 NA 
HETATM    3  H   UNL     1      -8.297  10.643  69.561  1.00  0.00     0.000 HD 
ENDROOT
BRANCH   2   4
HETATM    4  C   UNL     1      -9.819  11.093  68.221  1.00  0.00    -0.189 C  
HETATM    5  C   UNL     1     -10.286  10.320  66.977  1.00  0.00    -0.299 C  
BRANCH   4   6
HETATM    6  C   UNL     1     -11.050  11.810  68.873  1.00  0.00    -0.243 C  
HETATM    7  O   UNL     1     -12.268  11.308  68.305  1.00  0.00    -0.615 OA 
HETATM    8  H   UNL     1     -13.014  11.743  68.701  1.00  0.00     0.000 HD 
BRANCH   6   9
HETATM    9  C   UNL     1     -11.064  13.322  68.729  1.00  0.00    -0.303 A  
HETATM   10  C   UNL     1     -11.846  14.103  69.593  1.00  0.00    -0.379 A  
HETATM   11  C   UNL     1     -11.885  15.492  69.458  1.00  0.00    -0.390 A  
HETATM   12  C   UNL     1     -11.143  16.117  68.456  1.00  0.00    -0.357 A  
HETATM   13  C   UNL     1     -10.363  15.355  67.589  1.00  0.00    -0.262 A  
HETATM   14  C   UNL     1     -10.326  13.964  67.722  1.00  0.00    -0.240 A  
ENDBRANCH   6   9
ENDBRANCH   4   6
ENDBRANCH   2   4
TORSDOF 3
ENDMDL
MODEL      150
REMARK 921   NORMALIZED FREE ENERGY PREDICTED BY IDOCK:   -3.00 KCAL/MOL
REMARK 922        TOTAL FREE ENERGY PREDICTED BY IDOCK:   -3.77 KCAL/MOL
REMARK 923 INTER-LIGAND FREE ENERGY PREDICTED BY IDOCK:   -3.89 KCAL/MOL
REMARK 924 INTRA-LIGAND FREE ENERGY PREDICTED BY IDOCK:    0.12 KCAL/MOL
REMARK 927      BINDING AFFINITY PREDICTED BY RF-SCORE:    0.00 PKD
ROOT
HETATM    1  C   UNL     1      -8.922  10.994  63.695  1.00  0.00    -0.085 C  
HETATM    2  N   UNL     1      -9.135  11.432  65.069  1.00  0.00    -0.400 NA 
HETATM    3  H   UNL     1      -9.045  12.445  65.145  1.00  0.00     0.000 HD 
ENDROOT
BRANCH   2   4
HETATM    4  C   UNL     1     -10.426  10.975  65.636  1.00  0.00    -0.230 C  
HETATM    5  C   UNL     1     -10.223   9.822  66.633  1.00  0.00    -0.296 C  
BRANCH   4   6
HETATM    6  C   UNL     1     -11.188  12.143  66.351  1.00  0.00    -0.331 C  
HETATM    7  O   UNL     1     -12.512  12.267  65.815  1.00  0.00    -0.564 OA 
HETATM    8  H   UNL     1     -12.973  12.975  66.249  1.00  0.00     0.000 HD 
BRANCH   6   9
HETATM    9  C   UNL     1     -10.521  13.504  66.247  1.00  0.00    -0.290 A  
HETATM   10  C   UNL     1     -11.068  14.492  65.414  1.00  0.00    -0.345 A  
HETATM   11  C   UNL     1     -10.453  15.740  65.292  1.00  0.00    -0.427 A  
HETATM   12  C   UNL     1      -9.285  16.014  66.001  1.00  0.00    -0.375 A  
HETATM   13  C   UNL     1      -8.729  15.043  66.830  1.00  0.00    -0.285 A  
HETATM   14  C   UNL     1      -9.341  13.793  66.951  1.00  0.00    -0.267 A  
ENDBRANCH   6   9
ENDBRANCH   4   6
ENDBRANCH   2   4
TORSDOF 3
ENDMDL
MODEL      151
REMARK 921   NORMALIZED FREE ENERGY PREDICTED BY IDOCK:   -2.99 KCAL/MOL
REMARK 922        TOTAL FREE ENERGY PREDICTED BY IDOCK:   -3.77 KCAL/MOL
REMARK 923 INTER-LIGAND FREE ENERGY PREDICTED BY IDOCK:   -3.88 KCAL/MOL
REMARK 924 INTRA-LIGAND FREE ENERGY PREDICTED BY IDOCK:    0.11 KCAL/MOL
REMARK 927      BINDING AFFINITY PREDICTED BY RF-SCORE:    0.00 PKD
ROOT
HETATM    1  C   UNL     1      -6.954  19.429  66.033  1.00  0.00    -0.264 C  
HETATM    2  N   UNL     1      -8.270  18.915  65.676  1.00  0.00    -0.310 NA 
HETATM    3  H   UNL     1      -8.269  17.895  65.658  1.00  0.00     0.000 HD 
ENDROOT
BRANCH   2   4
HETATM    4  C   UNL     1      -9.355  19.425  66.548  1.00  0.00    -0.359 C  
HETATM    5  C   UNL     1     -10.506  20.018  65.719  1.00  0.00    -0.469 C  
BRANCH   4   6
HETATM    6  C   UNL     1      -9.920  18.301  67.483  1.00  0.00    -0.335 C  
HETATM    7  O   UNL     1      -9.160  18.244  68.697  1.00  0.00    -0.312 OA 
HETATM    8  H   UNL     1      -9.503  17.563  69.263  1.00  0.00     0.000 HD 
BRANCH   6   9
HETATM    9  C   UNL     1      -9.928  16.908  66.879  1.00  0.00    -0.279 A  
HETATM   10  C   UNL     1     -10.546  16.682  65.639  1.00  0.00    -0.282 A  
HETATM   11  C   UNL     1     -10.579  15.402  65.083  1.00  0.00    -0.458 A  
HETATM   12  C   UNL     1      -9.996  14.332  65.760  1.00  0.00    -0.346 A  
HETATM   13  C   UNL     1      -9.381  14.539  66.992  1.00  0.00    -0.249 A  
HETATM   14  C   UNL     1      -9.350  15.819  67.552  1.00  0.00    -0.210 A  
ENDBRANCH   6   9
ENDBRANCH   4   6
ENDBRANCH   2   4
TORSDOF 3
ENDMDL
MODEL      152
REMARK 921   NORMALIZED FREE ENERGY PREDICTED BY IDOCK:   -2.99 KCAL/MOL
REMARK 922        TOTAL FREE ENERGY PREDICTED BY IDOCK:   -3.77 KCAL/MOL
REMARK 923 INTER-LIGAND FREE ENERGY PREDICTED BY IDOCK:   -3.52 KCAL/MOL
REMARK 924 INTRA-LIGAND FREE ENERGY PREDICTED BY IDOCK:   -0.25 KCAL/MOL
REMARK 927      BINDING AFFINITY PREDICTED BY RF-SCORE:    0.00 PKD
ROOT
HETATM    1  C   UNL     1     -10.214  17.690  67.319  1.00  0.00    -0.343 C  
HETATM    2  N   UNL     1      -9.721  16.345  67.048  1.00  0.00    -0.242 NA 
HETATM    3  H   UNL     1      -8.814  16.196  67.490  1.00  0.00     0.000 HD 
ENDROOT
BRANCH   2   4
HETATM    4  C   UNL     1     -10.677  15.282  67.437  1.00  0.00    -0.293 C  
HETATM    5  C   UNL     1     -11.576  14.879  66.255  1.00  0.00    -0.233 C  
BRANCH   4   6
HETATM    6  C   UNL     1      -9.937  14.010  67.975  1.00  0.00    -0.235 C  
HETATM    7  O   UNL     1      -9.421  13.241  66.880  1.00  0.00    -0.233 OA 
HETATM    8  H   UNL     1      -8.972  12.471  67.207  1.00  0.00     0.000 HD 
BRANCH   6   9
HETATM    9  C   UNL     1     -10.788  13.083  68.826  1.00  0.00    -0.277 A  
HETATM   10  C   UNL     1     -10.725  11.695  68.632  1.00  0.00    -0.246 A  
HETATM   11  C   UNL     1     -11.518  10.833  69.392  1.00  0.00    -0.366 A  
HETATM   12  C   UNL     1     -12.384  11.348  70.354  1.00  0.00    -0.404 A  
HETATM   13  C   UNL     1     -12.460  12.724  70.558  1.00  0.00    -0.280 A  
HETATM   14  C   UNL     1     -11.669  13.588  69.795  1.00  0.00    -0.363 A  
ENDBRANCH   6   9
ENDBRANCH   4   6
ENDBRANCH   2   4
TORSDOF 3
ENDMDL
MODEL      153
REMARK 921   NORMALIZED FREE ENERGY PREDICTED BY IDOCK:   -2.99 KCAL/MOL
REMARK 922        TOTAL FREE ENERGY PREDICTED BY IDOCK:   -3.76 KCAL/MOL
REMARK 923 INTER-LIGAND FREE ENERGY PREDICTED BY IDOCK:   -3.51 KCAL/MOL
REMARK 924 INTRA-LIGAND FREE ENERGY PREDICTED BY IDOCK:   -0.25 KCAL/MOL
REMARK 927      BINDING AFFINITY PREDICTED BY RF-SCORE:    0.00 PKD
ROOT
HETATM    1  C   UNL     1     -10.130  13.139  65.865  1.00  0.00    -0.290 C  
HETATM    2  N   UNL     1      -9.594  14.340  65.235  1.00  0.00    -0.520 NA 
HETATM    3  H   UNL     1     -10.079  14.538  64.360  1.00  0.00     0.000 HD 
ENDROOT
BRANCH   2   4
HETATM    4  C   UNL     1      -9.611  15.526  66.125  1.00  0.00    -0.330 C  
HETATM    5  C   UNL     1     -10.641  15.362  67.255  1.00  0.00    -0.294 C  
BRANCH   4   6
HETATM    6  C   UNL     1      -8.200  15.796  66.752  1.00  0.00    -0.267 C  
HETATM    7  O   UNL     1      -8.049  15.045  67.964  1.00  0.00    -0.121 OA 
HETATM    8  H   UNL     1      -7.194  15.209  68.344  1.00  0.00     0.000 HD 
BRANCH   6   9
HETATM    9  C   UNL     1      -7.908  17.251  67.073  1.00  0.00    -0.243 A  
HETATM   10  C   UNL     1      -7.881  17.685  68.407  1.00  0.00    -0.268 A  
HETATM   11  C   UNL     1      -7.635  19.024  68.716  1.00  0.00    -0.375 A  
HETATM   12  C   UNL     1      -7.414  19.946  67.694  1.00  0.00    -0.320 A  
HETATM   13  C   UNL     1      -7.439  19.532  66.365  1.00  0.00    -0.277 A  
HETATM   14  C   UNL     1      -7.688  18.192  66.054  1.00  0.00    -0.204 A  
ENDBRANCH   6   9
ENDBRANCH   4   6
ENDBRANCH   2   4
TORSDOF 3
ENDMDL
MODEL      154
REMARK 921   NORMALIZED FREE ENERGY PREDICTED BY IDOCK:   -2.98 KCAL/MOL
REMARK 922        TOTAL FREE ENERGY PREDICTED BY IDOCK:   -3.76 KCAL/MOL
REMARK 923 INTER-LIGAND FREE ENERGY PREDICTED BY IDOCK:   -4.22 KCAL/MOL
REMARK 924 INTRA-LIGAND FREE ENERGY PREDICTED BY IDOCK:    0.46 KCAL/MOL
REMARK 927      BINDING AFFINITY PREDICTED BY RF-SCORE:    0.00 PKD
ROOT
HETATM    1  C   UNL     1     -11.234   6.811  70.644  1.00  0.00    -0.312 C  
HETATM    2  N   UNL     1     -12.198   7.808  71.094  1.00  0.00    -0.399 NA 
HETATM    3  H   UNL     1     -12.911   7.382  71.686  1.00  0.00     0.000 HD 
ENDROOT
BRANCH   2   4
HETATM    4  C   UNL     1     -11.570   8.964  71.777  1.00  0.00    -0.352 C  
HETATM    5  C   UNL     1     -10.158   9.236  71.230  1.00  0.00    -0.361 C  
BRANCH   4   6
HETATM    6  C   UNL     1     -12.437  10.262  71.629  1.00  0.00    -0.392 C  
HETATM    7  O   UNL     1     -13.822   9.914  71.497  1.00  0.00    -0.194 OA 
HETATM    8  H   UNL     1     -14.346  10.701  71.408  1.00  0.00     0.000 HD 
BRANCH   6   9
HETATM    9  C   UNL     1     -12.071  11.148  70.452  1.00  0.00    -0.475 A  
HETATM   10  C   UNL     1     -11.718  10.573  69.222  1.00  0.00    -0.281 A  
HETATM   11  C   UNL     1     -11.359  11.376  68.138  1.00  0.00    -0.374 A  
HETATM   12  C   UNL     1     -11.347  12.763  68.270  1.00  0.00    -0.335 A  
HETATM   13  C   UNL     1     -11.692  13.350  69.486  1.00  0.00    -0.385 A  
HETATM   14  C   UNL     1     -12.049  12.547  70.573  1.00  0.00    -0.361 A  
ENDBRANCH   6   9
ENDBRANCH   4   6
ENDBRANCH   2   4
TORSDOF 3
ENDMDL
MODEL      155
REMARK 921   NORMALIZED FREE ENERGY PREDICTED BY IDOCK:   -2.98 KCAL/MOL
REMARK 922        TOTAL FREE ENERGY PREDICTED BY IDOCK:   -3.76 KCAL/MOL
REMARK 923 INTER-LIGAND FREE ENERGY PREDICTED BY IDOCK:   -3.50 KCAL/MOL
REMARK 924 INTRA-LIGAND FREE ENERGY PREDICTED BY IDOCK:   -0.26 KCAL/MOL
REMARK 927      BINDING AFFINITY PREDICTED BY RF-SCORE:    0.00 PKD
ROOT
HETATM    1  C   UNL     1     -10.592  19.821  66.763  1.00  0.00    -0.467 C  
HETATM    2  N   UNL     1     -10.517  18.378  66.570  1.00  0.00    -0.392 NA 
HETATM    3  H   UNL     1     -10.149  18.154  65.645  1.00  0.00     0.000 HD 
ENDROOT
BRANCH   2   4
HETATM    4  C   UNL     1      -9.743  17.684  67.627  1.00  0.00    -0.277 C  
HETATM    5  C   UNL     1     -10.259  16.253  67.850  1.00  0.00    -0.261 C  
BRANCH   4   6
HETATM    6  C   UNL     1      -8.215  17.631  67.281  1.00  0.00    -0.213 C  
HETATM    7  O   UNL     1      -7.845  16.299  66.897  1.00  0.00    -0.192 OA 
HETATM    8  H   UNL     1      -6.919  16.268  66.687  1.00  0.00     0.000 HD 
BRANCH   6   9
HETATM    9  C   UNL     1      -7.287  18.060  68.404  1.00  0.00    -0.263 A  
HETATM   10  C   UNL     1      -7.325  19.379  68.881  1.00  0.00    -0.402 A  
HETATM   11  C   UNL     1      -6.463  19.793  69.898  1.00  0.00    -0.362 A  
HETATM   12  C   UNL     1      -5.552  18.894  70.450  1.00  0.00    -0.231 A  
HETATM   13  C   UNL     1      -5.500  17.582  69.985  1.00  0.00    -0.236 A  
HETATM   14  C   UNL     1      -6.361  17.167  68.965  1.00  0.00    -0.204 A  
ENDBRANCH   6   9
ENDBRANCH   4   6
ENDBRANCH   2   4
TORSDOF 3
ENDMDL
MODEL      156
REMARK 921   NORMALIZED FREE ENERGY PREDICTED BY IDOCK:   -2.97 KCAL/MOL
REMARK 922        TOTAL FREE ENERGY PREDICTED BY IDOCK:   -3.74 KCAL/MOL
REMARK 923 INTER-LIGAND FREE ENERGY PREDICTED BY IDOCK:   -3.68 KCAL/MOL
REMARK 924 INTRA-LIGAND FREE ENERGY PREDICTED BY IDOCK:   -0.06 KCAL/MOL
REMARK 927      BINDING AFFINITY PREDICTED BY RF-SCORE:    0.00 PKD
ROOT
HETATM    1  C   UNL     1     -10.746  19.901  65.538  1.00  0.00    -0.199 C  
HETATM    2  N   UNL     1      -9.801  18.918  66.055  1.00  0.00    -0.498 NA 
HETATM    3  H   UNL     1      -9.153  19.349  66.714  1.00  0.00     0.000 HD 
ENDROOT
BRANCH   2   4
HETATM    4  C   UNL     1     -10.459  17.736  66.661  1.00  0.00    -0.300 C  
HETATM    5  C   UNL     1      -9.951  16.429  66.030  1.00  0.00    -0.369 C  
BRANCH   4   6
HETATM    6  C   UNL     1     -10.231  17.680  68.211  1.00  0.00    -0.374 C  
HETATM    7  O   UNL     1     -10.409  18.985  68.780  1.00  0.00    -0.480 OA 
HETATM    8  H   UNL     1     -10.270  18.951  69.719  1.00  0.00     0.000 HD 
BRANCH   6   9
HETATM    9  C   UNL     1      -8.866  17.173  68.641  1.00  0.00    -0.266 A  
HETATM   10  C   UNL     1      -8.727  15.869  69.141  1.00  0.00    -0.256 A  
HETATM   11  C   UNL     1      -7.482  15.397  69.561  1.00  0.00    -0.211 A  
HETATM   12  C   UNL     1      -6.361  16.222  69.486  1.00  0.00    -0.195 A  
HETATM   13  C   UNL     1      -6.483  17.519  68.994  1.00  0.00    -0.227 A  
HETATM   14  C   UNL     1      -7.729  17.995  68.577  1.00  0.00    -0.308 A  
ENDBRANCH   6   9
ENDBRANCH   4   6
ENDBRANCH   2   4
TORSDOF 3
ENDMDL
MODEL      157
REMARK 921   NORMALIZED FREE ENERGY PREDICTED BY IDOCK:   -2.93 KCAL/MOL
REMARK 922        TOTAL FREE ENERGY PREDICTED BY IDOCK:   -3.69 KCAL/MOL
REMARK 923 INTER-LIGAND FREE ENERGY PREDICTED BY IDOCK:   -3.61 KCAL/MOL
REMARK 924 INTRA-LIGAND FREE ENERGY PREDICTED BY IDOCK:   -0.08 KCAL/MOL
REMARK 927      BINDING AFFINITY PREDICTED BY RF-SCORE:    0.00 PKD
ROOT
HETATM    1  C   UNL     1      -7.602  10.856  67.510  1.00  0.00    -0.101 C  
HETATM    2  N   UNL     1      -8.769  11.675  67.204  1.00  0.00    -0.158 NA 
HETATM    3  H   UNL     1      -8.513  12.661  67.144  1.00  0.00     0.000 HD 
ENDROOT
BRANCH   2   4
HETATM    4  C   UNL     1      -9.485  11.241  65.980  1.00  0.00    -0.216 C  
HETATM    5  C   UNL     1     -10.258   9.933  66.220  1.00  0.00    -0.282 C  
BRANCH   4   6
HETATM    6  C   UNL     1     -10.480  12.341  65.474  1.00  0.00    -0.264 C  
HETATM    7  O   UNL     1      -9.935  13.005  64.326  1.00  0.00    -0.616 OA 
HETATM    8  H   UNL     1     -10.539  13.671  64.019  1.00  0.00     0.000 HD 
BRANCH   6   9
HETATM    9  C   UNL     1     -10.834  13.406  66.496  1.00  0.00    -0.286 A  
HETATM   10  C   UNL     1     -11.754  13.122  67.518  1.00  0.00    -0.414 A  
HETATM   11  C   UNL     1     -12.104  14.099  68.451  1.00  0.00    -0.308 A  
HETATM   12  C   UNL     1     -11.541  15.372  68.375  1.00  0.00    -0.368 A  
HETATM   13  C   UNL     1     -10.629  15.670  67.366  1.00  0.00    -0.301 A  
HETATM   14  C   UNL     1     -10.279  14.694  66.429  1.00  0.00    -0.296 A  
ENDBRANCH   6   9
ENDBRANCH   4   6
ENDBRANCH   2   4
TORSDOF 3
ENDMDL
MODEL      158
REMARK 921   NORMALIZED FREE ENERGY PREDICTED BY IDOCK:   -2.92 KCAL/MOL
REMARK 922        TOTAL FREE ENERGY PREDICTED BY IDOCK:   -3.69 KCAL/MOL
REMARK 923 INTER-LIGAND FREE ENERGY PREDICTED BY IDOCK:   -3.41 KCAL/MOL
REMARK 924 INTRA-LIGAND FREE ENERGY PREDICTED BY IDOCK:   -0.28 KCAL/MOL
REMARK 927      BINDING AFFINITY PREDICTED BY RF-SCORE:    0.00 PKD
ROOT
HETATM    1  C   UNL     1     -11.532  12.953  68.836  1.00  0.00    -0.304 C  
HETATM    2  N   UNL     1     -12.149  13.165  67.532  1.00  0.00    -0.305 NA 
HETATM    3  H   UNL     1     -12.181  14.158  67.303  1.00  0.00     0.000 HD 
ENDROOT
BRANCH   2   4
HETATM    4  C   UNL     1     -11.499  12.395  66.445  1.00  0.00    -0.373 C  
HETATM    5  C   UNL     1     -11.405  13.223  65.153  1.00  0.00    -0.318 C  
BRANCH   4   6
HETATM    6  C   UNL     1     -10.063  11.918  66.854  1.00  0.00    -0.207 C  
HETATM    7  O   UNL     1      -9.080  12.549  66.022  1.00  0.00    -0.422 OA 
HETATM    8  H   UNL     1      -8.210  12.260  66.271  1.00  0.00     0.000 HD 
BRANCH   6   9
HETATM    9  C   UNL     1      -9.837  10.419  66.776  1.00  0.00    -0.242 A  
HETATM   10  C   UNL     1     -10.691   9.543  67.465  1.00  0.00    -0.311 A  
HETATM   11  C   UNL     1     -10.482   8.163  67.419  1.00  0.00    -0.356 A  
HETATM   12  C   UNL     1      -9.418   7.642  66.685  1.00  0.00    -0.255 A  
HETATM   13  C   UNL     1      -8.561   8.499  65.997  1.00  0.00    -0.162 A  
HETATM   14  C   UNL     1      -8.767   9.880  66.045  1.00  0.00    -0.152 A  
ENDBRANCH   6   9
ENDBRANCH   4   6
ENDBRANCH   2   4
TORSDOF 3
ENDMDL
MODEL      159
REMARK 921   NORMALIZED FREE ENERGY PREDICTED BY IDOCK:   -2.92 KCAL/MOL
REMARK 922        TOTAL FREE ENERGY PREDICTED BY IDOCK:   -3.69 KCAL/MOL
REMARK 923 INTER-LIGAND FREE ENERGY PREDICTED BY IDOCK:   -3.44 KCAL/MOL
REMARK 924 INTRA-LIGAND FREE ENERGY PREDICTED BY IDOCK:   -0.25 KCAL/MOL
REMARK 927      BINDING AFFINITY PREDICTED BY RF-SCORE:    0.00 PKD
ROOT
HETATM    1  C   UNL     1      -6.783  10.334  67.820  1.00  0.00    -0.073 C  
HETATM    2  N   UNL     1      -7.861  11.218  68.248  1.00  0.00    -0.122 NA 
HETATM    3  H   UNL     1      -7.491  12.012  68.771  1.00  0.00     0.000 HD 
ENDROOT
BRANCH   2   4
HETATM    4  C   UNL     1      -8.721  11.676  67.132  1.00  0.00    -0.164 C  
HETATM    5  C   UNL     1      -9.322  10.487  66.365  1.00  0.00    -0.197 C  
BRANCH   4   6
HETATM    6  C   UNL     1      -9.881  12.599  67.640  1.00  0.00    -0.210 C  
HETATM    7  O   UNL     1     -10.805  11.837  68.429  1.00  0.00    -0.201 OA 
HETATM    8  H   UNL     1     -11.508  12.397  68.736  1.00  0.00     0.000 HD 
BRANCH   6   9
HETATM    9  C   UNL     1     -10.674  13.295  66.547  1.00  0.00    -0.290 A  
HETATM   10  C   UNL     1     -10.068  14.289  65.764  1.00  0.00    -0.356 A  
HETATM   11  C   UNL     1     -10.791  14.951  64.770  1.00  0.00    -0.382 A  
HETATM   12  C   UNL     1     -12.129  14.629  64.548  1.00  0.00    -0.490 A  
HETATM   13  C   UNL     1     -12.745  13.646  65.319  1.00  0.00    -0.478 A  
HETATM   14  C   UNL     1     -12.023  12.984  66.316  1.00  0.00    -0.477 A  
ENDBRANCH   6   9
ENDBRANCH   4   6
ENDBRANCH   2   4
TORSDOF 3
ENDMDL
MODEL      160
REMARK 921   NORMALIZED FREE ENERGY PREDICTED BY IDOCK:   -2.92 KCAL/MOL
REMARK 922        TOTAL FREE ENERGY PREDICTED BY IDOCK:   -3.68 KCAL/MOL
REMARK 923 INTER-LIGAND FREE ENERGY PREDICTED BY IDOCK:   -3.55 KCAL/MOL
REMARK 924 INTRA-LIGAND FREE ENERGY PREDICTED BY IDOCK:   -0.13 KCAL/MOL
REMARK 927      BINDING AFFINITY PREDICTED BY RF-SCORE:    0.00 PKD
ROOT
HETATM    1  C   UNL     1      -7.177   6.314  70.701  1.00  0.00    -0.074 C  
HETATM    2  N   UNL     1      -8.282   7.262  70.612  1.00  0.00    -0.115 NA 
HETATM    3  H   UNL     1      -8.392   7.601  69.656  1.00  0.00     0.000 HD 
ENDROOT
BRANCH   2   4
HETATM    4  C   UNL     1      -9.561   6.721  71.129  1.00  0.00    -0.173 C  
HETATM    5  C   UNL     1      -9.381   5.300  71.690  1.00  0.00    -0.178 C  
BRANCH   4   6
HETATM    6  C   UNL     1     -10.167   7.640  72.244  1.00  0.00    -0.216 C  
HETATM    7  O   UNL     1      -9.941   7.059  73.536  1.00  0.00    -0.220 OA 
HETATM    8  H   UNL     1     -10.308   7.617  74.211  1.00  0.00     0.000 HD 
BRANCH   6   9
HETATM    9  C   UNL     1     -11.656   7.910  72.116  1.00  0.00    -0.380 A  
HETATM   10  C   UNL     1     -12.511   6.910  71.627  1.00  0.00    -0.418 A  
HETATM   11  C   UNL     1     -13.879   7.152  71.484  1.00  0.00    -0.421 A  
HETATM   12  C   UNL     1     -14.408   8.395  71.827  1.00  0.00    -0.558 A  
HETATM   13  C   UNL     1     -13.572   9.398  72.311  1.00  0.00    -0.532 A  
HETATM   14  C   UNL     1     -12.202   9.159  72.452  1.00  0.00    -0.263 A  
ENDBRANCH   6   9
ENDBRANCH   4   6
ENDBRANCH   2   4
TORSDOF 3
ENDMDL
MODEL      161
REMARK 921   NORMALIZED FREE ENERGY PREDICTED BY IDOCK:   -2.92 KCAL/MOL
REMARK 922        TOTAL FREE ENERGY PREDICTED BY IDOCK:   -3.68 KCAL/MOL
REMARK 923 INTER-LIGAND FREE ENERGY PREDICTED BY IDOCK:   -3.67 KCAL/MOL
REMARK 924 INTRA-LIGAND FREE ENERGY PREDICTED BY IDOCK:   -0.01 KCAL/MOL
REMARK 927      BINDING AFFINITY PREDICTED BY RF-SCORE:    0.00 PKD
ROOT
HETATM    1  C   UNL     1     -11.453  11.984  64.821  1.00  0.00    -0.298 C  
HETATM    2  N   UNL     1     -10.369  12.854  65.261  1.00  0.00    -0.296 NA 
HETATM    3  H   UNL     1      -9.807  13.162  64.468  1.00  0.00     0.000 HD 
ENDROOT
BRANCH   2   4
HETATM    4  C   UNL     1     -10.836  14.014  66.057  1.00  0.00    -0.295 C  
HETATM    5  C   UNL     1     -12.367  14.013  66.202  1.00  0.00    -0.491 C  
BRANCH   4   6
HETATM    6  C   UNL     1     -10.185  14.036  67.482  1.00  0.00    -0.244 C  
HETATM    7  O   UNL     1      -8.759  14.139  67.369  1.00  0.00    -0.186 OA 
HETATM    8  H   UNL     1      -8.365  14.151  68.233  1.00  0.00     0.000 HD 
BRANCH   6   9
HETATM    9  C   UNL     1     -10.491  12.825  68.346  1.00  0.00    -0.253 A  
HETATM   10  C   UNL     1      -9.649  11.703  68.308  1.00  0.00    -0.198 A  
HETATM   11  C   UNL     1      -9.931  10.576  69.081  1.00  0.00    -0.236 A  
HETATM   12  C   UNL     1     -11.057  10.555  69.902  1.00  0.00    -0.371 A  
HETATM   13  C   UNL     1     -11.904  11.660  69.949  1.00  0.00    -0.434 A  
HETATM   14  C   UNL     1     -11.625  12.789  69.174  1.00  0.00    -0.373 A  
ENDBRANCH   6   9
ENDBRANCH   4   6
ENDBRANCH   2   4
TORSDOF 3
ENDMDL
MODEL      162
REMARK 921   NORMALIZED FREE ENERGY PREDICTED BY IDOCK:   -2.90 KCAL/MOL
REMARK 922        TOTAL FREE ENERGY PREDICTED BY IDOCK:   -3.66 KCAL/MOL
REMARK 923 INTER-LIGAND FREE ENERGY PREDICTED BY IDOCK:   -3.64 KCAL/MOL
REMARK 924 INTRA-LIGAND FREE ENERGY PREDICTED BY IDOCK:   -0.02 KCAL/MOL
REMARK 927      BINDING AFFINITY PREDICTED BY RF-SCORE:    0.00 PKD
ROOT
HETATM    1  C   UNL     1      -7.838  11.328  67.382  1.00  0.00    -0.128 C  
HETATM    2  N   UNL     1      -8.110  12.717  67.032  1.00  0.00    -0.359 NA 
HETATM    3  H   UNL     1      -9.033  12.810  66.606  1.00  0.00     0.000 HD 
ENDROOT
BRANCH   2   4
HETATM    4  C   UNL     1      -7.963  13.649  68.176  1.00  0.00    -0.148 C  
HETATM    5  C   UNL     1      -6.608  14.374  68.135  1.00  0.00    -0.133 C  
BRANCH   4   6
HETATM    6  C   UNL     1      -9.114  14.712  68.205  1.00  0.00    -0.189 C  
HETATM    7  O   UNL     1      -9.840  14.615  69.438  1.00  0.00    -0.397 OA 
HETATM    8  H   UNL     1     -10.538  15.260  69.456  1.00  0.00     0.000 HD 
BRANCH   6   9
HETATM    9  C   UNL     1     -10.118  14.605  67.071  1.00  0.00    -0.249 A  
HETATM   10  C   UNL     1     -11.182  13.694  67.158  1.00  0.00    -0.327 A  
HETATM   11  C   UNL     1     -12.099  13.570  66.113  1.00  0.00    -0.482 A  
HETATM   12  C   UNL     1     -11.964  14.353  64.968  1.00  0.00    -0.413 A  
HETATM   13  C   UNL     1     -10.912  15.260  64.866  1.00  0.00    -0.445 A  
HETATM   14  C   UNL     1      -9.991  15.384  65.910  1.00  0.00    -0.374 A  
ENDBRANCH   6   9
ENDBRANCH   4   6
ENDBRANCH   2   4
TORSDOF 3
ENDMDL
MODEL      163
REMARK 921   NORMALIZED FREE ENERGY PREDICTED BY IDOCK:   -2.89 KCAL/MOL
REMARK 922        TOTAL FREE ENERGY PREDICTED BY IDOCK:   -3.65 KCAL/MOL
REMARK 923 INTER-LIGAND FREE ENERGY PREDICTED BY IDOCK:   -3.37 KCAL/MOL
REMARK 924 INTRA-LIGAND FREE ENERGY PREDICTED BY IDOCK:   -0.28 KCAL/MOL
REMARK 927      BINDING AFFINITY PREDICTED BY RF-SCORE:    0.00 PKD
ROOT
HETATM    1  C   UNL     1      -8.210  19.266  68.230  1.00  0.00    -0.337 C  
HETATM    2  N   UNL     1      -9.580  18.777  68.331  1.00  0.00    -0.346 NA 
HETATM    3  H   UNL     1     -10.179  19.231  67.640  1.00  0.00     0.000 HD 
ENDROOT
BRANCH   2   4
HETATM    4  C   UNL     1      -9.685  17.302  68.230  1.00  0.00    -0.294 C  
HETATM    5  C   UNL     1     -11.113  16.821  68.538  1.00  0.00    -0.260 C  
BRANCH   4   6
HETATM    6  C   UNL     1      -9.266  16.789  66.810  1.00  0.00    -0.243 C  
HETATM    7  O   UNL     1     -10.195  17.260  65.824  1.00  0.00    -0.533 OA 
HETATM    8  H   UNL     1      -9.940  16.949  64.964  1.00  0.00     0.000 HD 
BRANCH   6   9
HETATM    9  C   UNL     1      -9.175  15.280  66.673  1.00  0.00    -0.302 A  
HETATM   10  C   UNL     1      -8.183  14.569  67.366  1.00  0.00    -0.220 A  
HETATM   11  C   UNL     1      -8.075  13.184  67.232  1.00  0.00    -0.151 A  
HETATM   12  C   UNL     1      -8.957  12.492  66.404  1.00  0.00    -0.077 A  
HETATM   13  C   UNL     1      -9.947  13.183  65.709  1.00  0.00    -0.260 A  
HETATM   14  C   UNL     1     -10.054  14.570  65.839  1.00  0.00    -0.346 A  
ENDBRANCH   6   9
ENDBRANCH   4   6
ENDBRANCH   2   4
TORSDOF 3
ENDMDL
MODEL      164
REMARK 921   NORMALIZED FREE ENERGY PREDICTED BY IDOCK:   -2.89 KCAL/MOL
REMARK 922        TOTAL FREE ENERGY PREDICTED BY IDOCK:   -3.65 KCAL/MOL
REMARK 923 INTER-LIGAND FREE ENERGY PREDICTED BY IDOCK:   -3.71 KCAL/MOL
REMARK 924 INTRA-LIGAND FREE ENERGY PREDICTED BY IDOCK:    0.06 KCAL/MOL
REMARK 927      BINDING AFFINITY PREDICTED BY RF-SCORE:    0.00 PKD
ROOT
HETATM    1  C   UNL     1      -7.483  18.691  66.603  1.00  0.00    -0.234 C  
HETATM    2  N   UNL     1      -8.186  17.643  65.873  1.00  0.00    -0.547 NA 
HETATM    3  H   UNL     1      -7.534  16.933  65.540  1.00  0.00     0.000 HD 
ENDROOT
BRANCH   2   4
HETATM    4  C   UNL     1      -9.285  17.024  66.652  1.00  0.00    -0.256 C  
HETATM    5  C   UNL     1     -10.524  16.781  65.774  1.00  0.00    -0.305 C  
BRANCH   4   6
HETATM    6  C   UNL     1      -8.840  15.667  67.298  1.00  0.00    -0.198 C  
HETATM    7  O   UNL     1      -7.641  15.194  66.670  1.00  0.00    -0.248 OA 
HETATM    8  H   UNL     1      -7.372  14.371  67.062  1.00  0.00     0.000 HD 
BRANCH   6   9
HETATM    9  C   UNL     1      -9.869  14.552  67.224  1.00  0.00    -0.236 A  
HETATM   10  C   UNL     1      -9.791  13.590  66.206  1.00  0.00    -0.306 A  
HETATM   11  C   UNL     1     -10.742  12.573  66.113  1.00  0.00    -0.290 A  
HETATM   12  C   UNL     1     -11.783  12.505  67.037  1.00  0.00    -0.437 A  
HETATM   13  C   UNL     1     -11.876  13.454  68.052  1.00  0.00    -0.392 A  
HETATM   14  C   UNL     1     -10.927  14.475  68.144  1.00  0.00    -0.261 A  
ENDBRANCH   6   9
ENDBRANCH   4   6
ENDBRANCH   2   4
TORSDOF 3
ENDMDL
MODEL      165
REMARK 921   NORMALIZED FREE ENERGY PREDICTED BY IDOCK:   -2.89 KCAL/MOL
REMARK 922        TOTAL FREE ENERGY PREDICTED BY IDOCK:   -3.65 KCAL/MOL
REMARK 923 INTER-LIGAND FREE ENERGY PREDICTED BY IDOCK:   -3.58 KCAL/MOL
REMARK 924 INTRA-LIGAND FREE ENERGY PREDICTED BY IDOCK:   -0.07 KCAL/MOL
REMARK 927      BINDING AFFINITY PREDICTED BY RF-SCORE:    0.00 PKD
ROOT
HETATM    1  C   UNL     1      -7.179   5.855  73.540  1.00  0.00    -0.086 C  
HETATM    2  N   UNL     1      -7.824   6.727  72.566  1.00  0.00    -0.100 NA 
HETATM    3  H   UNL     1      -7.430   6.587  71.636  1.00  0.00     0.000 HD 
ENDROOT
BRANCH   2   4
HETATM    4  C   UNL     1      -9.299   6.585  72.539  1.00  0.00    -0.141 C  
HETATM    5  C   UNL     1      -9.931   7.063  73.858  1.00  0.00    -0.370 C  
BRANCH   4   6
HETATM    6  C   UNL     1      -9.934   7.382  71.348  1.00  0.00    -0.186 C  
HETATM    7  O   UNL     1      -9.202   8.595  71.124  1.00  0.00    -0.173 OA 
HETATM    8  H   UNL     1      -9.587   9.077  70.401  1.00  0.00     0.000 HD 
BRANCH   6   9
HETATM    9  C   UNL     1     -11.395   7.753  71.530  1.00  0.00    -0.289 A  
HETATM   10  C   UNL     1     -11.768   9.100  71.655  1.00  0.00    -0.448 A  
HETATM   11  C   UNL     1     -13.105   9.454  71.844  1.00  0.00    -0.505 A  
HETATM   12  C   UNL     1     -14.086   8.467  71.910  1.00  0.00    -0.516 A  
HETATM   13  C   UNL     1     -13.732   7.125  71.790  1.00  0.00    -0.361 A  
HETATM   14  C   UNL     1     -12.393   6.769  71.604  1.00  0.00    -0.409 A  
ENDBRANCH   6   9
ENDBRANCH   4   6
ENDBRANCH   2   4
TORSDOF 3
ENDMDL
MODEL      166
REMARK 921   NORMALIZED FREE ENERGY PREDICTED BY IDOCK:   -2.87 KCAL/MOL
REMARK 922        TOTAL FREE ENERGY PREDICTED BY IDOCK:   -3.62 KCAL/MOL
REMARK 923 INTER-LIGAND FREE ENERGY PREDICTED BY IDOCK:   -3.36 KCAL/MOL
REMARK 924 INTRA-LIGAND FREE ENERGY PREDICTED BY IDOCK:   -0.27 KCAL/MOL
REMARK 927      BINDING AFFINITY PREDICTED BY RF-SCORE:    0.00 PKD
ROOT
HETATM    1  C   UNL     1     -13.533   9.844  71.835  1.00  0.00    -0.372 C  
HETATM    2  N   UNL     1     -12.872   8.977  70.866  1.00  0.00    -0.508 NA 
HETATM    3  H   UNL     1     -12.548   9.514  70.061  1.00  0.00     0.000 HD 
ENDROOT
BRANCH   2   4
HETATM    4  C   UNL     1     -11.765   8.183  71.450  1.00  0.00    -0.285 C  
HETATM    5  C   UNL     1     -11.451   6.947  70.590  1.00  0.00    -0.383 C  
BRANCH   4   6
HETATM    6  C   UNL     1     -10.464   9.041  71.612  1.00  0.00    -0.355 C  
HETATM    7  O   UNL     1      -9.918   9.353  70.323  1.00  0.00    -0.203 OA 
HETATM    8  H   UNL     1      -9.129   9.873  70.422  1.00  0.00     0.000 HD 
BRANCH   6   9
HETATM    9  C   UNL     1      -9.363   8.389  72.431  1.00  0.00    -0.356 A  
HETATM   10  C   UNL     1      -8.044   8.380  71.954  1.00  0.00    -0.193 A  
HETATM   11  C   UNL     1      -7.026   7.766  72.687  1.00  0.00    -0.082 A  
HETATM   12  C   UNL     1      -7.316   7.153  73.905  1.00  0.00    -0.104 A  
HETATM   13  C   UNL     1      -8.621   7.152  74.391  1.00  0.00    -0.234 A  
HETATM   14  C   UNL     1      -9.641   7.764  73.657  1.00  0.00    -0.280 A  
ENDBRANCH   6   9
ENDBRANCH   4   6
ENDBRANCH   2   4
TORSDOF 3
ENDMDL
MODEL      167
REMARK 921   NORMALIZED FREE ENERGY PREDICTED BY IDOCK:   -2.86 KCAL/MOL
REMARK 922        TOTAL FREE ENERGY PREDICTED BY IDOCK:   -3.61 KCAL/MOL
REMARK 923 INTER-LIGAND FREE ENERGY PREDICTED BY IDOCK:   -3.33 KCAL/MOL
REMARK 924 INTRA-LIGAND FREE ENERGY PREDICTED BY IDOCK:   -0.27 KCAL/MOL
REMARK 927      BINDING AFFINITY PREDICTED BY RF-SCORE:    0.00 PKD
ROOT
HETATM    1  C   UNL     1      -7.825   9.526  64.966  1.00  0.00    -0.117 C  
HETATM    2  N   UNL     1      -8.493   9.236  66.229  1.00  0.00    -0.124 NA 
HETATM    3  H   UNL     1      -7.813   9.127  66.982  1.00  0.00     0.000 HD 
ENDROOT
BRANCH   2   4
HETATM    4  C   UNL     1      -9.523  10.238  66.591  1.00  0.00    -0.166 C  
HETATM    5  C   UNL     1      -9.685  10.348  68.116  1.00  0.00    -0.165 C  
BRANCH   4   6
HETATM    6  C   UNL     1      -9.182  11.652  66.008  1.00  0.00    -0.208 C  
HETATM    7  O   UNL     1      -8.512  12.443  66.999  1.00  0.00    -0.179 OA 
HETATM    8  H   UNL     1      -8.306  13.300  66.644  1.00  0.00     0.000 HD 
BRANCH   6   9
HETATM    9  C   UNL     1     -10.377  12.449  65.514  1.00  0.00    -0.298 A  
HETATM   10  C   UNL     1     -11.051  13.318  66.385  1.00  0.00    -0.313 A  
HETATM   11  C   UNL     1     -12.164  14.040  65.951  1.00  0.00    -0.481 A  
HETATM   12  C   UNL     1     -12.617  13.902  64.640  1.00  0.00    -0.287 A  
HETATM   13  C   UNL     1     -11.960  13.042  63.763  1.00  0.00    -0.585 A  
HETATM   14  C   UNL     1     -10.848  12.316  64.198  1.00  0.00    -0.412 A  
ENDBRANCH   6   9
ENDBRANCH   4   6
ENDBRANCH   2   4
TORSDOF 3
ENDMDL
MODEL      168
REMARK 921   NORMALIZED FREE ENERGY PREDICTED BY IDOCK:   -2.85 KCAL/MOL
REMARK 922        TOTAL FREE ENERGY PREDICTED BY IDOCK:   -3.61 KCAL/MOL
REMARK 923 INTER-LIGAND FREE ENERGY PREDICTED BY IDOCK:   -3.55 KCAL/MOL
REMARK 924 INTRA-LIGAND FREE ENERGY PREDICTED BY IDOCK:   -0.05 KCAL/MOL
REMARK 927      BINDING AFFINITY PREDICTED BY RF-SCORE:    0.00 PKD
ROOT
HETATM    1  C   UNL     1     -13.315   8.858  72.056  1.00  0.00    -0.421 C  
HETATM    2  N   UNL     1     -12.706   8.780  70.734  1.00  0.00    -0.473 NA 
HETATM    3  H   UNL     1     -13.033   9.540  70.138  1.00  0.00     0.000 HD 
ENDROOT
BRANCH   2   4
HETATM    4  C   UNL     1     -11.225   8.741  70.773  1.00  0.00    -0.266 C  
HETATM    5  C   UNL     1     -10.716   8.162  72.103  1.00  0.00    -0.360 C  
BRANCH   4   6
HETATM    6  C   UNL     1     -10.639   7.899  69.588  1.00  0.00    -0.234 C  
HETATM    7  O   UNL     1      -9.359   7.363  69.954  1.00  0.00    -0.155 OA 
HETATM    8  H   UNL     1      -9.005   6.853  69.235  1.00  0.00     0.000 HD 
BRANCH   6   9
HETATM    9  C   UNL     1     -10.464   8.659  68.285  1.00  0.00    -0.234 A  
HETATM   10  C   UNL     1     -10.955   9.967  68.163  1.00  0.00    -0.289 A  
HETATM   11  C   UNL     1     -10.820  10.669  66.964  1.00  0.00    -0.298 A  
HETATM   12  C   UNL     1     -10.193  10.072  65.872  1.00  0.00    -0.275 A  
HETATM   13  C   UNL     1      -9.701   8.773  65.977  1.00  0.00    -0.276 A  
HETATM   14  C   UNL     1      -9.838   8.068  67.176  1.00  0.00    -0.274 A  
ENDBRANCH   6   9
ENDBRANCH   4   6
ENDBRANCH   2   4
TORSDOF 3
ENDMDL
MODEL      169
REMARK 921   NORMALIZED FREE ENERGY PREDICTED BY IDOCK:   -2.83 KCAL/MOL
REMARK 922        TOTAL FREE ENERGY PREDICTED BY IDOCK:   -3.58 KCAL/MOL
REMARK 923 INTER-LIGAND FREE ENERGY PREDICTED BY IDOCK:   -3.55 KCAL/MOL
REMARK 924 INTRA-LIGAND FREE ENERGY PREDICTED BY IDOCK:   -0.03 KCAL/MOL
REMARK 927      BINDING AFFINITY PREDICTED BY RF-SCORE:    0.00 PKD
ROOT
HETATM    1  C   UNL     1     -10.524  19.718  66.088  1.00  0.00    -0.509 C  
HETATM    2  N   UNL     1      -9.918  18.465  65.656  1.00  0.00    -0.420 NA 
HETATM    3  H   UNL     1      -8.923  18.447  65.881  1.00  0.00     0.000 HD 
ENDROOT
BRANCH   2   4
HETATM    4  C   UNL     1     -10.602  17.266  66.196  1.00  0.00    -0.204 C  
HETATM    5  C   UNL     1     -10.715  16.161  65.132  1.00  0.00    -0.391 C  
BRANCH   4   6
HETATM    6  C   UNL     1      -9.860  16.696  67.453  1.00  0.00    -0.254 C  
HETATM    7  O   UNL     1      -8.449  16.920  67.333  1.00  0.00    -0.186 OA 
HETATM    8  H   UNL     1      -8.000  16.574  68.096  1.00  0.00     0.000 HD 
BRANCH   6   9
HETATM    9  C   UNL     1     -10.071  15.213  67.705  1.00  0.00    -0.231 A  
HETATM   10  C   UNL     1     -11.358  14.720  67.965  1.00  0.00    -0.332 A  
HETATM   11  C   UNL     1     -11.563  13.363  68.219  1.00  0.00    -0.379 A  
HETATM   12  C   UNL     1     -10.483  12.482  68.217  1.00  0.00    -0.243 A  
HETATM   13  C   UNL     1      -9.198  12.956  67.963  1.00  0.00    -0.212 A  
HETATM   14  C   UNL     1      -8.991  14.315  67.711  1.00  0.00    -0.188 A  
ENDBRANCH   6   9
ENDBRANCH   4   6
ENDBRANCH   2   4
TORSDOF 3
ENDMDL
MODEL      170
REMARK 921   NORMALIZED FREE ENERGY PREDICTED BY IDOCK:   -2.83 KCAL/MOL
REMARK 922        TOTAL FREE ENERGY PREDICTED BY IDOCK:   -3.58 KCAL/MOL
REMARK 923 INTER-LIGAND FREE ENERGY PREDICTED BY IDOCK:   -3.35 KCAL/MOL
REMARK 924 INTRA-LIGAND FREE ENERGY PREDICTED BY IDOCK:   -0.23 KCAL/MOL
REMARK 927      BINDING AFFINITY PREDICTED BY RF-SCORE:    0.00 PKD
ROOT
HETATM    1  C   UNL     1      -7.651  10.327  62.504  1.00  0.00    -0.137 C  
HETATM    2  N   UNL     1      -7.726  10.374  63.959  1.00  0.00    -0.311 NA 
HETATM    3  H   UNL     1      -6.903  10.833  64.350  1.00  0.00     0.000 HD 
ENDROOT
BRANCH   2   4
HETATM    4  C   UNL     1      -8.970  11.006  64.461  1.00  0.00    -0.055 C  
HETATM    5  C   UNL     1     -10.146  10.764  63.501  1.00  0.00    -0.364 C  
BRANCH   4   6
HETATM    6  C   UNL     1      -9.352  10.475  65.885  1.00  0.00    -0.181 C  
HETATM    7  O   UNL     1     -10.065   9.236  65.772  1.00  0.00    -0.388 OA 
HETATM    8  H   UNL     1     -10.296   8.915  66.636  1.00  0.00     0.000 HD 
BRANCH   6   9
HETATM    9  C   UNL     1     -10.202  11.420  66.716  1.00  0.00    -0.258 A  
HETATM   10  C   UNL     1     -10.055  12.808  66.572  1.00  0.00    -0.264 A  
HETATM   11  C   UNL     1     -10.815  13.688  67.344  1.00  0.00    -0.282 A  
HETATM   12  C   UNL     1     -11.730  13.192  68.271  1.00  0.00    -0.384 A  
HETATM   13  C   UNL     1     -11.886  11.817  68.428  1.00  0.00    -0.347 A  
HETATM   14  C   UNL     1     -11.124  10.935  67.657  1.00  0.00    -0.376 A  
ENDBRANCH   6   9
ENDBRANCH   4   6
ENDBRANCH   2   4
TORSDOF 3
ENDMDL
MODEL      171
REMARK 921   NORMALIZED FREE ENERGY PREDICTED BY IDOCK:   -2.83 KCAL/MOL
REMARK 922        TOTAL FREE ENERGY PREDICTED BY IDOCK:   -3.58 KCAL/MOL
REMARK 923 INTER-LIGAND FREE ENERGY PREDICTED BY IDOCK:   -3.48 KCAL/MOL
REMARK 924 INTRA-LIGAND FREE ENERGY PREDICTED BY IDOCK:   -0.10 KCAL/MOL
REMARK 927      BINDING AFFINITY PREDICTED BY RF-SCORE:    0.00 PKD
ROOT
HETATM    1  C   UNL     1      -8.231   6.472  71.038  1.00  0.00    -0.121 C  
HETATM    2  N   UNL     1      -8.893   7.768  71.126  1.00  0.00    -0.135 NA 
HETATM    3  H   UNL     1      -8.448   8.356  71.831  1.00  0.00     0.000 HD 
ENDROOT
BRANCH   2   4
HETATM    4  C   UNL     1      -8.974   8.474  69.826  1.00  0.00    -0.145 C  
HETATM    5  C   UNL     1      -8.137   7.762  68.750  1.00  0.00    -0.126 C  
BRANCH   4   6
HETATM    6  C   UNL     1     -10.454   8.598  69.327  1.00  0.00    -0.217 C  
HETATM    7  O   UNL     1     -10.482   9.147  68.002  1.00  0.00    -0.218 OA 
HETATM    8  H   UNL     1     -11.379   9.221  67.700  1.00  0.00     0.000 HD 
BRANCH   6   9
HETATM    9  C   UNL     1     -11.356   9.454  70.198  1.00  0.00    -0.220 A  
HETATM   10  C   UNL     1     -12.117   8.862  71.218  1.00  0.00    -0.360 A  
HETATM   11  C   UNL     1     -12.966   9.634  72.012  1.00  0.00    -0.518 A  
HETATM   12  C   UNL     1     -13.066  11.008  71.797  1.00  0.00    -0.554 A  
HETATM   13  C   UNL     1     -12.319  11.610  70.787  1.00  0.00    -0.454 A  
HETATM   14  C   UNL     1     -11.471  10.838  69.989  1.00  0.00    -0.412 A  
ENDBRANCH   6   9
ENDBRANCH   4   6
ENDBRANCH   2   4
TORSDOF 3
ENDMDL
MODEL      172
REMARK 921   NORMALIZED FREE ENERGY PREDICTED BY IDOCK:   -2.80 KCAL/MOL
REMARK 922        TOTAL FREE ENERGY PREDICTED BY IDOCK:   -3.54 KCAL/MOL
REMARK 923 INTER-LIGAND FREE ENERGY PREDICTED BY IDOCK:   -3.51 KCAL/MOL
REMARK 924 INTRA-LIGAND FREE ENERGY PREDICTED BY IDOCK:   -0.03 KCAL/MOL
REMARK 927      BINDING AFFINITY PREDICTED BY RF-SCORE:    0.00 PKD
ROOT
HETATM    1  C   UNL     1     -13.089  14.464  65.474  1.00  0.00     0.034 C  
HETATM    2  N   UNL     1     -12.767  13.768  64.235  1.00  0.00    -0.653 NA 
HETATM    3  H   UNL     1     -12.451  14.425  63.521  1.00  0.00     0.000 HD 
ENDROOT
BRANCH   2   4
HETATM    4  C   UNL     1     -11.782  12.675  64.416  1.00  0.00    -0.369 C  
HETATM    5  C   UNL     1     -11.841  11.671  63.252  1.00  0.00    -0.232 C  
BRANCH   4   6
HETATM    6  C   UNL     1     -10.321  13.229  64.541  1.00  0.00    -0.374 C  
HETATM    7  O   UNL     1      -9.380  12.232  64.121  1.00  0.00    -0.420 OA 
HETATM    8  H   UNL     1      -8.495  12.569  64.197  1.00  0.00     0.000 HD 
BRANCH   6   9
HETATM    9  C   UNL     1      -9.923  13.681  65.935  1.00  0.00    -0.304 A  
HETATM   10  C   UNL     1      -9.428  14.978  66.139  1.00  0.00    -0.347 A  
HETATM   11  C   UNL     1      -9.038  15.398  67.412  1.00  0.00    -0.206 A  
HETATM   12  C   UNL     1      -9.137  14.528  68.496  1.00  0.00    -0.190 A  
HETATM   13  C   UNL     1      -9.624  13.236  68.309  1.00  0.00    -0.221 A  
HETATM   14  C   UNL     1     -10.012  12.813  67.035  1.00  0.00    -0.231 A  
ENDBRANCH   6   9
ENDBRANCH   4   6
ENDBRANCH   2   4
TORSDOF 3
ENDMDL
MODEL      173
REMARK 921   NORMALIZED FREE ENERGY PREDICTED BY IDOCK:   -2.80 KCAL/MOL
REMARK 922        TOTAL FREE ENERGY PREDICTED BY IDOCK:   -3.54 KCAL/MOL
REMARK 923 INTER-LIGAND FREE ENERGY PREDICTED BY IDOCK:   -3.35 KCAL/MOL
REMARK 924 INTRA-LIGAND FREE ENERGY PREDICTED BY IDOCK:   -0.19 KCAL/MOL
REMARK 927      BINDING AFFINITY PREDICTED BY RF-SCORE:    0.00 PKD
ROOT
HETATM    1  C   UNL     1     -14.333   7.751  71.907  1.00  0.00    -0.422 C  
HETATM    2  N   UNL     1     -13.592   7.096  70.836  1.00  0.00    -0.472 NA 
HETATM    3  H   UNL     1     -14.006   7.307  69.928  1.00  0.00     0.000 HD 
ENDROOT
BRANCH   2   4
HETATM    4  C   UNL     1     -12.145   7.416  70.843  1.00  0.00    -0.257 C  
HETATM    5  C   UNL     1     -11.611   7.559  72.279  1.00  0.00    -0.354 C  
BRANCH   4   6
HETATM    6  C   UNL     1     -11.309   6.324  70.091  1.00  0.00    -0.406 C  
HETATM    7  O   UNL     1     -10.480   5.614  71.021  1.00  0.00    -0.227 OA 
HETATM    8  H   UNL     1      -9.974   4.952  70.565  1.00  0.00     0.000 HD 
BRANCH   6   9
HETATM    9  C   UNL     1     -10.412   6.851  68.985  1.00  0.00    -0.223 A  
HETATM   10  C   UNL     1      -9.116   7.299  69.284  1.00  0.00    -0.138 A  
HETATM   11  C   UNL     1      -8.289   7.805  68.281  1.00  0.00    -0.125 A  
HETATM   12  C   UNL     1      -8.747   7.871  66.966  1.00  0.00    -0.132 A  
HETATM   13  C   UNL     1     -10.031   7.432  66.653  1.00  0.00    -0.261 A  
HETATM   14  C   UNL     1     -10.862   6.928  67.657  1.00  0.00    -0.333 A  
ENDBRANCH   6   9
ENDBRANCH   4   6
ENDBRANCH   2   4
TORSDOF 3
ENDMDL
MODEL      174
REMARK 921   NORMALIZED FREE ENERGY PREDICTED BY IDOCK:   -2.80 KCAL/MOL
REMARK 922        TOTAL FREE ENERGY PREDICTED BY IDOCK:   -3.54 KCAL/MOL
REMARK 923 INTER-LIGAND FREE ENERGY PREDICTED BY IDOCK:   -3.35 KCAL/MOL
REMARK 924 INTRA-LIGAND FREE ENERGY PREDICTED BY IDOCK:   -0.19 KCAL/MOL
REMARK 927      BINDING AFFINITY PREDICTED BY RF-SCORE:    0.00 PKD
ROOT
HETATM    1  C   UNL     1     -14.393   7.853  71.692  1.00  0.00    -0.479 C  
HETATM    2  N   UNL     1     -13.369   7.095  70.983  1.00  0.00    -0.540 NA 
HETATM    3  H   UNL     1     -13.552   7.090  69.979  1.00  0.00     0.000 HD 
ENDROOT
BRANCH   2   4
HETATM    4  C   UNL     1     -11.992   7.565  71.264  1.00  0.00    -0.307 C  
HETATM    5  C   UNL     1     -11.998   8.792  72.192  1.00  0.00    -0.436 C  
BRANCH   4   6
HETATM    6  C   UNL     1     -11.118   6.437  71.912  1.00  0.00    -0.268 C  
HETATM    7  O   UNL     1     -10.417   6.952  73.052  1.00  0.00    -0.220 OA 
HETATM    8  H   UNL     1      -9.888   6.267  73.444  1.00  0.00     0.000 HD 
BRANCH   6   9
HETATM    9  C   UNL     1     -10.091   5.809  70.986  1.00  0.00    -0.260 A  
HETATM   10  C   UNL     1      -8.746   5.729  71.379  1.00  0.00    -0.133 A  
HETATM   11  C   UNL     1      -7.788   5.174  70.529  1.00  0.00    -0.082 A  
HETATM   12  C   UNL     1      -8.162   4.692  69.276  1.00  0.00    -0.077 A  
HETATM   13  C   UNL     1      -9.493   4.766  68.870  1.00  0.00    -0.209 A  
HETATM   14  C   UNL     1     -10.452   5.324  69.719  1.00  0.00    -0.340 A  
ENDBRANCH   6   9
ENDBRANCH   4   6
ENDBRANCH   2   4
TORSDOF 3
ENDMDL
MODEL      175
REMARK 921   NORMALIZED FREE ENERGY PREDICTED BY IDOCK:   -2.80 KCAL/MOL
REMARK 922        TOTAL FREE ENERGY PREDICTED BY IDOCK:   -3.54 KCAL/MOL
REMARK 923 INTER-LIGAND FREE ENERGY PREDICTED BY IDOCK:   -3.28 KCAL/MOL
REMARK 924 INTRA-LIGAND FREE ENERGY PREDICTED BY IDOCK:   -0.26 KCAL/MOL
REMARK 927      BINDING AFFINITY PREDICTED BY RF-SCORE:    0.00 PKD
ROOT
HETATM    1  C   UNL     1      -8.936   3.794  69.032  1.00  0.00    -0.122 C  
HETATM    2  N   UNL     1      -9.817   4.503  68.111  1.00  0.00    -0.123 NA 
HETATM    3  H   UNL     1     -10.694   3.997  67.987  1.00  0.00     0.000 HD 
ENDROOT
BRANCH   2   4
HETATM    4  C   UNL     1     -10.072   5.908  68.509  1.00  0.00    -0.167 C  
HETATM    5  C   UNL     1     -10.838   6.668  67.413  1.00  0.00    -0.434 C  
BRANCH   4   6
HETATM    6  C   UNL     1     -10.877   5.991  69.851  1.00  0.00    -0.363 C  
HETATM    7  O   UNL     1     -12.135   6.643  69.629  1.00  0.00    -0.615 OA 
HETATM    8  H   UNL     1     -12.622   6.692  70.443  1.00  0.00     0.000 HD 
BRANCH   6   9
HETATM    9  C   UNL     1     -10.172   6.724  70.978  1.00  0.00    -0.217 A  
HETATM   10  C   UNL     1      -8.851   7.167  70.811  1.00  0.00    -0.148 A  
HETATM   11  C   UNL     1      -8.184   7.823  71.847  1.00  0.00    -0.128 A  
HETATM   12  C   UNL     1      -8.828   8.043  73.063  1.00  0.00    -0.302 A  
HETATM   13  C   UNL     1     -10.139   7.608  73.246  1.00  0.00    -0.393 A  
HETATM   14  C   UNL     1     -10.807   6.948  72.211  1.00  0.00    -0.262 A  
ENDBRANCH   6   9
ENDBRANCH   4   6
ENDBRANCH   2   4
TORSDOF 3
ENDMDL
MODEL      176
REMARK 921   NORMALIZED FREE ENERGY PREDICTED BY IDOCK:   -2.80 KCAL/MOL
REMARK 922        TOTAL FREE ENERGY PREDICTED BY IDOCK:   -3.54 KCAL/MOL
REMARK 923 INTER-LIGAND FREE ENERGY PREDICTED BY IDOCK:   -3.54 KCAL/MOL
REMARK 924 INTRA-LIGAND FREE ENERGY PREDICTED BY IDOCK:    0.01 KCAL/MOL
REMARK 927      BINDING AFFINITY PREDICTED BY RF-SCORE:    0.00 PKD
ROOT
HETATM    1  C   UNL     1      -8.816   8.790  69.180  1.00  0.00    -0.137 C  
HETATM    2  N   UNL     1      -9.378   7.607  69.819  1.00  0.00    -0.151 NA 
HETATM    3  H   UNL     1      -9.326   7.685  70.835  1.00  0.00     0.000 HD 
ENDROOT
BRANCH   2   4
HETATM    4  C   UNL     1     -10.764   7.309  69.385  1.00  0.00    -0.225 C  
HETATM    5  C   UNL     1     -10.847   5.944  68.680  1.00  0.00    -0.333 C  
BRANCH   4   6
HETATM    6  C   UNL     1     -11.763   7.325  70.592  1.00  0.00    -0.275 C  
HETATM    7  O   UNL     1     -12.324   8.636  70.747  1.00  0.00    -0.488 OA 
HETATM    8  H   UNL     1     -12.930   8.645  71.479  1.00  0.00     0.000 HD 
BRANCH   6   9
HETATM    9  C   UNL     1     -11.164   6.921  71.928  1.00  0.00    -0.287 A  
HETATM   10  C   UNL     1     -11.360   5.623  72.422  1.00  0.00    -0.327 A  
HETATM   11  C   UNL     1     -10.832   5.245  73.658  1.00  0.00    -0.347 A  
HETATM   12  C   UNL     1     -10.103   6.160  74.415  1.00  0.00    -0.337 A  
HETATM   13  C   UNL     1      -9.901   7.453  73.939  1.00  0.00    -0.275 A  
HETATM   14  C   UNL     1     -10.431   7.834  72.703  1.00  0.00    -0.363 A  
ENDBRANCH   6   9
ENDBRANCH   4   6
ENDBRANCH   2   4
TORSDOF 3
ENDMDL
MODEL      177
REMARK 921   NORMALIZED FREE ENERGY PREDICTED BY IDOCK:   -2.77 KCAL/MOL
REMARK 922        TOTAL FREE ENERGY PREDICTED BY IDOCK:   -3.51 KCAL/MOL
REMARK 923 INTER-LIGAND FREE ENERGY PREDICTED BY IDOCK:   -3.32 KCAL/MOL
REMARK 924 INTRA-LIGAND FREE ENERGY PREDICTED BY IDOCK:   -0.19 KCAL/MOL
REMARK 927      BINDING AFFINITY PREDICTED BY RF-SCORE:    0.00 PKD
ROOT
HETATM    1  C   UNL     1      -9.286   6.870  66.141  1.00  0.00    -0.042 C  
HETATM    2  N   UNL     1     -10.074   8.039  66.515  1.00  0.00    -0.441 NA 
HETATM    3  H   UNL     1     -10.432   7.945  67.466  1.00  0.00     0.000 HD 
ENDROOT
BRANCH   2   4
HETATM    4  C   UNL     1      -9.341   9.316  66.352  1.00  0.00    -0.192 C  
HETATM    5  C   UNL     1      -7.833   9.076  66.171  1.00  0.00    -0.102 C  
BRANCH   4   6
HETATM    6  C   UNL     1      -9.880  10.139  65.131  1.00  0.00    -0.325 C  
HETATM    7  O   UNL     1      -8.810  10.421  64.219  1.00  0.00    -0.185 OA 
HETATM    8  H   UNL     1      -9.137  10.920  63.479  1.00  0.00     0.000 HD 
BRANCH   6   9
HETATM    9  C   UNL     1     -10.541  11.458  65.487  1.00  0.00    -0.328 A  
HETATM   10  C   UNL     1     -11.717  11.855  64.832  1.00  0.00    -0.262 A  
HETATM   11  C   UNL     1     -12.324  13.075  65.135  1.00  0.00    -0.536 A  
HETATM   12  C   UNL     1     -11.762  13.914  66.095  1.00  0.00    -0.393 A  
HETATM   13  C   UNL     1     -10.595  13.536  66.753  1.00  0.00    -0.272 A  
HETATM   14  C   UNL     1      -9.984  12.316  66.449  1.00  0.00    -0.243 A  
ENDBRANCH   6   9
ENDBRANCH   4   6
ENDBRANCH   2   4
TORSDOF 3
ENDMDL
MODEL      178
REMARK 921   NORMALIZED FREE ENERGY PREDICTED BY IDOCK:   -2.76 KCAL/MOL
REMARK 922        TOTAL FREE ENERGY PREDICTED BY IDOCK:   -3.49 KCAL/MOL
REMARK 923 INTER-LIGAND FREE ENERGY PREDICTED BY IDOCK:   -3.35 KCAL/MOL
REMARK 924 INTRA-LIGAND FREE ENERGY PREDICTED BY IDOCK:   -0.14 KCAL/MOL
REMARK 927      BINDING AFFINITY PREDICTED BY RF-SCORE:    0.00 PKD
ROOT
HETATM    1  C   UNL     1     -11.853  15.373  69.291  1.00  0.00    -0.343 C  
HETATM    2  N   UNL     1     -12.182  14.720  68.030  1.00  0.00    -0.580 NA 
HETATM    3  H   UNL     1     -12.554  15.393  67.359  1.00  0.00     0.000 HD 
ENDROOT
BRANCH   2   4
HETATM    4  C   UNL     1     -11.047  13.967  67.445  1.00  0.00    -0.303 C  
HETATM    5  C   UNL     1      -9.836  13.959  68.393  1.00  0.00    -0.229 C  
BRANCH   4   6
HETATM    6  C   UNL     1     -11.446  12.490  67.109  1.00  0.00    -0.351 C  
HETATM    7  O   UNL     1     -12.272  11.955  68.153  1.00  0.00    -0.470 OA 
HETATM    8  H   UNL     1     -12.513  11.059  67.949  1.00  0.00     0.000 HD 
BRANCH   6   9
HETATM    9  C   UNL     1     -10.280  11.538  66.912  1.00  0.00    -0.249 A  
HETATM   10  C   UNL     1      -9.980  10.581  67.894  1.00  0.00    -0.193 A  
HETATM   11  C   UNL     1      -8.898   9.714  67.735  1.00  0.00    -0.125 A  
HETATM   12  C   UNL     1      -8.101   9.793  66.594  1.00  0.00    -0.116 A  
HETATM   13  C   UNL     1      -8.384  10.739  65.612  1.00  0.00    -0.144 A  
HETATM   14  C   UNL     1      -9.465  11.610  65.771  1.00  0.00    -0.244 A  
ENDBRANCH   6   9
ENDBRANCH   4   6
ENDBRANCH   2   4
TORSDOF 3
ENDMDL
MODEL      179
REMARK 921   NORMALIZED FREE ENERGY PREDICTED BY IDOCK:   -2.75 KCAL/MOL
REMARK 922        TOTAL FREE ENERGY PREDICTED BY IDOCK:   -3.49 KCAL/MOL
REMARK 923 INTER-LIGAND FREE ENERGY PREDICTED BY IDOCK:   -3.29 KCAL/MOL
REMARK 924 INTRA-LIGAND FREE ENERGY PREDICTED BY IDOCK:   -0.20 KCAL/MOL
REMARK 927      BINDING AFFINITY PREDICTED BY RF-SCORE:    0.00 PKD
ROOT
HETATM    1  C   UNL     1      -8.543   9.666  69.741  1.00  0.00    -0.199 C  
HETATM    2  N   UNL     1      -8.385   8.339  69.158  1.00  0.00    -0.122 NA 
HETATM    3  H   UNL     1      -8.965   7.657  69.646  1.00  0.00     0.000 HD 
ENDROOT
BRANCH   2   4
HETATM    4  C   UNL     1      -8.648   8.306  67.700  1.00  0.00    -0.130 C  
HETATM    5  C   UNL     1      -8.166   6.985  67.075  1.00  0.00    -0.117 C  
BRANCH   4   6
HETATM    6  C   UNL     1     -10.171   8.497  67.384  1.00  0.00    -0.261 C  
HETATM    7  O   UNL     1     -10.623   7.463  66.499  1.00  0.00    -0.503 OA 
HETATM    8  H   UNL     1     -11.546   7.580  66.308  1.00  0.00     0.000 HD 
BRANCH   6   9
HETATM    9  C   UNL     1     -10.534   9.831  66.755  1.00  0.00    -0.259 A  
HETATM   10  C   UNL     1     -10.030  10.172  65.490  1.00  0.00    -0.363 A  
HETATM   11  C   UNL     1     -10.338  11.403  64.910  1.00  0.00    -0.347 A  
HETATM   12  C   UNL     1     -11.153  12.310  65.586  1.00  0.00    -0.357 A  
HETATM   13  C   UNL     1     -11.659  11.987  66.843  1.00  0.00    -0.389 A  
HETATM   14  C   UNL     1     -11.349  10.756  67.427  1.00  0.00    -0.239 A  
ENDBRANCH   6   9
ENDBRANCH   4   6
ENDBRANCH   2   4
TORSDOF 3
ENDMDL
MODEL      180
REMARK 921   NORMALIZED FREE ENERGY PREDICTED BY IDOCK:   -2.75 KCAL/MOL
REMARK 922        TOTAL FREE ENERGY PREDICTED BY IDOCK:   -3.48 KCAL/MOL
REMARK 923 INTER-LIGAND FREE ENERGY PREDICTED BY IDOCK:   -3.29 KCAL/MOL
REMARK 924 INTRA-LIGAND FREE ENERGY PREDICTED BY IDOCK:   -0.20 KCAL/MOL
REMARK 927      BINDING AFFINITY PREDICTED BY RF-SCORE:    0.00 PKD
ROOT
HETATM    1  C   UNL     1     -11.972  13.379  66.937  1.00  0.00    -0.385 C  
HETATM    2  N   UNL     1     -11.877  12.124  66.202  1.00  0.00    -0.582 NA 
HETATM    3  H   UNL     1     -12.042  12.273  65.206  1.00  0.00     0.000 HD 
ENDROOT
BRANCH   2   4
HETATM    4  C   UNL     1     -10.595  11.412  66.422  1.00  0.00    -0.263 C  
HETATM    5  C   UNL     1      -9.506  12.368  66.935  1.00  0.00    -0.219 C  
BRANCH   4   6
HETATM    6  C   UNL     1     -10.760  10.229  67.437  1.00  0.00    -0.281 C  
HETATM    7  O   UNL     1     -10.059  10.525  68.653  1.00  0.00    -0.165 OA 
HETATM    8  H   UNL     1     -10.159   9.808  69.268  1.00  0.00     0.000 HD 
BRANCH   6   9
HETATM    9  C   UNL     1     -10.267   8.882  66.939  1.00  0.00    -0.347 A  
HETATM   10  C   UNL     1      -9.172   8.814  66.064  1.00  0.00    -0.282 A  
HETATM   11  C   UNL     1      -8.722   7.584  65.582  1.00  0.00    -0.105 A  
HETATM   12  C   UNL     1      -9.361   6.407  65.967  1.00  0.00    -0.053 A  
HETATM   13  C   UNL     1     -10.451   6.458  66.833  1.00  0.00    -0.340 A  
HETATM   14  C   UNL     1     -10.905   7.689  67.314  1.00  0.00    -0.263 A  
ENDBRANCH   6   9
ENDBRANCH   4   6
ENDBRANCH   2   4
TORSDOF 3
ENDMDL
MODEL      181
REMARK 921   NORMALIZED FREE ENERGY PREDICTED BY IDOCK:   -2.74 KCAL/MOL
REMARK 922        TOTAL FREE ENERGY PREDICTED BY IDOCK:   -3.47 KCAL/MOL
REMARK 923 INTER-LIGAND FREE ENERGY PREDICTED BY IDOCK:   -3.20 KCAL/MOL
REMARK 924 INTRA-LIGAND FREE ENERGY PREDICTED BY IDOCK:   -0.27 KCAL/MOL
REMARK 927      BINDING AFFINITY PREDICTED BY RF-SCORE:    0.00 PKD
ROOT
HETATM    1  C   UNL     1      -6.473  11.672  67.809  1.00  0.00    -0.067 C  
HETATM    2  N   UNL     1      -7.472  12.267  66.930  1.00  0.00    -0.372 NA 
HETATM    3  H   UNL     1      -7.101  12.388  65.988  1.00  0.00     0.000 HD 
ENDROOT
BRANCH   2   4
HETATM    4  C   UNL     1      -8.748  11.513  66.900  1.00  0.00    -0.181 C  
HETATM    5  C   UNL     1      -8.905  10.733  65.584  1.00  0.00    -0.202 C  
BRANCH   4   6
HETATM    6  C   UNL     1      -8.859  10.516  68.104  1.00  0.00    -0.134 C  
HETATM    7  O   UNL     1      -8.954   9.170  67.619  1.00  0.00    -0.123 OA 
HETATM    8  H   UNL     1      -9.021   8.566  68.350  1.00  0.00     0.000 HD 
BRANCH   6   9
HETATM    9  C   UNL     1     -10.037  10.756  69.031  1.00  0.00    -0.225 A  
HETATM   10  C   UNL     1     -10.794  11.932  68.915  1.00  0.00    -0.261 A  
HETATM   11  C   UNL     1     -11.867  12.175  69.774  1.00  0.00    -0.397 A  
HETATM   12  C   UNL     1     -12.196  11.246  70.760  1.00  0.00    -0.479 A  
HETATM   13  C   UNL     1     -11.453  10.075  70.889  1.00  0.00    -0.452 A  
HETATM   14  C   UNL     1     -10.377   9.832  70.032  1.00  0.00    -0.307 A  
ENDBRANCH   6   9
ENDBRANCH   4   6
ENDBRANCH   2   4
TORSDOF 3
ENDMDL
MODEL      182
REMARK 921   NORMALIZED FREE ENERGY PREDICTED BY IDOCK:   -2.73 KCAL/MOL
REMARK 922        TOTAL FREE ENERGY PREDICTED BY IDOCK:   -3.46 KCAL/MOL
REMARK 923 INTER-LIGAND FREE ENERGY PREDICTED BY IDOCK:   -3.25 KCAL/MOL
REMARK 924 INTRA-LIGAND FREE ENERGY PREDICTED BY IDOCK:   -0.21 KCAL/MOL
REMARK 927      BINDING AFFINITY PREDICTED BY RF-SCORE:    0.00 PKD
ROOT
HETATM    1  C   UNL     1     -12.048  13.772  64.820  1.00  0.00    -0.410 C  
HETATM    2  N   UNL     1     -10.718  13.620  65.396  1.00  0.00    -0.297 NA 
HETATM    3  H   UNL     1     -10.352  14.521  65.705  1.00  0.00     0.000 HD 
ENDROOT
BRANCH   2   4
HETATM    4  C   UNL     1     -10.665  12.626  66.494  1.00  0.00    -0.250 C  
HETATM    5  C   UNL     1     -11.771  12.880  67.532  1.00  0.00    -0.422 C  
BRANCH   4   6
HETATM    6  C   UNL     1     -10.796  11.161  65.953  1.00  0.00    -0.157 C  
HETATM    7  O   UNL     1     -10.764  10.230  67.043  1.00  0.00    -0.253 OA 
HETATM    8  H   UNL     1     -10.843   9.342  66.714  1.00  0.00     0.000 HD 
BRANCH   6   9
HETATM    9  C   UNL     1      -9.724  10.744  64.961  1.00  0.00    -0.323 A  
HETATM   10  C   UNL     1      -8.442  10.400  65.415  1.00  0.00    -0.173 A  
HETATM   11  C   UNL     1      -7.441  10.036  64.512  1.00  0.00    -0.142 A  
HETATM   12  C   UNL     1      -7.710  10.012  63.144  1.00  0.00    -0.145 A  
HETATM   13  C   UNL     1      -8.977  10.353  62.678  1.00  0.00    -0.277 A  
HETATM   14  C   UNL     1      -9.979  10.721  63.580  1.00  0.00    -0.405 A  
ENDBRANCH   6   9
ENDBRANCH   4   6
ENDBRANCH   2   4
TORSDOF 3
ENDMDL
MODEL      183
REMARK 921   NORMALIZED FREE ENERGY PREDICTED BY IDOCK:   -2.73 KCAL/MOL
REMARK 922        TOTAL FREE ENERGY PREDICTED BY IDOCK:   -3.46 KCAL/MOL
REMARK 923 INTER-LIGAND FREE ENERGY PREDICTED BY IDOCK:   -3.23 KCAL/MOL
REMARK 924 INTRA-LIGAND FREE ENERGY PREDICTED BY IDOCK:   -0.23 KCAL/MOL
REMARK 927      BINDING AFFINITY PREDICTED BY RF-SCORE:    0.00 PKD
ROOT
HETATM    1  C   UNL     1      -7.218   7.372  68.259  1.00  0.00    -0.090 C  
HETATM    2  N   UNL     1      -7.692   8.739  68.083  1.00  0.00    -0.100 NA 
HETATM    3  H   UNL     1      -8.387   8.788  67.338  1.00  0.00     0.000 HD 
ENDROOT
BRANCH   2   4
HETATM    4  C   UNL     1      -8.215   9.343  69.331  1.00  0.00    -0.119 C  
HETATM    5  C   UNL     1      -7.358  10.542  69.773  1.00  0.00    -0.139 C  
BRANCH   4   6
HETATM    6  C   UNL     1      -9.703   9.807  69.169  1.00  0.00    -0.184 C  
HETATM    7  O   UNL     1      -9.805  11.219  69.402  1.00  0.00    -0.420 OA 
HETATM    8  H   UNL     1     -10.707  11.499  69.303  1.00  0.00     0.000 HD 
BRANCH   6   9
HETATM    9  C   UNL     1     -10.695   9.116  70.087  1.00  0.00    -0.263 A  
HETATM   10  C   UNL     1     -10.897   7.731  69.989  1.00  0.00    -0.243 A  
HETATM   11  C   UNL     1     -11.821   7.086  70.812  1.00  0.00    -0.401 A  
HETATM   12  C   UNL     1     -12.556   7.818  71.744  1.00  0.00    -0.356 A  
HETATM   13  C   UNL     1     -12.369   9.194  71.852  1.00  0.00    -0.455 A  
HETATM   14  C   UNL     1     -11.446   9.841  71.026  1.00  0.00    -0.458 A  
ENDBRANCH   6   9
ENDBRANCH   4   6
ENDBRANCH   2   4
TORSDOF 3
ENDMDL
MODEL      184
REMARK 921   NORMALIZED FREE ENERGY PREDICTED BY IDOCK:   -2.71 KCAL/MOL
REMARK 922        TOTAL FREE ENERGY PREDICTED BY IDOCK:   -3.44 KCAL/MOL
REMARK 923 INTER-LIGAND FREE ENERGY PREDICTED BY IDOCK:   -3.30 KCAL/MOL
REMARK 924 INTRA-LIGAND FREE ENERGY PREDICTED BY IDOCK:   -0.13 KCAL/MOL
REMARK 927      BINDING AFFINITY PREDICTED BY RF-SCORE:    0.00 PKD
ROOT
HETATM    1  C   UNL     1      -7.291   9.971  68.108  1.00  0.00    -0.083 C  
HETATM    2  N   UNL     1      -8.585   9.848  68.768  1.00  0.00    -0.125 NA 
HETATM    3  H   UNL     1      -9.120  10.713  68.682  1.00  0.00     0.000 HD 
ENDROOT
BRANCH   2   4
HETATM    4  C   UNL     1      -9.378   8.690  68.293  1.00  0.00    -0.137 C  
HETATM    5  C   UNL     1     -10.076   7.974  69.461  1.00  0.00    -0.196 C  
BRANCH   4   6
HETATM    6  C   UNL     1     -10.454   9.121  67.238  1.00  0.00    -0.265 C  
HETATM    7  O   UNL     1     -10.017   8.765  65.919  1.00  0.00    -0.466 OA 
HETATM    8  H   UNL     1     -10.670   9.026  65.280  1.00  0.00     0.000 HD 
BRANCH   6   9
HETATM    9  C   UNL     1     -10.786  10.602  67.228  1.00  0.00    -0.345 A  
HETATM   10  C   UNL     1     -11.563  11.155  68.258  1.00  0.00    -0.359 A  
HETATM   11  C   UNL     1     -11.894  12.511  68.250  1.00  0.00    -0.361 A  
HETATM   12  C   UNL     1     -11.454  13.331  67.213  1.00  0.00    -0.378 A  
HETATM   13  C   UNL     1     -10.684  12.797  66.182  1.00  0.00    -0.297 A  
HETATM   14  C   UNL     1     -10.354  11.439  66.187  1.00  0.00    -0.294 A  
ENDBRANCH   6   9
ENDBRANCH   4   6
ENDBRANCH   2   4
TORSDOF 3
ENDMDL
MODEL      185
REMARK 921   NORMALIZED FREE ENERGY PREDICTED BY IDOCK:   -2.71 KCAL/MOL
REMARK 922        TOTAL FREE ENERGY PREDICTED BY IDOCK:   -3.43 KCAL/MOL
REMARK 923 INTER-LIGAND FREE ENERGY PREDICTED BY IDOCK:   -3.19 KCAL/MOL
REMARK 924 INTRA-LIGAND FREE ENERGY PREDICTED BY IDOCK:   -0.25 KCAL/MOL
REMARK 927      BINDING AFFINITY PREDICTED BY RF-SCORE:    0.00 PKD
ROOT
HETATM    1  C   UNL     1     -11.407  12.592  65.146  1.00  0.00    -0.313 C  
HETATM    2  N   UNL     1     -10.370  13.544  64.768  1.00  0.00    -0.502 NA 
HETATM    3  H   UNL     1     -10.552  13.932  63.843  1.00  0.00     0.000 HD 
ENDROOT
BRANCH   2   4
HETATM    4  C   UNL     1     -10.178  14.626  65.763  1.00  0.00    -0.340 C  
HETATM    5  C   UNL     1     -11.485  14.935  66.512  1.00  0.00    -0.286 C  
BRANCH   4   6
HETATM    6  C   UNL     1      -9.064  14.262  66.804  1.00  0.00    -0.249 C  
HETATM    7  O   UNL     1      -9.657  13.683  67.975  1.00  0.00    -0.203 OA 
HETATM    8  H   UNL     1      -8.981  13.463  68.605  1.00  0.00     0.000 HD 
BRANCH   6   9
HETATM    9  C   UNL     1      -8.200  15.427  67.254  1.00  0.00    -0.222 A  
HETATM   10  C   UNL     1      -8.068  16.560  66.438  1.00  0.00    -0.362 A  
HETATM   11  C   UNL     1      -7.260  17.629  66.829  1.00  0.00    -0.247 A  
HETATM   12  C   UNL     1      -6.573  17.577  68.041  1.00  0.00    -0.173 A  
HETATM   13  C   UNL     1      -6.692  16.458  68.861  1.00  0.00    -0.174 A  
HETATM   14  C   UNL     1      -7.498  15.386  68.469  1.00  0.00    -0.117 A  
ENDBRANCH   6   9
ENDBRANCH   4   6
ENDBRANCH   2   4
TORSDOF 3
ENDMDL
MODEL      186
REMARK 921   NORMALIZED FREE ENERGY PREDICTED BY IDOCK:   -2.68 KCAL/MOL
REMARK 922        TOTAL FREE ENERGY PREDICTED BY IDOCK:   -3.41 KCAL/MOL
REMARK 923 INTER-LIGAND FREE ENERGY PREDICTED BY IDOCK:   -3.17 KCAL/MOL
REMARK 924 INTRA-LIGAND FREE ENERGY PREDICTED BY IDOCK:   -0.24 KCAL/MOL
REMARK 927      BINDING AFFINITY PREDICTED BY RF-SCORE:    0.00 PKD
ROOT
HETATM    1  C   UNL     1     -12.205  12.122  63.341  1.00  0.00    -0.530 C  
HETATM    2  N   UNL     1     -11.818  12.525  64.687  1.00  0.00    -0.359 NA 
HETATM    3  H   UNL     1     -12.637  12.787  65.236  1.00  0.00     0.000 HD 
ENDROOT
BRANCH   2   4
HETATM    4  C   UNL     1     -11.015  11.502  65.398  1.00  0.00    -0.226 C  
HETATM    5  C   UNL     1      -9.546  11.531  64.944  1.00  0.00    -0.212 C  
BRANCH   4   6
HETATM    6  C   UNL     1     -11.076  11.696  66.951  1.00  0.00    -0.308 C  
HETATM    7  O   UNL     1     -10.523  12.971  67.309  1.00  0.00    -0.237 OA 
HETATM    8  H   UNL     1     -10.561  13.088  68.251  1.00  0.00     0.000 HD 
BRANCH   6   9
HETATM    9  C   UNL     1     -10.349  10.637  67.761  1.00  0.00    -0.239 A  
HETATM   10  C   UNL     1      -9.415  11.016  68.736  1.00  0.00    -0.190 A  
HETATM   11  C   UNL     1      -8.724  10.052  69.473  1.00  0.00    -0.205 A  
HETATM   12  C   UNL     1      -8.958   8.697  69.242  1.00  0.00    -0.145 A  
HETATM   13  C   UNL     1      -9.882   8.305  68.276  1.00  0.00    -0.192 A  
HETATM   14  C   UNL     1     -10.572   9.269  67.536  1.00  0.00    -0.329 A  
ENDBRANCH   6   9
ENDBRANCH   4   6
ENDBRANCH   2   4
TORSDOF 3
ENDMDL
MODEL      187
REMARK 921   NORMALIZED FREE ENERGY PREDICTED BY IDOCK:   -2.68 KCAL/MOL
REMARK 922        TOTAL FREE ENERGY PREDICTED BY IDOCK:   -3.40 KCAL/MOL
REMARK 923 INTER-LIGAND FREE ENERGY PREDICTED BY IDOCK:   -3.19 KCAL/MOL
REMARK 924 INTRA-LIGAND FREE ENERGY PREDICTED BY IDOCK:   -0.21 KCAL/MOL
REMARK 927      BINDING AFFINITY PREDICTED BY RF-SCORE:    0.00 PKD
ROOT
HETATM    1  C   UNL     1     -10.267  19.771  67.264  1.00  0.00    -0.438 C  
HETATM    2  N   UNL     1     -10.655  18.468  66.739  1.00  0.00    -0.385 NA 
HETATM    3  H   UNL     1     -10.457  18.406  65.740  1.00  0.00     0.000 HD 
ENDROOT
BRANCH   2   4
HETATM    4  C   UNL     1     -10.038  17.335  67.469  1.00  0.00    -0.315 C  
HETATM    5  C   UNL     1     -11.093  16.531  68.247  1.00  0.00    -0.321 C  
BRANCH   4   6
HETATM    6  C   UNL     1      -9.272  16.372  66.499  1.00  0.00    -0.277 C  
HETATM    7  O   UNL     1     -10.053  15.194  66.259  1.00  0.00    -0.257 OA 
HETATM    8  H   UNL     1      -9.588  14.611  65.670  1.00  0.00     0.000 HD 
BRANCH   6   9
HETATM    9  C   UNL     1      -7.904  15.926  66.984  1.00  0.00    -0.267 A  
HETATM   10  C   UNL     1      -6.838  16.838  67.015  1.00  0.00    -0.246 A  
HETATM   11  C   UNL     1      -5.570  16.436  67.438  1.00  0.00    -0.176 A  
HETATM   12  C   UNL     1      -5.352  15.118  67.836  1.00  0.00    -0.116 A  
HETATM   13  C   UNL     1      -6.399  14.201  67.809  1.00  0.00    -0.169 A  
HETATM   14  C   UNL     1      -7.669  14.601  67.382  1.00  0.00    -0.226 A  
ENDBRANCH   6   9
ENDBRANCH   4   6
ENDBRANCH   2   4
TORSDOF 3
ENDMDL
MODEL      188
REMARK 921   NORMALIZED FREE ENERGY PREDICTED BY IDOCK:   -2.67 KCAL/MOL
REMARK 922        TOTAL FREE ENERGY PREDICTED BY IDOCK:   -3.39 KCAL/MOL
REMARK 923 INTER-LIGAND FREE ENERGY PREDICTED BY IDOCK:   -3.18 KCAL/MOL
REMARK 924 INTRA-LIGAND FREE ENERGY PREDICTED BY IDOCK:   -0.21 KCAL/MOL
REMARK 927      BINDING AFFINITY PREDICTED BY RF-SCORE:    0.00 PKD
ROOT
HETATM    1  C   UNL     1      -9.858   4.401  66.253  1.00  0.00    -0.231 C  
HETATM    2  N   UNL     1     -10.861   5.369  66.681  1.00  0.00    -0.489 NA 
HETATM    3  H   UNL     1     -11.724   4.899  66.956  1.00  0.00     0.000 HD 
ENDROOT
BRANCH   2   4
HETATM    4  C   UNL     1     -10.385   6.269  67.758  1.00  0.00    -0.195 C  
HETATM    5  C   UNL     1     -10.714   7.738  67.445  1.00  0.00    -0.300 C  
BRANCH   4   6
HETATM    6  C   UNL     1     -11.007   5.888  69.145  1.00  0.00    -0.312 C  
HETATM    7  O   UNL     1     -12.024   6.834  69.503  1.00  0.00    -0.634 OA 
HETATM    8  H   UNL     1     -12.401   6.602  70.344  1.00  0.00     0.000 HD 
BRANCH   6   9
HETATM    9  C   UNL     1     -10.019   5.817  70.295  1.00  0.00    -0.258 A  
HETATM   10  C   UNL     1      -9.667   6.984  70.992  1.00  0.00    -0.175 A  
HETATM   11  C   UNL     1      -8.743   6.937  72.037  1.00  0.00    -0.126 A  
HETATM   12  C   UNL     1      -8.159   5.724  72.399  1.00  0.00    -0.107 A  
HETATM   13  C   UNL     1      -8.496   4.558  71.716  1.00  0.00    -0.116 A  
HETATM   14  C   UNL     1      -9.418   4.604  70.667  1.00  0.00    -0.242 A  
ENDBRANCH   6   9
ENDBRANCH   4   6
ENDBRANCH   2   4
TORSDOF 3
ENDMDL
MODEL      189
REMARK 921   NORMALIZED FREE ENERGY PREDICTED BY IDOCK:   -2.66 KCAL/MOL
REMARK 922        TOTAL FREE ENERGY PREDICTED BY IDOCK:   -3.38 KCAL/MOL
REMARK 923 INTER-LIGAND FREE ENERGY PREDICTED BY IDOCK:   -3.38 KCAL/MOL
REMARK 924 INTRA-LIGAND FREE ENERGY PREDICTED BY IDOCK:   -0.00 KCAL/MOL
REMARK 927      BINDING AFFINITY PREDICTED BY RF-SCORE:    0.00 PKD
ROOT
HETATM    1  C   UNL     1     -12.650  13.882  65.446  1.00  0.00    -0.507 C  
HETATM    2  N   UNL     1     -11.393  13.288  65.885  1.00  0.00    -0.305 NA 
HETATM    3  H   UNL     1     -10.762  14.002  66.249  1.00  0.00     0.000 HD 
ENDROOT
BRANCH   2   4
HETATM    4  C   UNL     1     -11.574  12.194  66.868  1.00  0.00    -0.341 C  
HETATM    5  C   UNL     1     -10.959  10.879  66.360  1.00  0.00    -0.156 C  
BRANCH   4   6
HETATM    6  C   UNL     1     -10.941  12.555  68.255  1.00  0.00    -0.240 C  
HETATM    7  O   UNL     1      -9.839  13.454  68.073  1.00  0.00    -0.216 OA 
HETATM    8  H   UNL     1      -9.456  13.672  68.915  1.00  0.00     0.000 HD 
BRANCH   6   9
HETATM    9  C   UNL     1     -10.439  11.369  69.060  1.00  0.00    -0.196 A  
HETATM   10  C   UNL     1     -11.315  10.672  69.907  1.00  0.00    -0.386 A  
HETATM   11  C   UNL     1     -10.862   9.594  70.668  1.00  0.00    -0.386 A  
HETATM   12  C   UNL     1      -9.527   9.199  70.594  1.00  0.00    -0.316 A  
HETATM   13  C   UNL     1      -8.645   9.881  69.759  1.00  0.00    -0.219 A  
HETATM   14  C   UNL     1      -9.096  10.963  68.999  1.00  0.00    -0.110 A  
ENDBRANCH   6   9
ENDBRANCH   4   6
ENDBRANCH   2   4
TORSDOF 3
ENDMDL
MODEL      190
REMARK 921   NORMALIZED FREE ENERGY PREDICTED BY IDOCK:   -2.66 KCAL/MOL
REMARK 922        TOTAL FREE ENERGY PREDICTED BY IDOCK:   -3.38 KCAL/MOL
REMARK 923 INTER-LIGAND FREE ENERGY PREDICTED BY IDOCK:   -3.28 KCAL/MOL
REMARK 924 INTRA-LIGAND FREE ENERGY PREDICTED BY IDOCK:   -0.09 KCAL/MOL
REMARK 927      BINDING AFFINITY PREDICTED BY RF-SCORE:    0.00 PKD
ROOT
HETATM    1  C   UNL     1      -7.900  10.239  67.550  1.00  0.00    -0.102 C  
HETATM    2  N   UNL     1      -8.936  11.257  67.431  1.00  0.00    -0.143 NA 
HETATM    3  H   UNL     1      -8.523  12.183  67.319  1.00  0.00     0.000 HD 
ENDROOT
BRANCH   2   4
HETATM    4  C   UNL     1      -9.908  10.980  66.346  1.00  0.00    -0.212 C  
HETATM    5  C   UNL     1      -9.690   9.581  65.745  1.00  0.00    -0.357 C  
BRANCH   4   6
HETATM    6  C   UNL     1     -11.387  11.096  66.853  1.00  0.00    -0.090 C  
HETATM    7  O   UNL     1     -11.947  12.352  66.447  1.00  0.00    -0.559 OA 
HETATM    8  H   UNL     1     -12.843  12.422  66.754  1.00  0.00     0.000 HD 
BRANCH   6   9
HETATM    9  C   UNL     1     -11.561  10.979  68.357  1.00  0.00    -0.372 A  
HETATM   10  C   UNL     1     -11.355   9.746  68.994  1.00  0.00    -0.013 A  
HETATM   11  C   UNL     1     -11.533   9.619  70.373  1.00  0.00    -0.325 A  
HETATM   12  C   UNL     1     -11.920  10.723  71.131  1.00  0.00    -0.361 A  
HETATM   13  C   UNL     1     -12.130  11.953  70.513  1.00  0.00    -0.422 A  
HETATM   14  C   UNL     1     -11.956  12.081  69.133  1.00  0.00    -0.326 A  
ENDBRANCH   6   9
ENDBRANCH   4   6
ENDBRANCH   2   4
TORSDOF 3
ENDMDL
MODEL      191
REMARK 921   NORMALIZED FREE ENERGY PREDICTED BY IDOCK:   -2.66 KCAL/MOL
REMARK 922        TOTAL FREE ENERGY PREDICTED BY IDOCK:   -3.37 KCAL/MOL
REMARK 923 INTER-LIGAND FREE ENERGY PREDICTED BY IDOCK:   -3.79 KCAL/MOL
REMARK 924 INTRA-LIGAND FREE ENERGY PREDICTED BY IDOCK:    0.42 KCAL/MOL
REMARK 927      BINDING AFFINITY PREDICTED BY RF-SCORE:    0.00 PKD
ROOT
HETATM    1  C   UNL     1     -10.635   5.006  66.233  1.00  0.00    -0.276 C  
HETATM    2  N   UNL     1     -11.166   6.306  66.624  1.00  0.00    -0.753 NA 
HETATM    3  H   UNL     1     -12.071   6.475  66.186  1.00  0.00     0.000 HD 
ENDROOT
BRANCH   2   4
HETATM    4  C   UNL     1     -11.251   6.487  68.093  1.00  0.00    -0.150 C  
HETATM    5  C   UNL     1     -10.660   5.279  68.840  1.00  0.00    -0.128 C  
BRANCH   4   6
HETATM    6  C   UNL     1     -10.512   7.788  68.558  1.00  0.00    -0.168 C  
HETATM    7  O   UNL     1     -11.140   8.315  69.735  1.00  0.00    -0.404 OA 
HETATM    8  H   UNL     1     -10.691   9.104  70.016  1.00  0.00     0.000 HD 
BRANCH   6   9
HETATM    9  C   UNL     1     -10.463   8.902  67.526  1.00  0.00    -0.337 A  
HETATM   10  C   UNL     1     -11.126  10.114  67.768  1.00  0.00    -0.293 A  
HETATM   11  C   UNL     1     -11.106  11.138  66.820  1.00  0.00    -0.280 A  
HETATM   12  C   UNL     1     -10.424  10.962  65.617  1.00  0.00    -0.274 A  
HETATM   13  C   UNL     1      -9.762   9.764  65.361  1.00  0.00    -0.383 A  
HETATM   14  C   UNL     1      -9.783   8.737  66.308  1.00  0.00    -0.342 A  
ENDBRANCH   6   9
ENDBRANCH   4   6
ENDBRANCH   2   4
TORSDOF 3
ENDMDL
MODEL      192
REMARK 921   NORMALIZED FREE ENERGY PREDICTED BY IDOCK:   -2.65 KCAL/MOL
REMARK 922        TOTAL FREE ENERGY PREDICTED BY IDOCK:   -3.37 KCAL/MOL
REMARK 923 INTER-LIGAND FREE ENERGY PREDICTED BY IDOCK:   -3.24 KCAL/MOL
REMARK 924 INTRA-LIGAND FREE ENERGY PREDICTED BY IDOCK:   -0.13 KCAL/MOL
REMARK 927      BINDING AFFINITY PREDICTED BY RF-SCORE:    0.00 PKD
ROOT
HETATM    1  C   UNL     1      -8.394   8.792  69.428  1.00  0.00    -0.117 C  
HETATM    2  N   UNL     1      -8.977   7.847  70.372  1.00  0.00    -0.146 NA 
HETATM    3  H   UNL     1      -8.449   7.833  71.245  1.00  0.00     0.000 HD 
ENDROOT
BRANCH   2   4
HETATM    4  C   UNL     1     -10.416   8.091  70.632  1.00  0.00    -0.210 C  
HETATM    5  C   UNL     1     -10.926   9.311  69.847  1.00  0.00    -0.231 C  
BRANCH   4   6
HETATM    6  C   UNL     1     -11.288   6.842  70.264  1.00  0.00    -0.352 C  
HETATM    7  O   UNL     1     -11.454   6.003  71.416  1.00  0.00    -0.277 OA 
HETATM    8  H   UNL     1     -11.983   5.246  71.192  1.00  0.00     0.000 HD 
BRANCH   6   9
HETATM    9  C   UNL     1     -10.736   5.980  69.143  1.00  0.00    -0.399 A  
HETATM   10  C   UNL     1      -9.966   4.846  69.442  1.00  0.00    -0.282 A  
HETATM   11  C   UNL     1      -9.434   4.057  68.420  1.00  0.00    -0.211 A  
HETATM   12  C   UNL     1      -9.665   4.393  67.087  1.00  0.00    -0.230 A  
HETATM   13  C   UNL     1     -10.425   5.517  66.774  1.00  0.00    -0.355 A  
HETATM   14  C   UNL     1     -10.956   6.309  67.795  1.00  0.00    -0.427 A  
ENDBRANCH   6   9
ENDBRANCH   4   6
ENDBRANCH   2   4
TORSDOF 3
ENDMDL
MODEL      193
REMARK 921   NORMALIZED FREE ENERGY PREDICTED BY IDOCK:   -2.63 KCAL/MOL
REMARK 922        TOTAL FREE ENERGY PREDICTED BY IDOCK:   -3.34 KCAL/MOL
REMARK 923 INTER-LIGAND FREE ENERGY PREDICTED BY IDOCK:   -3.08 KCAL/MOL
REMARK 924 INTRA-LIGAND FREE ENERGY PREDICTED BY IDOCK:   -0.26 KCAL/MOL
REMARK 927      BINDING AFFINITY PREDICTED BY RF-SCORE:    0.00 PKD
ROOT
HETATM    1  C   UNL     1      -8.451   3.402  70.327  1.00  0.00    -0.056 C  
HETATM    2  N   UNL     1      -8.955   3.828  69.027  1.00  0.00    -0.110 NA 
HETATM    3  H   UNL     1      -9.778   3.285  68.762  1.00  0.00     0.000 HD 
ENDROOT
BRANCH   2   4
HETATM    4  C   UNL     1      -9.238   5.281  68.956  1.00  0.00    -0.118 C  
HETATM    5  C   UNL     1      -8.935   5.841  67.556  1.00  0.00    -0.107 C  
BRANCH   4   6
HETATM    6  C   UNL     1     -10.729   5.597  69.324  1.00  0.00    -0.280 C  
HETATM    7  O   UNL     1     -11.382   6.236  68.218  1.00  0.00    -0.473 OA 
HETATM    8  H   UNL     1     -12.285   6.427  68.442  1.00  0.00     0.000 HD 
BRANCH   6   9
HETATM    9  C   UNL     1     -10.915   6.484  70.543  1.00  0.00    -0.348 A  
HETATM   10  C   UNL     1     -12.182   7.007  70.844  1.00  0.00    -0.388 A  
HETATM   11  C   UNL     1     -12.363   7.840  71.949  1.00  0.00    -0.342 A  
HETATM   12  C   UNL     1     -11.280   8.162  72.766  1.00  0.00    -0.407 A  
HETATM   13  C   UNL     1     -10.016   7.653  72.479  1.00  0.00    -0.263 A  
HETATM   14  C   UNL     1      -9.832   6.821  71.371  1.00  0.00    -0.188 A  
ENDBRANCH   6   9
ENDBRANCH   4   6
ENDBRANCH   2   4
TORSDOF 3
ENDMDL
MODEL      194
REMARK 921   NORMALIZED FREE ENERGY PREDICTED BY IDOCK:   -2.63 KCAL/MOL
REMARK 922        TOTAL FREE ENERGY PREDICTED BY IDOCK:   -3.34 KCAL/MOL
REMARK 923 INTER-LIGAND FREE ENERGY PREDICTED BY IDOCK:   -3.15 KCAL/MOL
REMARK 924 INTRA-LIGAND FREE ENERGY PREDICTED BY IDOCK:   -0.19 KCAL/MOL
REMARK 927      BINDING AFFINITY PREDICTED BY RF-SCORE:    0.00 PKD
ROOT
HETATM    1  C   UNL     1      -8.577  18.080  68.732  1.00  0.00    -0.200 C  
HETATM    2  N   UNL     1      -8.636  16.811  68.017  1.00  0.00    -0.205 NA 
HETATM    3  H   UNL     1      -8.688  16.029  68.670  1.00  0.00     0.000 HD 
ENDROOT
BRANCH   2   4
HETATM    4  C   UNL     1      -9.739  16.746  67.029  1.00  0.00    -0.251 C  
HETATM    5  C   UNL     1      -9.772  18.004  66.145  1.00  0.00    -0.220 C  
BRANCH   4   6
HETATM    6  C   UNL     1      -9.621  15.479  66.115  1.00  0.00    -0.330 C  
HETATM    7  O   UNL     1     -10.552  15.571  65.027  1.00  0.00    -0.413 OA 
HETATM    8  H   UNL     1     -10.479  14.802  64.473  1.00  0.00     0.000 HD 
BRANCH   6   9
HETATM    9  C   UNL     1      -9.864  14.155  66.817  1.00  0.00    -0.275 A  
HETATM   10  C   UNL     1     -11.126  13.869  67.361  1.00  0.00    -0.313 A  
HETATM   11  C   UNL     1     -11.357  12.664  68.028  1.00  0.00    -0.337 A  
HETATM   12  C   UNL     1     -10.330  11.732  68.161  1.00  0.00    -0.213 A  
HETATM   13  C   UNL     1      -9.071  12.002  67.629  1.00  0.00    -0.179 A  
HETATM   14  C   UNL     1      -8.837  13.209  66.964  1.00  0.00    -0.212 A  
ENDBRANCH   6   9
ENDBRANCH   4   6
ENDBRANCH   2   4
TORSDOF 3
ENDMDL
MODEL      195
REMARK 921   NORMALIZED FREE ENERGY PREDICTED BY IDOCK:   -2.62 KCAL/MOL
REMARK 922        TOTAL FREE ENERGY PREDICTED BY IDOCK:   -3.33 KCAL/MOL
REMARK 923 INTER-LIGAND FREE ENERGY PREDICTED BY IDOCK:   -3.23 KCAL/MOL
REMARK 924 INTRA-LIGAND FREE ENERGY PREDICTED BY IDOCK:   -0.10 KCAL/MOL
REMARK 927      BINDING AFFINITY PREDICTED BY RF-SCORE:    0.00 PKD
ROOT
HETATM    1  C   UNL     1     -10.233  13.569  65.948  1.00  0.00    -0.301 C  
HETATM    2  N   UNL     1     -10.054  14.957  66.356  1.00  0.00    -0.273 NA 
HETATM    3  H   UNL     1      -9.975  15.567  65.542  1.00  0.00     0.000 HD 
ENDROOT
BRANCH   2   4
HETATM    4  C   UNL     1     -11.114  15.439  67.274  1.00  0.00    -0.302 C  
HETATM    5  C   UNL     1     -11.713  14.282  68.091  1.00  0.00    -0.385 C  
BRANCH   4   6
HETATM    6  C   UNL     1     -10.574  16.535  68.255  1.00  0.00    -0.326 C  
HETATM    7  O   UNL     1     -10.861  17.841  67.737  1.00  0.00    -0.371 OA 
HETATM    8  H   UNL     1     -10.533  18.505  68.332  1.00  0.00     0.000 HD 
BRANCH   6   9
HETATM    9  C   UNL     1      -9.083  16.468  68.534  1.00  0.00    -0.231 A  
HETATM   10  C   UNL     1      -8.226  17.454  68.019  1.00  0.00    -0.229 A  
HETATM   11  C   UNL     1      -6.851  17.393  68.251  1.00  0.00    -0.190 A  
HETATM   12  C   UNL     1      -6.315  16.346  68.998  1.00  0.00    -0.164 A  
HETATM   13  C   UNL     1      -7.151  15.359  69.514  1.00  0.00    -0.200 A  
HETATM   14  C   UNL     1      -8.528  15.417  69.281  1.00  0.00    -0.258 A  
ENDBRANCH   6   9
ENDBRANCH   4   6
ENDBRANCH   2   4
TORSDOF 3
ENDMDL
MODEL      196
REMARK 921   NORMALIZED FREE ENERGY PREDICTED BY IDOCK:   -2.61 KCAL/MOL
REMARK 922        TOTAL FREE ENERGY PREDICTED BY IDOCK:   -3.32 KCAL/MOL
REMARK 923 INTER-LIGAND FREE ENERGY PREDICTED BY IDOCK:   -3.28 KCAL/MOL
REMARK 924 INTRA-LIGAND FREE ENERGY PREDICTED BY IDOCK:   -0.04 KCAL/MOL
REMARK 927      BINDING AFFINITY PREDICTED BY RF-SCORE:    0.00 PKD
ROOT
HETATM    1  C   UNL     1     -11.767   6.631  71.717  1.00  0.00    -0.318 C  
HETATM    2  N   UNL     1     -11.823   7.459  70.519  1.00  0.00    -0.497 NA 
HETATM    3  H   UNL     1     -11.866   8.448  70.763  1.00  0.00     0.000 HD 
ENDROOT
BRANCH   2   4
HETATM    4  C   UNL     1     -10.710   7.199  69.574  1.00  0.00    -0.239 C  
HETATM    5  C   UNL     1     -11.235   6.706  68.215  1.00  0.00    -0.208 C  
BRANCH   4   6
HETATM    6  C   UNL     1      -9.831   8.477  69.352  1.00  0.00    -0.185 C  
HETATM    7  O   UNL     1      -8.911   8.635  70.441  1.00  0.00    -0.140 OA 
HETATM    8  H   UNL     1      -8.378   9.410  70.305  1.00  0.00     0.000 HD 
BRANCH   6   9
HETATM    9  C   UNL     1     -10.608   9.775  69.215  1.00  0.00    -0.240 A  
HETATM   10  C   UNL     1     -10.931  10.525  70.356  1.00  0.00    -0.252 A  
HETATM   11  C   UNL     1     -11.663  11.709  70.246  1.00  0.00    -0.355 A  
HETATM   12  C   UNL     1     -12.082  12.157  68.995  1.00  0.00    -0.208 A  
HETATM   13  C   UNL     1     -11.771  11.422  67.852  1.00  0.00    -0.300 A  
HETATM   14  C   UNL     1     -11.041  10.236  67.961  1.00  0.00    -0.336 A  
ENDBRANCH   6   9
ENDBRANCH   4   6
ENDBRANCH   2   4
TORSDOF 3
ENDMDL
MODEL      197
REMARK 921   NORMALIZED FREE ENERGY PREDICTED BY IDOCK:   -2.60 KCAL/MOL
REMARK 922        TOTAL FREE ENERGY PREDICTED BY IDOCK:   -3.31 KCAL/MOL
REMARK 923 INTER-LIGAND FREE ENERGY PREDICTED BY IDOCK:   -3.03 KCAL/MOL
REMARK 924 INTRA-LIGAND FREE ENERGY PREDICTED BY IDOCK:   -0.28 KCAL/MOL
REMARK 927      BINDING AFFINITY PREDICTED BY RF-SCORE:    0.00 PKD
ROOT
HETATM    1  C   UNL     1      -9.488   3.906  64.673  1.00  0.00    -0.167 C  
HETATM    2  N   UNL     1     -10.203   3.987  65.941  1.00  0.00    -0.439 NA 
HETATM    3  H   UNL     1     -10.280   3.065  66.373  1.00  0.00     0.000 HD 
ENDROOT
BRANCH   2   4
HETATM    4  C   UNL     1      -9.612   4.963  66.887  1.00  0.00    -0.160 C  
HETATM    5  C   UNL     1      -8.668   5.939  66.164  1.00  0.00    -0.141 C  
BRANCH   4   6
HETATM    6  C   UNL     1     -10.718   5.780  67.639  1.00  0.00    -0.229 C  
HETATM    7  O   UNL     1     -11.441   6.598  66.709  1.00  0.00    -0.776 OA 
HETATM    8  H   UNL     1     -12.111   7.093  67.165  1.00  0.00     0.000 HD 
BRANCH   6   9
HETATM    9  C   UNL     1     -10.207   6.684  68.747  1.00  0.00    -0.186 A  
HETATM   10  C   UNL     1     -10.375   8.074  68.653  1.00  0.00    -0.224 A  
HETATM   11  C   UNL     1      -9.892   8.918  69.654  1.00  0.00    -0.182 A  
HETATM   12  C   UNL     1      -9.234   8.384  70.761  1.00  0.00    -0.186 A  
HETATM   13  C   UNL     1      -9.057   7.006  70.867  1.00  0.00    -0.153 A  
HETATM   14  C   UNL     1      -9.538   6.160  69.864  1.00  0.00    -0.183 A  
ENDBRANCH   6   9
ENDBRANCH   4   6
ENDBRANCH   2   4
TORSDOF 3
ENDMDL
MODEL      198
REMARK 921   NORMALIZED FREE ENERGY PREDICTED BY IDOCK:   -2.60 KCAL/MOL
REMARK 922        TOTAL FREE ENERGY PREDICTED BY IDOCK:   -3.30 KCAL/MOL
REMARK 923 INTER-LIGAND FREE ENERGY PREDICTED BY IDOCK:   -3.10 KCAL/MOL
REMARK 924 INTRA-LIGAND FREE ENERGY PREDICTED BY IDOCK:   -0.21 KCAL/MOL
REMARK 927      BINDING AFFINITY PREDICTED BY RF-SCORE:    0.00 PKD
ROOT
HETATM    1  C   UNL     1      -7.557   2.786  63.852  1.00  0.00    -0.067 C  
HETATM    2  N   UNL     1      -7.737   4.132  64.384  1.00  0.00    -0.083 NA 
HETATM    3  H   UNL     1      -7.039   4.769  64.000  1.00  0.00     0.000 HD 
ENDROOT
BRANCH   2   4
HETATM    4  C   UNL     1      -9.105   4.664  64.180  1.00  0.00    -0.099 C  
HETATM    5  C   UNL     1      -9.600   4.400  62.748  1.00  0.00    -0.088 C  
BRANCH   4   6
HETATM    6  C   UNL     1     -10.123   4.045  65.198  1.00  0.00    -0.182 C  
HETATM    7  O   UNL     1     -11.465   4.254  64.738  1.00  0.00    -0.995 OA 
HETATM    8  H   UNL     1     -12.081   3.878  65.356  1.00  0.00     0.000 HD 
BRANCH   6   9
HETATM    9  C   UNL     1     -10.030   4.592  66.612  1.00  0.00    -0.253 A  
HETATM   10  C   UNL     1     -10.559   5.856  66.912  1.00  0.00    -0.384 A  
HETATM   11  C   UNL     1     -10.462   6.380  68.203  1.00  0.00    -0.267 A  
HETATM   12  C   UNL     1      -9.835   5.646  69.208  1.00  0.00    -0.230 A  
HETATM   13  C   UNL     1      -9.303   4.390  68.926  1.00  0.00    -0.216 A  
HETATM   14  C   UNL     1      -9.397   3.866  67.634  1.00  0.00    -0.232 A  
ENDBRANCH   6   9
ENDBRANCH   4   6
ENDBRANCH   2   4
TORSDOF 3
ENDMDL
MODEL      199
REMARK 921   NORMALIZED FREE ENERGY PREDICTED BY IDOCK:   -2.59 KCAL/MOL
REMARK 922        TOTAL FREE ENERGY PREDICTED BY IDOCK:   -3.30 KCAL/MOL
REMARK 923 INTER-LIGAND FREE ENERGY PREDICTED BY IDOCK:   -3.12 KCAL/MOL
REMARK 924 INTRA-LIGAND FREE ENERGY PREDICTED BY IDOCK:   -0.18 KCAL/MOL
REMARK 927      BINDING AFFINITY PREDICTED BY RF-SCORE:    0.00 PKD
ROOT
HETATM    1  C   UNL     1      -7.470   6.059  67.167  1.00  0.00    -0.084 C  
HETATM    2  N   UNL     1      -8.891   6.382  67.227  1.00  0.00    -0.109 NA 
HETATM    3  H   UNL     1      -9.400   5.678  67.762  1.00  0.00     0.000 HD 
ENDROOT
BRANCH   2   4
HETATM    4  C   UNL     1      -9.161   7.741  67.754  1.00  0.00    -0.134 C  
HETATM    5  C   UNL     1      -8.843   8.820  66.705  1.00  0.00    -0.153 C  
BRANCH   4   6
HETATM    6  C   UNL     1     -10.651   7.895  68.214  1.00  0.00    -0.109 C  
HETATM    7  O   UNL     1     -11.151   9.184  67.833  1.00  0.00    -0.508 OA 
HETATM    8  H   UNL     1     -12.054   9.277  68.112  1.00  0.00     0.000 HD 
BRANCH   6   9
HETATM    9  C   UNL     1     -10.883   7.735  69.706  1.00  0.00    -0.211 A  
HETATM   10  C   UNL     1     -11.041   8.868  70.518  1.00  0.00    -0.288 A  
HETATM   11  C   UNL     1     -11.234   8.736  71.894  1.00  0.00    -0.438 A  
HETATM   12  C   UNL     1     -11.269   7.469  72.476  1.00  0.00    -0.381 A  
HETATM   13  C   UNL     1     -11.111   6.335  71.683  1.00  0.00    -0.325 A  
HETATM   14  C   UNL     1     -10.915   6.466  70.306  1.00  0.00    -0.378 A  
ENDBRANCH   6   9
ENDBRANCH   4   6
ENDBRANCH   2   4
TORSDOF 3
ENDMDL
MODEL      200
REMARK 921   NORMALIZED FREE ENERGY PREDICTED BY IDOCK:   -2.55 KCAL/MOL
REMARK 922        TOTAL FREE ENERGY PREDICTED BY IDOCK:   -3.25 KCAL/MOL
REMARK 923 INTER-LIGAND FREE ENERGY PREDICTED BY IDOCK:   -2.96 KCAL/MOL
REMARK 924 INTRA-LIGAND FREE ENERGY PREDICTED BY IDOCK:   -0.29 KCAL/MOL
REMARK 927      BINDING AFFINITY PREDICTED BY RF-SCORE:    0.00 PKD
ROOT
HETATM    1  C   UNL     1      -8.096  11.413  68.329  1.00  0.00    -0.143 C  
HETATM    2  N   UNL     1      -9.375  11.805  68.908  1.00  0.00    -0.406 NA 
HETATM    3  H   UNL     1      -9.853  12.480  68.310  1.00  0.00     0.000 HD 
ENDROOT
BRANCH   2   4
HETATM    4  C   UNL     1     -10.258  10.654  69.213  1.00  0.00    -0.213 C  
HETATM    5  C   UNL     1     -11.741  11.038  69.084  1.00  0.00    -0.403 C  
BRANCH   4   6
HETATM    6  C   UNL     1      -9.959   9.434  68.275  1.00  0.00    -0.174 C  
HETATM    7  O   UNL     1     -10.996   9.306  67.292  1.00  0.00    -0.369 OA 
HETATM    8  H   UNL     1     -10.814   8.567  66.724  1.00  0.00     0.000 HD 
BRANCH   6   9
HETATM    9  C   UNL     1      -9.828   8.097  68.983  1.00  0.00    -0.176 A  
HETATM   10  C   UNL     1      -8.613   7.736  69.584  1.00  0.00    -0.135 A  
HETATM   11  C   UNL     1      -8.472   6.502  70.219  1.00  0.00    -0.135 A  
HETATM   12  C   UNL     1      -9.544   5.612  70.260  1.00  0.00    -0.216 A  
HETATM   13  C   UNL     1     -10.756   5.954  69.667  1.00  0.00    -0.415 A  
HETATM   14  C   UNL     1     -10.898   7.189  69.028  1.00  0.00    -0.172 A  
ENDBRANCH   6   9
ENDBRANCH   4   6
ENDBRANCH   2   4
TORSDOF 3
ENDMDL
MODEL      201
REMARK 921   NORMALIZED FREE ENERGY PREDICTED BY IDOCK:   -2.55 KCAL/MOL
REMARK 922        TOTAL FREE ENERGY PREDICTED BY IDOCK:   -3.24 KCAL/MOL
REMARK 923 INTER-LIGAND FREE ENERGY PREDICTED BY IDOCK:   -3.02 KCAL/MOL
REMARK 924 INTRA-LIGAND FREE ENERGY PREDICTED BY IDOCK:   -0.22 KCAL/MOL
REMARK 927      BINDING AFFINITY PREDICTED BY RF-SCORE:    0.00 PKD
ROOT
HETATM    1  C   UNL     1      -6.381  11.595  67.724  1.00  0.00    -0.067 C  
HETATM    2  N   UNL     1      -7.074  12.533  66.850  1.00  0.00    -0.373 NA 
HETATM    3  H   UNL     1      -6.786  12.405  65.880  1.00  0.00     0.000 HD 
ENDROOT
BRANCH   2   4
HETATM    4  C   UNL     1      -8.550  12.469  66.974  1.00  0.00    -0.188 C  
HETATM    5  C   UNL     1      -9.056  11.020  66.885  1.00  0.00    -0.165 C  
BRANCH   4   6
HETATM    6  C   UNL     1      -9.044  13.105  68.318  1.00  0.00    -0.181 C  
HETATM    7  O   UNL     1     -10.003  12.242  68.945  1.00  0.00    -0.412 OA 
HETATM    8  H   UNL     1     -10.302  12.628  69.760  1.00  0.00     0.000 HD 
BRANCH   6   9
HETATM    9  C   UNL     1      -9.678  14.478  68.185  1.00  0.00    -0.219 A  
HETATM   10  C   UNL     1      -9.604  15.171  66.967  1.00  0.00    -0.235 A  
HETATM   11  C   UNL     1     -10.165  16.443  66.837  1.00  0.00    -0.290 A  
HETATM   12  C   UNL     1     -10.804  17.038  67.923  1.00  0.00    -0.302 A  
HETATM   13  C   UNL     1     -10.884  16.365  69.139  1.00  0.00    -0.329 A  
HETATM   14  C   UNL     1     -10.321  15.092  69.272  1.00  0.00    -0.258 A  
ENDBRANCH   6   9
ENDBRANCH   4   6
ENDBRANCH   2   4
TORSDOF 3
ENDMDL
MODEL      202
REMARK 921   NORMALIZED FREE ENERGY PREDICTED BY IDOCK:   -2.52 KCAL/MOL
REMARK 922        TOTAL FREE ENERGY PREDICTED BY IDOCK:   -3.21 KCAL/MOL
REMARK 923 INTER-LIGAND FREE ENERGY PREDICTED BY IDOCK:   -3.15 KCAL/MOL
REMARK 924 INTRA-LIGAND FREE ENERGY PREDICTED BY IDOCK:   -0.06 KCAL/MOL
REMARK 927      BINDING AFFINITY PREDICTED BY RF-SCORE:    0.00 PKD
ROOT
HETATM    1  C   UNL     1     -12.067  13.282  66.869  1.00  0.00    -0.332 C  
HETATM    2  N   UNL     1     -11.873  11.844  66.723  1.00  0.00    -0.607 NA 
HETATM    3  H   UNL     1     -11.831  11.582  65.738  1.00  0.00     0.000 HD 
ENDROOT
BRANCH   2   4
HETATM    4  C   UNL     1     -10.689  11.335  67.454  1.00  0.00    -0.242 C  
HETATM    5  C   UNL     1      -9.670  12.457  67.716  1.00  0.00    -0.201 C  
BRANCH   4   6
HETATM    6  C   UNL     1     -11.092  10.679  68.819  1.00  0.00    -0.265 C  
HETATM    7  O   UNL     1     -11.008  11.648  69.873  1.00  0.00    -0.469 OA 
HETATM    8  H   UNL     1     -11.253  11.249  70.700  1.00  0.00     0.000 HD 
BRANCH   6   9
HETATM    9  C   UNL     1     -10.253   9.481  69.228  1.00  0.00    -0.212 A  
HETATM   10  C   UNL     1      -8.955   9.324  68.718  1.00  0.00    -0.132 A  
HETATM   11  C   UNL     1      -8.181   8.217  69.069  1.00  0.00    -0.119 A  
HETATM   12  C   UNL     1      -8.695   7.252  69.934  1.00  0.00    -0.141 A  
HETATM   13  C   UNL     1      -9.982   7.392  70.447  1.00  0.00    -0.188 A  
HETATM   14  C   UNL     1     -10.759   8.498  70.094  1.00  0.00    -0.240 A  
ENDBRANCH   6   9
ENDBRANCH   4   6
ENDBRANCH   2   4
TORSDOF 3
ENDMDL
MODEL      203
REMARK 921   NORMALIZED FREE ENERGY PREDICTED BY IDOCK:   -2.51 KCAL/MOL
REMARK 922        TOTAL FREE ENERGY PREDICTED BY IDOCK:   -3.20 KCAL/MOL
REMARK 923 INTER-LIGAND FREE ENERGY PREDICTED BY IDOCK:   -3.10 KCAL/MOL
REMARK 924 INTRA-LIGAND FREE ENERGY PREDICTED BY IDOCK:   -0.10 KCAL/MOL
REMARK 927      BINDING AFFINITY PREDICTED BY RF-SCORE:    0.00 PKD
ROOT
HETATM    1  C   UNL     1     -12.080   8.398  72.422  1.00  0.00    -0.378 C  
HETATM    2  N   UNL     1     -11.203   8.571  71.270  1.00  0.00    -0.252 NA 
HETATM    3  H   UNL     1     -11.614   9.216  70.595  1.00  0.00     0.000 HD 
ENDROOT
BRANCH   2   4
HETATM    4  C   UNL     1      -9.832   8.998  71.638  1.00  0.00    -0.296 C  
HETATM    5  C   UNL     1      -9.159   7.975  72.569  1.00  0.00    -0.271 C  
BRANCH   4   6
HETATM    6  C   UNL     1      -8.934   9.206  70.370  1.00  0.00    -0.229 C  
HETATM    7  O   UNL     1      -7.911  10.174  70.647  1.00  0.00    -0.407 OA 
HETATM    8  H   UNL     1      -7.368  10.300  69.878  1.00  0.00     0.000 HD 
BRANCH   6   9
HETATM    9  C   UNL     1      -9.675   9.664  69.126  1.00  0.00    -0.180 A  
HETATM   10  C   UNL     1      -9.984   8.742  68.114  1.00  0.00    -0.206 A  
HETATM   11  C   UNL     1     -10.647   9.153  66.956  1.00  0.00    -0.266 A  
HETATM   12  C   UNL     1     -11.006  10.490  66.795  1.00  0.00    -0.150 A  
HETATM   13  C   UNL     1     -10.704  11.417  67.789  1.00  0.00    -0.254 A  
HETATM   14  C   UNL     1     -10.039  11.008  68.948  1.00  0.00    -0.212 A  
ENDBRANCH   6   9
ENDBRANCH   4   6
ENDBRANCH   2   4
TORSDOF 3
ENDMDL
MODEL      204
REMARK 921   NORMALIZED FREE ENERGY PREDICTED BY IDOCK:   -2.50 KCAL/MOL
REMARK 922        TOTAL FREE ENERGY PREDICTED BY IDOCK:   -3.19 KCAL/MOL
REMARK 923 INTER-LIGAND FREE ENERGY PREDICTED BY IDOCK:   -2.95 KCAL/MOL
REMARK 924 INTRA-LIGAND FREE ENERGY PREDICTED BY IDOCK:   -0.23 KCAL/MOL
REMARK 927      BINDING AFFINITY PREDICTED BY RF-SCORE:    0.00 PKD
ROOT
HETATM    1  C   UNL     1     -10.527   9.352  66.579  1.00  0.00    -0.129 C  
HETATM    2  N   UNL     1     -10.109   7.998  66.239  1.00  0.00    -0.481 NA 
HETATM    3  H   UNL     1      -9.092   7.934  66.190  1.00  0.00     0.000 HD 
ENDROOT
BRANCH   2   4
HETATM    4  C   UNL     1     -10.658   6.968  67.153  1.00  0.00    -0.341 C  
HETATM    5  C   UNL     1     -10.991   5.671  66.398  1.00  0.00    -0.083 C  
BRANCH   4   6
HETATM    6  C   UNL     1      -9.662   6.643  68.319  1.00  0.00    -0.132 C  
HETATM    7  O   UNL     1      -8.960   5.424  68.039  1.00  0.00    -0.109 OA 
HETATM    8  H   UNL     1      -8.357   5.227  68.746  1.00  0.00     0.000 HD 
BRANCH   6   9
HETATM    9  C   UNL     1     -10.302   6.500  69.689  1.00  0.00    -0.234 A  
HETATM   10  C   UNL     1     -11.658   6.813  69.867  1.00  0.00    -0.326 A  
HETATM   11  C   UNL     1     -12.254   6.707  71.125  1.00  0.00    -0.357 A  
HETATM   12  C   UNL     1     -11.501   6.287  72.220  1.00  0.00    -0.351 A  
HETATM   13  C   UNL     1     -10.153   5.975  72.060  1.00  0.00    -0.215 A  
HETATM   14  C   UNL     1      -9.555   6.083  70.802  1.00  0.00    -0.197 A  
ENDBRANCH   6   9
ENDBRANCH   4   6
ENDBRANCH   2   4
TORSDOF 3
ENDMDL
MODEL      205
REMARK 921   NORMALIZED FREE ENERGY PREDICTED BY IDOCK:   -2.50 KCAL/MOL
REMARK 922        TOTAL FREE ENERGY PREDICTED BY IDOCK:   -3.18 KCAL/MOL
REMARK 923 INTER-LIGAND FREE ENERGY PREDICTED BY IDOCK:   -3.10 KCAL/MOL
REMARK 924 INTRA-LIGAND FREE ENERGY PREDICTED BY IDOCK:   -0.08 KCAL/MOL
REMARK 927      BINDING AFFINITY PREDICTED BY RF-SCORE:    0.00 PKD
ROOT
HETATM    1  C   UNL     1      -7.502   8.436  67.967  1.00  0.00    -0.097 C  
HETATM    2  N   UNL     1      -8.370   9.409  67.315  1.00  0.00    -0.124 NA 
HETATM    3  H   UNL     1      -7.823  10.165  66.904  1.00  0.00     0.000 HD 
ENDROOT
BRANCH   2   4
HETATM    4  C   UNL     1      -9.273   8.805  66.307  1.00  0.00    -0.207 C  
HETATM    5  C   UNL     1     -10.214   7.770  66.948  1.00  0.00    -0.373 C  
BRANCH   4   6
HETATM    6  C   UNL     1     -10.131   9.893  65.575  1.00  0.00    -0.227 C  
HETATM    7  O   UNL     1      -9.479  10.297  64.363  1.00  0.00    -0.255 OA 
HETATM    8  H   UNL     1      -9.999  10.957  63.919  1.00  0.00     0.000 HD 
BRANCH   6   9
HETATM    9  C   UNL     1     -10.409  11.145  66.387  1.00  0.00    -0.300 A  
HETATM   10  C   UNL     1      -9.765  12.350  66.064  1.00  0.00    -0.253 A  
HETATM   11  C   UNL     1      -9.996  13.504  66.816  1.00  0.00    -0.269 A  
HETATM   12  C   UNL     1     -10.871  13.467  67.900  1.00  0.00    -0.262 A  
HETATM   13  C   UNL     1     -11.516  12.279  68.234  1.00  0.00    -0.367 A  
HETATM   14  C   UNL     1     -11.284  11.123  67.485  1.00  0.00    -0.369 A  
ENDBRANCH   6   9
ENDBRANCH   4   6
ENDBRANCH   2   4
TORSDOF 3
ENDMDL
MODEL      206
REMARK 921   NORMALIZED FREE ENERGY PREDICTED BY IDOCK:   -2.43 KCAL/MOL
REMARK 922        TOTAL FREE ENERGY PREDICTED BY IDOCK:   -3.11 KCAL/MOL
REMARK 923 INTER-LIGAND FREE ENERGY PREDICTED BY IDOCK:   -2.87 KCAL/MOL
REMARK 924 INTRA-LIGAND FREE ENERGY PREDICTED BY IDOCK:   -0.24 KCAL/MOL
REMARK 927      BINDING AFFINITY PREDICTED BY RF-SCORE:    0.00 PKD
ROOT
HETATM    1  C   UNL     1      -6.942  15.999  69.825  1.00  0.00    -0.040 C  
HETATM    2  N   UNL     1      -7.652  17.093  69.172  1.00  0.00    -0.186 NA 
HETATM    3  H   UNL     1      -7.052  17.558  68.490  1.00  0.00     0.000 HD 
ENDROOT
BRANCH   2   4
HETATM    4  C   UNL     1      -8.930  16.673  68.549  1.00  0.00    -0.235 C  
HETATM    5  C   UNL     1      -9.443  17.731  67.559  1.00  0.00    -0.257 C  
BRANCH   4   6
HETATM    6  C   UNL     1      -8.785  15.301  67.805  1.00  0.00    -0.165 C  
HETATM    7  O   UNL     1      -8.908  15.495  66.390  1.00  0.00    -0.289 OA 
HETATM    8  H   UNL     1      -8.821  14.663  65.939  1.00  0.00     0.000 HD 
BRANCH   6   9
HETATM    9  C   UNL     1      -9.793  14.240  68.213  1.00  0.00    -0.235 A  
HETATM   10  C   UNL     1      -9.506  12.882  68.008  1.00  0.00    -0.213 A  
HETATM   11  C   UNL     1     -10.431  11.898  68.358  1.00  0.00    -0.231 A  
HETATM   12  C   UNL     1     -11.656  12.259  68.917  1.00  0.00    -0.367 A  
HETATM   13  C   UNL     1     -11.957  13.603  69.126  1.00  0.00    -0.394 A  
HETATM   14  C   UNL     1     -11.032  14.589  68.773  1.00  0.00    -0.262 A  
ENDBRANCH   6   9
ENDBRANCH   4   6
ENDBRANCH   2   4
TORSDOF 3
ENDMDL
MODEL      207
REMARK 921   NORMALIZED FREE ENERGY PREDICTED BY IDOCK:   -2.42 KCAL/MOL
REMARK 922        TOTAL FREE ENERGY PREDICTED BY IDOCK:   -3.09 KCAL/MOL
REMARK 923 INTER-LIGAND FREE ENERGY PREDICTED BY IDOCK:   -2.84 KCAL/MOL
REMARK 924 INTRA-LIGAND FREE ENERGY PREDICTED BY IDOCK:   -0.25 KCAL/MOL
REMARK 927      BINDING AFFINITY PREDICTED BY RF-SCORE:    0.00 PKD
ROOT
HETATM    1  C   UNL     1      -8.907   9.377  65.638  1.00  0.00    -0.174 C  
HETATM    2  N   UNL     1      -8.201   9.682  66.877  1.00  0.00    -0.113 NA 
HETATM    3  H   UNL     1      -7.409  10.302  66.700  1.00  0.00     0.000 HD 
ENDROOT
BRANCH   2   4
HETATM    4  C   UNL     1      -9.081  10.242  67.930  1.00  0.00    -0.131 C  
HETATM    5  C   UNL     1      -9.377  11.730  67.679  1.00  0.00    -0.180 C  
BRANCH   4   6
HETATM    6  C   UNL     1     -10.434   9.458  68.027  1.00  0.00    -0.228 C  
HETATM    7  O   UNL     1     -11.470  10.325  68.509  1.00  0.00    -0.470 OA 
HETATM    8  H   UNL     1     -12.290   9.850  68.567  1.00  0.00     0.000 HD 
BRANCH   6   9
HETATM    9  C   UNL     1     -10.405   8.234  68.924  1.00  0.00    -0.230 A  
HETATM   10  C   UNL     1     -10.623   6.958  68.381  1.00  0.00    -0.249 A  
HETATM   11  C   UNL     1     -10.620   5.827  69.198  1.00  0.00    -0.365 A  
HETATM   12  C   UNL     1     -10.400   5.955  70.568  1.00  0.00    -0.297 A  
HETATM   13  C   UNL     1     -10.184   7.214  71.123  1.00  0.00    -0.200 A  
HETATM   14  C   UNL     1     -10.190   8.349  70.307  1.00  0.00    -0.204 A  
ENDBRANCH   6   9
ENDBRANCH   4   6
ENDBRANCH   2   4
TORSDOF 3
ENDMDL
MODEL      208
REMARK 921   NORMALIZED FREE ENERGY PREDICTED BY IDOCK:   -2.38 KCAL/MOL
REMARK 922        TOTAL FREE ENERGY PREDICTED BY IDOCK:   -3.05 KCAL/MOL
REMARK 923 INTER-LIGAND FREE ENERGY PREDICTED BY IDOCK:   -2.87 KCAL/MOL
REMARK 924 INTRA-LIGAND FREE ENERGY PREDICTED BY IDOCK:   -0.18 KCAL/MOL
REMARK 927      BINDING AFFINITY PREDICTED BY RF-SCORE:    0.00 PKD
ROOT
HETATM    1  C   UNL     1      -8.152  11.688  68.378  1.00  0.00    -0.153 C  
HETATM    2  N   UNL     1      -9.113  10.924  69.164  1.00  0.00    -0.360 NA 
HETATM    3  H   UNL     1     -10.064  11.085  68.832  1.00  0.00     0.000 HD 
ENDROOT
BRANCH   2   4
HETATM    4  C   UNL     1      -8.810   9.474  69.211  1.00  0.00    -0.153 C  
HETATM    5  C   UNL     1      -7.529   9.145  68.427  1.00  0.00    -0.082 C  
BRANCH   4   6
HETATM    6  C   UNL     1      -8.656   8.963  70.685  1.00  0.00    -0.194 C  
HETATM    7  O   UNL     1      -7.431   8.231  70.825  1.00  0.00    -0.058 OA 
HETATM    8  H   UNL     1      -7.338   7.922  71.718  1.00  0.00     0.000 HD 
BRANCH   6   9
HETATM    9  C   UNL     1      -9.783   8.073  71.177  1.00  0.00    -0.190 A  
HETATM   10  C   UNL     1     -10.097   6.890  70.490  1.00  0.00    -0.201 A  
HETATM   11  C   UNL     1     -11.144   6.074  70.920  1.00  0.00    -0.352 A  
HETATM   12  C   UNL     1     -11.892   6.430  72.041  1.00  0.00    -0.382 A  
HETATM   13  C   UNL     1     -11.595   7.602  72.733  1.00  0.00    -0.334 A  
HETATM   14  C   UNL     1     -10.548   8.422  72.302  1.00  0.00    -0.412 A  
ENDBRANCH   6   9
ENDBRANCH   4   6
ENDBRANCH   2   4
TORSDOF 3
ENDMDL
MODEL      209
REMARK 921   NORMALIZED FREE ENERGY PREDICTED BY IDOCK:   -2.38 KCAL/MOL
REMARK 922        TOTAL FREE ENERGY PREDICTED BY IDOCK:   -3.05 KCAL/MOL
REMARK 923 INTER-LIGAND FREE ENERGY PREDICTED BY IDOCK:   -2.79 KCAL/MOL
REMARK 924 INTRA-LIGAND FREE ENERGY PREDICTED BY IDOCK:   -0.26 KCAL/MOL
REMARK 927      BINDING AFFINITY PREDICTED BY RF-SCORE:    0.00 PKD
ROOT
HETATM    1  C   UNL     1      -6.512  11.659  67.640  1.00  0.00    -0.075 C  
HETATM    2  N   UNL     1      -7.357  12.337  66.663  1.00  0.00    -0.366 NA 
HETATM    3  H   UNL     1      -7.033  12.152  65.714  1.00  0.00     0.000 HD 
ENDROOT
BRANCH   2   4
HETATM    4  C   UNL     1      -8.795  12.005  66.803  1.00  0.00    -0.198 C  
HETATM    5  C   UNL     1      -9.684  13.155  66.300  1.00  0.00    -0.269 C  
BRANCH   4   6
HETATM    6  C   UNL     1      -9.162  10.694  66.027  1.00  0.00    -0.182 C  
HETATM    7  O   UNL     1     -10.186  10.967  65.060  1.00  0.00    -0.264 OA 
HETATM    8  H   UNL     1     -10.408  10.172  64.590  1.00  0.00     0.000 HD 
BRANCH   6   9
HETATM    9  C   UNL     1      -9.645   9.547  66.896  1.00  0.00    -0.217 A  
HETATM   10  C   UNL     1      -9.868   9.749  68.267  1.00  0.00    -0.167 A  
HETATM   11  C   UNL     1     -10.291   8.698  69.082  1.00  0.00    -0.227 A  
HETATM   12  C   UNL     1     -10.496   7.431  68.537  1.00  0.00    -0.215 A  
HETATM   13  C   UNL     1     -10.277   7.214  67.179  1.00  0.00    -0.327 A  
HETATM   14  C   UNL     1      -9.851   8.264  66.362  1.00  0.00    -0.283 A  
ENDBRANCH   6   9
ENDBRANCH   4   6
ENDBRANCH   2   4
TORSDOF 3
ENDMDL
MODEL      210
REMARK 921   NORMALIZED FREE ENERGY PREDICTED BY IDOCK:   -2.38 KCAL/MOL
REMARK 922        TOTAL FREE ENERGY PREDICTED BY IDOCK:   -3.05 KCAL/MOL
REMARK 923 INTER-LIGAND FREE ENERGY PREDICTED BY IDOCK:   -2.83 KCAL/MOL
REMARK 924 INTRA-LIGAND FREE ENERGY PREDICTED BY IDOCK:   -0.21 KCAL/MOL
REMARK 927      BINDING AFFINITY PREDICTED BY RF-SCORE:    0.00 PKD
ROOT
HETATM    1  C   UNL     1      -8.290  10.728  67.226  1.00  0.00    -0.124 C  
HETATM    2  N   UNL     1      -8.564  12.116  66.871  1.00  0.00    -0.196 NA 
HETATM    3  H   UNL     1      -9.471  12.200  66.410  1.00  0.00     0.000 HD 
ENDROOT
BRANCH   2   4
HETATM    4  C   UNL     1      -8.471  13.044  68.022  1.00  0.00    -0.181 C  
HETATM    5  C   UNL     1      -7.117  13.774  68.043  1.00  0.00    -0.133 C  
BRANCH   4   6
HETATM    6  C   UNL     1      -9.625  14.105  68.003  1.00  0.00    -0.218 C  
HETATM    7  O   UNL     1      -9.077  15.428  68.084  1.00  0.00    -0.180 OA 
HETATM    8  H   UNL     1      -9.777  16.070  68.072  1.00  0.00     0.000 HD 
BRANCH   6   9
HETATM    9  C   UNL     1     -10.646  13.962  69.117  1.00  0.00    -0.124 A  
HETATM   10  C   UNL     1     -11.338  12.752  69.286  1.00  0.00    -0.307 A  
HETATM   11  C   UNL     1     -12.295  12.614  70.293  1.00  0.00    -0.269 A  
HETATM   12  C   UNL     1     -12.574  13.683  71.143  1.00  0.00    -0.452 A  
HETATM   13  C   UNL     1     -11.897  14.891  70.987  1.00  0.00    -0.380 A  
HETATM   14  C   UNL     1     -10.941  15.032  69.978  1.00  0.00    -0.268 A  
ENDBRANCH   6   9
ENDBRANCH   4   6
ENDBRANCH   2   4
TORSDOF 3
ENDMDL
MODEL      211
REMARK 921   NORMALIZED FREE ENERGY PREDICTED BY IDOCK:   -2.36 KCAL/MOL
REMARK 922        TOTAL FREE ENERGY PREDICTED BY IDOCK:   -3.03 KCAL/MOL
REMARK 923 INTER-LIGAND FREE ENERGY PREDICTED BY IDOCK:   -2.85 KCAL/MOL
REMARK 924 INTRA-LIGAND FREE ENERGY PREDICTED BY IDOCK:   -0.18 KCAL/MOL
REMARK 927      BINDING AFFINITY PREDICTED BY RF-SCORE:    0.00 PKD
ROOT
HETATM    1  C   UNL     1      -6.529   5.809  73.800  1.00  0.00    -0.073 C  
HETATM    2  N   UNL     1      -7.037   6.322  72.533  1.00  0.00    -0.082 NA 
HETATM    3  H   UNL     1      -7.825   5.763  72.205  1.00  0.00     0.000 HD 
ENDROOT
BRANCH   2   4
HETATM    4  C   UNL     1      -7.397   7.759  72.585  1.00  0.00    -0.086 C  
HETATM    5  C   UNL     1      -6.144   8.645  72.698  1.00  0.00    -0.079 C  
BRANCH   4   6
HETATM    6  C   UNL     1      -8.220   8.193  71.324  1.00  0.00    -0.116 C  
HETATM    7  O   UNL     1      -8.115   9.611  71.134  1.00  0.00    -0.320 OA 
HETATM    8  H   UNL     1      -8.614   9.874  70.369  1.00  0.00     0.000 HD 
BRANCH   6   9
HETATM    9  C   UNL     1      -9.697   7.844  71.370  1.00  0.00    -0.199 A  
HETATM   10  C   UNL     1     -10.576   8.606  72.154  1.00  0.00    -0.411 A  
HETATM   11  C   UNL     1     -11.932   8.283  72.221  1.00  0.00    -0.448 A  
HETATM   12  C   UNL     1     -12.426   7.193  71.507  1.00  0.00    -0.418 A  
HETATM   13  C   UNL     1     -11.566   6.425  70.726  1.00  0.00    -0.402 A  
HETATM   14  C   UNL     1     -10.208   6.745  70.659  1.00  0.00    -0.216 A  
ENDBRANCH   6   9
ENDBRANCH   4   6
ENDBRANCH   2   4
TORSDOF 3
ENDMDL
MODEL      212
REMARK 921   NORMALIZED FREE ENERGY PREDICTED BY IDOCK:   -2.36 KCAL/MOL
REMARK 922        TOTAL FREE ENERGY PREDICTED BY IDOCK:   -3.02 KCAL/MOL
REMARK 923 INTER-LIGAND FREE ENERGY PREDICTED BY IDOCK:   -2.73 KCAL/MOL
REMARK 924 INTRA-LIGAND FREE ENERGY PREDICTED BY IDOCK:   -0.29 KCAL/MOL
REMARK 927      BINDING AFFINITY PREDICTED BY RF-SCORE:    0.00 PKD
ROOT
HETATM    1  C   UNL     1      -7.722   8.236  69.637  1.00  0.00    -0.100 C  
HETATM    2  N   UNL     1      -8.553   7.554  68.652  1.00  0.00    -0.129 NA 
HETATM    3  H   UNL     1      -9.189   6.898  69.107  1.00  0.00     0.000 HD 
ENDROOT
BRANCH   2   4
HETATM    4  C   UNL     1      -9.298   8.483  67.770  1.00  0.00    -0.137 C  
HETATM    5  C   UNL     1     -10.432   7.758  67.026  1.00  0.00    -0.419 C  
BRANCH   4   6
HETATM    6  C   UNL     1      -9.898   9.686  68.574  1.00  0.00    -0.157 C  
HETATM    7  O   UNL     1     -11.295   9.465  68.817  1.00  0.00    -0.455 OA 
HETATM    8  H   UNL     1     -11.658  10.195  69.305  1.00  0.00     0.000 HD 
BRANCH   6   9
HETATM    9  C   UNL     1      -9.757  11.041  67.904  1.00  0.00    -0.183 A  
HETATM   10  C   UNL     1      -8.489  11.625  67.759  1.00  0.00    -0.144 A  
HETATM   11  C   UNL     1      -8.347  12.879  67.164  1.00  0.00    -0.158 A  
HETATM   12  C   UNL     1      -9.470  13.567  66.707  1.00  0.00    -0.272 A  
HETATM   13  C   UNL     1     -10.735  13.002  66.845  1.00  0.00    -0.273 A  
HETATM   14  C   UNL     1     -10.880  11.747  67.443  1.00  0.00    -0.299 A  
ENDBRANCH   6   9
ENDBRANCH   4   6
ENDBRANCH   2   4
TORSDOF 3
ENDMDL
MODEL      213
REMARK 921   NORMALIZED FREE ENERGY PREDICTED BY IDOCK:   -2.35 KCAL/MOL
REMARK 922        TOTAL FREE ENERGY PREDICTED BY IDOCK:   -3.01 KCAL/MOL
REMARK 923 INTER-LIGAND FREE ENERGY PREDICTED BY IDOCK:   -2.87 KCAL/MOL
REMARK 924 INTRA-LIGAND FREE ENERGY PREDICTED BY IDOCK:   -0.13 KCAL/MOL
REMARK 927      BINDING AFFINITY PREDICTED BY RF-SCORE:    0.00 PKD
ROOT
HETATM    1  C   UNL     1      -9.552  11.295  64.885  1.00  0.00    -0.232 C  
HETATM    2  N   UNL     1      -8.362  11.302  65.727  1.00  0.00    -0.364 NA 
HETATM    3  H   UNL     1      -8.033  12.255  65.883  1.00  0.00     0.000 HD 
ENDROOT
BRANCH   2   4
HETATM    4  C   UNL     1      -8.552  10.594  67.016  1.00  0.00    -0.128 C  
HETATM    5  C   UNL     1      -7.494   9.496  67.212  1.00  0.00    -0.091 C  
BRANCH   4   6
HETATM    6  C   UNL     1      -8.498  11.583  68.230  1.00  0.00    -0.159 C  
HETATM    7  O   UNL     1      -8.886  10.905  69.433  1.00  0.00    -0.380 OA 
HETATM    8  H   UNL     1      -8.853  11.505  70.169  1.00  0.00     0.000 HD 
BRANCH   6   9
HETATM    9  C   UNL     1      -9.372  12.817  68.094  1.00  0.00    -0.214 A  
HETATM   10  C   UNL     1      -8.798  14.096  68.154  1.00  0.00    -0.183 A  
HETATM   11  C   UNL     1      -9.594  15.238  68.052  1.00  0.00    -0.203 A  
HETATM   12  C   UNL     1     -10.973  15.117  67.889  1.00  0.00    -0.302 A  
HETATM   13  C   UNL     1     -11.558  13.854  67.830  1.00  0.00    -0.381 A  
HETATM   14  C   UNL     1     -10.763  12.710  67.935  1.00  0.00    -0.237 A  
ENDBRANCH   6   9
ENDBRANCH   4   6
ENDBRANCH   2   4
TORSDOF 3
ENDMDL
MODEL      214
REMARK 921   NORMALIZED FREE ENERGY PREDICTED BY IDOCK:   -2.34 KCAL/MOL
REMARK 922        TOTAL FREE ENERGY PREDICTED BY IDOCK:   -3.00 KCAL/MOL
REMARK 923 INTER-LIGAND FREE ENERGY PREDICTED BY IDOCK:   -2.80 KCAL/MOL
REMARK 924 INTRA-LIGAND FREE ENERGY PREDICTED BY IDOCK:   -0.20 KCAL/MOL
REMARK 927      BINDING AFFINITY PREDICTED BY RF-SCORE:    0.00 PKD
ROOT
HETATM    1  C   UNL     1      -6.774   3.467  64.716  1.00  0.00    -0.047 C  
HETATM    2  N   UNL     1      -7.170   4.264  65.871  1.00  0.00    -0.071 NA 
HETATM    3  H   UNL     1      -6.882   5.236  65.758  1.00  0.00     0.000 HD 
ENDROOT
BRANCH   2   4
HETATM    4  C   UNL     1      -8.619   4.177  66.174  1.00  0.00    -0.113 C  
HETATM    5  C   UNL     1      -9.353   3.300  65.146  1.00  0.00    -0.149 C  
BRANCH   4   6
HETATM    6  C   UNL     1      -8.875   3.607  67.611  1.00  0.00    -0.121 C  
HETATM    7  O   UNL     1      -9.611   2.379  67.528  1.00  0.00    -0.400 OA 
HETATM    8  H   UNL     1      -9.766   2.035  68.400  1.00  0.00     0.000 HD 
BRANCH   6   9
HETATM    9  C   UNL     1      -9.632   4.535  68.545  1.00  0.00    -0.212 A  
HETATM   10  C   UNL     1      -9.631   4.296  69.927  1.00  0.00    -0.279 A  
HETATM   11  C   UNL     1     -10.340   5.128  70.794  1.00  0.00    -0.294 A  
HETATM   12  C   UNL     1     -11.059   6.211  70.290  1.00  0.00    -0.436 A  
HETATM   13  C   UNL     1     -11.072   6.461  68.920  1.00  0.00    -0.420 A  
HETATM   14  C   UNL     1     -10.365   5.627  68.051  1.00  0.00    -0.258 A  
ENDBRANCH   6   9
ENDBRANCH   4   6
ENDBRANCH   2   4
TORSDOF 3
ENDMDL
MODEL      215
REMARK 921   NORMALIZED FREE ENERGY PREDICTED BY IDOCK:   -2.34 KCAL/MOL
REMARK 922        TOTAL FREE ENERGY PREDICTED BY IDOCK:   -3.00 KCAL/MOL
REMARK 923 INTER-LIGAND FREE ENERGY PREDICTED BY IDOCK:   -2.97 KCAL/MOL
REMARK 924 INTRA-LIGAND FREE ENERGY PREDICTED BY IDOCK:   -0.03 KCAL/MOL
REMARK 927      BINDING AFFINITY PREDICTED BY RF-SCORE:    0.00 PKD
ROOT
HETATM    1  C   UNL     1     -12.133  13.603  66.625  1.00  0.00    -0.411 C  
HETATM    2  N   UNL     1     -10.891  13.732  65.872  1.00  0.00    -0.281 NA 
HETATM    3  H   UNL     1     -10.873  14.608  65.350  1.00  0.00     0.000 HD 
ENDROOT
BRANCH   2   4
HETATM    4  C   UNL     1      -9.679  13.596  66.715  1.00  0.00    -0.275 C  
HETATM    5  C   UNL     1     -10.014  13.760  68.207  1.00  0.00    -0.243 C  
BRANCH   4   6
HETATM    6  C   UNL     1      -8.976  12.213  66.495  1.00  0.00    -0.179 C  
HETATM    7  O   UNL     1      -9.338  11.676  65.215  1.00  0.00    -0.347 OA 
HETATM    8  H   UNL     1      -8.911  10.838  65.082  1.00  0.00     0.000 HD 
BRANCH   6   9
HETATM    9  C   UNL     1      -9.290  11.159  67.541  1.00  0.00    -0.174 A  
HETATM   10  C   UNL     1     -10.392  10.306  67.371  1.00  0.00    -0.282 A  
HETATM   11  C   UNL     1     -10.705   9.347  68.335  1.00  0.00    -0.213 A  
HETATM   12  C   UNL     1      -9.922   9.228  69.482  1.00  0.00    -0.194 A  
HETATM   13  C   UNL     1      -8.827  10.069  69.667  1.00  0.00    -0.217 A  
HETATM   14  C   UNL     1      -8.514  11.032  68.704  1.00  0.00    -0.157 A  
ENDBRANCH   6   9
ENDBRANCH   4   6
ENDBRANCH   2   4
TORSDOF 3
ENDMDL
MODEL      216
REMARK 921   NORMALIZED FREE ENERGY PREDICTED BY IDOCK:   -2.33 KCAL/MOL
REMARK 922        TOTAL FREE ENERGY PREDICTED BY IDOCK:   -2.99 KCAL/MOL
REMARK 923 INTER-LIGAND FREE ENERGY PREDICTED BY IDOCK:   -2.93 KCAL/MOL
REMARK 924 INTRA-LIGAND FREE ENERGY PREDICTED BY IDOCK:   -0.06 KCAL/MOL
REMARK 927      BINDING AFFINITY PREDICTED BY RF-SCORE:    0.00 PKD
ROOT
HETATM    1  C   UNL     1      -7.163   6.040  69.379  1.00  0.00    -0.074 C  
HETATM    2  N   UNL     1      -7.864   7.254  68.977  1.00  0.00    -0.115 NA 
HETATM    3  H   UNL     1      -7.235   7.890  68.486  1.00  0.00     0.000 HD 
ENDROOT
BRANCH   2   4
HETATM    4  C   UNL     1      -9.080   6.989  68.172  1.00  0.00    -0.128 C  
HETATM    5  C   UNL     1      -8.885   5.774  67.249  1.00  0.00    -0.106 C  
BRANCH   4   6
HETATM    6  C   UNL     1     -10.333   6.748  69.081  1.00  0.00    -0.194 C  
HETATM    7  O   UNL     1     -11.442   6.312  68.283  1.00  0.00    -0.488 OA 
HETATM    8  H   UNL     1     -12.201   6.166  68.835  1.00  0.00     0.000 HD 
BRANCH   6   9
HETATM    9  C   UNL     1     -10.789   7.956  69.881  1.00  0.00    -0.221 A  
HETATM   10  C   UNL     1     -10.465   9.250  69.445  1.00  0.00    -0.229 A  
HETATM   11  C   UNL     1     -10.860  10.368  70.181  1.00  0.00    -0.333 A  
HETATM   12  C   UNL     1     -11.582  10.207  71.363  1.00  0.00    -0.315 A  
HETATM   13  C   UNL     1     -11.909   8.929  71.810  1.00  0.00    -0.429 A  
HETATM   14  C   UNL     1     -11.512   7.808  71.075  1.00  0.00    -0.298 A  
ENDBRANCH   6   9
ENDBRANCH   4   6
ENDBRANCH   2   4
TORSDOF 3
ENDMDL
MODEL      217
REMARK 921   NORMALIZED FREE ENERGY PREDICTED BY IDOCK:   -2.32 KCAL/MOL
REMARK 922        TOTAL FREE ENERGY PREDICTED BY IDOCK:   -2.98 KCAL/MOL
REMARK 923 INTER-LIGAND FREE ENERGY PREDICTED BY IDOCK:   -3.11 KCAL/MOL
REMARK 924 INTRA-LIGAND FREE ENERGY PREDICTED BY IDOCK:    0.13 KCAL/MOL
REMARK 927      BINDING AFFINITY PREDICTED BY RF-SCORE:    0.00 PKD
ROOT
HETATM    1  C   UNL     1     -11.782  12.937  68.967  1.00  0.00    -0.327 C  
HETATM    2  N   UNL     1     -12.201  13.849  67.910  1.00  0.00    -0.483 NA 
HETATM    3  H   UNL     1     -13.156  14.173  68.068  1.00  0.00     0.000 HD 
ENDROOT
BRANCH   2   4
HETATM    4  C   UNL     1     -11.281  14.996  67.725  1.00  0.00    -0.321 C  
HETATM    5  C   UNL     1     -10.451  15.256  68.994  1.00  0.00    -0.248 C  
BRANCH   4   6
HETATM    6  C   UNL     1     -10.311  14.768  66.516  1.00  0.00    -0.286 C  
HETATM    7  O   UNL     1     -11.048  14.305  65.376  1.00  0.00    -0.305 OA 
HETATM    8  H   UNL     1     -10.460  14.167  64.643  1.00  0.00     0.000 HD 
BRANCH   6   9
HETATM    9  C   UNL     1      -9.187  13.779  66.770  1.00  0.00    -0.255 A  
HETATM   10  C   UNL     1      -8.002  14.205  67.389  1.00  0.00    -0.201 A  
HETATM   11  C   UNL     1      -6.953  13.311  67.609  1.00  0.00    -0.164 A  
HETATM   12  C   UNL     1      -7.076  11.980  67.214  1.00  0.00    -0.149 A  
HETATM   13  C   UNL     1      -8.245  11.542  66.597  1.00  0.00    -0.156 A  
HETATM   14  C   UNL     1      -9.295  12.437  66.373  1.00  0.00    -0.219 A  
ENDBRANCH   6   9
ENDBRANCH   4   6
ENDBRANCH   2   4
TORSDOF 3
ENDMDL
MODEL      218
REMARK 921   NORMALIZED FREE ENERGY PREDICTED BY IDOCK:   -2.32 KCAL/MOL
REMARK 922        TOTAL FREE ENERGY PREDICTED BY IDOCK:   -2.98 KCAL/MOL
REMARK 923 INTER-LIGAND FREE ENERGY PREDICTED BY IDOCK:   -3.01 KCAL/MOL
REMARK 924 INTRA-LIGAND FREE ENERGY PREDICTED BY IDOCK:    0.04 KCAL/MOL
REMARK 927      BINDING AFFINITY PREDICTED BY RF-SCORE:    0.00 PKD
ROOT
HETATM    1  C   UNL     1      -8.242   5.382  63.856  1.00  0.00    -0.127 C  
HETATM    2  N   UNL     1      -8.925   5.531  65.136  1.00  0.00    -0.324 NA 
HETATM    3  H   UNL     1      -9.829   5.060  65.120  1.00  0.00     0.000 HD 
ENDROOT
BRANCH   2   4
HETATM    4  C   UNL     1      -8.113   5.075  66.289  1.00  0.00    -0.108 C  
HETATM    5  C   UNL     1      -7.626   6.264  67.134  1.00  0.00    -0.096 C  
BRANCH   4   6
HETATM    6  C   UNL     1      -8.916   4.089  67.205  1.00  0.00    -0.133 C  
HETATM    7  O   UNL     1      -9.892   3.382  66.428  1.00  0.00    -0.414 OA 
HETATM    8  H   UNL     1     -10.378   2.784  66.984  1.00  0.00     0.000 HD 
BRANCH   6   9
HETATM    9  C   UNL     1      -9.639   4.740  68.371  1.00  0.00    -0.210 A  
HETATM   10  C   UNL     1     -10.625   5.710  68.134  1.00  0.00    -0.256 A  
HETATM   11  C   UNL     1     -11.282   6.331  69.197  1.00  0.00    -0.439 A  
HETATM   12  C   UNL     1     -10.962   5.991  70.510  1.00  0.00    -0.388 A  
HETATM   13  C   UNL     1      -9.985   5.032  70.762  1.00  0.00    -0.291 A  
HETATM   14  C   UNL     1      -9.324   4.411  69.699  1.00  0.00    -0.228 A  
ENDBRANCH   6   9
ENDBRANCH   4   6
ENDBRANCH   2   4
TORSDOF 3
ENDMDL
MODEL      219
REMARK 921   NORMALIZED FREE ENERGY PREDICTED BY IDOCK:   -2.29 KCAL/MOL
REMARK 922        TOTAL FREE ENERGY PREDICTED BY IDOCK:   -2.94 KCAL/MOL
REMARK 923 INTER-LIGAND FREE ENERGY PREDICTED BY IDOCK:   -2.91 KCAL/MOL
REMARK 924 INTRA-LIGAND FREE ENERGY PREDICTED BY IDOCK:   -0.03 KCAL/MOL
REMARK 927      BINDING AFFINITY PREDICTED BY RF-SCORE:    0.00 PKD
ROOT
HETATM    1  C   UNL     1     -10.597   5.083  66.098  1.00  0.00    -0.265 C  
HETATM    2  N   UNL     1     -10.381   6.521  66.206  1.00  0.00    -0.436 NA 
HETATM    3  H   UNL     1     -11.249   7.002  66.441  1.00  0.00     0.000 HD 
ENDROOT
BRANCH   2   4
HETATM    4  C   UNL     1      -9.304   6.882  67.159  1.00  0.00    -0.141 C  
HETATM    5  C   UNL     1      -8.173   7.652  66.458  1.00  0.00    -0.125 C  
BRANCH   4   6
HETATM    6  C   UNL     1      -9.852   7.743  68.348  1.00  0.00    -0.168 C  
HETATM    7  O   UNL     1     -11.173   7.310  68.700  1.00  0.00    -0.451 OA 
HETATM    8  H   UNL     1     -11.504   7.832  69.421  1.00  0.00     0.000 HD 
BRANCH   6   9
HETATM    9  C   UNL     1      -9.912   9.237  68.085  1.00  0.00    -0.206 A  
HETATM   10  C   UNL     1     -10.778   9.744  67.104  1.00  0.00    -0.273 A  
HETATM   11  C   UNL     1     -10.828  11.113  66.837  1.00  0.00    -0.333 A  
HETATM   12  C   UNL     1     -10.013  11.992  67.547  1.00  0.00    -0.199 A  
HETATM   13  C   UNL     1      -9.147  11.505  68.523  1.00  0.00    -0.157 A  
HETATM   14  C   UNL     1      -9.093  10.134  68.789  1.00  0.00    -0.153 A  
ENDBRANCH   6   9
ENDBRANCH   4   6
ENDBRANCH   2   4
TORSDOF 3
ENDMDL
MODEL      220
REMARK 921   NORMALIZED FREE ENERGY PREDICTED BY IDOCK:   -2.29 KCAL/MOL
REMARK 922        TOTAL FREE ENERGY PREDICTED BY IDOCK:   -2.94 KCAL/MOL
REMARK 923 INTER-LIGAND FREE ENERGY PREDICTED BY IDOCK:   -2.68 KCAL/MOL
REMARK 924 INTRA-LIGAND FREE ENERGY PREDICTED BY IDOCK:   -0.26 KCAL/MOL
REMARK 927      BINDING AFFINITY PREDICTED BY RF-SCORE:    0.00 PKD
ROOT
HETATM    1  C   UNL     1     -12.351   7.110  71.633  1.00  0.00    -0.362 C  
HETATM    2  N   UNL     1     -12.724   8.391  71.044  1.00  0.00    -0.502 NA 
HETATM    3  H   UNL     1     -13.139   9.004  71.746  1.00  0.00     0.000 HD 
ENDROOT
BRANCH   2   4
HETATM    4  C   UNL     1     -11.602   9.067  70.351  1.00  0.00    -0.117 C  
HETATM    5  C   UNL     1     -11.607  10.580  70.624  1.00  0.00    -0.445 C  
BRANCH   4   6
HETATM    6  C   UNL     1     -10.217   8.472  70.780  1.00  0.00    -0.198 C  
HETATM    7  O   UNL     1      -9.430   9.480  71.429  1.00  0.00    -0.289 OA 
HETATM    8  H   UNL     1      -8.591   9.119  71.689  1.00  0.00     0.000 HD 
BRANCH   6   9
HETATM    9  C   UNL     1      -9.385   7.898  69.646  1.00  0.00    -0.153 A  
HETATM   10  C   UNL     1      -8.565   8.741  68.880  1.00  0.00    -0.136 A  
HETATM   11  C   UNL     1      -7.812   8.231  67.822  1.00  0.00    -0.114 A  
HETATM   12  C   UNL     1      -7.869   6.872  67.515  1.00  0.00    -0.112 A  
HETATM   13  C   UNL     1      -8.680   6.023  68.265  1.00  0.00    -0.113 A  
HETATM   14  C   UNL     1      -9.437   6.533  69.323  1.00  0.00    -0.141 A  
ENDBRANCH   6   9
ENDBRANCH   4   6
ENDBRANCH   2   4
TORSDOF 3
ENDMDL
MODEL      221
REMARK 921   NORMALIZED FREE ENERGY PREDICTED BY IDOCK:   -2.29 KCAL/MOL
REMARK 922        TOTAL FREE ENERGY PREDICTED BY IDOCK:   -2.94 KCAL/MOL
REMARK 923 INTER-LIGAND FREE ENERGY PREDICTED BY IDOCK:   -2.74 KCAL/MOL
REMARK 924 INTRA-LIGAND FREE ENERGY PREDICTED BY IDOCK:   -0.20 KCAL/MOL
REMARK 927      BINDING AFFINITY PREDICTED BY RF-SCORE:    0.00 PKD
ROOT
HETATM    1  C   UNL     1     -10.554   8.976  67.128  1.00  0.00    -0.220 C  
HETATM    2  N   UNL     1     -10.071   7.880  66.296  1.00  0.00    -0.478 NA 
HETATM    3  H   UNL     1      -9.215   8.146  65.807  1.00  0.00     0.000 HD 
ENDROOT
BRANCH   2   4
HETATM    4  C   UNL     1      -9.878   6.616  67.046  1.00  0.00    -0.160 C  
HETATM    5  C   UNL     1     -11.002   6.398  68.072  1.00  0.00    -0.400 C  
BRANCH   4   6
HETATM    6  C   UNL     1      -9.813   5.380  66.085  1.00  0.00    -0.136 C  
HETATM    7  O   UNL     1     -11.117   4.797  65.947  1.00  0.00    -0.738 OA 
HETATM    8  H   UNL     1     -11.077   4.048  65.364  1.00  0.00     0.000 HD 
BRANCH   6   9
HETATM    9  C   UNL     1      -8.861   4.279  66.518  1.00  0.00    -0.116 A  
HETATM   10  C   UNL     1      -9.339   3.189  67.261  1.00  0.00    -0.217 A  
HETATM   11  C   UNL     1      -8.471   2.181  67.684  1.00  0.00    -0.094 A  
HETATM   12  C   UNL     1      -7.114   2.250  67.369  1.00  0.00    -0.051 A  
HETATM   13  C   UNL     1      -6.625   3.327  66.634  1.00  0.00    -0.041 A  
HETATM   14  C   UNL     1      -7.492   4.338  66.213  1.00  0.00    -0.085 A  
ENDBRANCH   6   9
ENDBRANCH   4   6
ENDBRANCH   2   4
TORSDOF 3
ENDMDL
MODEL      222
REMARK 921   NORMALIZED FREE ENERGY PREDICTED BY IDOCK:   -2.27 KCAL/MOL
REMARK 922        TOTAL FREE ENERGY PREDICTED BY IDOCK:   -2.92 KCAL/MOL
REMARK 923 INTER-LIGAND FREE ENERGY PREDICTED BY IDOCK:   -2.80 KCAL/MOL
REMARK 924 INTRA-LIGAND FREE ENERGY PREDICTED BY IDOCK:   -0.12 KCAL/MOL
REMARK 927      BINDING AFFINITY PREDICTED BY RF-SCORE:    0.00 PKD
ROOT
HETATM    1  C   UNL     1      -7.861   9.061  71.532  1.00  0.00     0.020 C  
HETATM    2  N   UNL     1      -8.634   7.862  71.833  1.00  0.00    -0.117 NA 
HETATM    3  H   UNL     1      -8.144   7.275  72.509  1.00  0.00     0.000 HD 
ENDROOT
BRANCH   2   4
HETATM    4  C   UNL     1     -10.013   8.154  72.292  1.00  0.00    -0.263 C  
HETATM    5  C   UNL     1     -10.624   9.330  71.512  1.00  0.00    -0.405 C  
BRANCH   4   6
HETATM    6  C   UNL     1     -10.945   6.902  72.148  1.00  0.00    -0.236 C  
HETATM    7  O   UNL     1     -10.946   6.148  73.368  1.00  0.00    -0.381 OA 
HETATM    8  H   UNL     1     -11.512   5.390  73.281  1.00  0.00     0.000 HD 
BRANCH   6   9
HETATM    9  C   UNL     1     -10.577   5.953  71.022  1.00  0.00    -0.312 A  
HETATM   10  C   UNL     1     -10.928   6.263  69.699  1.00  0.00    -0.440 A  
HETATM   11  C   UNL     1     -10.615   5.390  68.656  1.00  0.00    -0.167 A  
HETATM   12  C   UNL     1      -9.948   4.195  68.922  1.00  0.00     0.029 A  
HETATM   13  C   UNL     1      -9.595   3.872  70.230  1.00  0.00    -0.271 A  
HETATM   14  C   UNL     1      -9.910   4.744  71.276  1.00  0.00    -0.256 A  
ENDBRANCH   6   9
ENDBRANCH   4   6
ENDBRANCH   2   4
TORSDOF 3
ENDMDL
MODEL      223
REMARK 921   NORMALIZED FREE ENERGY PREDICTED BY IDOCK:   -2.22 KCAL/MOL
REMARK 922        TOTAL FREE ENERGY PREDICTED BY IDOCK:   -2.85 KCAL/MOL
REMARK 923 INTER-LIGAND FREE ENERGY PREDICTED BY IDOCK:   -2.57 KCAL/MOL
REMARK 924 INTRA-LIGAND FREE ENERGY PREDICTED BY IDOCK:   -0.29 KCAL/MOL
REMARK 927      BINDING AFFINITY PREDICTED BY RF-SCORE:    0.00 PKD
ROOT
HETATM    1  C   UNL     1     -11.041  10.632  69.453  1.00  0.00    -0.260 C  
HETATM    2  N   UNL     1     -10.306  11.886  69.345  1.00  0.00    -0.408 NA 
HETATM    3  H   UNL     1      -9.695  12.019  70.152  1.00  0.00     0.000 HD 
ENDROOT
BRANCH   2   4
HETATM    4  C   UNL     1      -9.543  12.011  68.081  1.00  0.00    -0.200 C  
HETATM    5  C   UNL     1      -8.433  13.070  68.200  1.00  0.00    -0.176 C  
BRANCH   4   6
HETATM    6  C   UNL     1      -8.905  10.645  67.654  1.00  0.00    -0.131 C  
HETATM    7  O   UNL     1      -7.505  10.638  67.965  1.00  0.00    -0.088 OA 
HETATM    8  H   UNL     1      -7.119   9.810  67.706  1.00  0.00     0.000 HD 
BRANCH   6   9
HETATM    9  C   UNL     1      -9.052  10.299  66.183  1.00  0.00    -0.181 A  
HETATM   10  C   UNL     1      -8.241   9.308  65.610  1.00  0.00    -0.119 A  
HETATM   11  C   UNL     1      -8.351   8.995  64.254  1.00  0.00    -0.179 A  
HETATM   12  C   UNL     1      -9.271   9.670  63.453  1.00  0.00    -0.134 A  
HETATM   13  C   UNL     1     -10.081  10.659  64.007  1.00  0.00    -0.378 A  
HETATM   14  C   UNL     1      -9.971  10.975  65.364  1.00  0.00    -0.313 A  
ENDBRANCH   6   9
ENDBRANCH   4   6
ENDBRANCH   2   4
TORSDOF 3
ENDMDL
MODEL      224
REMARK 921   NORMALIZED FREE ENERGY PREDICTED BY IDOCK:   -2.15 KCAL/MOL
REMARK 922        TOTAL FREE ENERGY PREDICTED BY IDOCK:   -2.78 KCAL/MOL
REMARK 923 INTER-LIGAND FREE ENERGY PREDICTED BY IDOCK:   -2.60 KCAL/MOL
REMARK 924 INTRA-LIGAND FREE ENERGY PREDICTED BY IDOCK:   -0.18 KCAL/MOL
REMARK 927      BINDING AFFINITY PREDICTED BY RF-SCORE:    0.00 PKD
ROOT
HETATM    1  C   UNL     1      -7.567   2.731  65.311  1.00  0.00    -0.076 C  
HETATM    2  N   UNL     1      -7.915   4.029  65.877  1.00  0.00    -0.094 NA 
HETATM    3  H   UNL     1      -7.123   4.669  65.830  1.00  0.00     0.000 HD 
ENDROOT
BRANCH   2   4
HETATM    4  C   UNL     1      -9.118   4.633  65.257  1.00  0.00    -0.151 C  
HETATM    5  C   UNL     1      -9.868   3.615  64.383  1.00  0.00    -0.185 C  
BRANCH   4   6
HETATM    6  C   UNL     1     -10.100   5.202  66.339  1.00  0.00    -0.239 C  
HETATM    7  O   UNL     1     -11.458   5.014  65.917  1.00  0.00    -0.645 OA 
HETATM    8  H   UNL     1     -12.052   5.359  66.573  1.00  0.00     0.000 HD 
BRANCH   6   9
HETATM    9  C   UNL     1      -9.918   6.676  66.659  1.00  0.00    -0.203 A  
HETATM   10  C   UNL     1     -10.685   7.275  67.670  1.00  0.00    -0.294 A  
HETATM   11  C   UNL     1     -10.543   8.632  67.961  1.00  0.00    -0.205 A  
HETATM   12  C   UNL     1      -9.634   9.409  67.244  1.00  0.00    -0.194 A  
HETATM   13  C   UNL     1      -8.867   8.829  66.236  1.00  0.00    -0.187 A  
HETATM   14  C   UNL     1      -9.010   7.471  65.942  1.00  0.00    -0.128 A  
ENDBRANCH   6   9
ENDBRANCH   4   6
ENDBRANCH   2   4
TORSDOF 3
ENDMDL
MODEL      225
REMARK 921   NORMALIZED FREE ENERGY PREDICTED BY IDOCK:   -2.14 KCAL/MOL
REMARK 922        TOTAL FREE ENERGY PREDICTED BY IDOCK:   -2.77 KCAL/MOL
REMARK 923 INTER-LIGAND FREE ENERGY PREDICTED BY IDOCK:   -2.54 KCAL/MOL
REMARK 924 INTRA-LIGAND FREE ENERGY PREDICTED BY IDOCK:   -0.24 KCAL/MOL
REMARK 927      BINDING AFFINITY PREDICTED BY RF-SCORE:    0.00 PKD
ROOT
HETATM    1  C   UNL     1     -11.229   5.216  73.132  1.00  0.00    -0.330 C  
HETATM    2  N   UNL     1     -11.594   6.244  72.165  1.00  0.00    -0.308 NA 
HETATM    3  H   UNL     1     -12.076   7.018  72.623  1.00  0.00     0.000 HD 
ENDROOT
BRANCH   2   4
HETATM    4  C   UNL     1     -10.444   6.737  71.371  1.00  0.00    -0.215 C  
HETATM    5  C   UNL     1      -9.324   5.686  71.299  1.00  0.00    -0.171 C  
BRANCH   4   6
HETATM    6  C   UNL     1     -10.873   7.131  69.916  1.00  0.00    -0.254 C  
HETATM    7  O   UNL     1     -10.724   6.007  69.039  1.00  0.00    -0.258 OA 
HETATM    8  H   UNL     1     -10.984   6.246  68.157  1.00  0.00     0.000 HD 
BRANCH   6   9
HETATM    9  C   UNL     1     -10.104   8.292  69.312  1.00  0.00    -0.199 A  
HETATM   10  C   UNL     1      -9.451   8.137  68.079  1.00  0.00    -0.155 A  
HETATM   11  C   UNL     1      -8.723   9.189  67.522  1.00  0.00    -0.120 A  
HETATM   12  C   UNL     1      -8.636  10.409  68.190  1.00  0.00    -0.125 A  
HETATM   13  C   UNL     1      -9.276  10.578  69.416  1.00  0.00    -0.128 A  
HETATM   14  C   UNL     1     -10.004   9.525  69.976  1.00  0.00    -0.274 A  
ENDBRANCH   6   9
ENDBRANCH   4   6
ENDBRANCH   2   4
TORSDOF 3
ENDMDL
MODEL      226
REMARK 921   NORMALIZED FREE ENERGY PREDICTED BY IDOCK:   -2.14 KCAL/MOL
REMARK 922        TOTAL FREE ENERGY PREDICTED BY IDOCK:   -2.77 KCAL/MOL
REMARK 923 INTER-LIGAND FREE ENERGY PREDICTED BY IDOCK:   -2.59 KCAL/MOL
REMARK 924 INTRA-LIGAND FREE ENERGY PREDICTED BY IDOCK:   -0.18 KCAL/MOL
REMARK 927      BINDING AFFINITY PREDICTED BY RF-SCORE:    0.00 PKD
ROOT
HETATM    1  C   UNL     1     -11.150  14.563  66.587  1.00  0.00    -0.333 C  
HETATM    2  N   UNL     1     -10.173  13.487  66.474  1.00  0.00    -0.277 NA 
HETATM    3  H   UNL     1      -9.793  13.245  67.390  1.00  0.00     0.000 HD 
ENDROOT
BRANCH   2   4
HETATM    4  C   UNL     1     -10.702  12.284  65.789  1.00  0.00    -0.263 C  
HETATM    5  C   UNL     1     -11.754  12.660  64.733  1.00  0.00    -0.402 C  
BRANCH   4   6
HETATM    6  C   UNL     1      -9.558  11.460  65.104  1.00  0.00    -0.229 C  
HETATM    7  O   UNL     1     -10.117  10.542  64.155  1.00  0.00    -0.338 OA 
HETATM    8  H   UNL     1      -9.423  10.043  63.740  1.00  0.00     0.000 HD 
BRANCH   6   9
HETATM    9  C   UNL     1      -8.683  10.663  66.055  1.00  0.00    -0.186 A  
HETATM   10  C   UNL     1      -7.286  10.700  65.923  1.00  0.00    -0.128 A  
HETATM   11  C   UNL     1      -6.471   9.956  66.777  1.00  0.00    -0.070 A  
HETATM   12  C   UNL     1      -7.040   9.165  67.772  1.00  0.00    -0.079 A  
HETATM   13  C   UNL     1      -8.425   9.116  67.915  1.00  0.00    -0.117 A  
HETATM   14  C   UNL     1      -9.243   9.858  67.060  1.00  0.00    -0.164 A  
ENDBRANCH   6   9
ENDBRANCH   4   6
ENDBRANCH   2   4
TORSDOF 3
ENDMDL
MODEL      227
REMARK 921   NORMALIZED FREE ENERGY PREDICTED BY IDOCK:   -2.14 KCAL/MOL
REMARK 922        TOTAL FREE ENERGY PREDICTED BY IDOCK:   -2.76 KCAL/MOL
REMARK 923 INTER-LIGAND FREE ENERGY PREDICTED BY IDOCK:   -2.55 KCAL/MOL
REMARK 924 INTRA-LIGAND FREE ENERGY PREDICTED BY IDOCK:   -0.21 KCAL/MOL
REMARK 927      BINDING AFFINITY PREDICTED BY RF-SCORE:    0.00 PKD
ROOT
HETATM    1  C   UNL     1      -9.021  18.080  68.067  1.00  0.00    -0.272 C  
HETATM    2  N   UNL     1      -8.740  16.823  68.748  1.00  0.00    -0.261 NA 
HETATM    3  H   UNL     1      -9.260  16.760  69.624  1.00  0.00     0.000 HD 
ENDROOT
BRANCH   2   4
HETATM    4  C   UNL     1      -8.987  15.630  67.903  1.00  0.00    -0.180 C  
HETATM    5  C   UNL     1      -8.871  15.971  66.408  1.00  0.00    -0.363 C  
BRANCH   4   6
HETATM    6  C   UNL     1      -7.994  14.466  68.243  1.00  0.00    -0.140 C  
HETATM    7  O   UNL     1      -7.033  14.318  67.189  1.00  0.00    -0.379 OA 
HETATM    8  H   UNL     1      -6.431  13.612  67.396  1.00  0.00     0.000 HD 
BRANCH   6   9
HETATM    9  C   UNL     1      -8.644  13.112  68.466  1.00  0.00    -0.056 A  
HETATM   10  C   UNL     1     -10.042  13.005  68.528  1.00  0.00    -0.195 A  
HETATM   11  C   UNL     1     -10.652  11.770  68.754  1.00  0.00    -0.234 A  
HETATM   12  C   UNL     1      -9.873  10.627  68.922  1.00  0.00    -0.210 A  
HETATM   13  C   UNL     1      -8.484  10.717  68.865  1.00  0.00    -0.154 A  
HETATM   14  C   UNL     1      -7.872  11.953  68.642  1.00  0.00    -0.104 A  
ENDBRANCH   6   9
ENDBRANCH   4   6
ENDBRANCH   2   4
TORSDOF 3
ENDMDL
MODEL      228
REMARK 921   NORMALIZED FREE ENERGY PREDICTED BY IDOCK:   -2.10 KCAL/MOL
REMARK 922        TOTAL FREE ENERGY PREDICTED BY IDOCK:   -2.71 KCAL/MOL
REMARK 923 INTER-LIGAND FREE ENERGY PREDICTED BY IDOCK:   -2.63 KCAL/MOL
REMARK 924 INTRA-LIGAND FREE ENERGY PREDICTED BY IDOCK:   -0.09 KCAL/MOL
REMARK 927      BINDING AFFINITY PREDICTED BY RF-SCORE:    0.00 PKD
ROOT
HETATM    1  C   UNL     1     -10.830  12.333  63.443  1.00  0.00    -0.403 C  
HETATM    2  N   UNL     1      -9.900  12.508  64.552  1.00  0.00    -0.530 NA 
HETATM    3  H   UNL     1     -10.120  13.353  65.080  1.00  0.00     0.000 HD 
ENDROOT
BRANCH   2   4
HETATM    4  C   UNL     1      -9.829  11.330  65.449  1.00  0.00    -0.237 C  
HETATM    5  C   UNL     1      -8.512  10.559  65.255  1.00  0.00    -0.175 C  
BRANCH   4   6
HETATM    6  C   UNL     1      -9.966  11.742  66.954  1.00  0.00    -0.199 C  
HETATM    7  O   UNL     1     -10.872  12.847  67.080  1.00  0.00    -0.255 OA 
HETATM    8  H   UNL     1     -10.955  13.096  67.993  1.00  0.00     0.000 HD 
BRANCH   6   9
HETATM    9  C   UNL     1      -8.666  12.135  67.634  1.00  0.00    -0.172 A  
HETATM   10  C   UNL     1      -8.088  13.387  67.375  1.00  0.00    -0.178 A  
HETATM   11  C   UNL     1      -6.882  13.751  67.977  1.00  0.00    -0.140 A  
HETATM   12  C   UNL     1      -6.239  12.869  68.843  1.00  0.00    -0.085 A  
HETATM   13  C   UNL     1      -6.799  11.622  69.109  1.00  0.00    -0.111 A  
HETATM   14  C   UNL     1      -8.005  11.254  68.505  1.00  0.00    -0.145 A  
ENDBRANCH   6   9
ENDBRANCH   4   6
ENDBRANCH   2   4
TORSDOF 3
ENDMDL
MODEL      229
REMARK 921   NORMALIZED FREE ENERGY PREDICTED BY IDOCK:   -2.08 KCAL/MOL
REMARK 922        TOTAL FREE ENERGY PREDICTED BY IDOCK:   -2.70 KCAL/MOL
REMARK 923 INTER-LIGAND FREE ENERGY PREDICTED BY IDOCK:   -2.62 KCAL/MOL
REMARK 924 INTRA-LIGAND FREE ENERGY PREDICTED BY IDOCK:   -0.08 KCAL/MOL
REMARK 927      BINDING AFFINITY PREDICTED BY RF-SCORE:    0.00 PKD
ROOT
HETATM    1  C   UNL     1      -8.359   5.790  62.675  1.00  0.00    -0.070 C  
HETATM    2  N   UNL     1      -9.196   5.088  63.640  1.00  0.00    -0.350 NA 
HETATM    3  H   UNL     1     -10.022   4.696  63.187  1.00  0.00     0.000 HD 
ENDROOT
BRANCH   2   4
HETATM    4  C   UNL     1      -8.467   4.044  64.399  1.00  0.00    -0.105 C  
HETATM    5  C   UNL     1      -6.958   4.090  64.102  1.00  0.00    -0.046 C  
BRANCH   4   6
HETATM    6  C   UNL     1      -8.691   4.191  65.943  1.00  0.00    -0.115 C  
HETATM    7  O   UNL     1      -9.622   3.200  66.400  1.00  0.00    -0.383 OA 
HETATM    8  H   UNL     1      -9.757   3.290  67.336  1.00  0.00     0.000 HD 
BRANCH   6   9
HETATM    9  C   UNL     1      -9.206   5.547  66.391  1.00  0.00    -0.155 A  
HETATM   10  C   UNL     1     -10.523   5.680  66.858  1.00  0.00    -0.349 A  
HETATM   11  C   UNL     1     -11.015   6.925  67.253  1.00  0.00    -0.406 A  
HETATM   12  C   UNL     1     -10.199   8.052  67.186  1.00  0.00    -0.362 A  
HETATM   13  C   UNL     1      -8.890   7.937  66.723  1.00  0.00    -0.154 A  
HETATM   14  C   UNL     1      -8.396   6.693  66.325  1.00  0.00    -0.125 A  
ENDBRANCH   6   9
ENDBRANCH   4   6
ENDBRANCH   2   4
TORSDOF 3
ENDMDL
MODEL      230
REMARK 921   NORMALIZED FREE ENERGY PREDICTED BY IDOCK:   -2.08 KCAL/MOL
REMARK 922        TOTAL FREE ENERGY PREDICTED BY IDOCK:   -2.70 KCAL/MOL
REMARK 923 INTER-LIGAND FREE ENERGY PREDICTED BY IDOCK:   -2.50 KCAL/MOL
REMARK 924 INTRA-LIGAND FREE ENERGY PREDICTED BY IDOCK:   -0.19 KCAL/MOL
REMARK 927      BINDING AFFINITY PREDICTED BY RF-SCORE:    0.00 PKD
ROOT
HETATM    1  C   UNL     1      -9.353   4.208  68.964  1.00  0.00    -0.165 C  
HETATM    2  N   UNL     1     -10.053   5.375  68.443  1.00  0.00    -0.172 NA 
HETATM    3  H   UNL     1     -10.818   5.095  67.829  1.00  0.00     0.000 HD 
ENDROOT
BRANCH   2   4
HETATM    4  C   UNL     1     -10.538   6.290  69.503  1.00  0.00    -0.271 C  
HETATM    5  C   UNL     1     -10.792   5.535  70.819  1.00  0.00    -0.249 C  
BRANCH   4   6
HETATM    6  C   UNL     1      -9.524   7.456  69.768  1.00  0.00    -0.159 C  
HETATM    7  O   UNL     1      -9.190   7.508  71.162  1.00  0.00    -0.147 OA 
HETATM    8  H   UNL     1      -8.575   8.215  71.321  1.00  0.00     0.000 HD 
BRANCH   6   9
HETATM    9  C   UNL     1     -10.011   8.835  69.359  1.00  0.00    -0.196 A  
HETATM   10  C   UNL     1      -9.301   9.575  68.401  1.00  0.00    -0.137 A  
HETATM   11  C   UNL     1      -9.725  10.852  68.032  1.00  0.00    -0.176 A  
HETATM   12  C   UNL     1     -10.863  11.407  68.617  1.00  0.00    -0.249 A  
HETATM   13  C   UNL     1     -11.577  10.686  69.571  1.00  0.00    -0.360 A  
HETATM   14  C   UNL     1     -11.152   9.408  69.944  1.00  0.00    -0.223 A  
ENDBRANCH   6   9
ENDBRANCH   4   6
ENDBRANCH   2   4
TORSDOF 3
ENDMDL
MODEL      231
REMARK 921   NORMALIZED FREE ENERGY PREDICTED BY IDOCK:   -2.07 KCAL/MOL
REMARK 922        TOTAL FREE ENERGY PREDICTED BY IDOCK:   -2.69 KCAL/MOL
REMARK 923 INTER-LIGAND FREE ENERGY PREDICTED BY IDOCK:   -2.63 KCAL/MOL
REMARK 924 INTRA-LIGAND FREE ENERGY PREDICTED BY IDOCK:   -0.05 KCAL/MOL
REMARK 927      BINDING AFFINITY PREDICTED BY RF-SCORE:    0.00 PKD
ROOT
HETATM    1  C   UNL     1     -11.775   6.181  71.875  1.00  0.00    -0.279 C  
HETATM    2  N   UNL     1     -11.374   6.906  70.676  1.00  0.00    -0.301 NA 
HETATM    3  H   UNL     1     -11.830   7.818  70.635  1.00  0.00     0.000 HD 
ENDROOT
BRANCH   2   4
HETATM    4  C   UNL     1      -9.905   7.046  70.540  1.00  0.00    -0.179 C  
HETATM    5  C   UNL     1      -9.411   6.477  69.199  1.00  0.00    -0.133 C  
BRANCH   4   6
HETATM    6  C   UNL     1      -9.454   8.542  70.661  1.00  0.00    -0.174 C  
HETATM    7  O   UNL     1     -10.232   9.210  71.664  1.00  0.00    -0.336 OA 
HETATM    8  H   UNL     1      -9.957  10.117  71.736  1.00  0.00     0.000 HD 
BRANCH   6   9
HETATM    9  C   UNL     1      -9.562   9.351  69.380  1.00  0.00    -0.177 A  
HETATM   10  C   UNL     1     -10.817   9.787  68.928  1.00  0.00    -0.220 A  
HETATM   11  C   UNL     1     -10.934  10.513  67.742  1.00  0.00    -0.372 A  
HETATM   12  C   UNL     1      -9.798  10.811  66.992  1.00  0.00    -0.221 A  
HETATM   13  C   UNL     1      -8.545  10.384  67.425  1.00  0.00    -0.125 A  
HETATM   14  C   UNL     1      -8.427   9.655  68.611  1.00  0.00    -0.119 A  
ENDBRANCH   6   9
ENDBRANCH   4   6
ENDBRANCH   2   4
TORSDOF 3
ENDMDL
MODEL      232
REMARK 921   NORMALIZED FREE ENERGY PREDICTED BY IDOCK:   -2.05 KCAL/MOL
REMARK 922        TOTAL FREE ENERGY PREDICTED BY IDOCK:   -2.66 KCAL/MOL
REMARK 923 INTER-LIGAND FREE ENERGY PREDICTED BY IDOCK:   -2.60 KCAL/MOL
REMARK 924 INTRA-LIGAND FREE ENERGY PREDICTED BY IDOCK:   -0.06 KCAL/MOL
REMARK 927      BINDING AFFINITY PREDICTED BY RF-SCORE:    0.00 PKD
ROOT
HETATM    1  C   UNL     1     -11.808   6.234  71.894  1.00  0.00    -0.305 C  
HETATM    2  N   UNL     1     -11.596   7.196  70.820  1.00  0.00    -0.307 NA 
HETATM    3  H   UNL     1     -12.148   8.040  70.974  1.00  0.00     0.000 HD 
ENDROOT
BRANCH   2   4
HETATM    4  C   UNL     1     -10.169   7.533  70.608  1.00  0.00    -0.202 C  
HETATM    5  C   UNL     1      -9.281   6.280  70.692  1.00  0.00    -0.164 C  
BRANCH   4   6
HETATM    6  C   UNL     1      -9.940   8.232  69.224  1.00  0.00    -0.192 C  
HETATM    7  O   UNL     1     -11.008   9.151  68.956  1.00  0.00    -0.408 OA 
HETATM    8  H   UNL     1     -10.868   9.574  68.117  1.00  0.00     0.000 HD 
BRANCH   6   9
HETATM    9  C   UNL     1      -9.835   7.289  68.038  1.00  0.00    -0.167 A  
HETATM   10  C   UNL     1     -10.991   6.695  67.508  1.00  0.00    -0.416 A  
HETATM   11  C   UNL     1     -10.907   5.810  66.432  1.00  0.00    -0.141 A  
HETATM   12  C   UNL     1      -9.667   5.508  65.872  1.00  0.00    -0.058 A  
HETATM   13  C   UNL     1      -8.510   6.088  66.387  1.00  0.00    -0.118 A  
HETATM   14  C   UNL     1      -8.592   6.972  67.467  1.00  0.00    -0.121 A  
ENDBRANCH   6   9
ENDBRANCH   4   6
ENDBRANCH   2   4
TORSDOF 3
ENDMDL
MODEL      233
REMARK 921   NORMALIZED FREE ENERGY PREDICTED BY IDOCK:   -2.05 KCAL/MOL
REMARK 922        TOTAL FREE ENERGY PREDICTED BY IDOCK:   -2.66 KCAL/MOL
REMARK 923 INTER-LIGAND FREE ENERGY PREDICTED BY IDOCK:   -2.62 KCAL/MOL
REMARK 924 INTRA-LIGAND FREE ENERGY PREDICTED BY IDOCK:   -0.04 KCAL/MOL
REMARK 927      BINDING AFFINITY PREDICTED BY RF-SCORE:    0.00 PKD
ROOT
HETATM    1  C   UNL     1     -11.989   6.747  72.141  1.00  0.00    -0.273 C  
HETATM    2  N   UNL     1     -11.666   7.204  70.794  1.00  0.00    -0.324 NA 
HETATM    3  H   UNL     1     -11.045   8.012  70.825  1.00  0.00     0.000 HD 
ENDROOT
BRANCH   2   4
HETATM    4  C   UNL     1     -11.101   6.137  69.934  1.00  0.00    -0.410 C  
HETATM    5  C   UNL     1     -11.144   6.535  68.449  1.00  0.00    -0.340 C  
BRANCH   4   6
HETATM    6  C   UNL     1      -9.623   5.798  70.332  1.00  0.00    -0.168 C  
HETATM    7  O   UNL     1      -8.837   5.575  69.154  1.00  0.00    -0.102 OA 
HETATM    8  H   UNL     1      -7.941   5.369  69.396  1.00  0.00     0.000 HD 
BRANCH   6   9
HETATM    9  C   UNL     1      -9.462   4.584  71.230  1.00  0.00    -0.222 A  
HETATM   10  C   UNL     1      -9.623   3.293  70.702  1.00  0.00    -0.223 A  
HETATM   11  C   UNL     1      -9.499   2.169  71.520  1.00  0.00    -0.202 A  
HETATM   12  C   UNL     1      -9.213   2.321  72.876  1.00  0.00    -0.105 A  
HETATM   13  C   UNL     1      -9.053   3.595  73.415  1.00  0.00    -0.109 A  
HETATM   14  C   UNL     1      -9.180   4.721  72.598  1.00  0.00    -0.143 A  
ENDBRANCH   6   9
ENDBRANCH   4   6
ENDBRANCH   2   4
TORSDOF 3
ENDMDL
MODEL      234
REMARK 921   NORMALIZED FREE ENERGY PREDICTED BY IDOCK:   -2.05 KCAL/MOL
REMARK 922        TOTAL FREE ENERGY PREDICTED BY IDOCK:   -2.66 KCAL/MOL
REMARK 923 INTER-LIGAND FREE ENERGY PREDICTED BY IDOCK:   -2.42 KCAL/MOL
REMARK 924 INTRA-LIGAND FREE ENERGY PREDICTED BY IDOCK:   -0.24 KCAL/MOL
REMARK 927      BINDING AFFINITY PREDICTED BY RF-SCORE:    0.00 PKD
ROOT
HETATM    1  C   UNL     1      -8.353   6.486  71.343  1.00  0.00    -0.125 C  
HETATM    2  N   UNL     1      -8.079   5.937  70.020  1.00  0.00    -0.107 NA 
HETATM    3  H   UNL     1      -7.926   4.930  70.070  1.00  0.00     0.000 HD 
ENDROOT
BRANCH   2   4
HETATM    4  C   UNL     1      -9.126   6.262  69.023  1.00  0.00    -0.129 C  
HETATM    5  C   UNL     1      -9.830   4.991  68.518  1.00  0.00    -0.216 C  
BRANCH   4   6
HETATM    6  C   UNL     1     -10.198   7.243  69.610  1.00  0.00    -0.211 C  
HETATM    7  O   UNL     1     -11.516   6.731  69.370  1.00  0.00    -0.551 OA 
HETATM    8  H   UNL     1     -12.165   7.326  69.726  1.00  0.00     0.000 HD 
BRANCH   6   9
HETATM    9  C   UNL     1     -10.146   8.656  69.057  1.00  0.00    -0.207 A  
HETATM   10  C   UNL     1     -10.998   9.033  68.007  1.00  0.00     0.002 A  
HETATM   11  C   UNL     1     -10.946  10.322  67.476  1.00  0.00    -0.344 A  
HETATM   12  C   UNL     1     -10.041  11.251  67.986  1.00  0.00    -0.192 A  
HETATM   13  C   UNL     1      -9.187  10.893  69.026  1.00  0.00    -0.128 A  
HETATM   14  C   UNL     1      -9.236   9.602  69.558  1.00  0.00    -0.214 A  
ENDBRANCH   6   9
ENDBRANCH   4   6
ENDBRANCH   2   4
TORSDOF 3
ENDMDL
MODEL      235
REMARK 921   NORMALIZED FREE ENERGY PREDICTED BY IDOCK:   -2.05 KCAL/MOL
REMARK 922        TOTAL FREE ENERGY PREDICTED BY IDOCK:   -2.66 KCAL/MOL
REMARK 923 INTER-LIGAND FREE ENERGY PREDICTED BY IDOCK:   -2.56 KCAL/MOL
REMARK 924 INTRA-LIGAND FREE ENERGY PREDICTED BY IDOCK:   -0.09 KCAL/MOL
REMARK 927      BINDING AFFINITY PREDICTED BY RF-SCORE:    0.00 PKD
ROOT
HETATM    1  C   UNL     1      -5.654   5.668  73.507  1.00  0.00    -0.028 C  
HETATM    2  N   UNL     1      -6.889   6.122  72.879  1.00  0.00    -0.074 NA 
HETATM    3  H   UNL     1      -7.375   5.344  72.432  1.00  0.00     0.000 HD 
ENDROOT
BRANCH   2   4
HETATM    4  C   UNL     1      -7.790   6.839  73.811  1.00  0.00    -0.097 C  
HETATM    5  C   UNL     1      -7.985   8.304  73.384  1.00  0.00    -0.215 C  
BRANCH   4   6
HETATM    6  C   UNL     1      -9.191   6.143  73.911  1.00  0.00    -0.131 C  
HETATM    7  O   UNL     1      -9.027   4.720  73.990  1.00  0.00    -0.113 OA 
HETATM    8  H   UNL     1      -9.876   4.299  74.050  1.00  0.00     0.000 HD 
BRANCH   6   9
HETATM    9  C   UNL     1     -10.136   6.433  72.758  1.00  0.00    -0.195 A  
HETATM   10  C   UNL     1     -11.181   7.355  72.921  1.00  0.00    -0.368 A  
HETATM   11  C   UNL     1     -12.070   7.616  71.877  1.00  0.00    -0.333 A  
HETATM   12  C   UNL     1     -11.925   6.958  70.656  1.00  0.00    -0.400 A  
HETATM   13  C   UNL     1     -10.894   6.039  70.479  1.00  0.00    -0.382 A  
HETATM   14  C   UNL     1     -10.005   5.774  71.525  1.00  0.00    -0.226 A  
ENDBRANCH   6   9
ENDBRANCH   4   6
ENDBRANCH   2   4
TORSDOF 3
ENDMDL
MODEL      236
REMARK 921   NORMALIZED FREE ENERGY PREDICTED BY IDOCK:   -2.02 KCAL/MOL
REMARK 922        TOTAL FREE ENERGY PREDICTED BY IDOCK:   -2.63 KCAL/MOL
REMARK 923 INTER-LIGAND FREE ENERGY PREDICTED BY IDOCK:   -2.44 KCAL/MOL
REMARK 924 INTRA-LIGAND FREE ENERGY PREDICTED BY IDOCK:   -0.19 KCAL/MOL
REMARK 927      BINDING AFFINITY PREDICTED BY RF-SCORE:    0.00 PKD
ROOT
HETATM    1  C   UNL     1     -10.470   5.523  69.754  1.00  0.00    -0.319 C  
HETATM    2  N   UNL     1     -10.018   6.834  69.304  1.00  0.00    -0.158 NA 
HETATM    3  H   UNL     1      -9.980   6.875  68.286  1.00  0.00     0.000 HD 
ENDROOT
BRANCH   2   4
HETATM    4  C   UNL     1     -10.830   7.950  69.846  1.00  0.00    -0.221 C  
HETATM    5  C   UNL     1     -11.711   7.484  71.017  1.00  0.00    -0.317 C  
BRANCH   4   6
HETATM    6  C   UNL     1      -9.928   9.140  70.324  1.00  0.00    -0.208 C  
HETATM    7  O   UNL     1     -10.717  10.092  71.051  1.00  0.00    -0.323 OA 
HETATM    8  H   UNL     1     -10.170  10.812  71.341  1.00  0.00     0.000 HD 
BRANCH   6   9
HETATM    9  C   UNL     1      -9.211   9.889  69.214  1.00  0.00    -0.207 A  
HETATM   10  C   UNL     1      -9.950  10.593  68.250  1.00  0.00    -0.173 A  
HETATM   11  C   UNL     1      -9.304  11.268  67.213  1.00  0.00    -0.173 A  
HETATM   12  C   UNL     1      -7.913  11.247  67.125  1.00  0.00    -0.151 A  
HETATM   13  C   UNL     1      -7.166  10.551  68.073  1.00  0.00    -0.087 A  
HETATM   14  C   UNL     1      -7.811   9.873  69.110  1.00  0.00    -0.105 A  
ENDBRANCH   6   9
ENDBRANCH   4   6
ENDBRANCH   2   4
TORSDOF 3
ENDMDL
MODEL      237
REMARK 921   NORMALIZED FREE ENERGY PREDICTED BY IDOCK:   -2.02 KCAL/MOL
REMARK 922        TOTAL FREE ENERGY PREDICTED BY IDOCK:   -2.62 KCAL/MOL
REMARK 923 INTER-LIGAND FREE ENERGY PREDICTED BY IDOCK:   -2.35 KCAL/MOL
REMARK 924 INTRA-LIGAND FREE ENERGY PREDICTED BY IDOCK:   -0.27 KCAL/MOL
REMARK 927      BINDING AFFINITY PREDICTED BY RF-SCORE:    0.00 PKD
ROOT
HETATM    1  C   UNL     1      -9.426   4.029  66.346  1.00  0.00    -0.191 C  
HETATM    2  N   UNL     1     -10.645   4.711  66.764  1.00  0.00    -0.236 NA 
HETATM    3  H   UNL     1     -11.300   4.055  67.190  1.00  0.00     0.000 HD 
ENDROOT
BRANCH   2   4
HETATM    4  C   UNL     1     -10.393   5.862  67.664  1.00  0.00    -0.212 C  
HETATM    5  C   UNL     1     -10.606   5.476  69.138  1.00  0.00    -0.300 C  
BRANCH   4   6
HETATM    6  C   UNL     1      -8.942   6.426  67.486  1.00  0.00    -0.116 C  
HETATM    7  O   UNL     1      -8.281   6.492  68.758  1.00  0.00    -0.116 OA 
HETATM    8  H   UNL     1      -7.402   6.834  68.649  1.00  0.00     0.000 HD 
BRANCH   6   9
HETATM    9  C   UNL     1      -8.862   7.805  66.855  1.00  0.00    -0.143 A  
HETATM   10  C   UNL     1     -10.036   8.477  66.484  1.00  0.00    -0.328 A  
HETATM   11  C   UNL     1      -9.977   9.736  65.883  1.00  0.00    -0.345 A  
HETATM   12  C   UNL     1      -8.742  10.338  65.645  1.00  0.00    -0.176 A  
HETATM   13  C   UNL     1      -7.567   9.683  66.005  1.00  0.00    -0.102 A  
HETATM   14  C   UNL     1      -7.625   8.421  66.604  1.00  0.00    -0.089 A  
ENDBRANCH   6   9
ENDBRANCH   4   6
ENDBRANCH   2   4
TORSDOF 3
ENDMDL
MODEL      238
REMARK 921   NORMALIZED FREE ENERGY PREDICTED BY IDOCK:   -2.01 KCAL/MOL
REMARK 922        TOTAL FREE ENERGY PREDICTED BY IDOCK:   -2.61 KCAL/MOL
REMARK 923 INTER-LIGAND FREE ENERGY PREDICTED BY IDOCK:   -2.37 KCAL/MOL
REMARK 924 INTRA-LIGAND FREE ENERGY PREDICTED BY IDOCK:   -0.24 KCAL/MOL
REMARK 927      BINDING AFFINITY PREDICTED BY RF-SCORE:    0.00 PKD
ROOT
HETATM    1  C   UNL     1     -10.037  11.056  68.577  1.00  0.00    -0.190 C  
HETATM    2  N   UNL     1     -11.131  10.334  69.216  1.00  0.00    -0.237 NA 
HETATM    3  H   UNL     1     -11.835  10.061  68.530  1.00  0.00     0.000 HD 
ENDROOT
BRANCH   2   4
HETATM    4  C   UNL     1     -10.679   9.161  70.001  1.00  0.00    -0.232 C  
HETATM    5  C   UNL     1     -11.135   9.261  71.467  1.00  0.00    -0.443 C  
BRANCH   4   6
HETATM    6  C   UNL     1     -11.207   7.819  69.389  1.00  0.00     0.169 C  
HETATM    7  O   UNL     1     -11.891   7.057  70.394  1.00  0.00    -0.477 OA 
HETATM    8  H   UNL     1     -12.211   6.244  70.022  1.00  0.00     0.000 HD 
BRANCH   6   9
HETATM    9  C   UNL     1     -10.140   6.926  68.782  1.00  0.00    -0.168 A  
HETATM   10  C   UNL     1      -9.087   7.490  68.045  1.00  0.00    -0.131 A  
HETATM   11  C   UNL     1      -8.111   6.680  67.464  1.00  0.00    -0.118 A  
HETATM   12  C   UNL     1      -8.175   5.295  67.610  1.00  0.00    -0.099 A  
HETATM   13  C   UNL     1      -9.215   4.719  68.336  1.00  0.00    -0.162 A  
HETATM   14  C   UNL     1     -10.195   5.529  68.917  1.00  0.00    -0.284 A  
ENDBRANCH   6   9
ENDBRANCH   4   6
ENDBRANCH   2   4
TORSDOF 3
ENDMDL
MODEL      239
REMARK 921   NORMALIZED FREE ENERGY PREDICTED BY IDOCK:   -2.01 KCAL/MOL
REMARK 922        TOTAL FREE ENERGY PREDICTED BY IDOCK:   -2.61 KCAL/MOL
REMARK 923 INTER-LIGAND FREE ENERGY PREDICTED BY IDOCK:   -2.41 KCAL/MOL
REMARK 924 INTRA-LIGAND FREE ENERGY PREDICTED BY IDOCK:   -0.21 KCAL/MOL
REMARK 927      BINDING AFFINITY PREDICTED BY RF-SCORE:    0.00 PKD
ROOT
HETATM    1  C   UNL     1      -5.977   8.845  68.710  1.00  0.00    -0.044 C  
HETATM    2  N   UNL     1      -6.229   7.411  68.781  1.00  0.00    -0.030 NA 
HETATM    3  H   UNL     1      -5.661   6.979  69.510  1.00  0.00     0.000 HD 
ENDROOT
BRANCH   2   4
HETATM    4  C   UNL     1      -7.662   7.077  68.962  1.00  0.00    -0.109 C  
HETATM    5  C   UNL     1      -7.991   5.693  68.377  1.00  0.00    -0.100 C  
BRANCH   4   6
HETATM    6  C   UNL     1      -8.075   7.106  70.474  1.00  0.00    -0.113 C  
HETATM    7  O   UNL     1      -7.968   5.792  71.037  1.00  0.00    -0.110 OA 
HETATM    8  H   UNL     1      -8.219   5.810  71.953  1.00  0.00     0.000 HD 
BRANCH   6   9
HETATM    9  C   UNL     1      -9.481   7.611  70.746  1.00  0.00    -0.162 A  
HETATM   10  C   UNL     1      -9.699   8.969  71.023  1.00  0.00    -0.348 A  
HETATM   11  C   UNL     1     -10.983   9.443  71.296  1.00  0.00    -0.440 A  
HETATM   12  C   UNL     1     -12.065   8.565  71.296  1.00  0.00    -0.323 A  
HETATM   13  C   UNL     1     -11.866   7.213  71.024  1.00  0.00    -0.373 A  
HETATM   14  C   UNL     1     -10.580   6.737  70.753  1.00  0.00    -0.254 A  
ENDBRANCH   6   9
ENDBRANCH   4   6
ENDBRANCH   2   4
TORSDOF 3
ENDMDL
MODEL      240
REMARK 921   NORMALIZED FREE ENERGY PREDICTED BY IDOCK:   -1.99 KCAL/MOL
REMARK 922        TOTAL FREE ENERGY PREDICTED BY IDOCK:   -2.59 KCAL/MOL
REMARK 923 INTER-LIGAND FREE ENERGY PREDICTED BY IDOCK:   -2.38 KCAL/MOL
REMARK 924 INTRA-LIGAND FREE ENERGY PREDICTED BY IDOCK:   -0.21 KCAL/MOL
REMARK 927      BINDING AFFINITY PREDICTED BY RF-SCORE:    0.00 PKD
ROOT
HETATM    1  C   UNL     1      -9.013   8.592  65.870  1.00  0.00    -0.200 C  
HETATM    2  N   UNL     1      -9.258   7.206  65.491  1.00  0.00    -0.355 NA 
HETATM    3  H   UNL     1      -8.471   6.830  64.961  1.00  0.00     0.000 HD 
ENDROOT
BRANCH   2   4
HETATM    4  C   UNL     1      -9.581   6.332  66.644  1.00  0.00    -0.157 C  
HETATM    5  C   UNL     1     -11.053   6.479  67.062  1.00  0.00    -0.411 C  
BRANCH   4   6
HETATM    6  C   UNL     1      -9.285   4.826  66.327  1.00  0.00    -0.141 C  
HETATM    7  O   UNL     1     -10.488   4.167  65.910  1.00  0.00    -0.457 OA 
HETATM    8  H   UNL     1     -10.308   3.254  65.718  1.00  0.00     0.000 HD 
BRANCH   6   9
HETATM    9  C   UNL     1      -8.700   4.030  67.481  1.00  0.00    -0.116 A  
HETATM   10  C   UNL     1      -7.355   4.199  67.842  1.00  0.00    -0.068 A  
HETATM   11  C   UNL     1      -6.800   3.458  68.886  1.00  0.00    -0.045 A  
HETATM   12  C   UNL     1      -7.581   2.538  69.582  1.00  0.00    -0.043 A  
HETATM   13  C   UNL     1      -8.918   2.356  69.234  1.00  0.00    -0.167 A  
HETATM   14  C   UNL     1      -9.475   3.095  68.187  1.00  0.00    -0.217 A  
ENDBRANCH   6   9
ENDBRANCH   4   6
ENDBRANCH   2   4
TORSDOF 3
ENDMDL
MODEL      241
REMARK 921   NORMALIZED FREE ENERGY PREDICTED BY IDOCK:   -1.96 KCAL/MOL
REMARK 922        TOTAL FREE ENERGY PREDICTED BY IDOCK:   -2.56 KCAL/MOL
REMARK 923 INTER-LIGAND FREE ENERGY PREDICTED BY IDOCK:   -2.30 KCAL/MOL
REMARK 924 INTRA-LIGAND FREE ENERGY PREDICTED BY IDOCK:   -0.26 KCAL/MOL
REMARK 927      BINDING AFFINITY PREDICTED BY RF-SCORE:    0.00 PKD
ROOT
HETATM    1  C   UNL     1      -6.769  12.646  69.566  1.00  0.00     0.027 C  
HETATM    2  N   UNL     1      -7.956  13.228  68.953  1.00  0.00    -0.335 NA 
HETATM    3  H   UNL     1      -7.699  13.910  68.239  1.00  0.00     0.000 HD 
ENDROOT
BRANCH   2   4
HETATM    4  C   UNL     1      -8.888  12.216  68.403  1.00  0.00    -0.143 C  
HETATM    5  C   UNL     1     -10.053  12.879  67.648  1.00  0.00    -0.221 C  
BRANCH   4   6
HETATM    6  C   UNL     1      -8.155  11.219  67.441  1.00  0.00    -0.135 C  
HETATM    7  O   UNL     1      -8.264  11.675  66.086  1.00  0.00    -0.361 OA 
HETATM    8  H   UNL     1      -7.819  11.071  65.503  1.00  0.00     0.000 HD 
BRANCH   6   9
HETATM    9  C   UNL     1      -8.663   9.789  67.488  1.00  0.00    -0.125 A  
HETATM   10  C   UNL     1      -9.668   9.371  66.602  1.00  0.00    -0.280 A  
HETATM   11  C   UNL     1     -10.160   8.066  66.648  1.00  0.00    -0.329 A  
HETATM   12  C   UNL     1      -9.654   7.162  67.581  1.00  0.00    -0.152 A  
HETATM   13  C   UNL     1      -8.658   7.562  68.468  1.00  0.00    -0.129 A  
HETATM   14  C   UNL     1      -8.167   8.869  68.425  1.00  0.00    -0.117 A  
ENDBRANCH   6   9
ENDBRANCH   4   6
ENDBRANCH   2   4
TORSDOF 3
ENDMDL
MODEL      242
REMARK 921   NORMALIZED FREE ENERGY PREDICTED BY IDOCK:   -1.95 KCAL/MOL
REMARK 922        TOTAL FREE ENERGY PREDICTED BY IDOCK:   -2.55 KCAL/MOL
REMARK 923 INTER-LIGAND FREE ENERGY PREDICTED BY IDOCK:   -2.41 KCAL/MOL
REMARK 924 INTRA-LIGAND FREE ENERGY PREDICTED BY IDOCK:   -0.13 KCAL/MOL
REMARK 927      BINDING AFFINITY PREDICTED BY RF-SCORE:    0.00 PKD
ROOT
HETATM    1  C   UNL     1      -8.081  10.600  67.638  1.00  0.00    -0.107 C  
HETATM    2  N   UNL     1      -8.124   9.254  68.197  1.00  0.00    -0.106 NA 
HETATM    3  H   UNL     1      -8.139   9.285  69.216  1.00  0.00     0.000 HD 
ENDROOT
BRANCH   2   4
HETATM    4  C   UNL     1      -9.248   8.439  67.677  1.00  0.00    -0.134 C  
HETATM    5  C   UNL     1      -8.903   7.816  66.314  1.00  0.00    -0.187 C  
BRANCH   4   6
HETATM    6  C   UNL     1      -9.645   7.300  68.678  1.00  0.00    -0.141 C  
HETATM    7  O   UNL     1     -11.009   6.914  68.465  1.00  0.00    -0.388 OA 
HETATM    8  H   UNL     1     -11.249   6.223  69.072  1.00  0.00     0.000 HD 
BRANCH   6   9
HETATM    9  C   UNL     1      -9.490   7.652  70.147  1.00  0.00    -0.161 A  
HETATM   10  C   UNL     1      -8.430   7.111  70.891  1.00  0.00    -0.133 A  
HETATM   11  C   UNL     1      -8.288   7.410  72.247  1.00  0.00    -0.117 A  
HETATM   12  C   UNL     1      -9.204   8.251  72.876  1.00  0.00    -0.329 A  
HETATM   13  C   UNL     1     -10.262   8.795  72.152  1.00  0.00    -0.371 A  
HETATM   14  C   UNL     1     -10.407   8.494  70.795  1.00  0.00    -0.238 A  
ENDBRANCH   6   9
ENDBRANCH   4   6
ENDBRANCH   2   4
TORSDOF 3
ENDMDL
MODEL      243
REMARK 921   NORMALIZED FREE ENERGY PREDICTED BY IDOCK:   -1.91 KCAL/MOL
REMARK 922        TOTAL FREE ENERGY PREDICTED BY IDOCK:   -2.50 KCAL/MOL
REMARK 923 INTER-LIGAND FREE ENERGY PREDICTED BY IDOCK:   -2.35 KCAL/MOL
REMARK 924 INTRA-LIGAND FREE ENERGY PREDICTED BY IDOCK:   -0.15 KCAL/MOL
REMARK 927      BINDING AFFINITY PREDICTED BY RF-SCORE:    0.00 PKD
ROOT
HETATM    1  C   UNL     1     -10.907  10.044  67.913  1.00  0.00    -0.271 C  
HETATM    2  N   UNL     1     -10.158   8.920  67.362  1.00  0.00    -0.208 NA 
HETATM    3  H   UNL     1      -9.336   9.246  66.854  1.00  0.00     0.000 HD 
ENDROOT
BRANCH   2   4
HETATM    4  C   UNL     1      -9.781   7.912  68.381  1.00  0.00    -0.160 C  
HETATM    5  C   UNL     1     -10.164   8.377  69.796  1.00  0.00    -0.207 C  
BRANCH   4   6
HETATM    6  C   UNL     1     -10.454   6.525  68.097  1.00  0.00    -0.217 C  
HETATM    7  O   UNL     1     -10.372   5.692  69.262  1.00  0.00    -0.219 OA 
HETATM    8  H   UNL     1     -10.781   4.852  69.089  1.00  0.00     0.000 HD 
BRANCH   6   9
HETATM    9  C   UNL     1      -9.860   5.749  66.935  1.00  0.00    -0.179 A  
HETATM   10  C   UNL     1     -10.658   4.851  66.209  1.00  0.00    -0.307 A  
HETATM   11  C   UNL     1     -10.119   4.116  65.152  1.00  0.00    -0.219 A  
HETATM   12  C   UNL     1      -8.778   4.269  64.807  1.00  0.00    -0.135 A  
HETATM   13  C   UNL     1      -7.973   5.155  65.519  1.00  0.00    -0.109 A  
HETATM   14  C   UNL     1      -8.509   5.889  66.579  1.00  0.00    -0.113 A  
ENDBRANCH   6   9
ENDBRANCH   4   6
ENDBRANCH   2   4
TORSDOF 3
ENDMDL
MODEL      244
REMARK 921   NORMALIZED FREE ENERGY PREDICTED BY IDOCK:   -1.87 KCAL/MOL
REMARK 922        TOTAL FREE ENERGY PREDICTED BY IDOCK:   -2.45 KCAL/MOL
REMARK 923 INTER-LIGAND FREE ENERGY PREDICTED BY IDOCK:   -2.35 KCAL/MOL
REMARK 924 INTRA-LIGAND FREE ENERGY PREDICTED BY IDOCK:   -0.10 KCAL/MOL
REMARK 927      BINDING AFFINITY PREDICTED BY RF-SCORE:    0.00 PKD
ROOT
HETATM    1  C   UNL     1     -10.647   4.101  64.670  1.00  0.00    -0.153 C  
HETATM    2  N   UNL     1      -9.460   4.901  64.392  1.00  0.00    -0.355 NA 
HETATM    3  H   UNL     1      -9.661   5.896  64.492  1.00  0.00     0.000 HD 
ENDROOT
BRANCH   2   4
HETATM    4  C   UNL     1      -8.289   4.516  65.215  1.00  0.00    -0.121 C  
HETATM    5  C   UNL     1      -7.219   3.808  64.367  1.00  0.00    -0.059 C  
BRANCH   4   6
HETATM    6  C   UNL     1      -7.646   5.759  65.920  1.00  0.00    -0.086 C  
HETATM    7  O   UNL     1      -7.155   5.388  67.216  1.00  0.00    -0.067 OA 
HETATM    8  H   UNL     1      -6.765   6.142  67.643  1.00  0.00     0.000 HD 
BRANCH   6   9
HETATM    9  C   UNL     1      -8.575   6.946  66.103  1.00  0.00    -0.147 A  
HETATM   10  C   UNL     1      -8.374   8.118  65.358  1.00  0.00    -0.163 A  
HETATM   11  C   UNL     1      -9.208   9.223  65.531  1.00  0.00    -0.292 A  
HETATM   12  C   UNL     1     -10.253   9.172  66.452  1.00  0.00    -0.300 A  
HETATM   13  C   UNL     1     -10.465   8.017  67.201  1.00  0.00    -0.408 A  
HETATM   14  C   UNL     1      -9.629   6.910  67.031  1.00  0.00    -0.197 A  
ENDBRANCH   6   9
ENDBRANCH   4   6
ENDBRANCH   2   4
TORSDOF 3
ENDMDL
MODEL      245
REMARK 921   NORMALIZED FREE ENERGY PREDICTED BY IDOCK:   -1.82 KCAL/MOL
REMARK 922        TOTAL FREE ENERGY PREDICTED BY IDOCK:   -2.40 KCAL/MOL
REMARK 923 INTER-LIGAND FREE ENERGY PREDICTED BY IDOCK:   -2.31 KCAL/MOL
REMARK 924 INTRA-LIGAND FREE ENERGY PREDICTED BY IDOCK:   -0.08 KCAL/MOL
REMARK 927      BINDING AFFINITY PREDICTED BY RF-SCORE:    0.00 PKD
ROOT
HETATM    1  C   UNL     1     -12.066  12.737  65.616  1.00  0.00    -0.459 C  
HETATM    2  N   UNL     1     -10.787  12.188  66.047  1.00  0.00    -0.271 NA 
HETATM    3  H   UNL     1     -10.083  12.922  66.122  1.00  0.00     0.000 HD 
ENDROOT
BRANCH   2   4
HETATM    4  C   UNL     1     -10.877  11.414  67.309  1.00  0.00    -0.263 C  
HETATM    5  C   UNL     1     -10.615   9.918  67.067  1.00  0.00    -0.272 C  
BRANCH   4   6
HETATM    6  C   UNL     1      -9.868  11.945  68.384  1.00  0.00    -0.201 C  
HETATM    7  O   UNL     1      -9.692  13.361  68.235  1.00  0.00    -0.222 OA 
HETATM    8  H   UNL     1      -9.080  13.682  68.887  1.00  0.00     0.000 HD 
BRANCH   6   9
HETATM    9  C   UNL     1      -8.492  11.304  68.345  1.00  0.00    -0.153 A  
HETATM   10  C   UNL     1      -7.592  11.632  67.319  1.00  0.00    -0.147 A  
HETATM   11  C   UNL     1      -6.332  11.034  67.260  1.00  0.00    -0.069 A  
HETATM   12  C   UNL     1      -5.956  10.101  68.225  1.00  0.00    -0.041 A  
HETATM   13  C   UNL     1      -6.838   9.764  69.248  1.00  0.00    -0.055 A  
HETATM   14  C   UNL     1      -8.101  10.359  69.307  1.00  0.00    -0.159 A  
ENDBRANCH   6   9
ENDBRANCH   4   6
ENDBRANCH   2   4
TORSDOF 3
ENDMDL
MODEL      246
REMARK 921   NORMALIZED FREE ENERGY PREDICTED BY IDOCK:   -1.80 KCAL/MOL
REMARK 922        TOTAL FREE ENERGY PREDICTED BY IDOCK:   -2.36 KCAL/MOL
REMARK 923 INTER-LIGAND FREE ENERGY PREDICTED BY IDOCK:   -2.15 KCAL/MOL
REMARK 924 INTRA-LIGAND FREE ENERGY PREDICTED BY IDOCK:   -0.22 KCAL/MOL
REMARK 927      BINDING AFFINITY PREDICTED BY RF-SCORE:    0.00 PKD
ROOT
HETATM    1  C   UNL     1      -6.396   8.750  69.876  1.00  0.00    -0.037 C  
HETATM    2  N   UNL     1      -6.160   7.879  68.732  1.00  0.00    -0.038 NA 
HETATM    3  H   UNL     1      -5.844   6.958  69.036  1.00  0.00     0.000 HD 
ENDROOT
BRANCH   2   4
HETATM    4  C   UNL     1      -7.332   7.762  67.832  1.00  0.00    -0.102 C  
HETATM    5  C   UNL     1      -7.796   6.302  67.706  1.00  0.00    -0.106 C  
BRANCH   4   6
HETATM    6  C   UNL     1      -8.530   8.641  68.329  1.00  0.00    -0.131 C  
HETATM    7  O   UNL     1      -9.578   7.802  68.834  1.00  0.00    -0.153 OA 
HETATM    8  H   UNL     1     -10.304   8.335  69.136  1.00  0.00     0.000 HD 
BRANCH   6   9
HETATM    9  C   UNL     1      -9.138   9.553  67.278  1.00  0.00    -0.146 A  
HETATM   10  C   UNL     1      -9.590  10.833  67.633  1.00  0.00    -0.174 A  
HETATM   11  C   UNL     1     -10.170  11.673  66.681  1.00  0.00    -0.249 A  
HETATM   12  C   UNL     1     -10.306  11.244  65.362  1.00  0.00    -0.328 A  
HETATM   13  C   UNL     1      -9.865   9.975  64.994  1.00  0.00    -0.374 A  
HETATM   14  C   UNL     1      -9.287   9.132  65.946  1.00  0.00    -0.306 A  
ENDBRANCH   6   9
ENDBRANCH   4   6
ENDBRANCH   2   4
TORSDOF 3
ENDMDL
MODEL      247
REMARK 921   NORMALIZED FREE ENERGY PREDICTED BY IDOCK:   -1.78 KCAL/MOL
REMARK 922        TOTAL FREE ENERGY PREDICTED BY IDOCK:   -2.34 KCAL/MOL
REMARK 923 INTER-LIGAND FREE ENERGY PREDICTED BY IDOCK:   -2.10 KCAL/MOL
REMARK 924 INTRA-LIGAND FREE ENERGY PREDICTED BY IDOCK:   -0.24 KCAL/MOL
REMARK 927      BINDING AFFINITY PREDICTED BY RF-SCORE:    0.00 PKD
ROOT
HETATM    1  C   UNL     1      -8.811   3.705  65.639  1.00  0.00    -0.126 C  
HETATM    2  N   UNL     1      -8.389   4.584  66.723  1.00  0.00    -0.106 NA 
HETATM    3  H   UNL     1      -7.464   4.971  66.536  1.00  0.00     0.000 HD 
ENDROOT
BRANCH   2   4
HETATM    4  C   UNL     1      -9.362   5.664  67.014  1.00  0.00    -0.118 C  
HETATM    5  C   UNL     1     -10.731   5.369  66.378  1.00  0.00    -0.284 C  
BRANCH   4   6
HETATM    6  C   UNL     1      -9.547   5.873  68.556  1.00  0.00    -0.123 C  
HETATM    7  O   UNL     1     -10.645   5.081  69.031  1.00  0.00    -0.102 OA 
HETATM    8  H   UNL     1     -10.756   5.208  69.966  1.00  0.00     0.000 HD 
BRANCH   6   9
HETATM    9  C   UNL     1      -9.797   7.308  68.985  1.00  0.00    -0.165 A  
HETATM   10  C   UNL     1     -10.472   7.576  70.185  1.00  0.00    -0.226 A  
HETATM   11  C   UNL     1     -10.727   8.890  70.580  1.00  0.00    -0.282 A  
HETATM   12  C   UNL     1     -10.311   9.953  69.780  1.00  0.00    -0.278 A  
HETATM   13  C   UNL     1      -9.641   9.703  68.585  1.00  0.00    -0.154 A  
HETATM   14  C   UNL     1      -9.388   8.388  68.186  1.00  0.00    -0.141 A  
ENDBRANCH   6   9
ENDBRANCH   4   6
ENDBRANCH   2   4
TORSDOF 3
ENDMDL
MODEL      248
REMARK 921   NORMALIZED FREE ENERGY PREDICTED BY IDOCK:   -1.77 KCAL/MOL
REMARK 922        TOTAL FREE ENERGY PREDICTED BY IDOCK:   -2.33 KCAL/MOL
REMARK 923 INTER-LIGAND FREE ENERGY PREDICTED BY IDOCK:   -2.32 KCAL/MOL
REMARK 924 INTRA-LIGAND FREE ENERGY PREDICTED BY IDOCK:   -0.02 KCAL/MOL
REMARK 927      BINDING AFFINITY PREDICTED BY RF-SCORE:    0.00 PKD
ROOT
HETATM    1  C   UNL     1      -8.999  13.823  67.074  1.00  0.00    -0.238 C  
HETATM    2  N   UNL     1      -9.219  12.869  68.154  1.00  0.00    -0.210 NA 
HETATM    3  H   UNL     1      -9.189  13.335  69.061  1.00  0.00     0.000 HD 
ENDROOT
BRANCH   2   4
HETATM    4  C   UNL     1     -10.473  12.093  68.002  1.00  0.00    -0.212 C  
HETATM    5  C   UNL     1     -11.495  12.845  67.134  1.00  0.00    -0.388 C  
BRANCH   4   6
HETATM    6  C   UNL     1     -10.205  10.682  67.375  1.00  0.00    -0.204 C  
HETATM    7  O   UNL     1     -11.230   9.763  67.777  1.00  0.00    -0.496 OA 
HETATM    8  H   UNL     1     -11.068   8.908  67.396  1.00  0.00     0.000 HD 
BRANCH   6   9
HETATM    9  C   UNL     1      -8.866  10.063  67.733  1.00  0.00    -0.125 A  
HETATM   10  C   UNL     1      -7.737  10.322  66.941  1.00  0.00    -0.105 A  
HETATM   11  C   UNL     1      -6.505   9.742  67.247  1.00  0.00    -0.069 A  
HETATM   12  C   UNL     1      -6.385   8.896  68.348  1.00  0.00    -0.055 A  
HETATM   13  C   UNL     1      -7.497   8.627  69.143  1.00  0.00    -0.083 A  
HETATM   14  C   UNL     1      -8.732   9.204  68.836  1.00  0.00    -0.132 A  
ENDBRANCH   6   9
ENDBRANCH   4   6
ENDBRANCH   2   4
TORSDOF 3
ENDMDL
MODEL      249
REMARK 921   NORMALIZED FREE ENERGY PREDICTED BY IDOCK:   -1.75 KCAL/MOL
REMARK 922        TOTAL FREE ENERGY PREDICTED BY IDOCK:   -2.31 KCAL/MOL
REMARK 923 INTER-LIGAND FREE ENERGY PREDICTED BY IDOCK:   -2.20 KCAL/MOL
REMARK 924 INTRA-LIGAND FREE ENERGY PREDICTED BY IDOCK:   -0.11 KCAL/MOL
REMARK 927      BINDING AFFINITY PREDICTED BY RF-SCORE:    0.00 PKD
ROOT
HETATM    1  C   UNL     1      -7.534  10.134  67.986  1.00  0.00    -0.087 C  
HETATM    2  N   UNL     1      -7.817   8.834  67.392  1.00  0.00    -0.097 NA 
HETATM    3  H   UNL     1      -8.235   8.205  68.078  1.00  0.00     0.000 HD 
ENDROOT
BRANCH   2   4
HETATM    4  C   UNL     1      -8.658   8.917  66.174  1.00  0.00    -0.140 C  
HETATM    5  C   UNL     1      -8.322   7.788  65.185  1.00  0.00    -0.113 C  
BRANCH   4   6
HETATM    6  C   UNL     1     -10.185   8.858  66.522  1.00  0.00    -0.249 C  
HETATM    7  O   UNL     1     -10.714  10.186  66.636  1.00  0.00    -0.178 OA 
HETATM    8  H   UNL     1     -11.640  10.150  66.846  1.00  0.00     0.000 HD 
BRANCH   6   9
HETATM    9  C   UNL     1     -10.524   8.116  67.803  1.00  0.00    -0.279 A  
HETATM   10  C   UNL     1     -10.399   6.720  67.861  1.00  0.00    -0.236 A  
HETATM   11  C   UNL     1     -10.727   6.024  69.025  1.00  0.00    -0.393 A  
HETATM   12  C   UNL     1     -11.185   6.714  70.146  1.00  0.00    -0.416 A  
HETATM   13  C   UNL     1     -11.316   8.100  70.104  1.00  0.00    -0.071 A  
HETATM   14  C   UNL     1     -10.991   8.798  68.938  1.00  0.00     0.062 A  
ENDBRANCH   6   9
ENDBRANCH   4   6
ENDBRANCH   2   4
TORSDOF 3
ENDMDL
MODEL      250
REMARK 921   NORMALIZED FREE ENERGY PREDICTED BY IDOCK:   -1.68 KCAL/MOL
REMARK 922        TOTAL FREE ENERGY PREDICTED BY IDOCK:   -2.23 KCAL/MOL
REMARK 923 INTER-LIGAND FREE ENERGY PREDICTED BY IDOCK:   -2.29 KCAL/MOL
REMARK 924 INTRA-LIGAND FREE ENERGY PREDICTED BY IDOCK:    0.06 KCAL/MOL
REMARK 927      BINDING AFFINITY PREDICTED BY RF-SCORE:    0.00 PKD
ROOT
HETATM    1  C   UNL     1      -8.678   8.955  71.940  1.00  0.00    -0.015 C  
HETATM    2  N   UNL     1      -9.199   7.837  71.162  1.00  0.00    -0.145 NA 
HETATM    3  H   UNL     1      -9.755   7.215  71.749  1.00  0.00     0.000 HD 
ENDROOT
BRANCH   2   4
HETATM    4  C   UNL     1      -9.968   8.261  69.968  1.00  0.00    -0.188 C  
HETATM    5  C   UNL     1      -9.123   9.161  69.051  1.00  0.00    -0.143 C  
BRANCH   4   6
HETATM    6  C   UNL     1     -10.484   7.030  69.147  1.00  0.00    -0.207 C  
HETATM    7  O   UNL     1     -11.851   6.756  69.480  1.00  0.00    -0.635 OA 
HETATM    8  H   UNL     1     -12.163   6.010  68.982  1.00  0.00     0.000 HD 
BRANCH   6   9
HETATM    9  C   UNL     1      -9.695   5.748  69.348  1.00  0.00    -0.200 A  
HETATM   10  C   UNL     1      -9.956   4.930  70.457  1.00  0.00    -0.311 A  
HETATM   11  C   UNL     1      -9.224   3.759  70.665  1.00  0.00    -0.201 A  
HETATM   12  C   UNL     1      -8.223   3.393  69.768  1.00  0.00    -0.072 A  
HETATM   13  C   UNL     1      -7.951   4.196  68.663  1.00  0.00    -0.072 A  
HETATM   14  C   UNL     1      -8.680   5.369  68.454  1.00  0.00    -0.098 A  
ENDBRANCH   6   9
ENDBRANCH   4   6
ENDBRANCH   2   4
TORSDOF 3
ENDMDL
MODEL      251
REMARK 921   NORMALIZED FREE ENERGY PREDICTED BY IDOCK:   -1.66 KCAL/MOL
REMARK 922        TOTAL FREE ENERGY PREDICTED BY IDOCK:   -2.20 KCAL/MOL
REMARK 923 INTER-LIGAND FREE ENERGY PREDICTED BY IDOCK:   -2.10 KCAL/MOL
REMARK 924 INTRA-LIGAND FREE ENERGY PREDICTED BY IDOCK:   -0.10 KCAL/MOL
REMARK 927      BINDING AFFINITY PREDICTED BY RF-SCORE:    0.00 PKD
ROOT
HETATM    1  C   UNL     1     -11.118  13.499  67.760  1.00  0.00    -0.268 C  
HETATM    2  N   UNL     1      -9.990  14.332  68.161  1.00  0.00    -0.224 NA 
HETATM    3  H   UNL     1      -9.188  13.757  68.420  1.00  0.00     0.000 HD 
ENDROOT
BRANCH   2   4
HETATM    4  C   UNL     1      -9.610  15.335  67.138  1.00  0.00    -0.217 C  
HETATM    5  C   UNL     1     -10.711  16.394  66.957  1.00  0.00    -0.217 C  
BRANCH   4   6
HETATM    6  C   UNL     1      -8.264  16.051  67.504  1.00  0.00    -0.152 C  
HETATM    7  O   UNL     1      -7.672  16.614  66.325  1.00  0.00    -0.303 OA 
HETATM    8  H   UNL     1      -6.857  17.048  66.548  1.00  0.00     0.000 HD 
BRANCH   6   9
HETATM    9  C   UNL     1      -7.223  15.163  68.162  1.00  0.00    -0.120 A  
HETATM   10  C   UNL     1      -6.743  15.473  69.443  1.00  0.00    -0.169 A  
HETATM   11  C   UNL     1      -5.771  14.678  70.052  1.00  0.00    -0.121 A  
HETATM   12  C   UNL     1      -5.265  13.563  69.386  1.00  0.00    -0.082 A  
HETATM   13  C   UNL     1      -5.729  13.242  68.112  1.00  0.00    -0.101 A  
HETATM   14  C   UNL     1      -6.701  14.039  67.501  1.00  0.00    -0.128 A  
ENDBRANCH   6   9
ENDBRANCH   4   6
ENDBRANCH   2   4
TORSDOF 3
ENDMDL
MODEL      252
REMARK 921   NORMALIZED FREE ENERGY PREDICTED BY IDOCK:   -1.63 KCAL/MOL
REMARK 922        TOTAL FREE ENERGY PREDICTED BY IDOCK:   -2.17 KCAL/MOL
REMARK 923 INTER-LIGAND FREE ENERGY PREDICTED BY IDOCK:   -2.50 KCAL/MOL
REMARK 924 INTRA-LIGAND FREE ENERGY PREDICTED BY IDOCK:    0.33 KCAL/MOL
REMARK 927      BINDING AFFINITY PREDICTED BY RF-SCORE:    0.00 PKD
ROOT
HETATM    1  C   UNL     1      -6.393   7.493  71.216  1.00  0.00    -0.035 C  
HETATM    2  N   UNL     1      -7.809   7.157  71.296  1.00  0.00    -0.097 NA 
HETATM    3  H   UNL     1      -8.020   6.680  72.173  1.00  0.00     0.000 HD 
ENDROOT
BRANCH   2   4
HETATM    4  C   UNL     1      -8.700   8.327  71.107  1.00  0.00    -0.147 C  
HETATM    5  C   UNL     1      -8.704   8.794  69.642  1.00  0.00    -0.136 C  
BRANCH   4   6
HETATM    6  C   UNL     1     -10.170   8.010  71.548  1.00  0.00    -0.194 C  
HETATM    7  O   UNL     1     -10.760   9.167  72.155  1.00  0.00    -0.288 OA 
HETATM    8  H   UNL     1     -11.651   8.974  72.423  1.00  0.00     0.000 HD 
BRANCH   6   9
HETATM    9  C   UNL     1     -10.313   6.855  72.524  1.00  0.00    -0.220 A  
HETATM   10  C   UNL     1     -11.337   5.911  72.351  1.00  0.00    -0.358 A  
HETATM   11  C   UNL     1     -11.493   4.857  73.252  1.00  0.00    -0.359 A  
HETATM   12  C   UNL     1     -10.628   4.733  74.338  1.00  0.00    -0.283 A  
HETATM   13  C   UNL     1      -9.608   5.663  74.525  1.00  0.00    -0.181 A  
HETATM   14  C   UNL     1      -9.452   6.721  73.625  1.00  0.00    -0.204 A  
ENDBRANCH   6   9
ENDBRANCH   4   6
ENDBRANCH   2   4
TORSDOF 3
ENDMDL
MODEL      253
REMARK 921   NORMALIZED FREE ENERGY PREDICTED BY IDOCK:   -1.50 KCAL/MOL
REMARK 922        TOTAL FREE ENERGY PREDICTED BY IDOCK:   -2.02 KCAL/MOL
REMARK 923 INTER-LIGAND FREE ENERGY PREDICTED BY IDOCK:   -2.01 KCAL/MOL
REMARK 924 INTRA-LIGAND FREE ENERGY PREDICTED BY IDOCK:   -0.01 KCAL/MOL
REMARK 927      BINDING AFFINITY PREDICTED BY RF-SCORE:    0.00 PKD
ROOT
HETATM    1  C   UNL     1     -12.213   6.948  71.384  1.00  0.00    -0.372 C  
HETATM    2  N   UNL     1     -11.187   6.988  70.349  1.00  0.00    -0.285 NA 
HETATM    3  H   UNL     1     -11.346   7.768  69.712  1.00  0.00     0.000 HD 
ENDROOT
BRANCH   2   4
HETATM    4  C   UNL     1      -9.809   7.023  70.892  1.00  0.00    -0.185 C  
HETATM    5  C   UNL     1      -9.583   5.900  71.918  1.00  0.00    -0.169 C  
BRANCH   4   6
HETATM    6  C   UNL     1      -8.738   6.902  69.754  1.00  0.00    -0.141 C  
HETATM    7  O   UNL     1      -8.960   7.913  68.761  1.00  0.00    -0.141 OA 
HETATM    8  H   UNL     1      -8.311   7.839  68.072  1.00  0.00     0.000 HD 
BRANCH   6   9
HETATM    9  C   UNL     1      -8.703   5.560  69.045  1.00  0.00    -0.102 A  
HETATM   10  C   UNL     1      -7.709   4.622  69.364  1.00  0.00    -0.059 A  
HETATM   11  C   UNL     1      -7.653   3.393  68.704  1.00  0.00    -0.052 A  
HETATM   12  C   UNL     1      -8.588   3.087  67.717  1.00  0.00    -0.117 A  
HETATM   13  C   UNL     1      -9.579   4.008  67.388  1.00  0.00    -0.222 A  
HETATM   14  C   UNL     1      -9.635   5.240  68.045  1.00  0.00    -0.163 A  
ENDBRANCH   6   9
ENDBRANCH   4   6
ENDBRANCH   2   4
TORSDOF 3
ENDMDL
MODEL      254
REMARK 921   NORMALIZED FREE ENERGY PREDICTED BY IDOCK:   -1.49 KCAL/MOL
REMARK 922        TOTAL FREE ENERGY PREDICTED BY IDOCK:   -2.00 KCAL/MOL
REMARK 923 INTER-LIGAND FREE ENERGY PREDICTED BY IDOCK:   -1.98 KCAL/MOL
REMARK 924 INTRA-LIGAND FREE ENERGY PREDICTED BY IDOCK:   -0.02 KCAL/MOL
REMARK 927      BINDING AFFINITY PREDICTED BY RF-SCORE:    0.00 PKD
ROOT
HETATM    1  C   UNL     1      -8.000  10.650  67.479  1.00  0.00    -0.110 C  
HETATM    2  N   UNL     1      -8.089   9.196  67.421  1.00  0.00    -0.107 NA 
HETATM    3  H   UNL     1      -8.233   8.804  68.352  1.00  0.00     0.000 HD 
ENDROOT
BRANCH   2   4
HETATM    4  C   UNL     1      -9.126   8.710  66.479  1.00  0.00    -0.165 C  
HETATM    5  C   UNL     1      -8.547   8.506  65.069  1.00  0.00    -0.162 C  
BRANCH   4   6
HETATM    6  C   UNL     1      -9.768   7.368  66.971  1.00  0.00    -0.191 C  
HETATM    7  O   UNL     1     -11.197   7.490  67.002  1.00  0.00    -0.449 OA 
HETATM    8  H   UNL     1     -11.585   6.676  67.300  1.00  0.00     0.000 HD 
BRANCH   6   9
HETATM    9  C   UNL     1      -9.316   6.905  68.344  1.00  0.00    -0.129 A  
HETATM   10  C   UNL     1      -9.962   7.382  69.495  1.00  0.00    -0.179 A  
HETATM   11  C   UNL     1      -9.543   6.980  70.765  1.00  0.00    -0.164 A  
HETATM   12  C   UNL     1      -8.473   6.098  70.900  1.00  0.00    -0.128 A  
HETATM   13  C   UNL     1      -7.819   5.617  69.768  1.00  0.00    -0.087 A  
HETATM   14  C   UNL     1      -8.236   6.020  68.496  1.00  0.00    -0.110 A  
ENDBRANCH   6   9
ENDBRANCH   4   6
ENDBRANCH   2   4
TORSDOF 3
ENDMDL
MODEL      255
REMARK 921   NORMALIZED FREE ENERGY PREDICTED BY IDOCK:   -1.46 KCAL/MOL
REMARK 922        TOTAL FREE ENERGY PREDICTED BY IDOCK:   -1.97 KCAL/MOL
REMARK 923 INTER-LIGAND FREE ENERGY PREDICTED BY IDOCK:   -1.77 KCAL/MOL
REMARK 924 INTRA-LIGAND FREE ENERGY PREDICTED BY IDOCK:   -0.20 KCAL/MOL
REMARK 927      BINDING AFFINITY PREDICTED BY RF-SCORE:    0.00 PKD
ROOT
HETATM    1  C   UNL     1      -8.587   7.343  68.353  1.00  0.00    -0.124 C  
HETATM    2  N   UNL     1      -7.920   6.046  68.360  1.00  0.00    -0.106 NA 
HETATM    3  H   UNL     1      -7.627   5.795  69.304  1.00  0.00     0.000 HD 
ENDROOT
BRANCH   2   4
HETATM    4  C   UNL     1      -8.736   4.965  67.757  1.00  0.00    -0.103 C  
HETATM    5  C   UNL     1      -9.909   4.574  68.672  1.00  0.00    -0.168 C  
BRANCH   4   6
HETATM    6  C   UNL     1      -9.296   5.380  66.354  1.00  0.00    -0.150 C  
HETATM    7  O   UNL     1     -10.718   5.554  66.424  1.00  0.00    -0.448 OA 
HETATM    8  H   UNL     1     -11.057   5.805  65.573  1.00  0.00     0.000 HD 
BRANCH   6   9
HETATM    9  C   UNL     1      -9.008   4.398  65.232  1.00  0.00    -0.140 A  
HETATM   10  C   UNL     1     -10.058   3.683  64.636  1.00  0.00    -0.162 A  
HETATM   11  C   UNL     1      -9.805   2.762  63.619  1.00  0.00    -0.139 A  
HETATM   12  C   UNL     1      -8.499   2.543  63.184  1.00  0.00    -0.085 A  
HETATM   13  C   UNL     1      -7.445   3.243  63.766  1.00  0.00    -0.066 A  
HETATM   14  C   UNL     1      -7.697   4.163  64.787  1.00  0.00    -0.078 A  
ENDBRANCH   6   9
ENDBRANCH   4   6
ENDBRANCH   2   4
TORSDOF 3
ENDMDL
MODEL      256
REMARK 921   NORMALIZED FREE ENERGY PREDICTED BY IDOCK:   -1.41 KCAL/MOL
REMARK 922        TOTAL FREE ENERGY PREDICTED BY IDOCK:   -1.90 KCAL/MOL
REMARK 923 INTER-LIGAND FREE ENERGY PREDICTED BY IDOCK:   -1.75 KCAL/MOL
REMARK 924 INTRA-LIGAND FREE ENERGY PREDICTED BY IDOCK:   -0.15 KCAL/MOL
REMARK 927      BINDING AFFINITY PREDICTED BY RF-SCORE:    0.00 PKD
ROOT
HETATM    1  C   UNL     1      -9.549   6.622  70.656  1.00  0.00    -0.169 C  
HETATM    2  N   UNL     1     -10.598   6.043  69.825  1.00  0.00    -0.257 NA 
HETATM    3  H   UNL     1     -11.481   6.536  69.960  1.00  0.00     0.000 HD 
ENDROOT
BRANCH   2   4
HETATM    4  C   UNL     1     -10.243   5.985  68.388  1.00  0.00    -0.181 C  
HETATM    5  C   UNL     1     -10.554   7.315  67.681  1.00  0.00    -0.316 C  
BRANCH   4   6
HETATM    6  C   UNL     1      -8.728   5.637  68.182  1.00  0.00    -0.102 C  
HETATM    7  O   UNL     1      -8.023   6.786  67.693  1.00  0.00    -0.110 OA 
HETATM    8  H   UNL     1      -7.105   6.574  67.569  1.00  0.00     0.000 HD 
BRANCH   6   9
HETATM    9  C   UNL     1      -8.458   4.490  67.224  1.00  0.00    -0.104 A  
HETATM   10  C   UNL     1      -9.365   4.207  66.191  1.00  0.00    -0.167 A  
HETATM   11  C   UNL     1      -9.139   3.143  65.317  1.00  0.00    -0.148 A  
HETATM   12  C   UNL     1      -8.004   2.347  65.465  1.00  0.00    -0.079 A  
HETATM   13  C   UNL     1      -7.095   2.613  66.486  1.00  0.00    -0.053 A  
HETATM   14  C   UNL     1      -7.322   3.677  67.364  1.00  0.00    -0.066 A  
ENDBRANCH   6   9
ENDBRANCH   4   6
ENDBRANCH   2   4
TORSDOF 3
ENDMDL
MODEL      257
REMARK 921   NORMALIZED FREE ENERGY PREDICTED BY IDOCK:   -1.18 KCAL/MOL
REMARK 922        TOTAL FREE ENERGY PREDICTED BY IDOCK:   -1.64 KCAL/MOL
REMARK 923 INTER-LIGAND FREE ENERGY PREDICTED BY IDOCK:   -1.43 KCAL/MOL
REMARK 924 INTRA-LIGAND FREE ENERGY PREDICTED BY IDOCK:   -0.21 KCAL/MOL
REMARK 927      BINDING AFFINITY PREDICTED BY RF-SCORE:    0.00 PKD
ROOT
HETATM    1  C   UNL     1      -6.308   3.422  64.501  1.00  0.00    -0.024 C  
HETATM    2  N   UNL     1      -6.324   4.319  65.651  1.00  0.00    -0.035 NA 
HETATM    3  H   UNL     1      -5.876   5.207  65.425  1.00  0.00     0.000 HD 
ENDROOT
BRANCH   2   4
HETATM    4  C   UNL     1      -7.681   4.539  66.204  1.00  0.00    -0.094 C  
HETATM    5  C   UNL     1      -8.676   4.937  65.101  1.00  0.00    -0.148 C  
BRANCH   4   6
HETATM    6  C   UNL     1      -8.217   3.265  66.943  1.00  0.00    -0.085 C  
HETATM    7  O   UNL     1      -9.549   2.967  66.504  1.00  0.00    -0.395 OA 
HETATM    8  H   UNL     1      -9.873   2.194  66.952  1.00  0.00     0.000 HD 
BRANCH   6   9
HETATM    9  C   UNL     1      -8.243   3.364  68.458  1.00  0.00    -0.085 A  
HETATM   10  C   UNL     1      -7.338   2.617  69.227  1.00  0.00    -0.044 A  
HETATM   11  C   UNL     1      -7.365   2.682  70.621  1.00  0.00    -0.033 A  
HETATM   12  C   UNL     1      -8.298   3.495  71.264  1.00  0.00    -0.086 A  
HETATM   13  C   UNL     1      -9.204   4.242  70.514  1.00  0.00    -0.192 A  
HETATM   14  C   UNL     1      -9.180   4.175  69.119  1.00  0.00    -0.211 A  
ENDBRANCH   6   9
ENDBRANCH   4   6
ENDBRANCH   2   4
TORSDOF 3
ENDMDL
MODEL      258
REMARK 921   NORMALIZED FREE ENERGY PREDICTED BY IDOCK:   -1.07 KCAL/MOL
REMARK 922        TOTAL FREE ENERGY PREDICTED BY IDOCK:   -1.50 KCAL/MOL
REMARK 923 INTER-LIGAND FREE ENERGY PREDICTED BY IDOCK:   -1.44 KCAL/MOL
REMARK 924 INTRA-LIGAND FREE ENERGY PREDICTED BY IDOCK:   -0.07 KCAL/MOL
REMARK 927      BINDING AFFINITY PREDICTED BY RF-SCORE:    0.00 PKD
ROOT
HETATM    1  C   UNL     1      -5.863  17.091  70.309  1.00  0.00    -0.112 C  
HETATM    2  N   UNL     1      -6.738  17.799  69.383  1.00  0.00    -0.219 NA 
HETATM    3  H   UNL     1      -6.214  18.489  68.845  1.00  0.00     0.000 HD 
ENDROOT
BRANCH   2   4
HETATM    4  C   UNL     1      -7.493  16.894  68.484  1.00  0.00    -0.217 C  
HETATM    5  C   UNL     1      -8.452  17.682  67.575  1.00  0.00    -0.220 C  
BRANCH   4   6
HETATM    6  C   UNL     1      -6.534  16.032  67.594  1.00  0.00    -0.164 C  
HETATM    7  O   UNL     1      -6.318  16.681  66.334  1.00  0.00    -0.252 OA 
HETATM    8  H   UNL     1      -5.736  16.158  65.795  1.00  0.00     0.000 HD 
BRANCH   6   9
HETATM    9  C   UNL     1      -7.017  14.621  67.308  1.00  0.00     0.019 A  
HETATM   10  C   UNL     1      -8.289  14.414  66.751  1.00  0.00    -0.005 A  
HETATM   11  C   UNL     1      -8.754  13.121  66.502  1.00  0.00     0.077 A  
HETATM   12  C   UNL     1      -7.956  12.021  66.808  1.00  0.00    -0.060 A  
HETATM   13  C   UNL     1      -6.692  12.210  67.363  1.00  0.00    -0.143 A  
HETATM   14  C   UNL     1      -6.226  13.503  67.615  1.00  0.00    -0.139 A  
ENDBRANCH   6   9
ENDBRANCH   4   6
ENDBRANCH   2   4
TORSDOF 3
ENDMDL
MODEL      259
REMARK 921   NORMALIZED FREE ENERGY PREDICTED BY IDOCK:   -1.01 KCAL/MOL
REMARK 922        TOTAL FREE ENERGY PREDICTED BY IDOCK:   -1.43 KCAL/MOL
REMARK 923 INTER-LIGAND FREE ENERGY PREDICTED BY IDOCK:   -1.40 KCAL/MOL
REMARK 924 INTRA-LIGAND FREE ENERGY PREDICTED BY IDOCK:   -0.03 KCAL/MOL
REMARK 927      BINDING AFFINITY PREDICTED BY RF-SCORE:    0.00 PKD
ROOT
HETATM    1  C   UNL     1      -8.479   4.060  64.599  1.00  0.00    -0.107 C  
HETATM    2  N   UNL     1      -7.921   5.251  65.228  1.00  0.00    -0.102 NA 
HETATM    3  H   UNL     1      -7.327   5.762  64.574  1.00  0.00     0.000 HD 
ENDROOT
BRANCH   2   4
HETATM    4  C   UNL     1      -8.950   6.143  65.811  1.00  0.00    -0.086 C  
HETATM    5  C   UNL     1      -9.983   5.346  66.626  1.00  0.00    -0.220 C  
BRANCH   4   6
HETATM    6  C   UNL     1      -8.310   7.242  66.728  1.00  0.00    -0.119 C  
HETATM    7  O   UNL     1      -6.961   7.499  66.316  1.00  0.00    -0.063 OA 
HETATM    8  H   UNL     1      -6.573   8.165  66.872  1.00  0.00     0.000 HD 
BRANCH   6   9
HETATM    9  C   UNL     1      -8.282   6.906  68.209  1.00  0.00    -0.123 A  
HETATM   10  C   UNL     1      -7.290   6.056  68.718  1.00  0.00    -0.085 A  
HETATM   11  C   UNL     1      -7.265   5.722  70.074  1.00  0.00    -0.069 A  
HETATM   12  C   UNL     1      -8.233   6.234  70.936  1.00  0.00    -0.126 A  
HETATM   13  C   UNL     1      -9.226   7.078  70.445  1.00  0.00    -0.156 A  
HETATM   14  C   UNL     1      -9.254   7.411  69.088  1.00  0.00    -0.147 A  
ENDBRANCH   6   9
ENDBRANCH   4   6
ENDBRANCH   2   4
TORSDOF 3
ENDMDL
