MODEL        1
REMARK 921   NORMALIZED FREE ENERGY PREDICTED BY IDOCK:   -8.12 KCAL/MOL
REMARK 922        TOTAL FREE ENERGY PREDICTED BY IDOCK:  -10.25 KCAL/MOL
REMARK 923 INTER-LIGAND FREE ENERGY PREDICTED BY IDOCK:   -9.07 KCAL/MOL
REMARK 924 INTRA-LIGAND FREE ENERGY PREDICTED BY IDOCK:   -1.18 KCAL/MOL
REMARK 927      BINDING AFFINITY PREDICTED BY RF-SCORE:    0.00 PKD
ROOT
HETATM    1  C   UNL     1     -12.484  13.233  70.625  1.00  0.00    -0.298 C  
HETATM    2  C   UNL     1     -13.526  13.007  71.730  1.00  0.00    -0.401 C  
HETATM    3  C   UNL     1     -14.137  14.429  71.962  1.00  0.00    -0.620 C  
HETATM    4  C   UNL     1     -13.305  15.393  71.124  1.00  0.00    -0.508 C  
HETATM    5  N   UNL     1     -12.132  14.627  70.748  1.00  0.00    -0.299 N  
HETATM    6  C   UNL     1     -11.314  15.190  69.799  1.00  0.00    -0.285 C  
HETATM    7  O   UNL     1     -11.083  16.396  69.802  1.00  0.00    -0.338 OA 
HETATM    8  C   UNL     1     -10.616  14.163  68.876  1.00  0.00    -0.239 C  
HETATM    9  N   UNL     1     -11.537  12.894  68.602  1.00  0.00    -0.294 N  
HETATM   10  C   UNL     1     -10.006  14.891  67.687  1.00  0.00    -0.226 C  
HETATM   11  C   UNL     1     -11.098  15.446  66.791  1.00  0.00    -0.244 C  
HETATM   12  C   UNL     1     -11.268  11.783  67.795  1.00  0.00    -0.266 C  
HETATM   13  C   UNL     1      -8.808  15.776  68.078  1.00  0.00    -0.176 C  
HETATM   14  O   UNL     1     -12.024  11.389  66.907  1.00  0.00    -0.440 OA 
HETATM   15  C   UNL     1     -10.539  15.864  65.451  1.00  0.00    -0.439 C  
HETATM   16  C   UNL     1      -9.913  11.231  68.220  1.00  0.00    -0.195 C  
HETATM   17  H   UNL     1     -11.656  10.348  69.455  1.00  0.00     0.000 HD 
HETATM   18  C   UNL     1      -9.151  11.853  66.940  1.00  0.00    -0.196 C  
HETATM   19  O   UNL     1     -10.086  11.837  69.687  1.00  0.00     0.427 OA 
HETATM   20  O   UNL     1     -12.221  10.956  69.917  1.00  0.00    -0.325 OA 
HETATM   21  C   UNL     1     -11.509  12.186  69.828  1.00  0.00    -0.188 C  
HETATM   22  C   UNL     1      -9.214  10.984  65.652  1.00  0.00    -0.231 C  
HETATM   23  C   UNL     1      -7.747  12.422  67.092  1.00  0.00    -0.122 C  
ENDROOT
BRANCH  16  24
HETATM   24  N   UNL     1      -9.232   9.994  68.476  1.00  0.00    -0.137 N  
HETATM   25  H   UNL     1      -8.250  10.093  68.734  1.00  0.00     0.000 HD 
HETATM   26  O   UNL     1     -10.782   8.372  67.998  1.00  0.00    -0.168 OA 
HETATM   27  C   UNL     1      -9.688   8.694  68.430  1.00  0.00    -0.162 C  
BRANCH  27  28
HETATM   28  C   UNL     1      -8.639   7.736  69.004  1.00  0.00    -0.135 C  
HETATM   29  C   UNL     1      -7.773   8.502  70.036  1.00  0.00    -0.086 C  
HETATM   30  N   UNL     1      -8.274   8.425  71.418  1.00  0.00    -0.126 NA 
HETATM   31  C   UNL     1      -9.667   8.884  71.548  1.00  0.00    -0.302 C  
HETATM   32  C   UNL     1      -8.074   7.034  71.925  1.00  0.00    -0.098 C  
HETATM   33  C   UNL     1      -8.839   6.729  73.274  1.00  0.00    -0.140 C  
HETATM   34  C   UNL     1      -9.665   5.495  73.211  1.00  0.00    -0.160 A  
HETATM   35  C   UNL     1     -10.730   5.028  73.948  1.00  0.00    -0.299 A  
HETATM   36  N   UNL     1     -11.020   3.756  73.508  1.00  0.00    -0.232 NA 
HETATM   37  C   UNL     1     -10.170   3.394  72.487  1.00  0.00    -0.146 A  
HETATM   38  H   UNL     1     -11.760   3.164  73.886  1.00  0.00     0.000 HD 
HETATM   39  C   UNL     1     -10.034   2.246  71.700  1.00  0.00    -0.176 A  
HETATM   40  C   UNL     1      -9.037   2.267  70.706  1.00  0.00    -0.169 A  
HETATM   41  C   UNL     1      -8.295   3.420  70.437  1.00  0.00    -0.084 A  
HETATM   42  C   UNL     1      -8.535   4.583  71.171  1.00  0.00    -0.117 A  
HETATM   43  C   UNL     1      -9.391   4.506  72.259  1.00  0.00    -0.165 A  
HETATM   44  C   UNL     1      -8.145   5.961  70.738  1.00  0.00    -0.119 C  
HETATM   45  C   UNL     1      -9.152   6.435  69.643  1.00  0.00    -0.143 C  
ENDBRANCH  27  28
ENDBRANCH  16  24
TORSDOF 2
ENDMDL
MODEL        2
REMARK 921   NORMALIZED FREE ENERGY PREDICTED BY IDOCK:   -7.85 KCAL/MOL
REMARK 922        TOTAL FREE ENERGY PREDICTED BY IDOCK:   -9.94 KCAL/MOL
REMARK 923 INTER-LIGAND FREE ENERGY PREDICTED BY IDOCK:   -8.84 KCAL/MOL
REMARK 924 INTRA-LIGAND FREE ENERGY PREDICTED BY IDOCK:   -1.10 KCAL/MOL
REMARK 927      BINDING AFFINITY PREDICTED BY RF-SCORE:    0.00 PKD
ROOT
HETATM    1  C   UNL     1      -9.712   7.172  71.835  1.00  0.00    -0.156 C  
HETATM    2  C   UNL     1     -10.178   7.755  73.178  1.00  0.00    -0.398 C  
HETATM    3  C   UNL     1     -10.269   6.504  74.114  1.00  0.00    -0.380 C  
HETATM    4  C   UNL     1     -10.028   5.288  73.227  1.00  0.00    -0.165 C  
HETATM    5  N   UNL     1     -10.146   5.797  71.875  1.00  0.00    -0.181 N  
HETATM    6  C   UNL     1      -9.754   4.950  70.867  1.00  0.00    -0.195 C  
HETATM    7  O   UNL     1     -10.004   3.749  70.920  1.00  0.00    -0.168 OA 
HETATM    8  C   UNL     1      -9.141   5.667  69.640  1.00  0.00    -0.130 C  
HETATM    9  N   UNL     1      -8.326   6.967  70.062  1.00  0.00    -0.137 N  
HETATM   10  C   UNL     1      -8.462   4.638  68.747  1.00  0.00    -0.092 C  
HETATM   11  C   UNL     1      -7.236   4.068  69.436  1.00  0.00    -0.050 C  
HETATM   12  C   UNL     1      -7.609   7.846  69.244  1.00  0.00    -0.097 C  
HETATM   13  C   UNL     1      -9.461   3.697  68.051  1.00  0.00    -0.218 C  
HETATM   14  O   UNL     1      -6.434   8.153  69.442  1.00  0.00    -0.034 OA 
HETATM   15  C   UNL     1      -6.364   3.317  68.459  1.00  0.00    -0.032 C  
HETATM   16  C   UNL     1      -8.541   8.284  68.121  1.00  0.00    -0.132 C  
HETATM   17  H   UNL     1      -8.722   9.624  69.995  1.00  0.00     0.000 HD 
HETATM   18  C   UNL     1      -7.839   7.320  67.033  1.00  0.00    -0.112 C  
HETATM   19  O   UNL     1      -9.824   8.014  69.033  1.00  0.00    -0.171 OA 
HETATM   20  O   UNL     1      -8.941   9.204  70.819  1.00  0.00    -0.209 OA 
HETATM   21  C   UNL     1      -9.335   7.897  70.416  1.00  0.00    -0.159 C  
HETATM   22  C   UNL     1      -6.574   7.913  66.350  1.00  0.00    -0.050 C  
HETATM   23  C   UNL     1      -8.685   6.609  65.986  1.00  0.00    -0.155 C  
ENDROOT
BRANCH  16  24
HETATM   24  N   UNL     1      -8.934   9.444  67.372  1.00  0.00    -0.124 N  
HETATM   25  H   UNL     1      -9.734   9.303  66.756  1.00  0.00     0.000 HD 
HETATM   26  O   UNL     1      -7.364  11.031  67.900  1.00  0.00    -0.088 OA 
HETATM   27  C   UNL     1      -8.406  10.716  67.350  1.00  0.00    -0.119 C  
BRANCH  27  28
HETATM   28  C   UNL     1      -9.315  11.661  66.555  1.00  0.00    -0.216 C  
HETATM   29  C   UNL     1     -10.770  11.135  66.629  1.00  0.00    -0.269 C  
HETATM   30  N   UNL     1     -11.553  11.684  67.749  1.00  0.00    -0.484 NA 
HETATM   31  C   UNL     1     -10.913  11.466  69.056  1.00  0.00    -0.236 C  
HETATM   32  C   UNL     1     -11.834  13.126  67.476  1.00  0.00    -0.360 C  
HETATM   33  C   UNL     1     -12.396  13.914  68.725  1.00  0.00    -0.056 C  
HETATM   34  C   UNL     1     -11.650  15.167  69.010  1.00  0.00    -0.350 A  
HETATM   35  C   UNL     1     -11.524  15.965  70.125  1.00  0.00    -0.361 A  
HETATM   36  N   UNL     1     -10.790  17.074  69.769  1.00  0.00    -0.340 NA 
HETATM   37  C   UNL     1     -10.422  17.003  68.444  1.00  0.00    -0.370 A  
HETATM   38  H   UNL     1     -10.551  17.840  70.399  1.00  0.00     0.000 HD 
HETATM   39  C   UNL     1      -9.686  17.836  67.596  1.00  0.00    -0.282 A  
HETATM   40  C   UNL     1      -9.493  17.393  66.274  1.00  0.00    -0.247 A  
HETATM   41  C   UNL     1      -9.914  16.127  65.856  1.00  0.00    -0.384 A  
HETATM   42  C   UNL     1     -10.550  15.278  66.762  1.00  0.00    -0.304 A  
HETATM   43  C   UNL     1     -10.891  15.784  68.007  1.00  0.00    -0.309 A  
HETATM   44  C   UNL     1     -10.673  13.796  66.600  1.00  0.00    -0.277 C  
HETATM   45  C   UNL     1      -9.295  13.148  66.947  1.00  0.00    -0.246 C  
ENDBRANCH  27  28
ENDBRANCH  16  24
TORSDOF 2
ENDMDL
MODEL        3
REMARK 921   NORMALIZED FREE ENERGY PREDICTED BY IDOCK:   -7.81 KCAL/MOL
REMARK 922        TOTAL FREE ENERGY PREDICTED BY IDOCK:   -9.90 KCAL/MOL
REMARK 923 INTER-LIGAND FREE ENERGY PREDICTED BY IDOCK:   -9.30 KCAL/MOL
REMARK 924 INTRA-LIGAND FREE ENERGY PREDICTED BY IDOCK:   -0.60 KCAL/MOL
REMARK 927      BINDING AFFINITY PREDICTED BY RF-SCORE:    0.00 PKD
ROOT
HETATM    1  C   UNL     1      -9.351   3.766  68.534  1.00  0.00    -0.166 C  
HETATM    2  C   UNL     1      -9.435   3.058  67.174  1.00  0.00    -0.118 C  
HETATM    3  C   UNL     1      -9.360   1.538  67.541  1.00  0.00    -0.100 C  
HETATM    4  C   UNL     1      -9.065   1.474  69.034  1.00  0.00    -0.107 C  
HETATM    5  N   UNL     1      -8.665   2.823  69.384  1.00  0.00    -0.073 N  
HETATM    6  C   UNL     1      -8.555   3.099  70.725  1.00  0.00    -0.071 C  
HETATM    7  O   UNL     1      -8.082   2.274  71.501  1.00  0.00    -0.049 OA 
HETATM    8  C   UNL     1      -8.917   4.555  71.103  1.00  0.00    -0.125 C  
HETATM    9  N   UNL     1     -10.077   5.134  70.179  1.00  0.00    -0.251 N  
HETATM   10  C   UNL     1      -9.070   4.657  72.614  1.00  0.00    -0.140 C  
HETATM   11  C   UNL     1     -10.293   3.887  73.074  1.00  0.00    -0.239 C  
HETATM   12  C   UNL     1     -10.691   6.389  70.240  1.00  0.00    -0.266 C  
HETATM   13  C   UNL     1      -7.734   4.498  73.362  1.00  0.00    -0.090 C  
HETATM   14  O   UNL     1     -11.910   6.547  70.310  1.00  0.00    -0.413 OA 
HETATM   15  C   UNL     1     -10.660   4.249  74.494  1.00  0.00    -0.233 C  
HETATM   16  C   UNL     1      -9.586   7.437  70.228  1.00  0.00    -0.165 C  
HETATM   17  H   UNL     1     -10.253   6.828  68.101  1.00  0.00     0.000 HD 
HETATM   18  C   UNL     1      -9.716   7.732  71.810  1.00  0.00    -0.206 C  
HETATM   19  O   UNL     1      -8.601   6.440  69.463  1.00  0.00    -0.131 OA 
HETATM   20  O   UNL     1     -10.202   5.908  67.868  1.00  0.00    -0.151 OA 
HETATM   21  C   UNL     1      -9.438   5.352  68.934  1.00  0.00    -0.133 C  
HETATM   22  C   UNL     1     -10.820   8.756  72.198  1.00  0.00    -0.400 C  
HETATM   23  C   UNL     1      -8.468   8.003  72.639  1.00  0.00    -0.231 C  
ENDROOT
BRANCH  16  24
HETATM   24  N   UNL     1      -9.246   8.708  69.653  1.00  0.00    -0.155 N  
HETATM   25  H   UNL     1      -8.245   8.897  69.598  1.00  0.00     0.000 HD 
HETATM   26  O   UNL     1     -11.264   9.734  69.285  1.00  0.00    -0.190 OA 
HETATM   27  C   UNL     1     -10.051   9.714  69.165  1.00  0.00    -0.189 C  
BRANCH  27  28
HETATM   28  C   UNL     1      -9.209  10.778  68.452  1.00  0.00    -0.164 C  
HETATM   29  C   UNL     1      -8.191  10.069  67.522  1.00  0.00    -0.114 C  
HETATM   30  N   UNL     1      -8.678   9.855  66.149  1.00  0.00    -0.134 NA 
HETATM   31  C   UNL     1      -9.947   9.110  66.102  1.00  0.00    -0.268 C  
HETATM   32  C   UNL     1      -8.756  11.175  65.455  1.00  0.00    -0.094 C  
HETATM   33  C   UNL     1      -9.548  11.132  64.088  1.00  0.00    -0.290 C  
HETATM   34  C   UNL     1     -10.607  12.170  63.993  1.00  0.00    -0.429 A  
HETATM   35  C   UNL     1     -11.734  12.307  63.214  1.00  0.00    -0.364 A  
HETATM   36  N   UNL     1     -12.281  13.542  63.480  1.00  0.00    -0.897 NA 
HETATM   37  C   UNL     1     -11.538  14.205  64.431  1.00  0.00    -0.362 A  
HETATM   38  H   UNL     1     -13.121  13.915  63.035  1.00  0.00     0.000 HD 
HETATM   39  C   UNL     1     -11.648  15.452  65.053  1.00  0.00    -0.189 A  
HETATM   40  C   UNL     1     -10.681  15.769  66.026  1.00  0.00    -0.311 A  
HETATM   41  C   UNL     1      -9.725  14.837  66.440  1.00  0.00    -0.311 A  
HETATM   42  C   UNL     1      -9.714  13.562  65.874  1.00  0.00    -0.199 A  
HETATM   43  C   UNL     1     -10.553  13.315  64.798  1.00  0.00    -0.402 A  
HETATM   44  C   UNL     1      -9.060  12.363  66.485  1.00  0.00    -0.181 C  
HETATM   45  C   UNL     1      -9.965  11.849  67.649  1.00  0.00    -0.197 C  
ENDBRANCH  27  28
ENDBRANCH  16  24
TORSDOF 2
ENDMDL
MODEL        4
REMARK 921   NORMALIZED FREE ENERGY PREDICTED BY IDOCK:   -7.51 KCAL/MOL
REMARK 922        TOTAL FREE ENERGY PREDICTED BY IDOCK:   -9.57 KCAL/MOL
REMARK 923 INTER-LIGAND FREE ENERGY PREDICTED BY IDOCK:   -8.51 KCAL/MOL
REMARK 924 INTRA-LIGAND FREE ENERGY PREDICTED BY IDOCK:   -1.06 KCAL/MOL
REMARK 927      BINDING AFFINITY PREDICTED BY RF-SCORE:    0.00 PKD
ROOT
HETATM    1  C   UNL     1      -9.652   6.319  68.855  1.00  0.00    -0.126 C  
HETATM    2  C   UNL     1     -10.197   6.302  70.291  1.00  0.00    -0.244 C  
HETATM    3  C   UNL     1     -10.133   4.791  70.695  1.00  0.00    -0.288 C  
HETATM    4  C   UNL     1      -9.734   4.029  69.437  1.00  0.00    -0.135 C  
HETATM    5  N   UNL     1      -9.909   4.987  68.362  1.00  0.00    -0.151 N  
HETATM    6  C   UNL     1      -9.405   4.627  67.136  1.00  0.00    -0.142 C  
HETATM    7  O   UNL     1      -9.502   3.472  66.730  1.00  0.00    -0.196 OA 
HETATM    8  C   UNL     1      -8.882   5.815  66.293  1.00  0.00    -0.140 C  
HETATM    9  N   UNL     1      -8.242   6.950  67.207  1.00  0.00    -0.117 N  
HETATM   10  C   UNL     1      -8.072   5.279  65.122  1.00  0.00    -0.122 C  
HETATM   11  C   UNL     1      -6.788   4.640  65.616  1.00  0.00    -0.061 C  
HETATM   12  C   UNL     1      -7.638   8.147  66.809  1.00  0.00    -0.094 C  
HETATM   13  C   UNL     1      -8.939   4.554  64.076  1.00  0.00    -0.138 C  
HETATM   14  O   UNL     1      -6.512   8.492  67.167  1.00  0.00    -0.056 OA 
HETATM   15  C   UNL     1      -5.821   4.413  64.478  1.00  0.00    -0.014 C  
HETATM   16  C   UNL     1      -8.612   8.860  65.879  1.00  0.00    -0.158 C  
HETATM   17  H   UNL     1      -8.973   9.376  68.102  1.00  0.00     0.000 HD 
HETATM   18  C   UNL     1      -7.786   8.459  64.551  1.00  0.00    -0.121 C  
HETATM   19  O   UNL     1      -9.855   8.123  66.558  1.00  0.00    -0.240 OA 
HETATM   20  O   UNL     1      -9.141   8.658  68.701  1.00  0.00    -0.138 OA 
HETATM   21  C   UNL     1      -9.363   7.557  67.824  1.00  0.00    -0.141 C  
HETATM   22  C   UNL     1      -6.603   9.406  64.202  1.00  0.00    -0.095 C  
HETATM   23  C   UNL     1      -8.529   8.094  63.273  1.00  0.00     0.088 C  
ENDROOT
BRANCH  16  24
HETATM   24  N   UNL     1      -9.144  10.161  65.590  1.00  0.00    -0.169 N  
HETATM   25  H   UNL     1      -9.904  10.170  64.909  1.00  0.00     0.000 HD 
HETATM   26  O   UNL     1      -7.820  11.605  66.782  1.00  0.00    -0.160 OA 
HETATM   27  C   UNL     1      -8.797  11.400  66.082  1.00  0.00    -0.184 C  
BRANCH  27  28
HETATM   28  C   UNL     1      -9.810  12.460  65.633  1.00  0.00    -0.235 C  
HETATM   29  C   UNL     1     -11.241  11.919  65.880  1.00  0.00    -0.322 C  
HETATM   30  N   UNL     1     -11.797  12.267  67.198  1.00  0.00    -0.566 NA 
HETATM   31  C   UNL     1     -10.939  11.835  68.313  1.00  0.00    -0.229 C  
HETATM   32  C   UNL     1     -12.088  13.732  67.226  1.00  0.00    -0.357 C  
HETATM   33  C   UNL     1     -12.398  14.294  68.670  1.00  0.00    -0.056 C  
HETATM   34  C   UNL     1     -11.583  15.487  69.020  1.00  0.00    -0.377 A  
HETATM   35  C   UNL     1     -11.240  16.085  70.211  1.00  0.00    -0.389 A  
HETATM   36  N   UNL     1     -10.555  17.243  69.919  1.00  0.00    -0.170 NA 
HETATM   37  C   UNL     1     -10.432  17.399  68.556  1.00  0.00    -0.370 A  
HETATM   38  H   UNL     1     -10.189  17.894  70.614  1.00  0.00     0.000 HD 
HETATM   39  C   UNL     1      -9.839  18.368  67.741  1.00  0.00    -0.336 A  
HETATM   40  C   UNL     1      -9.897  18.156  66.350  1.00  0.00    -0.353 A  
HETATM   41  C   UNL     1     -10.416  16.976  65.810  1.00  0.00    -0.261 A  
HETATM   42  C   UNL     1     -10.901  15.982  66.661  1.00  0.00    -0.179 A  
HETATM   43  C   UNL     1     -11.001  16.268  68.014  1.00  0.00    -0.328 A  
HETATM   44  C   UNL     1     -11.086  14.547  66.278  1.00  0.00    -0.332 C  
HETATM   45  C   UNL     1      -9.685  13.859  66.258  1.00  0.00    -0.304 C  
ENDBRANCH  27  28
ENDBRANCH  16  24
TORSDOF 2
ENDMDL
MODEL        5
REMARK 921   NORMALIZED FREE ENERGY PREDICTED BY IDOCK:   -7.45 KCAL/MOL
REMARK 922        TOTAL FREE ENERGY PREDICTED BY IDOCK:   -9.50 KCAL/MOL
REMARK 923 INTER-LIGAND FREE ENERGY PREDICTED BY IDOCK:   -8.43 KCAL/MOL
REMARK 924 INTRA-LIGAND FREE ENERGY PREDICTED BY IDOCK:   -1.07 KCAL/MOL
REMARK 927      BINDING AFFINITY PREDICTED BY RF-SCORE:    0.00 PKD
ROOT
HETATM    1  C   UNL     1      -9.822   6.295  70.680  1.00  0.00    -0.184 C  
HETATM    2  C   UNL     1     -10.467   6.546  72.051  1.00  0.00    -0.227 C  
HETATM    3  C   UNL     1     -10.489   5.130  72.716  1.00  0.00    -0.261 C  
HETATM    4  C   UNL     1     -10.031   4.148  71.645  1.00  0.00    -0.170 C  
HETATM    5  N   UNL     1     -10.093   4.904  70.409  1.00  0.00    -0.247 N  
HETATM    6  C   UNL     1      -9.518   4.320  69.307  1.00  0.00    -0.184 C  
HETATM    7  O   UNL     1      -9.628   3.114  69.103  1.00  0.00    -0.149 OA 
HETATM    8  C   UNL     1      -8.891   5.326  68.312  1.00  0.00    -0.104 C  
HETATM    9  N   UNL     1      -8.275   6.590  69.059  1.00  0.00    -0.115 N  
HETATM   10  C   UNL     1      -8.021   4.571  67.317  1.00  0.00    -0.101 C  
HETATM   11  C   UNL     1      -6.800   3.998  68.013  1.00  0.00    -0.047 C  
HETATM   12  C   UNL     1      -7.600   7.682  68.506  1.00  0.00    -0.110 C  
HETATM   13  C   UNL     1      -8.839   3.695  66.351  1.00  0.00    -0.129 C  
HETATM   14  O   UNL     1      -6.490   8.057  68.883  1.00  0.00    -0.045 OA 
HETATM   15  C   UNL     1      -5.764   3.550  67.009  1.00  0.00    -0.022 C  
HETATM   16  C   UNL     1      -8.477   8.242  67.393  1.00  0.00    -0.125 C  
HETATM   17  H   UNL     1      -8.975   9.153  69.458  1.00  0.00     0.000 HD 
HETATM   18  C   UNL     1      -7.575   7.592  66.223  1.00  0.00    -0.088 C  
HETATM   19  O   UNL     1      -9.792   7.668  68.093  1.00  0.00    -0.155 OA 
HETATM   20  O   UNL     1      -9.212   8.556  70.158  1.00  0.00    -0.151 OA 
HETATM   21  C   UNL     1      -9.413   7.324  69.473  1.00  0.00    -0.155 C  
HETATM   22  C   UNL     1      -6.335   8.432  65.805  1.00  0.00    -0.052 C  
HETATM   23  C   UNL     1      -8.239   7.025  64.975  1.00  0.00    -0.091 C  
ENDROOT
BRANCH  16  24
HETATM   24  N   UNL     1      -8.938   9.484  66.841  1.00  0.00    -0.130 N  
HETATM   25  H   UNL     1      -9.655   9.392  66.122  1.00  0.00     0.000 HD 
HETATM   26  O   UNL     1      -7.630  11.082  67.840  1.00  0.00    -0.092 OA 
HETATM   27  C   UNL     1      -8.571  10.782  67.125  1.00  0.00    -0.128 C  
BRANCH  27  28
HETATM   28  C   UNL     1      -9.512  11.771  66.428  1.00  0.00    -0.234 C  
HETATM   29  C   UNL     1     -10.969  11.265  66.577  1.00  0.00    -0.245 C  
HETATM   30  N   UNL     1     -11.667  11.782  67.765  1.00  0.00    -0.536 NA 
HETATM   31  C   UNL     1     -10.948  11.502  69.018  1.00  0.00    -0.234 C  
HETATM   32  C   UNL     1     -11.939  13.237  67.567  1.00  0.00    -0.324 C  
HETATM   33  C   UNL     1     -12.405  13.984  68.880  1.00  0.00    -0.106 C  
HETATM   34  C   UNL     1     -11.620  15.213  69.163  1.00  0.00    -0.343 A  
HETATM   35  C   UNL     1     -11.408  15.964  70.298  1.00  0.00    -0.372 A  
HETATM   36  N   UNL     1     -10.678  17.074  69.938  1.00  0.00    -0.288 NA 
HETATM   37  C   UNL     1     -10.398  17.051  68.590  1.00  0.00    -0.351 A  
HETATM   38  H   UNL     1     -10.385  17.811  70.580  1.00  0.00     0.000 HD 
HETATM   39  C   UNL     1      -9.702  17.905  67.729  1.00  0.00    -0.283 A  
HETATM   40  C   UNL     1      -9.604  17.512  66.380  1.00  0.00    -0.283 A  
HETATM   41  C   UNL     1     -10.073  16.271  65.943  1.00  0.00    -0.381 A  
HETATM   42  C   UNL     1     -10.665  15.396  66.855  1.00  0.00    -0.314 A  
HETATM   43  C   UNL     1     -10.916  15.857  68.138  1.00  0.00    -0.335 A  
HETATM   44  C   UNL     1     -10.825  13.923  66.644  1.00  0.00    -0.289 C  
HETATM   45  C   UNL     1      -9.440  13.241  66.875  1.00  0.00    -0.249 C  
ENDBRANCH  27  28
ENDBRANCH  16  24
TORSDOF 2
ENDMDL
MODEL        6
REMARK 921   NORMALIZED FREE ENERGY PREDICTED BY IDOCK:   -7.34 KCAL/MOL
REMARK 922        TOTAL FREE ENERGY PREDICTED BY IDOCK:   -9.37 KCAL/MOL
REMARK 923 INTER-LIGAND FREE ENERGY PREDICTED BY IDOCK:   -8.99 KCAL/MOL
REMARK 924 INTRA-LIGAND FREE ENERGY PREDICTED BY IDOCK:   -0.38 KCAL/MOL
REMARK 927      BINDING AFFINITY PREDICTED BY RF-SCORE:    0.00 PKD
ROOT
HETATM    1  C   UNL     1     -12.484  13.229  70.621  1.00  0.00    -0.298 C  
HETATM    2  C   UNL     1     -13.530  12.990  71.719  1.00  0.00    -0.401 C  
HETATM    3  C   UNL     1     -14.062  14.425  72.045  1.00  0.00    -0.620 C  
HETATM    4  C   UNL     1     -13.185  15.394  71.261  1.00  0.00    -0.510 C  
HETATM    5  N   UNL     1     -12.057  14.592  70.827  1.00  0.00    -0.308 N  
HETATM    6  C   UNL     1     -11.216  15.169  69.907  1.00  0.00    -0.283 C  
HETATM    7  O   UNL     1     -10.920  16.359  69.983  1.00  0.00    -0.354 OA 
HETATM    8  C   UNL     1     -10.580  14.166  68.915  1.00  0.00    -0.239 C  
HETATM    9  N   UNL     1     -11.570  12.967  68.572  1.00  0.00    -0.305 N  
HETATM   10  C   UNL     1      -9.939  14.934  67.769  1.00  0.00    -0.222 C  
HETATM   11  C   UNL     1     -11.004  15.601  66.919  1.00  0.00    -0.243 C  
HETATM   12  C   UNL     1     -11.366  11.897  67.695  1.00  0.00    -0.304 C  
HETATM   13  C   UNL     1      -8.693  15.727  68.203  1.00  0.00    -0.173 C  
HETATM   14  O   UNL     1     -12.147  11.600  66.791  1.00  0.00    -0.472 OA 
HETATM   15  C   UNL     1     -10.433  16.073  65.603  1.00  0.00    -0.416 C  
HETATM   16  C   UNL     1     -10.040  11.248  68.071  1.00  0.00    -0.177 C  
HETATM   17  H   UNL     1     -11.819  10.384  69.265  1.00  0.00     0.000 HD 
HETATM   18  C   UNL     1      -9.253  11.908  66.825  1.00  0.00    -0.194 C  
HETATM   19  O   UNL     1     -10.171  11.770  69.574  1.00  0.00     0.189 OA 
HETATM   20  O   UNL     1     -12.349  10.990  69.770  1.00  0.00    -0.321 OA 
HETATM   21  C   UNL     1     -11.572  12.184  69.751  1.00  0.00    -0.262 C  
HETATM   22  C   UNL     1      -9.370  11.126  65.486  1.00  0.00    -0.247 C  
HETATM   23  C   UNL     1      -7.819  12.391  66.999  1.00  0.00    -0.086 C  
ENDROOT
BRANCH  16  24
HETATM   24  N   UNL     1      -9.424   9.963  68.243  1.00  0.00    -0.139 N  
HETATM   25  H   UNL     1      -9.012   9.571  67.397  1.00  0.00     0.000 HD 
HETATM   26  O   UNL     1      -9.857   9.402  70.425  1.00  0.00    -0.222 OA 
HETATM   27  C   UNL     1      -9.299   9.172  69.365  1.00  0.00    -0.160 C  
BRANCH  27  28
HETATM   28  C   UNL     1      -8.363   7.990  69.088  1.00  0.00    -0.132 C  
HETATM   29  C   UNL     1      -8.747   6.819  70.026  1.00  0.00    -0.141 C  
HETATM   30  N   UNL     1      -9.731   5.885  69.453  1.00  0.00    -0.146 NA 
HETATM   31  C   UNL     1     -10.967   6.555  69.016  1.00  0.00    -0.321 C  
HETATM   32  C   UNL     1      -9.075   5.109  68.358  1.00  0.00    -0.112 C  
HETATM   33  C   UNL     1     -10.088   4.296  67.456  1.00  0.00    -0.011 C  
HETATM   34  C   UNL     1      -9.905   4.544  66.003  1.00  0.00    -0.240 A  
HETATM   35  C   UNL     1     -10.713   4.371  64.902  1.00  0.00    -0.073 A  
HETATM   36  N   UNL     1      -9.968   4.663  63.782  1.00  0.00    -0.357 NA 
HETATM   37  C   UNL     1      -8.691   5.039  64.137  1.00  0.00    -0.097 A  
HETATM   38  H   UNL     1     -10.312   4.609  62.823  1.00  0.00     0.000 HD 
HETATM   39  C   UNL     1      -7.560   5.434  63.416  1.00  0.00    -0.065 A  
HETATM   40  C   UNL     1      -6.416   5.779  64.160  1.00  0.00    -0.033 A  
HETATM   41  C   UNL     1      -6.441   5.840  65.556  1.00  0.00    -0.043 A  
HETATM   42  C   UNL     1      -7.621   5.544  66.240  1.00  0.00    -0.091 A  
HETATM   43  C   UNL     1      -8.689   5.038  65.514  1.00  0.00    -0.143 A  
HETATM   44  C   UNL     1      -7.920   5.959  67.645  1.00  0.00    -0.102 C  
HETATM   45  C   UNL     1      -8.293   7.476  67.641  1.00  0.00    -0.118 C  
ENDBRANCH  27  28
ENDBRANCH  16  24
TORSDOF 2
ENDMDL
MODEL        7
REMARK 921   NORMALIZED FREE ENERGY PREDICTED BY IDOCK:   -7.20 KCAL/MOL
REMARK 922        TOTAL FREE ENERGY PREDICTED BY IDOCK:   -9.22 KCAL/MOL
REMARK 923 INTER-LIGAND FREE ENERGY PREDICTED BY IDOCK:   -8.09 KCAL/MOL
REMARK 924 INTRA-LIGAND FREE ENERGY PREDICTED BY IDOCK:   -1.13 KCAL/MOL
REMARK 927      BINDING AFFINITY PREDICTED BY RF-SCORE:    0.00 PKD
ROOT
HETATM    1  C   UNL     1      -9.737   6.249  72.339  1.00  0.00    -0.153 C  
HETATM    2  C   UNL     1     -10.187   6.666  73.746  1.00  0.00    -0.354 C  
HETATM    3  C   UNL     1     -10.188   5.323  74.550  1.00  0.00    -0.299 C  
HETATM    4  C   UNL     1      -9.917   4.219  73.536  1.00  0.00    -0.132 C  
HETATM    5  N   UNL     1     -10.103   4.856  72.247  1.00  0.00    -0.185 N  
HETATM    6  C   UNL     1      -9.703   4.137  71.147  1.00  0.00    -0.188 C  
HETATM    7  O   UNL     1      -9.894   2.926  71.082  1.00  0.00    -0.150 OA 
HETATM    8  C   UNL     1      -9.165   5.006  69.985  1.00  0.00    -0.131 C  
HETATM    9  N   UNL     1      -8.401   6.297  70.517  1.00  0.00    -0.127 N  
HETATM   10  C   UNL     1      -8.466   4.111  68.972  1.00  0.00    -0.101 C  
HETATM   11  C   UNL     1      -7.193   3.536  69.565  1.00  0.00    -0.045 C  
HETATM   12  C   UNL     1      -7.753   7.290  69.776  1.00  0.00    -0.107 C  
HETATM   13  C   UNL     1      -9.441   3.195  68.209  1.00  0.00    -0.215 C  
HETATM   14  O   UNL     1      -6.588   7.634  69.973  1.00  0.00    -0.037 OA 
HETATM   15  C   UNL     1      -6.317   2.935  68.492  1.00  0.00    -0.029 C  
HETATM   16  C   UNL     1      -8.740   7.793  68.730  1.00  0.00    -0.128 C  
HETATM   17  H   UNL     1      -8.925   8.923  70.737  1.00  0.00     0.000 HD 
HETATM   18  C   UNL     1      -8.027   6.982  67.529  1.00  0.00    -0.113 C  
HETATM   19  O   UNL     1      -9.978   7.365  69.642  1.00  0.00    -0.177 OA 
HETATM   20  O   UNL     1      -9.097   8.410  71.518  1.00  0.00    -0.159 OA 
HETATM   21  C   UNL     1      -9.441   7.132  70.992  1.00  0.00    -0.159 C  
HETATM   22  C   UNL     1      -6.815   7.706  66.877  1.00  0.00    -0.068 C  
HETATM   23  C   UNL     1      -8.872   6.339  66.437  1.00  0.00    -0.147 C  
ENDROOT
BRANCH  16  24
HETATM   24  N   UNL     1      -9.212   9.001  68.116  1.00  0.00    -0.136 N  
HETATM   25  H   UNL     1      -9.995   8.877  67.475  1.00  0.00     0.000 HD 
HETATM   26  O   UNL     1      -7.765  10.623  68.848  1.00  0.00    -0.103 OA 
HETATM   27  C   UNL     1      -8.778  10.302  68.250  1.00  0.00    -0.126 C  
BRANCH  27  28
HETATM   28  C   UNL     1      -9.748  11.266  67.558  1.00  0.00    -0.192 C  
HETATM   29  C   UNL     1     -11.181  10.682  67.646  1.00  0.00    -0.290 C  
HETATM   30  N   UNL     1     -11.939  11.121  68.828  1.00  0.00    -0.523 NA 
HETATM   31  C   UNL     1     -11.243  10.835  70.093  1.00  0.00    -0.267 C  
HETATM   32  C   UNL     1     -12.280  12.567  68.671  1.00  0.00     0.088 C  
HETATM   33  C   UNL     1     -12.822  13.243  69.993  1.00  0.00     0.270 C  
HETATM   34  C   UNL     1     -12.109  14.500  70.340  1.00  0.00    -0.389 A  
HETATM   35  C   UNL     1     -11.969  15.221  71.505  1.00  0.00    -0.366 A  
HETATM   36  N   UNL     1     -11.288  16.379  71.205  1.00  0.00    -0.451 NA 
HETATM   37  C   UNL     1     -10.968  16.416  69.866  1.00  0.00    -0.338 A  
HETATM   38  H   UNL     1     -11.052  17.107  71.879  1.00  0.00     0.000 HD 
HETATM   39  C   UNL     1     -10.293  17.334  69.055  1.00  0.00    -0.330 A  
HETATM   40  C   UNL     1     -10.135  16.993  67.698  1.00  0.00    -0.298 A  
HETATM   41  C   UNL     1     -10.527  15.745  67.205  1.00  0.00    -0.308 A  
HETATM   42  C   UNL     1     -11.099  14.811  68.069  1.00  0.00    -0.294 A  
HETATM   43  C   UNL     1     -11.410  15.214  69.359  1.00  0.00    -0.307 A  
HETATM   44  C   UNL     1     -11.177  13.340  67.805  1.00  0.00    -0.308 C  
HETATM   45  C   UNL     1      -9.765  12.721  68.056  1.00  0.00    -0.220 C  
ENDBRANCH  27  28
ENDBRANCH  16  24
TORSDOF 2
ENDMDL
MODEL        8
REMARK 921   NORMALIZED FREE ENERGY PREDICTED BY IDOCK:   -7.03 KCAL/MOL
REMARK 922        TOTAL FREE ENERGY PREDICTED BY IDOCK:   -9.03 KCAL/MOL
REMARK 923 INTER-LIGAND FREE ENERGY PREDICTED BY IDOCK:   -7.86 KCAL/MOL
REMARK 924 INTRA-LIGAND FREE ENERGY PREDICTED BY IDOCK:   -1.17 KCAL/MOL
REMARK 927      BINDING AFFINITY PREDICTED BY RF-SCORE:    0.00 PKD
ROOT
HETATM    1  C   UNL     1      -8.143   9.721  64.582  1.00  0.00    -0.148 C  
HETATM    2  C   UNL     1      -7.771  10.187  63.166  1.00  0.00    -0.151 C  
HETATM    3  C   UNL     1      -7.346   8.868  62.440  1.00  0.00    -0.099 C  
HETATM    4  C   UNL     1      -7.330   7.780  63.506  1.00  0.00    -0.097 C  
HETATM    5  N   UNL     1      -7.393   8.501  64.762  1.00  0.00    -0.088 N  
HETATM    6  C   UNL     1      -7.616   7.747  65.888  1.00  0.00    -0.090 C  
HETATM    7  O   UNL     1      -7.085   6.648  66.027  1.00  0.00    -0.060 OA 
HETATM    8  C   UNL     1      -8.433   8.473  66.984  1.00  0.00    -0.114 C  
HETATM    9  N   UNL     1      -9.514   9.460  66.358  1.00  0.00    -0.184 N  
HETATM   10  C   UNL     1      -8.886   7.460  68.025  1.00  0.00    -0.126 C  
HETATM   11  C   UNL     1      -9.911   6.513  67.428  1.00  0.00    -0.180 C  
HETATM   12  C   UNL     1     -10.453  10.254  67.024  1.00  0.00    -0.244 C  
HETATM   13  C   UNL     1      -7.723   6.903  68.865  1.00  0.00    -0.110 C  
HETATM   14  O   UNL     1     -11.659  10.234  66.775  1.00  0.00     0.212 OA 
HETATM   15  C   UNL     1     -10.622   5.731  68.508  1.00  0.00    -0.299 C  
HETATM   16  C   UNL     1      -9.701  11.069  68.068  1.00  0.00    -0.172 C  
HETATM   17  H   UNL     1      -9.763  12.112  66.008  1.00  0.00     0.000 HD 
HETATM   18  C   UNL     1     -10.200  10.141  69.292  1.00  0.00    -0.238 C  
HETATM   19  O   UNL     1      -8.353  10.980  67.217  1.00  0.00    -0.121 OA 
HETATM   20  O   UNL     1      -9.416  11.637  65.261  1.00  0.00    -0.220 OA 
HETATM   21  C   UNL     1      -8.741  10.540  65.868  1.00  0.00    -0.167 C  
HETATM   22  C   UNL     1     -11.598  10.508  69.866  1.00  0.00    -0.384 C  
HETATM   23  C   UNL     1      -9.255   9.822  70.441  1.00  0.00    -0.169 C  
ENDROOT
BRANCH  16  24
HETATM   24  N   UNL     1      -9.627  12.388  68.627  1.00  0.00    -0.394 N  
HETATM   25  H   UNL     1      -9.093  12.456  69.493  1.00  0.00     0.000 HD 
HETATM   26  O   UNL     1     -10.948  13.670  67.258  1.00  0.00    -0.280 OA 
HETATM   27  C   UNL     1     -10.160  13.580  68.184  1.00  0.00    -0.250 C  
BRANCH  27  28
HETATM   28  C   UNL     1      -9.614  14.752  69.008  1.00  0.00    -0.178 C  
HETATM   29  C   UNL     1      -8.183  14.401  69.489  1.00  0.00     0.316 C  
HETATM   30  N   UNL     1      -7.116  14.837  68.574  1.00  0.00    -0.104 NA 
HETATM   31  C   UNL     1      -7.286  14.318  67.207  1.00  0.00    -0.024 C  
HETATM   32  C   UNL     1      -7.024  16.328  68.620  1.00  0.00    -0.148 C  
HETATM   33  C   UNL     1      -6.137  16.948  67.468  1.00  0.00    -0.171 C  
HETATM   34  C   UNL     1      -6.825  18.033  66.720  1.00  0.00    -0.228 A  
HETATM   35  C   UNL     1      -6.633  18.602  65.482  1.00  0.00    -0.272 A  
HETATM   36  N   UNL     1      -7.507  19.659  65.363  1.00  0.00    -0.391 NA 
HETATM   37  C   UNL     1      -8.278  19.776  66.499  1.00  0.00    -0.335 A  
HETATM   38  H   UNL     1      -7.575  20.269  64.548  1.00  0.00     0.000 HD 
HETATM   39  C   UNL     1      -9.297  20.649  66.893  1.00  0.00    -0.373 A  
HETATM   40  C   UNL     1      -9.878  20.423  68.155  1.00  0.00    -0.321 A  
HETATM   41  C   UNL     1      -9.540  19.310  68.930  1.00  0.00    -0.466 A  
HETATM   42  C   UNL     1      -8.596  18.399  68.454  1.00  0.00    -0.345 A  
HETATM   43  C   UNL     1      -7.903  18.718  67.296  1.00  0.00    -0.243 A  
HETATM   44  C   UNL     1      -8.444  16.994  68.944  1.00  0.00    -0.193 C  
HETATM   45  C   UNL     1      -9.595  16.133  68.334  1.00  0.00    -0.209 C  
ENDBRANCH  27  28
ENDBRANCH  16  24
TORSDOF 2
ENDMDL
MODEL        9
REMARK 921   NORMALIZED FREE ENERGY PREDICTED BY IDOCK:   -6.98 KCAL/MOL
REMARK 922        TOTAL FREE ENERGY PREDICTED BY IDOCK:   -8.97 KCAL/MOL
REMARK 923 INTER-LIGAND FREE ENERGY PREDICTED BY IDOCK:   -8.03 KCAL/MOL
REMARK 924 INTRA-LIGAND FREE ENERGY PREDICTED BY IDOCK:   -0.94 KCAL/MOL
REMARK 927      BINDING AFFINITY PREDICTED BY RF-SCORE:    0.00 PKD
ROOT
HETATM    1  C   UNL     1     -11.554   8.707  70.638  1.00  0.00    -0.200 C  
HETATM    2  C   UNL     1     -12.793   9.185  71.410  1.00  0.00    -0.376 C  
HETATM    3  C   UNL     1     -13.372   7.872  72.033  1.00  0.00    -0.251 C  
HETATM    4  C   UNL     1     -12.555   6.725  71.451  1.00  0.00    -0.297 C  
HETATM    5  N   UNL     1     -11.831   7.322  70.344  1.00  0.00    -0.191 N  
HETATM    6  C   UNL     1     -10.843   6.555  69.777  1.00  0.00    -0.295 C  
HETATM    7  O   UNL     1     -10.997   5.347  69.615  1.00  0.00    -0.232 OA 
HETATM    8  C   UNL     1      -9.643   7.369  69.235  1.00  0.00    -0.154 C  
HETATM    9  N   UNL     1      -9.355   8.658  70.124  1.00  0.00    -0.160 N  
HETATM   10  C   UNL     1      -8.492   6.421  68.930  1.00  0.00    -0.121 C  
HETATM   11  C   UNL     1      -7.936   5.836  70.215  1.00  0.00    -0.104 C  
HETATM   12  C   UNL     1      -8.340   9.608  69.972  1.00  0.00    -0.182 C  
HETATM   13  C   UNL     1      -8.775   5.504  67.726  1.00  0.00    -0.106 C  
HETATM   14  O   UNL     1      -7.568   9.929  70.876  1.00  0.00    -0.293 OA 
HETATM   15  C   UNL     1      -6.599   5.175  69.976  1.00  0.00    -0.036 C  
HETATM   16  C   UNL     1      -8.388  10.097  68.530  1.00  0.00    -0.116 C  
HETATM   17  H   UNL     1      -9.785  11.302  69.922  1.00  0.00     0.000 HD 
HETATM   18  C   UNL     1      -7.101   9.228  68.090  1.00  0.00    -0.077 C  
HETATM   19  O   UNL     1      -9.939   9.734  68.422  1.00  0.00    -0.149 OA 
HETATM   20  O   UNL     1     -10.444  10.822  70.409  1.00  0.00     0.137 OA 
HETATM   21  C   UNL     1     -10.418   9.535  69.799  1.00  0.00    -0.231 C  
HETATM   22  C   UNL     1      -5.727   9.897  68.377  1.00  0.00    -0.042 C  
HETATM   23  C   UNL     1      -7.060   8.568  66.718  1.00  0.00    -0.074 C  
ENDROOT
BRANCH  16  24
HETATM   24  N   UNL     1      -8.296  11.295  67.745  1.00  0.00    -0.121 N  
HETATM   25  H   UNL     1      -8.527  11.178  66.758  1.00  0.00     0.000 HD 
HETATM   26  O   UNL     1      -7.497  12.879  69.199  1.00  0.00     0.034 OA 
HETATM   27  C   UNL     1      -7.947  12.578  68.106  1.00  0.00    -0.157 C  
BRANCH  27  28
HETATM   28  C   UNL     1      -8.216  13.553  66.954  1.00  0.00     0.046 C  
HETATM   29  C   UNL     1      -9.700  13.424  66.526  1.00  0.00    -0.282 C  
HETATM   30  N   UNL     1     -10.610  14.347  67.224  1.00  0.00    -0.276 NA 
HETATM   31  C   UNL     1     -10.537  14.224  68.689  1.00  0.00    -0.250 C  
HETATM   32  C   UNL     1     -10.344  15.737  66.746  1.00  0.00    -0.293 C  
HETATM   33  C   UNL     1     -11.030  16.857  67.625  1.00  0.00    -0.165 C  
HETATM   34  C   UNL     1     -10.085  17.919  68.060  1.00  0.00    -0.360 A  
HETATM   35  C   UNL     1     -10.107  18.853  69.070  1.00  0.00    -0.250 A  
HETATM   36  N   UNL     1      -9.003  19.662  68.921  1.00  0.00    -0.289 NA 
HETATM   37  C   UNL     1      -8.254  19.258  67.838  1.00  0.00    -0.305 A  
HETATM   38  H   UNL     1      -8.772  20.449  69.527  1.00  0.00     0.000 HD 
HETATM   39  C   UNL     1      -7.065  19.712  67.258  1.00  0.00    -0.237 A  
HETATM   40  C   UNL     1      -6.584  18.998  66.144  1.00  0.00    -0.241 A  
HETATM   41  C   UNL     1      -7.197  17.820  65.709  1.00  0.00    -0.154 A  
HETATM   42  C   UNL     1      -8.320  17.336  66.381  1.00  0.00    -0.315 A  
HETATM   43  C   UNL     1      -8.889  18.132  67.363  1.00  0.00    -0.256 A  
HETATM   44  C   UNL     1      -8.814  15.926  66.311  1.00  0.00    -0.386 C  
HETATM   45  C   UNL     1      -7.889  15.035  67.199  1.00  0.00    -0.224 C  
ENDBRANCH  27  28
ENDBRANCH  16  24
TORSDOF 2
ENDMDL
MODEL       10
REMARK 921   NORMALIZED FREE ENERGY PREDICTED BY IDOCK:   -6.93 KCAL/MOL
REMARK 922        TOTAL FREE ENERGY PREDICTED BY IDOCK:   -8.92 KCAL/MOL
REMARK 923 INTER-LIGAND FREE ENERGY PREDICTED BY IDOCK:   -8.35 KCAL/MOL
REMARK 924 INTRA-LIGAND FREE ENERGY PREDICTED BY IDOCK:   -0.57 KCAL/MOL
REMARK 927      BINDING AFFINITY PREDICTED BY RF-SCORE:    0.00 PKD
ROOT
HETATM    1  C   UNL     1      -8.679   9.391  64.772  1.00  0.00    -0.197 C  
HETATM    2  C   UNL     1      -8.308   8.831  63.391  1.00  0.00    -0.157 C  
HETATM    3  C   UNL     1      -8.034   7.315  63.665  1.00  0.00    -0.073 C  
HETATM    4  C   UNL     1      -8.088   7.139  65.178  1.00  0.00    -0.127 C  
HETATM    5  N   UNL     1      -8.043   8.490  65.703  1.00  0.00    -0.112 N  
HETATM    6  C   UNL     1      -8.302   8.633  67.044  1.00  0.00    -0.106 C  
HETATM    7  O   UNL     1      -7.875   7.819  67.859  1.00  0.00    -0.122 OA 
HETATM    8  C   UNL     1      -9.012   9.957  67.414  1.00  0.00    -0.135 C  
HETATM    9  N   UNL     1     -10.013  10.430  66.270  1.00  0.00    -0.216 N  
HETATM   10  C   UNL     1      -9.528   9.867  68.843  1.00  0.00    -0.170 C  
HETATM   11  C   UNL     1     -10.656   8.856  68.934  1.00  0.00    -0.188 C  
HETATM   12  C   UNL     1     -10.851  11.549  66.258  1.00  0.00    -0.282 C  
HETATM   13  C   UNL     1      -8.397   9.854  69.888  1.00  0.00    -0.200 C  
HETATM   14  O   UNL     1     -12.060  11.491  66.033  1.00  0.00    -0.128 OA 
HETATM   15  C   UNL     1     -11.404   8.994  70.239  1.00  0.00    -0.202 C  
HETATM   16  C   UNL     1      -9.992  12.764  66.589  1.00  0.00    -0.245 C  
HETATM   17  H   UNL     1     -10.019  12.287  64.328  1.00  0.00     0.000 HD 
HETATM   18  C   UNL     1     -10.540  12.858  68.105  1.00  0.00    -0.249 C  
HETATM   19  O   UNL     1      -8.686  12.036  66.030  1.00  0.00    -0.050 OA 
HETATM   20  O   UNL     1      -9.742  11.419  64.056  1.00  0.00    -0.238 OA 
HETATM   21  C   UNL     1      -9.155  10.886  65.240  1.00  0.00    -0.197 C  
HETATM   22  C   UNL     1     -11.878  13.634  68.272  1.00  0.00    -0.404 C  
HETATM   23  C   UNL     1      -9.594  13.243  69.234  1.00  0.00     0.693 C  
ENDROOT
BRANCH  16  24
HETATM   24  N   UNL     1      -9.775  14.128  66.201  1.00  0.00    -0.360 N  
HETATM   25  H   UNL     1     -10.526  14.538  65.644  1.00  0.00     0.000 HD 
HETATM   26  O   UNL     1      -7.672  14.621  66.972  1.00  0.00    -0.146 OA 
HETATM   27  C   UNL     1      -8.719  14.976  66.457  1.00  0.00    -0.208 C  
BRANCH  27  28
HETATM   28  C   UNL     1      -9.058  16.405  66.018  1.00  0.00    -0.317 C  
HETATM   29  C   UNL     1     -10.390  16.830  66.685  1.00  0.00    -0.297 C  
HETATM   30  N   UNL     1     -10.225  17.507  67.982  1.00  0.00    -0.334 NA 
HETATM   31  C   UNL     1      -9.456  16.708  68.950  1.00  0.00    -0.251 C  
HETATM   32  C   UNL     1      -9.633  18.858  67.747  1.00  0.00    -0.312 C  
HETATM   33  C   UNL     1      -9.120  19.568  69.063  1.00  0.00    -0.268 C  
HETATM   34  C   UNL     1      -7.723  20.061  68.953  1.00  0.00    -0.066 A  
HETATM   35  C   UNL     1      -6.761  20.400  69.878  1.00  0.00     0.051 A  
HETATM   36  N   UNL     1      -5.680  20.910  69.195  1.00  0.00    -0.359 NA 
HETATM   37  C   UNL     1      -5.916  20.893  67.838  1.00  0.00    -0.322 A  
HETATM   38  H   UNL     1      -4.824  21.252  69.632  1.00  0.00     0.000 HD 
HETATM   39  C   UNL     1      -5.172  21.279  66.719  1.00  0.00    -0.291 A  
HETATM   40  C   UNL     1      -5.761  21.071  65.457  1.00  0.00    -0.271 A  
HETATM   41  C   UNL     1      -6.980  20.403  65.319  1.00  0.00    -0.240 A  
HETATM   42  C   UNL     1      -7.644  19.934  66.453  1.00  0.00    -0.313 A  
HETATM   43  C   UNL     1      -7.148  20.293  67.697  1.00  0.00    -0.325 A  
HETATM   44  C   UNL     1      -8.697  18.872  66.448  1.00  0.00    -0.308 C  
HETATM   45  C   UNL     1      -7.996  17.487  66.275  1.00  0.00    -0.303 C  
ENDBRANCH  27  28
ENDBRANCH  16  24
TORSDOF 2
ENDMDL
MODEL       11
REMARK 921   NORMALIZED FREE ENERGY PREDICTED BY IDOCK:   -6.92 KCAL/MOL
REMARK 922        TOTAL FREE ENERGY PREDICTED BY IDOCK:   -8.90 KCAL/MOL
REMARK 923 INTER-LIGAND FREE ENERGY PREDICTED BY IDOCK:   -7.65 KCAL/MOL
REMARK 924 INTRA-LIGAND FREE ENERGY PREDICTED BY IDOCK:   -1.25 KCAL/MOL
REMARK 927      BINDING AFFINITY PREDICTED BY RF-SCORE:    0.00 PKD
ROOT
HETATM    1  C   UNL     1     -11.572  11.267  70.188  1.00  0.00    -0.305 C  
HETATM    2  C   UNL     1     -11.867  12.747  69.904  1.00  0.00    -0.371 C  
HETATM    3  C   UNL     1     -12.780  13.180  71.099  1.00  0.00    -0.386 C  
HETATM    4  C   UNL     1     -13.092  11.909  71.880  1.00  0.00    -0.369 C  
HETATM    5  N   UNL     1     -12.683  10.832  70.999  1.00  0.00    -0.390 N  
HETATM    6  C   UNL     1     -12.650   9.573  71.548  1.00  0.00    -0.373 C  
HETATM    7  O   UNL     1     -13.518   9.206  72.336  1.00  0.00    -0.442 OA 
HETATM    8  C   UNL     1     -11.548   8.657  70.964  1.00  0.00    -0.281 C  
HETATM    9  N   UNL     1     -10.243   9.480  70.570  1.00  0.00    -0.269 N  
HETATM   10  C   UNL     1     -11.397   7.429  71.850  1.00  0.00    -0.294 C  
HETATM   11  C   UNL     1     -10.816   7.818  73.196  1.00  0.00    -0.401 C  
HETATM   12  C   UNL     1      -9.037   8.999  70.051  1.00  0.00    -0.176 C  
HETATM   13  C   UNL     1     -12.612   6.486  71.778  1.00  0.00    -0.240 C  
HETATM   14  O   UNL     1      -7.938   9.242  70.548  1.00  0.00    -0.135 OA 
HETATM   15  C   UNL     1     -10.340   6.601  73.954  1.00  0.00    -0.385 C  
HETATM   16  C   UNL     1      -9.375   8.145  68.835  1.00  0.00    -0.147 C  
HETATM   17  H   UNL     1      -9.113  10.379  68.305  1.00  0.00     0.000 HD 
HETATM   18  C   UNL     1      -9.136   6.757  69.623  1.00  0.00    -0.143 C  
HETATM   19  O   UNL     1     -10.731   8.954  68.600  1.00  0.00    -0.178 OA 
HETATM   20  O   UNL     1      -9.661  11.008  68.760  1.00  0.00    -0.188 OA 
HETATM   21  C   UNL     1     -10.628  10.183  69.403  1.00  0.00    -0.237 C  
HETATM   22  C   UNL     1      -7.658   6.277  69.675  1.00  0.00    -0.094 C  
HETATM   23  C   UNL     1     -10.040   5.562  69.353  1.00  0.00    -0.306 C  
ENDROOT
BRANCH  16  24
HETATM   24  N   UNL     1      -8.940   7.875  67.494  1.00  0.00    -0.127 N  
HETATM   25  H   UNL     1      -9.333   7.030  67.080  1.00  0.00     0.000 HD 
HETATM   26  O   UNL     1      -7.399   9.514  67.045  1.00  0.00    -0.087 OA 
HETATM   27  C   UNL     1      -8.078   8.571  66.674  1.00  0.00    -0.104 C  
BRANCH  27  28
HETATM   28  C   UNL     1      -8.110   8.000  65.252  1.00  0.00    -0.138 C  
HETATM   29  C   UNL     1      -6.701   8.145  64.624  1.00  0.00    -0.067 C  
HETATM   30  N   UNL     1      -5.826   6.980  64.833  1.00  0.00    -0.036 NA 
HETATM   31  C   UNL     1      -5.667   6.631  66.254  1.00  0.00    -0.025 C  
HETATM   32  C   UNL     1      -6.337   5.842  64.012  1.00  0.00    -0.029 C  
HETATM   33  C   UNL     1      -5.682   4.449  64.372  1.00  0.00    -0.014 C  
HETATM   34  C   UNL     1      -6.682   3.381  64.626  1.00  0.00    -0.040 A  
HETATM   35  C   UNL     1      -6.634   2.173  65.284  1.00  0.00    -0.027 A  
HETATM   36  N   UNL     1      -7.844   1.542  65.097  1.00  0.00    -0.070 NA 
HETATM   37  C   UNL     1      -8.685   2.329  64.342  1.00  0.00    -0.100 A  
HETATM   38  H   UNL     1      -8.084   0.622  65.467  1.00  0.00     0.000 HD 
HETATM   39  C   UNL     1      -9.994   2.178  63.875  1.00  0.00    -0.121 A  
HETATM   40  C   UNL     1     -10.537   3.247  63.136  1.00  0.00    -0.231 A  
HETATM   41  C   UNL     1      -9.847   4.451  62.976  1.00  0.00     0.002 A  
HETATM   42  C   UNL     1      -8.584   4.605  63.550  1.00  0.00    -0.131 A  
HETATM   43  C   UNL     1      -7.985   3.495  64.124  1.00  0.00    -0.086 A  
HETATM   44  C   UNL     1      -7.926   5.921  63.823  1.00  0.00    -0.118 C  
HETATM   45  C   UNL     1      -8.588   6.548  65.090  1.00  0.00     0.004 C  
ENDBRANCH  27  28
ENDBRANCH  16  24
TORSDOF 2
ENDMDL
MODEL       12
REMARK 921   NORMALIZED FREE ENERGY PREDICTED BY IDOCK:   -6.51 KCAL/MOL
REMARK 922        TOTAL FREE ENERGY PREDICTED BY IDOCK:   -8.45 KCAL/MOL
REMARK 923 INTER-LIGAND FREE ENERGY PREDICTED BY IDOCK:   -7.47 KCAL/MOL
REMARK 924 INTRA-LIGAND FREE ENERGY PREDICTED BY IDOCK:   -0.98 KCAL/MOL
REMARK 927      BINDING AFFINITY PREDICTED BY RF-SCORE:    0.00 PKD
ROOT
HETATM    1  C   UNL     1     -10.129  10.589  65.198  1.00  0.00    -0.314 C  
HETATM    2  C   UNL     1     -11.014  11.793  64.843  1.00  0.00    -0.358 C  
HETATM    3  C   UNL     1     -10.654  12.091  63.349  1.00  0.00    -0.478 C  
HETATM    4  C   UNL     1      -9.486  11.177  63.001  1.00  0.00    -0.369 C  
HETATM    5  N   UNL     1      -9.019  10.681  64.281  1.00  0.00    -0.200 N  
HETATM    6  C   UNL     1      -8.105   9.657  64.242  1.00  0.00    -0.146 C  
HETATM    7  O   UNL     1      -7.211   9.640  63.399  1.00  0.00    -0.105 OA 
HETATM    8  C   UNL     1      -8.217   8.663  65.424  1.00  0.00    -0.136 C  
HETATM    9  N   UNL     1      -9.725   8.479  65.898  1.00  0.00    -0.125 N  
HETATM   10  C   UNL     1      -7.393   7.422  65.114  1.00  0.00    -0.077 C  
HETATM   11  C   UNL     1      -8.020   6.643  63.973  1.00  0.00    -0.084 C  
HETATM   12  C   UNL     1     -10.223   7.645  66.904  1.00  0.00    -0.294 C  
HETATM   13  C   UNL     1      -5.877   7.693  65.120  1.00  0.00    -0.038 C  
HETATM   14  O   UNL     1     -11.134   6.836  66.728  1.00  0.00    -0.338 OA 
HETATM   15  C   UNL     1      -7.431   5.255  63.875  1.00  0.00    -0.059 C  
HETATM   16  C   UNL     1      -9.420   7.928  68.168  1.00  0.00    -0.147 C  
HETATM   17  H   UNL     1     -11.244   9.329  67.945  1.00  0.00     0.000 HD 
HETATM   18  C   UNL     1      -8.543   6.580  68.028  1.00  0.00    -0.118 C  
HETATM   19  O   UNL     1      -9.088   9.407  67.667  1.00  0.00    -0.122 OA 
HETATM   20  O   UNL     1     -11.307   9.849  67.152  1.00  0.00    -0.028 OA 
HETATM   21  C   UNL     1     -10.019   9.693  66.565  1.00  0.00    -0.246 C  
HETATM   22  C   UNL     1      -9.205   5.301  68.615  1.00  0.00    -0.143 C  
HETATM   23  C   UNL     1      -7.065   6.591  68.394  1.00  0.00    -0.083 C  
ENDROOT
BRANCH  16  24
HETATM   24  N   UNL     1      -9.575   8.109  69.583  1.00  0.00    -0.167 N  
HETATM   25  H   UNL     1      -8.805   7.750  70.146  1.00  0.00     0.000 HD 
HETATM   26  O   UNL     1     -11.660   9.035  69.822  1.00  0.00     0.052 OA 
HETATM   27  C   UNL     1     -10.595   8.689  70.305  1.00  0.00    -0.223 C  
BRANCH  27  28
HETATM   28  C   UNL     1     -10.193   8.841  71.777  1.00  0.00    -0.408 C  
HETATM   29  C   UNL     1     -11.388   8.419  72.668  1.00  0.00    -0.276 C  
HETATM   30  N   UNL     1     -11.384   6.996  73.046  1.00  0.00    -0.197 NA 
HETATM   31  C   UNL     1     -11.331   6.096  71.883  1.00  0.00    -0.296 C  
HETATM   32  C   UNL     1     -10.270   6.759  74.013  1.00  0.00    -0.369 C  
HETATM   33  C   UNL     1      -9.958   5.230  74.264  1.00  0.00    -0.234 C  
HETATM   34  C   UNL     1      -8.521   4.892  74.096  1.00  0.00    -0.105 A  
HETATM   35  C   UNL     1      -7.843   3.717  73.865  1.00  0.00    -0.071 A  
HETATM   36  N   UNL     1      -6.495   3.990  73.919  1.00  0.00    -0.044 NA 
HETATM   37  C   UNL     1      -6.284   5.328  74.166  1.00  0.00    -0.062 A  
HETATM   38  H   UNL     1      -5.755   3.298  73.793  1.00  0.00     0.000 HD 
HETATM   39  C   UNL     1      -5.140   6.119  74.309  1.00  0.00    -0.036 A  
HETATM   40  C   UNL     1      -5.338   7.495  74.531  1.00  0.00    -0.066 A  
HETATM   41  C   UNL     1      -6.613   8.067  74.493  1.00  0.00    -0.132 A  
HETATM   42  C   UNL     1      -7.724   7.262  74.239  1.00  0.00    -0.153 A  
HETATM   43  C   UNL     1      -7.541   5.889  74.194  1.00  0.00    -0.091 A  
HETATM   44  C   UNL     1      -9.049   7.765  73.761  1.00  0.00    -0.333 C  
HETATM   45  C   UNL     1      -8.930   8.096  72.239  1.00  0.00    -0.252 C  
ENDBRANCH  27  28
ENDBRANCH  16  24
TORSDOF 2
ENDMDL
MODEL       13
REMARK 921   NORMALIZED FREE ENERGY PREDICTED BY IDOCK:   -6.47 KCAL/MOL
REMARK 922        TOTAL FREE ENERGY PREDICTED BY IDOCK:   -8.40 KCAL/MOL
REMARK 923 INTER-LIGAND FREE ENERGY PREDICTED BY IDOCK:   -8.06 KCAL/MOL
REMARK 924 INTRA-LIGAND FREE ENERGY PREDICTED BY IDOCK:   -0.34 KCAL/MOL
REMARK 927      BINDING AFFINITY PREDICTED BY RF-SCORE:    0.00 PKD
ROOT
HETATM    1  C   UNL     1      -6.627   8.740  71.736  1.00  0.00    -0.072 C  
HETATM    2  C   UNL     1      -5.210   8.679  72.324  1.00  0.00    -0.044 C  
HETATM    3  C   UNL     1      -5.363   7.741  73.568  1.00  0.00    -0.045 C  
HETATM    4  C   UNL     1      -6.855   7.471  73.717  1.00  0.00    -0.082 C  
HETATM    5  N   UNL     1      -7.489   8.451  72.856  1.00  0.00    -0.102 N  
HETATM    6  C   UNL     1      -8.835   8.286  72.632  1.00  0.00    -0.234 C  
HETATM    7  O   UNL     1      -9.585   7.927  73.535  1.00  0.00    -0.284 OA 
HETATM    8  C   UNL     1      -9.302   8.744  71.229  1.00  0.00    -0.250 C  
HETATM    9  N   UNL     1      -8.188   8.486  70.122  1.00  0.00    -0.116 N  
HETATM   10  C   UNL     1     -10.712   8.228  70.979  1.00  0.00    -0.256 C  
HETATM   11  C   UNL     1     -10.705   6.717  70.843  1.00  0.00    -0.278 C  
HETATM   12  C   UNL     1      -8.256   8.733  68.747  1.00  0.00    -0.116 C  
HETATM   13  C   UNL     1     -11.767   8.916  71.864  1.00  0.00    -0.439 C  
HETATM   14  O   UNL     1      -8.012   7.883  67.891  1.00  0.00    -0.123 OA 
HETATM   15  C   UNL     1     -12.007   6.218  70.261  1.00  0.00     0.015 C  
HETATM   16  C   UNL     1      -8.697  10.180  68.567  1.00  0.00    -0.123 C  
HETATM   17  H   UNL     1      -6.405   9.971  68.767  1.00  0.00     0.000 HD 
HETATM   18  C   UNL     1     -10.208   9.772  68.171  1.00  0.00    -0.220 C  
HETATM   19  O   UNL     1      -8.097  10.577  69.992  1.00  0.00     0.005 OA 
HETATM   20  O   UNL     1      -6.066   9.545  69.547  1.00  0.00    -0.039 OA 
HETATM   21  C   UNL     1      -7.210   9.474  70.393  1.00  0.00    -0.127 C  
HETATM   22  C   UNL     1     -10.421   9.415  66.673  1.00  0.00    -0.238 C  
HETATM   23  C   UNL     1     -11.378  10.618  68.655  1.00  0.00    -0.345 C  
ENDROOT
BRANCH  16  24
HETATM   24  N   UNL     1      -8.425  11.350  67.781  1.00  0.00    -0.124 N  
HETATM   25  H   UNL     1      -8.619  11.249  66.785  1.00  0.00     0.000 HD 
HETATM   26  O   UNL     1      -7.517  12.845  69.265  1.00  0.00     0.115 OA 
HETATM   27  C   UNL     1      -7.945  12.587  68.153  1.00  0.00    -0.157 C  
BRANCH  27  28
HETATM   28  C   UNL     1      -8.040  13.574  66.984  1.00  0.00    -0.015 C  
HETATM   29  C   UNL     1      -9.467  13.503  66.384  1.00  0.00    -0.224 C  
HETATM   30  N   UNL     1     -10.416  14.460  66.977  1.00  0.00    -0.267 NA 
HETATM   31  C   UNL     1     -10.520  14.332  68.439  1.00  0.00    -0.249 C  
HETATM   32  C   UNL     1     -10.043  15.840  66.542  1.00  0.00    -0.282 C  
HETATM   33  C   UNL     1     -10.783  16.984  67.343  1.00  0.00    -0.240 C  
HETATM   34  C   UNL     1      -9.855  18.007  67.891  1.00  0.00    -0.308 A  
HETATM   35  C   UNL     1      -9.959  18.940  68.898  1.00  0.00    -0.378 A  
HETATM   36  N   UNL     1      -8.815  19.705  68.884  1.00  0.00    -0.274 NA 
HETATM   37  C   UNL     1      -7.960  19.274  67.894  1.00  0.00    -0.292 A  
HETATM   38  H   UNL     1      -8.626  20.482  69.518  1.00  0.00     0.000 HD 
HETATM   39  C   UNL     1      -6.695  19.683  67.459  1.00  0.00    -0.242 A  
HETATM   40  C   UNL     1      -6.114  18.952  66.405  1.00  0.00    -0.190 A  
HETATM   41  C   UNL     1      -6.717  17.799  65.893  1.00  0.00    -0.286 A  
HETATM   42  C   UNL     1      -7.929  17.359  66.427  1.00  0.00    -0.325 A  
HETATM   43  C   UNL     1      -8.578  18.175  67.340  1.00  0.00    -0.244 A  
HETATM   44  C   UNL     1      -8.466  15.969  66.290  1.00  0.00    -0.337 C  
HETATM   45  C   UNL     1      -7.686  15.041  67.274  1.00  0.00    -0.233 C  
ENDBRANCH  27  28
ENDBRANCH  16  24
TORSDOF 2
ENDMDL
MODEL       14
REMARK 921   NORMALIZED FREE ENERGY PREDICTED BY IDOCK:   -6.44 KCAL/MOL
REMARK 922        TOTAL FREE ENERGY PREDICTED BY IDOCK:   -8.37 KCAL/MOL
REMARK 923 INTER-LIGAND FREE ENERGY PREDICTED BY IDOCK:   -7.56 KCAL/MOL
REMARK 924 INTRA-LIGAND FREE ENERGY PREDICTED BY IDOCK:   -0.81 KCAL/MOL
REMARK 927      BINDING AFFINITY PREDICTED BY RF-SCORE:    0.00 PKD
ROOT
HETATM    1  C   UNL     1     -11.369  11.855  65.002  1.00  0.00    -0.273 C  
HETATM    2  C   UNL     1     -11.709  11.748  63.508  1.00  0.00    -0.485 C  
HETATM    3  C   UNL     1     -12.085  13.213  63.107  1.00  0.00    -0.282 C  
HETATM    4  C   UNL     1     -12.111  14.017  64.401  1.00  0.00    -0.458 C  
HETATM    5  N   UNL     1     -12.099  13.016  65.450  1.00  0.00    -0.417 N  
HETATM    6  C   UNL     1     -11.893  13.475  66.729  1.00  0.00    -0.406 C  
HETATM    7  O   UNL     1     -12.405  14.523  67.113  1.00  0.00    -0.290 OA 
HETATM    8  C   UNL     1     -11.123  12.487  67.639  1.00  0.00    -0.258 C  
HETATM    9  N   UNL     1     -10.045  11.649  66.821  1.00  0.00    -0.210 N  
HETATM   10  C   UNL     1     -10.680  13.212  68.901  1.00  0.00    -0.202 C  
HETATM   11  C   UNL     1      -9.619  14.245  68.572  1.00  0.00    -0.220 C  
HETATM   12  C   UNL     1      -9.142  10.695  67.300  1.00  0.00    -0.143 C  
HETATM   13  C   UNL     1     -11.856  13.584  69.823  1.00  0.00    -0.395 C  
HETATM   14  O   UNL     1      -7.930  10.740  67.091  1.00  0.00    -0.118 OA 
HETATM   15  C   UNL     1      -8.924  14.728  69.823  1.00  0.00     0.328 C  
HETATM   16  C   UNL     1      -9.942   9.676  68.103  1.00  0.00    -0.159 C  
HETATM   17  H   UNL     1      -9.841   9.151  65.855  1.00  0.00     0.000 HD 
HETATM   18  C   UNL     1      -9.459  10.272  69.523  1.00  0.00    -0.207 C  
HETATM   19  O   UNL     1     -11.262  10.000  67.266  1.00  0.00    -0.167 OA 
HETATM   20  O   UNL     1     -10.156   9.799  65.235  1.00  0.00    -0.286 OA 
HETATM   21  C   UNL     1     -10.826  10.738  66.070  1.00  0.00    -0.032 C  
HETATM   22  C   UNL     1      -8.086   9.741  70.026  1.00  0.00    -0.203 C  
HETATM   23  C   UNL     1     -10.431  10.334  70.694  1.00  0.00     0.066 C  
ENDROOT
BRANCH  16  24
HETATM   24  N   UNL     1     -10.059   8.263  68.329  1.00  0.00    -0.192 N  
HETATM   25  H   UNL     1     -10.216   7.998  69.301  1.00  0.00     0.000 HD 
HETATM   26  O   UNL     1      -9.663   7.315  66.279  1.00  0.00    -0.120 OA 
HETATM   27  C   UNL     1      -9.994   7.206  67.447  1.00  0.00    -0.172 C  
BRANCH  27  28
HETATM   28  C   UNL     1     -10.403   5.902  68.140  1.00  0.00    -0.259 C  
HETATM   29  C   UNL     1      -9.678   4.720  67.448  1.00  0.00    -0.176 C  
HETATM   30  N   UNL     1      -8.381   4.372  68.052  1.00  0.00    -0.094 NA 
HETATM   31  C   UNL     1      -7.454   5.514  68.113  1.00  0.00    -0.073 C  
HETATM   32  C   UNL     1      -8.624   3.753  69.390  1.00  0.00    -0.074 C  
HETATM   33  C   UNL     1      -7.322   3.614  70.275  1.00  0.00    -0.041 C  
HETATM   34  C   UNL     1      -7.481   4.175  71.642  1.00  0.00    -0.060 A  
HETATM   35  C   UNL     1      -6.592   4.597  72.604  1.00  0.00    -0.050 A  
HETATM   36  N   UNL     1      -7.313   4.915  73.733  1.00  0.00    -0.081 NA 
HETATM   37  C   UNL     1      -8.659   4.722  73.516  1.00  0.00    -0.105 A  
HETATM   38  H   UNL     1      -6.907   5.247  74.608  1.00  0.00     0.000 HD 
HETATM   39  C   UNL     1      -9.802   4.892  74.303  1.00  0.00    -0.191 A  
HETATM   40  C   UNL     1     -11.042   4.609  73.698  1.00  0.00    -0.379 A  
HETATM   41  C   UNL     1     -11.139   4.287  72.341  1.00  0.00     0.180 A  
HETATM   42  C   UNL     1      -9.984   4.234  71.560  1.00  0.00    -0.243 A  
HETATM   43  C   UNL     1      -8.757   4.342  72.196  1.00  0.00    -0.120 A  
HETATM   44  C   UNL     1      -9.960   4.322  70.067  1.00  0.00    -0.196 C  
HETATM   45  C   UNL     1     -10.176   5.814  69.659  1.00  0.00    -0.299 C  
ENDBRANCH  27  28
ENDBRANCH  16  24
TORSDOF 2
ENDMDL
MODEL       15
REMARK 921   NORMALIZED FREE ENERGY PREDICTED BY IDOCK:   -6.36 KCAL/MOL
REMARK 922        TOTAL FREE ENERGY PREDICTED BY IDOCK:   -8.28 KCAL/MOL
REMARK 923 INTER-LIGAND FREE ENERGY PREDICTED BY IDOCK:   -7.36 KCAL/MOL
REMARK 924 INTRA-LIGAND FREE ENERGY PREDICTED BY IDOCK:   -0.92 KCAL/MOL
REMARK 927      BINDING AFFINITY PREDICTED BY RF-SCORE:    0.00 PKD
ROOT
HETATM    1  C   UNL     1     -12.557  12.971  70.878  1.00  0.00    -0.280 C  
HETATM    2  C   UNL     1     -13.537  12.486  71.956  1.00  0.00    -0.387 C  
HETATM    3  C   UNL     1     -14.115  13.811  72.556  1.00  0.00    -0.495 C  
HETATM    4  C   UNL     1     -13.321  14.948  71.925  1.00  0.00    -0.363 C  
HETATM    5  N   UNL     1     -12.181  14.295  71.309  1.00  0.00    -0.347 N  
HETATM    6  C   UNL     1     -11.412  15.070  70.476  1.00  0.00    -0.290 C  
HETATM    7  O   UNL     1     -11.166  16.241  70.753  1.00  0.00    -0.366 OA 
HETATM    8  C   UNL     1     -10.781  14.295  69.294  1.00  0.00    -0.172 C  
HETATM    9  N   UNL     1     -11.733  13.127  68.780  1.00  0.00    -0.304 N  
HETATM   10  C   UNL     1     -10.231  15.288  68.280  1.00  0.00    -0.226 C  
HETATM   11  C   UNL     1     -11.365  16.039  67.608  1.00  0.00    -0.109 C  
HETATM   12  C   UNL     1     -11.525  12.242  67.717  1.00  0.00    -0.329 C  
HETATM   13  C   UNL     1      -9.001  16.054  68.800  1.00  0.00    -0.226 C  
HETATM   14  O   UNL     1     -12.335  12.071  66.806  1.00  0.00    -0.340 OA 
HETATM   15  C   UNL     1     -10.880  16.767  66.377  1.00  0.00     0.011 C  
HETATM   16  C   UNL     1     -10.155  11.606  67.917  1.00  0.00    -0.187 C  
HETATM   17  H   UNL     1     -11.835  10.452  69.005  1.00  0.00     0.000 HD 
HETATM   18  C   UNL     1      -9.459  12.518  66.780  1.00  0.00    -0.231 C  
HETATM   19  O   UNL     1     -10.236  11.844  69.493  1.00  0.00     0.242 OA 
HETATM   20  O   UNL     1     -12.365  10.930  69.632  1.00  0.00    -0.328 OA 
HETATM   21  C   UNL     1     -11.643  12.147  69.797  1.00  0.00    -0.262 C  
HETATM   22  C   UNL     1      -9.607  11.982  65.327  1.00  0.00    -0.117 C  
HETATM   23  C   UNL     1      -8.042  13.036  66.980  1.00  0.00    -0.043 C  
ENDROOT
BRANCH  16  24
HETATM   24  N   UNL     1      -9.476  10.345  67.829  1.00  0.00    -0.144 N  
HETATM   25  H   UNL     1      -8.478  10.410  67.631  1.00  0.00     0.000 HD 
HETATM   26  O   UNL     1     -11.136   8.778  68.056  1.00  0.00     0.050 OA 
HETATM   27  C   UNL     1      -9.953   9.060  67.969  1.00  0.00    -0.176 C  
BRANCH  27  28
HETATM   28  C   UNL     1      -8.793   8.058  68.009  1.00  0.00    -0.128 C  
HETATM   29  C   UNL     1      -7.751   8.541  69.049  1.00  0.00    -0.096 C  
HETATM   30  N   UNL     1      -7.964   8.009  70.406  1.00  0.00    -0.101 NA 
HETATM   31  C   UNL     1      -9.310   8.297  70.929  1.00  0.00    -0.159 C  
HETATM   32  C   UNL     1      -7.643   6.550  70.406  1.00  0.00    -0.096 C  
HETATM   33  C   UNL     1      -8.117   5.793  71.710  1.00  0.00    -0.118 C  
HETATM   34  C   UNL     1      -8.917   4.575  71.419  1.00  0.00    -0.165 A  
HETATM   35  C   UNL     1      -9.805   3.825  72.157  1.00  0.00    -0.168 A  
HETATM   36  N   UNL     1     -10.155   2.726  71.404  1.00  0.00     0.013 NA 
HETATM   37  C   UNL     1      -9.522   2.759  70.181  1.00  0.00    -0.107 A  
HETATM   38  H   UNL     1     -10.795   1.992  71.709  1.00  0.00     0.000 HD 
HETATM   39  C   UNL     1      -9.528   1.917  69.065  1.00  0.00    -0.164 A  
HETATM   40  C   UNL     1      -8.750   2.317  67.960  1.00  0.00    -0.127 A  
HETATM   41  C   UNL     1      -8.097   3.552  67.932  1.00  0.00    -0.082 A  
HETATM   42  C   UNL     1      -8.204   4.414  69.024  1.00  0.00    -0.083 A  
HETATM   43  C   UNL     1      -8.823   3.945  70.172  1.00  0.00    -0.138 A  
HETATM   44  C   UNL     1      -7.932   5.885  68.979  1.00  0.00    -0.099 C  
HETATM   45  C   UNL     1      -9.146   6.588  68.293  1.00  0.00    -0.119 C  
ENDBRANCH  27  28
ENDBRANCH  16  24
TORSDOF 2
ENDMDL
MODEL       16
REMARK 921   NORMALIZED FREE ENERGY PREDICTED BY IDOCK:   -6.31 KCAL/MOL
REMARK 922        TOTAL FREE ENERGY PREDICTED BY IDOCK:   -8.22 KCAL/MOL
REMARK 923 INTER-LIGAND FREE ENERGY PREDICTED BY IDOCK:   -7.67 KCAL/MOL
REMARK 924 INTRA-LIGAND FREE ENERGY PREDICTED BY IDOCK:   -0.55 KCAL/MOL
REMARK 927      BINDING AFFINITY PREDICTED BY RF-SCORE:    0.00 PKD
ROOT
HETATM    1  C   UNL     1      -9.302   3.691  65.151  1.00  0.00    -0.157 C  
HETATM    2  C   UNL     1     -10.068   2.911  64.073  1.00  0.00    -0.142 C  
HETATM    3  C   UNL     1      -9.129   1.700  63.752  1.00  0.00    -0.094 C  
HETATM    4  C   UNL     1      -7.835   1.949  64.517  1.00  0.00    -0.069 C  
HETATM    5  N   UNL     1      -7.921   3.336  64.933  1.00  0.00    -0.085 N  
HETATM    6  C   UNL     1      -6.977   3.762  65.836  1.00  0.00    -0.062 C  
HETATM    7  O   UNL     1      -5.810   3.388  65.751  1.00  0.00    -0.018 OA 
HETATM    8  C   UNL     1      -7.485   4.843  66.819  1.00  0.00    -0.087 C  
HETATM    9  N   UNL     1      -9.020   4.634  67.185  1.00  0.00    -0.111 N  
HETATM   10  C   UNL     1      -6.480   5.001  67.952  1.00  0.00    -0.045 C  
HETATM   11  C   UNL     1      -6.462   3.756  68.818  1.00  0.00    -0.036 C  
HETATM   12  C   UNL     1      -9.813   5.381  68.061  1.00  0.00    -0.144 C  
HETATM   13  C   UNL     1      -5.157   5.639  67.493  1.00  0.00    -0.004 C  
HETATM   14  O   UNL     1     -10.465   4.885  68.980  1.00  0.00    -0.102 OA 
HETATM   15  C   UNL     1      -5.744   4.013  70.122  1.00  0.00    -0.017 C  
HETATM   16  C   UNL     1      -9.675   6.846  67.663  1.00  0.00    -0.127 C  
HETATM   17  H   UNL     1     -11.359   5.768  66.504  1.00  0.00     0.000 HD 
HETATM   18  C   UNL     1      -8.685   7.186  68.892  1.00  0.00    -0.128 C  
HETATM   19  O   UNL     1      -9.318   6.440  66.161  1.00  0.00    -0.153 OA 
HETATM   20  O   UNL     1     -11.126   4.993  66.007  1.00  0.00    -0.166 OA 
HETATM   21  C   UNL     1      -9.703   5.028  66.008  1.00  0.00    -0.180 C  
HETATM   22  C   UNL     1      -9.396   7.515  70.236  1.00  0.00    -0.161 C  
HETATM   23  C   UNL     1      -7.524   8.150  68.692  1.00  0.00    -0.098 C  
ENDROOT
BRANCH  16  24
HETATM   24  N   UNL     1     -10.448   8.041  67.484  1.00  0.00    -0.323 N  
HETATM   25  H   UNL     1     -11.362   8.030  67.936  1.00  0.00     0.000 HD 
HETATM   26  O   UNL     1      -9.185   9.342  66.079  1.00  0.00    -0.173 OA 
HETATM   27  C   UNL     1     -10.157   9.203  66.802  1.00  0.00    -0.271 C  
BRANCH  27  28
HETATM   28  C   UNL     1     -11.212  10.276  67.093  1.00  0.00    -0.022 C  
HETATM   29  C   UNL     1     -11.240  10.549  68.618  1.00  0.00    -0.270 C  
HETATM   30  N   UNL     1     -10.342  11.632  69.052  1.00  0.00    -0.147 NA 
HETATM   31  C   UNL     1      -8.944  11.415  68.644  1.00  0.00    -0.131 C  
HETATM   32  C   UNL     1     -10.890  12.934  68.566  1.00  0.00    -0.257 C  
HETATM   33  C   UNL     1      -9.877  14.141  68.693  1.00  0.00    -0.206 C  
HETATM   34  C   UNL     1      -9.715  14.904  67.428  1.00  0.00    -0.217 A  
HETATM   35  C   UNL     1      -8.745  15.756  66.952  1.00  0.00    -0.244 A  
HETATM   36  N   UNL     1      -9.185  16.267  65.751  1.00  0.00    -0.458 NA 
HETATM   37  C   UNL     1     -10.419  15.747  65.431  1.00  0.00    -0.414 A  
HETATM   38  H   UNL     1      -8.668  16.936  65.179  1.00  0.00     0.000 HD 
HETATM   39  C   UNL     1     -11.292  15.918  64.352  1.00  0.00    -0.276 A  
HETATM   40  C   UNL     1     -12.484  15.168  64.370  1.00  0.00    -0.107 A  
HETATM   41  C   UNL     1     -12.731  14.209  65.355  1.00  0.00    -0.453 A  
HETATM   42  C   UNL     1     -11.785  13.988  66.357  1.00  0.00    -0.407 A  
HETATM   43  C   UNL     1     -10.700  14.847  66.434  1.00  0.00    -0.316 A  
HETATM   44  C   UNL     1     -11.708  12.755  67.200  1.00  0.00    -0.443 C  
HETATM   45  C   UNL     1     -11.079  11.611  66.343  1.00  0.00    -0.347 C  
ENDBRANCH  27  28
ENDBRANCH  16  24
TORSDOF 2
ENDMDL
MODEL       17
REMARK 921   NORMALIZED FREE ENERGY PREDICTED BY IDOCK:   -6.25 KCAL/MOL
REMARK 922        TOTAL FREE ENERGY PREDICTED BY IDOCK:   -8.16 KCAL/MOL
REMARK 923 INTER-LIGAND FREE ENERGY PREDICTED BY IDOCK:   -6.91 KCAL/MOL
REMARK 924 INTRA-LIGAND FREE ENERGY PREDICTED BY IDOCK:   -1.25 KCAL/MOL
REMARK 927      BINDING AFFINITY PREDICTED BY RF-SCORE:    0.00 PKD
ROOT
HETATM    1  C   UNL     1     -10.811  13.505  65.572  1.00  0.00    -0.288 C  
HETATM    2  C   UNL     1     -11.916  13.831  64.556  1.00  0.00    -0.458 C  
HETATM    3  C   UNL     1     -11.799  15.380  64.364  1.00  0.00    -0.260 C  
HETATM    4  C   UNL     1     -10.778  15.861  65.387  1.00  0.00    -0.399 C  
HETATM    5  N   UNL     1     -10.615  14.740  66.292  1.00  0.00    -0.297 N  
HETATM    6  C   UNL     1      -9.578  14.825  67.189  1.00  0.00    -0.227 C  
HETATM    7  O   UNL     1      -9.305  15.890  67.737  1.00  0.00    -0.205 OA 
HETATM    8  C   UNL     1      -8.933  13.464  67.542  1.00  0.00    -0.207 C  
HETATM    9  N   UNL     1      -8.942  12.467  66.301  1.00  0.00    -0.106 N  
HETATM   10  C   UNL     1      -7.621  13.706  68.274  1.00  0.00    -0.130 C  
HETATM   11  C   UNL     1      -6.598  14.317  67.334  1.00  0.00     0.055 C  
HETATM   12  C   UNL     1      -8.420  11.171  66.224  1.00  0.00    -0.168 C  
HETATM   13  C   UNL     1      -7.820  14.295  69.682  1.00  0.00     0.363 C  
HETATM   14  O   UNL     1      -7.632  10.806  65.352  1.00  0.00    -0.085 OA 
HETATM   15  C   UNL     1      -5.209  14.250  67.925  1.00  0.00    -0.056 C  
HETATM   16  C   UNL     1      -8.990  10.383  67.397  1.00  0.00    -0.135 C  
HETATM   17  H   UNL     1     -10.359  10.316  65.537  1.00  0.00     0.000 HD 
HETATM   18  C   UNL     1      -7.616  10.463  68.242  1.00  0.00    -0.095 C  
HETATM   19  O   UNL     1     -10.271  11.332  67.459  1.00  0.00    -0.183 OA 
HETATM   20  O   UNL     1     -10.656  11.144  65.177  1.00  0.00    -0.284 OA 
HETATM   21  C   UNL     1     -10.299  12.078  66.191  1.00  0.00    -0.224 C  
HETATM   22  C   UNL     1      -6.564   9.374  67.890  1.00  0.00    -0.063 C  
HETATM   23  C   UNL     1      -7.661  10.646  69.753  1.00  0.00    -0.054 C  
ENDROOT
BRANCH  16  24
HETATM   24  N   UNL     1      -9.539   9.099  67.729  1.00  0.00    -0.143 N  
HETATM   25  H   UNL     1      -9.625   8.917  68.729  1.00  0.00     0.000 HD 
HETATM   26  O   UNL     1      -9.806   8.045  65.709  1.00  0.00     0.150 OA 
HETATM   27  C   UNL     1      -9.970   8.072  66.917  1.00  0.00    -0.268 C  
BRANCH  27  28
HETATM   28  C   UNL     1     -10.683   6.996  67.744  1.00  0.00    -0.300 C  
HETATM   29  C   UNL     1     -10.461   5.619  67.070  1.00  0.00    -0.281 C  
HETATM   30  N   UNL     1      -9.277   4.893  67.559  1.00  0.00    -0.119 NA 
HETATM   31  C   UNL     1      -8.036   5.676  67.437  1.00  0.00    -0.102 C  
HETATM   32  C   UNL     1      -9.536   4.436  68.957  1.00  0.00    -0.174 C  
HETATM   33  C   UNL     1      -8.247   3.915  69.709  1.00  0.00    -0.067 C  
HETATM   34  C   UNL     1      -8.051   4.548  71.039  1.00  0.00    -0.081 A  
HETATM   35  C   UNL     1      -6.963   4.695  71.869  1.00  0.00    -0.059 A  
HETATM   36  N   UNL     1      -7.401   5.269  73.041  1.00  0.00    -0.090 NA 
HETATM   37  C   UNL     1      -8.755   5.514  72.980  1.00  0.00    -0.121 A  
HETATM   38  H   UNL     1      -6.807   5.484  73.842  1.00  0.00     0.000 HD 
HETATM   39  C   UNL     1      -9.680   6.073  73.868  1.00  0.00    -0.182 A  
HETATM   40  C   UNL     1     -11.010   6.183  73.419  1.00  0.00    -0.181 A  
HETATM   41  C   UNL     1     -11.370   5.861  72.107  1.00  0.00    -0.344 A  
HETATM   42  C   UNL     1     -10.397   5.409  71.216  1.00  0.00    -0.296 A  
HETATM   43  C   UNL     1      -9.130   5.137  71.710  1.00  0.00    -0.157 A  
HETATM   44  C   UNL     1     -10.530   5.429  69.726  1.00  0.00    -0.378 C  
HETATM   45  C   UNL     1     -10.311   6.895  69.233  1.00  0.00    -0.212 C  
ENDBRANCH  27  28
ENDBRANCH  16  24
TORSDOF 2
ENDMDL
MODEL       18
REMARK 921   NORMALIZED FREE ENERGY PREDICTED BY IDOCK:   -6.24 KCAL/MOL
REMARK 922        TOTAL FREE ENERGY PREDICTED BY IDOCK:   -8.15 KCAL/MOL
REMARK 923 INTER-LIGAND FREE ENERGY PREDICTED BY IDOCK:   -7.66 KCAL/MOL
REMARK 924 INTRA-LIGAND FREE ENERGY PREDICTED BY IDOCK:   -0.49 KCAL/MOL
REMARK 927      BINDING AFFINITY PREDICTED BY RF-SCORE:    0.00 PKD
ROOT
HETATM    1  C   UNL     1      -6.789   4.456  69.493  1.00  0.00    -0.045 C  
HETATM    2  C   UNL     1      -5.919   3.675  68.497  1.00  0.00    -0.024 C  
HETATM    3  C   UNL     1      -5.217   2.594  69.385  1.00  0.00    -0.012 C  
HETATM    4  C   UNL     1      -5.580   2.925  70.828  1.00  0.00    -0.013 C  
HETATM    5  N   UNL     1      -6.134   4.264  70.764  1.00  0.00    -0.014 N  
HETATM    6  C   UNL     1      -6.749   4.724  71.903  1.00  0.00    -0.043 C  
HETATM    7  O   UNL     1      -6.284   4.481  73.013  1.00  0.00    -0.029 OA 
HETATM    8  C   UNL     1      -7.940   5.677  71.638  1.00  0.00    -0.117 C  
HETATM    9  N   UNL     1      -8.726   5.284  70.311  1.00  0.00    -0.120 N  
HETATM   10  C   UNL     1      -8.729   5.862  72.926  1.00  0.00    -0.124 C  
HETATM   11  C   UNL     1      -9.426   4.569  73.308  1.00  0.00    -0.134 C  
HETATM   12  C   UNL     1      -9.867   5.883  69.768  1.00  0.00    -0.169 C  
HETATM   13  C   UNL     1      -7.959   6.665  73.990  1.00  0.00    -0.122 C  
HETATM   14  O   UNL     1     -10.886   5.259  69.472  1.00  0.00    -0.202 OA 
HETATM   15  C   UNL     1     -10.474   4.811  74.369  1.00  0.00    -0.331 C  
HETATM   16  C   UNL     1      -9.589   7.377  69.661  1.00  0.00    -0.156 C  
HETATM   17  H   UNL     1      -8.889   6.210  67.794  1.00  0.00     0.000 HD 
HETATM   18  C   UNL     1     -10.493   7.735  70.950  1.00  0.00    -0.214 C  
HETATM   19  O   UNL     1      -8.017   7.113  69.571  1.00  0.00    -0.122 OA 
HETATM   20  O   UNL     1      -8.273   5.498  67.923  1.00  0.00    -0.100 OA 
HETATM   21  C   UNL     1      -7.851   5.682  69.271  1.00  0.00    -0.089 C  
HETATM   22  C   UNL     1     -12.013   7.896  70.663  1.00  0.00    -0.064 C  
HETATM   23  C   UNL     1     -10.048   8.827  71.914  1.00  0.00    -0.409 C  
ENDROOT
BRANCH  16  24
HETATM   24  N   UNL     1      -9.766   8.494  68.778  1.00  0.00    -0.161 N  
HETATM   25  H   UNL     1     -10.434   8.340  68.023  1.00  0.00     0.000 HD 
HETATM   26  O   UNL     1      -8.256  10.056  69.513  1.00  0.00    -0.138 OA 
HETATM   27  C   UNL     1      -9.182   9.742  68.785  1.00  0.00    -0.143 C  
BRANCH  27  28
HETATM   28  C   UNL     1      -9.866  10.662  67.767  1.00  0.00    -0.187 C  
HETATM   29  C   UNL     1     -11.401  10.475  67.878  1.00  0.00    -0.222 C  
HETATM   30  N   UNL     1     -12.053  11.402  68.818  1.00  0.00    -0.514 NA 
HETATM   31  C   UNL     1     -11.479  11.341  70.172  1.00  0.00    -0.247 C  
HETATM   32  C   UNL     1     -12.021  12.778  68.237  1.00  0.00    -0.229 C  
HETATM   33  C   UNL     1     -12.408  13.914  69.265  1.00  0.00    -0.201 C  
HETATM   34  C   UNL     1     -11.414  15.017  69.318  1.00  0.00    -0.326 A  
HETATM   35  C   UNL     1     -11.126  15.992  70.247  1.00  0.00    -0.374 A  
HETATM   36  N   UNL     1     -10.172  16.822  69.704  1.00  0.00    -0.161 NA 
HETATM   37  C   UNL     1      -9.822  16.395  68.442  1.00  0.00    -0.233 A  
HETATM   38  H   UNL     1      -9.778  17.640  70.171  1.00  0.00     0.000 HD 
HETATM   39  C   UNL     1      -8.922  16.857  67.477  1.00  0.00    -0.208 A  
HETATM   40  C   UNL     1      -8.823  16.110  66.287  1.00  0.00    -0.371 A  
HETATM   41  C   UNL     1      -9.501  14.899  66.123  1.00  0.00    -0.328 A  
HETATM   42  C   UNL     1     -10.307  14.414  67.154  1.00  0.00    -0.262 A  
HETATM   43  C   UNL     1     -10.537  15.234  68.247  1.00  0.00    -0.244 A  
HETATM   44  C   UNL     1     -10.741  12.989  67.298  1.00  0.00    -0.261 C  
HETATM   45  C   UNL     1      -9.533  12.161  67.841  1.00  0.00    -0.195 C  
ENDBRANCH  27  28
ENDBRANCH  16  24
TORSDOF 2
ENDMDL
MODEL       19
REMARK 921   NORMALIZED FREE ENERGY PREDICTED BY IDOCK:   -6.23 KCAL/MOL
REMARK 922        TOTAL FREE ENERGY PREDICTED BY IDOCK:   -8.14 KCAL/MOL
REMARK 923 INTER-LIGAND FREE ENERGY PREDICTED BY IDOCK:   -7.30 KCAL/MOL
REMARK 924 INTRA-LIGAND FREE ENERGY PREDICTED BY IDOCK:   -0.84 KCAL/MOL
REMARK 927      BINDING AFFINITY PREDICTED BY RF-SCORE:    0.00 PKD
ROOT
HETATM    1  C   UNL     1      -9.288   3.878  68.488  1.00  0.00    -0.163 C  
HETATM    2  C   UNL     1      -9.398   2.886  67.321  1.00  0.00    -0.176 C  
HETATM    3  C   UNL     1      -9.241   1.488  68.005  1.00  0.00    -0.209 C  
HETATM    4  C   UNL     1      -8.883   1.762  69.461  1.00  0.00    -0.074 C  
HETATM    5  N   UNL     1      -8.527   3.168  69.487  1.00  0.00    -0.059 N  
HETATM    6  C   UNL     1      -8.374   3.735  70.729  1.00  0.00    -0.069 C  
HETATM    7  O   UNL     1      -7.833   3.117  71.642  1.00  0.00    -0.055 OA 
HETATM    8  C   UNL     1      -8.783   5.226  70.799  1.00  0.00    -0.131 C  
HETATM    9  N   UNL     1     -10.004   5.549  69.830  1.00  0.00    -0.195 N  
HETATM   10  C   UNL     1      -8.877   5.652  72.257  1.00  0.00    -0.132 C  
HETATM   11  C   UNL     1     -10.046   4.961  72.935  1.00  0.00    -0.208 C  
HETATM   12  C   UNL     1     -10.670   6.765  69.648  1.00  0.00    -0.251 C  
HETATM   13  C   UNL     1      -7.505   5.705  72.954  1.00  0.00    -0.096 C  
HETATM   14  O   UNL     1     -11.890   6.893  69.743  1.00  0.00    -0.164 OA 
HETATM   15  C   UNL     1     -10.368   5.613  74.259  1.00  0.00    -0.289 C  
HETATM   16  C   UNL     1      -9.612   7.821  69.352  1.00  0.00    -0.156 C  
HETATM   17  H   UNL     1     -10.340   6.739  67.445  1.00  0.00     0.000 HD 
HETATM   18  C   UNL     1      -9.689   8.452  70.836  1.00  0.00    -0.212 C  
HETATM   19  O   UNL     1      -8.618   6.715  68.774  1.00  0.00    -0.122 OA 
HETATM   20  O   UNL     1     -10.259   5.792  67.416  1.00  0.00    -0.159 OA 
HETATM   21  C   UNL     1      -9.428   5.509  68.537  1.00  0.00    -0.122 C  
HETATM   22  C   UNL     1     -10.820   9.499  71.048  1.00  0.00    -0.423 C  
HETATM   23  C   UNL     1      -8.421   8.940  71.524  1.00  0.00    -0.182 C  
ENDROOT
BRANCH  16  24
HETATM   24  N   UNL     1      -9.353   8.946  68.499  1.00  0.00    -0.140 N  
HETATM   25  H   UNL     1      -8.535   9.498  68.757  1.00  0.00     0.000 HD 
HETATM   26  O   UNL     1     -11.106   8.966  67.020  1.00  0.00     0.065 OA 
HETATM   27  C   UNL     1     -10.028   9.402  67.387  1.00  0.00    -0.199 C  
BRANCH  27  28
HETATM   28  C   UNL     1      -9.229  10.509  66.690  1.00  0.00    -0.177 C  
HETATM   29  C   UNL     1     -10.024  10.994  65.451  1.00  0.00    -0.260 C  
HETATM   30  N   UNL     1     -10.929  12.124  65.721  1.00  0.00    -0.286 NA 
HETATM   31  C   UNL     1     -11.883  11.846  66.807  1.00  0.00    -0.087 C  
HETATM   32  C   UNL     1     -10.108  13.347  65.972  1.00  0.00    -0.304 C  
HETATM   33  C   UNL     1     -10.930  14.555  66.573  1.00  0.00    -0.321 C  
HETATM   34  C   UNL     1     -10.312  15.132  67.795  1.00  0.00    -0.243 A  
HETATM   35  C   UNL     1     -10.793  15.906  68.827  1.00  0.00    -0.284 A  
HETATM   36  N   UNL     1      -9.729  16.244  69.632  1.00  0.00    -0.130 NA 
HETATM   37  C   UNL     1      -8.564  15.689  69.149  1.00  0.00    -0.251 A  
HETATM   38  H   UNL     1      -9.793  16.824  70.469  1.00  0.00     0.000 HD 
HETATM   39  C   UNL     1      -7.232  15.710  69.572  1.00  0.00    -0.198 A  
HETATM   40  C   UNL     1      -6.307  14.974  68.807  1.00  0.00    -0.082 A  
HETATM   41  C   UNL     1      -6.715  14.164  67.744  1.00  0.00    -0.190 A  
HETATM   42  C   UNL     1      -8.069  14.083  67.419  1.00  0.00    -0.199 A  
HETATM   43  C   UNL     1      -8.950  14.940  68.060  1.00  0.00    -0.172 A  
HETATM   44  C   UNL     1      -8.690  12.980  66.620  1.00  0.00    -0.030 C  
HETATM   45  C   UNL     1      -8.827  11.725  67.540  1.00  0.00    -0.162 C  
ENDBRANCH  27  28
ENDBRANCH  16  24
TORSDOF 2
ENDMDL
MODEL       20
REMARK 921   NORMALIZED FREE ENERGY PREDICTED BY IDOCK:   -6.21 KCAL/MOL
REMARK 922        TOTAL FREE ENERGY PREDICTED BY IDOCK:   -8.11 KCAL/MOL
REMARK 923 INTER-LIGAND FREE ENERGY PREDICTED BY IDOCK:   -6.83 KCAL/MOL
REMARK 924 INTRA-LIGAND FREE ENERGY PREDICTED BY IDOCK:   -1.28 KCAL/MOL
REMARK 927      BINDING AFFINITY PREDICTED BY RF-SCORE:    0.00 PKD
ROOT
HETATM    1  C   UNL     1     -11.222  12.192  64.823  1.00  0.00    -0.323 C  
HETATM    2  C   UNL     1     -12.138  12.094  63.594  1.00  0.00    -0.648 C  
HETATM    3  C   UNL     1     -12.467  13.587  63.256  1.00  0.00    -0.036 C  
HETATM    4  C   UNL     1     -11.879  14.420  64.389  1.00  0.00    -0.415 C  
HETATM    5  N   UNL     1     -11.569  13.455  65.426  1.00  0.00    -0.307 N  
HETATM    6  C   UNL     1     -10.819  13.914  66.482  1.00  0.00    -0.295 C  
HETATM    7  O   UNL     1     -11.008  15.034  66.949  1.00  0.00    -0.314 OA 
HETATM    8  C   UNL     1      -9.874  12.853  67.094  1.00  0.00    -0.225 C  
HETATM    9  N   UNL     1      -9.318  11.850  65.990  1.00  0.00    -0.226 N  
HETATM   10  C   UNL     1      -8.882  13.542  68.020  1.00  0.00    -0.181 C  
HETATM   11  C   UNL     1      -7.926  14.406  67.221  1.00  0.00    -0.204 C  
HETATM   12  C   UNL     1      -8.419  10.792  66.153  1.00  0.00    -0.167 C  
HETATM   13  C   UNL     1      -9.541  14.099  69.295  1.00  0.00     0.247 C  
HETATM   14  O   UNL     1      -7.394  10.661  65.484  1.00  0.00    -0.135 OA 
HETATM   15  C   UNL     1      -6.738  14.820  68.058  1.00  0.00    -0.154 C  
HETATM   16  C   UNL     1      -8.947   9.916  67.282  1.00  0.00    -0.135 C  
HETATM   17  H   UNL     1      -9.812   9.323  65.224  1.00  0.00     0.000 HD 
HETATM   18  C   UNL     1      -7.872  10.477  68.349  1.00  0.00    -0.110 C  
HETATM   19  O   UNL     1     -10.443  10.401  67.005  1.00  0.00    -0.231 OA 
HETATM   20  O   UNL     1     -10.269   9.992  64.727  1.00  0.00    -0.237 OA 
HETATM   21  C   UNL     1     -10.435  11.038  65.679  1.00  0.00    -0.230 C  
HETATM   22  C   UNL     1      -6.486   9.772  68.316  1.00  0.00    -0.056 C  
HETATM   23  C   UNL     1      -8.283  10.706  69.797  1.00  0.00     0.165 C  
ENDROOT
BRANCH  16  24
HETATM   24  N   UNL     1      -9.131   8.541  67.649  1.00  0.00    -0.135 N  
HETATM   25  H   UNL     1      -9.344   8.387  68.634  1.00  0.00     0.000 HD 
HETATM   26  O   UNL     1      -8.677   7.367  65.731  1.00  0.00    -0.152 OA 
HETATM   27  C   UNL     1      -9.066   7.395  66.887  1.00  0.00    -0.141 C  
BRANCH  27  28
HETATM   28  C   UNL     1      -9.559   6.186  67.691  1.00  0.00    -0.113 C  
HETATM   29  C   UNL     1      -8.704   4.951  67.311  1.00  0.00    -0.103 C  
HETATM   30  N   UNL     1      -7.520   4.753  68.163  1.00  0.00    -0.073 NA 
HETATM   31  C   UNL     1      -6.640   5.933  68.203  1.00  0.00    -0.055 C  
HETATM   32  C   UNL     1      -7.971   4.323  69.520  1.00  0.00    -0.056 C  
HETATM   33  C   UNL     1      -6.834   4.371  70.617  1.00  0.00    -0.036 C  
HETATM   34  C   UNL     1      -7.233   5.115  71.840  1.00  0.00    -0.084 A  
HETATM   35  C   UNL     1      -6.527   5.711  72.860  1.00  0.00    -0.062 A  
HETATM   36  N   UNL     1      -7.434   6.155  73.797  1.00  0.00    -0.091 NA 
HETATM   37  C   UNL     1      -8.720   5.871  73.394  1.00  0.00    -0.120 A  
HETATM   38  H   UNL     1      -7.188   6.627  74.667  1.00  0.00     0.000 HD 
HETATM   39  C   UNL     1      -9.983   6.100  73.949  1.00  0.00    -0.235 A  
HETATM   40  C   UNL     1     -11.097   5.677  73.199  1.00  0.00    -0.315 A  
HETATM   41  C   UNL     1     -10.958   5.161  71.908  1.00  0.00    -0.112 A  
HETATM   42  C   UNL     1      -9.687   5.048  71.343  1.00  0.00    -0.231 A  
HETATM   43  C   UNL     1      -8.586   5.301  72.147  1.00  0.00    -0.126 A  
HETATM   44  C   UNL     1      -9.413   4.921  69.877  1.00  0.00    -0.229 C  
HETATM   45  C   UNL     1      -9.589   6.328  69.221  1.00  0.00    -0.147 C  
ENDBRANCH  27  28
ENDBRANCH  16  24
TORSDOF 2
ENDMDL
MODEL       21
REMARK 921   NORMALIZED FREE ENERGY PREDICTED BY IDOCK:   -6.20 KCAL/MOL
REMARK 922        TOTAL FREE ENERGY PREDICTED BY IDOCK:   -8.11 KCAL/MOL
REMARK 923 INTER-LIGAND FREE ENERGY PREDICTED BY IDOCK:   -7.84 KCAL/MOL
REMARK 924 INTRA-LIGAND FREE ENERGY PREDICTED BY IDOCK:   -0.27 KCAL/MOL
REMARK 927      BINDING AFFINITY PREDICTED BY RF-SCORE:    0.00 PKD
ROOT
HETATM    1  C   UNL     1     -12.425  13.176  70.615  1.00  0.00    -0.286 C  
HETATM    2  C   UNL     1     -13.429  12.951  71.756  1.00  0.00    -0.369 C  
HETATM    3  C   UNL     1     -14.086  14.357  71.955  1.00  0.00    -0.620 C  
HETATM    4  C   UNL     1     -13.314  15.320  71.062  1.00  0.00    -0.474 C  
HETATM    5  N   UNL     1     -12.124  14.585  70.680  1.00  0.00    -0.300 N  
HETATM    6  C   UNL     1     -11.353  15.144  69.689  1.00  0.00    -0.283 C  
HETATM    7  O   UNL     1     -11.168  16.357  69.644  1.00  0.00    -0.323 OA 
HETATM    8  C   UNL     1     -10.642  14.111  68.783  1.00  0.00    -0.253 C  
HETATM    9  N   UNL     1     -11.521  12.800  68.579  1.00  0.00    -0.285 N  
HETATM   10  C   UNL     1     -10.092  14.819  67.553  1.00  0.00    -0.224 C  
HETATM   11  C   UNL     1     -11.227  15.300  66.669  1.00  0.00    -0.232 C  
HETATM   12  C   UNL     1     -11.232  11.672  67.804  1.00  0.00    -0.268 C  
HETATM   13  C   UNL     1      -8.918  15.760  67.879  1.00  0.00    -0.180 C  
HETATM   14  O   UNL     1     -11.996  11.219  66.951  1.00  0.00    -0.327 OA 
HETATM   15  C   UNL     1     -10.721  15.692  65.301  1.00  0.00    -0.444 C  
HETATM   16  C   UNL     1      -9.846  11.186  68.209  1.00  0.00    -0.189 C  
HETATM   17  H   UNL     1     -11.520  10.284  69.522  1.00  0.00     0.000 HD 
HETATM   18  C   UNL     1      -9.142  11.790  66.887  1.00  0.00    -0.192 C  
HETATM   19  O   UNL     1     -10.003  11.837  69.658  1.00  0.00     0.518 OA 
HETATM   20  O   UNL     1     -12.096  10.886  69.979  1.00  0.00    -0.303 OA 
HETATM   21  C   UNL     1     -11.433  12.138  69.828  1.00  0.00    -0.188 C  
HETATM   22  C   UNL     1      -9.207  10.874  65.632  1.00  0.00    -0.227 C  
HETATM   23  C   UNL     1      -7.757  12.415  66.980  1.00  0.00    -0.065 C  
ENDROOT
BRANCH  16  24
HETATM   24  N   UNL     1      -9.112   9.985  68.488  1.00  0.00    -0.124 N  
HETATM   25  H   UNL     1      -8.110  10.118  68.623  1.00  0.00     0.000 HD 
HETATM   26  O   UNL     1     -10.668   8.307  68.329  1.00  0.00    -0.142 OA 
HETATM   27  C   UNL     1      -9.540   8.680  68.605  1.00  0.00    -0.155 C  
BRANCH  27  28
HETATM   28  C   UNL     1      -8.411   7.789  69.133  1.00  0.00    -0.134 C  
HETATM   29  C   UNL     1      -8.729   7.394  70.598  1.00  0.00    -0.142 C  
HETATM   30  N   UNL     1      -9.482   6.136  70.732  1.00  0.00    -0.167 NA 
HETATM   31  C   UNL     1     -10.740   6.139  69.967  1.00  0.00    -0.305 C  
HETATM   32  C   UNL     1      -8.586   4.998  70.367  1.00  0.00    -0.108 C  
HETATM   33  C   UNL     1      -9.345   3.625  70.171  1.00  0.00    -0.243 C  
HETATM   34  C   UNL     1      -9.021   2.958  68.883  1.00  0.00    -0.186 A  
HETATM   35  C   UNL     1      -9.650   1.992  68.131  1.00  0.00    -0.065 A  
HETATM   36  N   UNL     1      -8.823   1.673  67.078  1.00  0.00    -0.114 NA 
HETATM   37  C   UNL     1      -7.671   2.427  67.124  1.00  0.00    -0.066 A  
HETATM   38  H   UNL     1      -9.032   0.975  66.363  1.00  0.00     0.000 HD 
HETATM   39  C   UNL     1      -6.531   2.507  66.319  1.00  0.00    -0.028 A  
HETATM   40  C   UNL     1      -5.554   3.451  66.687  1.00  0.00    -0.021 A  
HETATM   41  C   UNL     1      -5.762   4.350  67.736  1.00  0.00    -0.022 A  
HETATM   42  C   UNL     1      -6.960   4.313  68.450  1.00  0.00    -0.051 A  
HETATM   43  C   UNL     1      -7.841   3.273  68.197  1.00  0.00    -0.063 A  
HETATM   44  C   UNL     1      -7.491   5.436  69.284  1.00  0.00    -0.073 C  
HETATM   45  C   UNL     1      -8.083   6.520  68.328  1.00  0.00    -0.110 C  
ENDBRANCH  27  28
ENDBRANCH  16  24
TORSDOF 2
ENDMDL
MODEL       22
REMARK 921   NORMALIZED FREE ENERGY PREDICTED BY IDOCK:   -6.20 KCAL/MOL
REMARK 922        TOTAL FREE ENERGY PREDICTED BY IDOCK:   -8.11 KCAL/MOL
REMARK 923 INTER-LIGAND FREE ENERGY PREDICTED BY IDOCK:   -7.04 KCAL/MOL
REMARK 924 INTRA-LIGAND FREE ENERGY PREDICTED BY IDOCK:   -1.06 KCAL/MOL
REMARK 927      BINDING AFFINITY PREDICTED BY RF-SCORE:    0.00 PKD
ROOT
HETATM    1  C   UNL     1      -6.789  15.091  69.613  1.00  0.00    -0.183 C  
HETATM    2  C   UNL     1      -5.792  14.581  70.664  1.00  0.00    -0.179 C  
HETATM    3  C   UNL     1      -5.136  15.889  71.219  1.00  0.00    -0.128 C  
HETATM    4  C   UNL     1      -5.654  17.029  70.349  1.00  0.00    -0.180 C  
HETATM    5  N   UNL     1      -6.256  16.368  69.207  1.00  0.00    -0.165 N  
HETATM    6  C   UNL     1      -7.000  17.160  68.367  1.00  0.00    -0.195 C  
HETATM    7  O   UNL     1      -6.637  18.300  68.089  1.00  0.00    -0.198 OA 
HETATM    8  C   UNL     1      -8.198  16.433  67.709  1.00  0.00    -0.154 C  
HETATM    9  N   UNL     1      -8.831  15.342  68.679  1.00  0.00    -0.177 N  
HETATM   10  C   UNL     1      -9.118  17.463  67.070  1.00  0.00    -0.251 C  
HETATM   11  C   UNL     1      -9.794  18.303  68.138  1.00  0.00    -0.356 C  
HETATM   12  C   UNL     1      -9.938  14.517  68.454  1.00  0.00    -0.241 C  
HETATM   13  C   UNL     1      -8.493  18.143  65.839  1.00  0.00     0.120 C  
HETATM   14  O   UNL     1     -10.895  14.438  69.223  1.00  0.00    -0.254 OA 
HETATM   15  C   UNL     1     -10.951  19.085  67.563  1.00  0.00    -0.363 C  
HETATM   16  C   UNL     1      -9.714  13.812  67.122  1.00  0.00    -0.244 C  
HETATM   17  H   UNL     1      -8.784  12.664  68.898  1.00  0.00     0.000 HD 
HETATM   18  C   UNL     1     -10.756  14.762  66.335  1.00  0.00    -0.313 C  
HETATM   19  O   UNL     1      -8.132  13.954  67.272  1.00  0.00    -0.178 OA 
HETATM   20  O   UNL     1      -8.153  13.125  69.440  1.00  0.00     0.530 OA 
HETATM   21  C   UNL     1      -7.876  14.297  68.680  1.00  0.00    -0.140 C  
HETATM   22  C   UNL     1     -12.245  14.325  66.431  1.00  0.00    -0.426 C  
HETATM   23  C   UNL     1     -10.456  15.205  64.909  1.00  0.00    -0.350 C  
ENDROOT
BRANCH  16  24
HETATM   24  N   UNL     1      -9.851  12.530  66.490  1.00  0.00    -0.240 N  
HETATM   25  H   UNL     1      -9.448  12.470  65.555  1.00  0.00     0.000 HD 
HETATM   26  O   UNL     1     -11.100  11.291  67.961  1.00  0.00    -0.225 OA 
HETATM   27  C   UNL     1     -10.438  11.368  66.940  1.00  0.00    -0.240 C  
BRANCH  27  28
HETATM   28  C   UNL     1     -10.130  10.207  65.988  1.00  0.00    -0.317 C  
HETATM   29  C   UNL     1      -8.853  10.548  65.180  1.00  0.00    -0.190 C  
HETATM   30  N   UNL     1      -7.604  10.077  65.801  1.00  0.00    -0.114 NA 
HETATM   31  C   UNL     1      -7.428  10.570  67.177  1.00  0.00    -0.097 C  
HETATM   32  C   UNL     1      -7.553   8.587  65.709  1.00  0.00    -0.085 C  
HETATM   33  C   UNL     1      -6.425   7.930  66.600  1.00  0.00    -0.055 C  
HETATM   34  C   UNL     1      -6.931   6.839  67.473  1.00  0.00    -0.083 A  
HETATM   35  C   UNL     1      -6.454   6.241  68.617  1.00  0.00    -0.049 A  
HETATM   36  N   UNL     1      -7.293   5.194  68.926  1.00  0.00    -0.064 NA 
HETATM   37  C   UNL     1      -8.318   5.112  68.010  1.00  0.00    -0.097 A  
HETATM   38  H   UNL     1      -7.173   4.568  69.722  1.00  0.00     0.000 HD 
HETATM   39  C   UNL     1      -9.418   4.261  67.860  1.00  0.00    -0.216 A  
HETATM   40  C   UNL     1     -10.284   4.522  66.780  1.00  0.00    -0.174 A  
HETATM   41  C   UNL     1     -10.123   5.647  65.966  1.00  0.00    -0.020 A  
HETATM   42  C   UNL     1      -9.075   6.534  66.215  1.00  0.00    -0.168 A  
HETATM   43  C   UNL     1      -8.128   6.181  67.164  1.00  0.00    -0.106 A  
HETATM   44  C   UNL     1      -9.021   7.947  65.727  1.00  0.00    -0.125 C  
HETATM   45  C   UNL     1      -9.973   8.811  66.613  1.00  0.00    -0.355 C  
ENDBRANCH  27  28
ENDBRANCH  16  24
TORSDOF 2
ENDMDL
MODEL       23
REMARK 921   NORMALIZED FREE ENERGY PREDICTED BY IDOCK:   -6.19 KCAL/MOL
REMARK 922        TOTAL FREE ENERGY PREDICTED BY IDOCK:   -8.10 KCAL/MOL
REMARK 923 INTER-LIGAND FREE ENERGY PREDICTED BY IDOCK:   -7.86 KCAL/MOL
REMARK 924 INTRA-LIGAND FREE ENERGY PREDICTED BY IDOCK:   -0.24 KCAL/MOL
REMARK 927      BINDING AFFINITY PREDICTED BY RF-SCORE:    0.00 PKD
ROOT
HETATM    1  C   UNL     1      -6.659   8.165  70.463  1.00  0.00    -0.036 C  
HETATM    2  C   UNL     1      -5.274   8.042  71.115  1.00  0.00    -0.029 C  
HETATM    3  C   UNL     1      -5.145   6.514  71.430  1.00  0.00    -0.022 C  
HETATM    4  C   UNL     1      -6.501   5.897  71.110  1.00  0.00    -0.045 C  
HETATM    5  N   UNL     1      -7.393   7.032  70.972  1.00  0.00    -0.076 N  
HETATM    6  C   UNL     1      -8.641   6.769  70.462  1.00  0.00    -0.142 C  
HETATM    7  O   UNL     1      -9.252   5.753  70.783  1.00  0.00    -0.149 OA 
HETATM    8  C   UNL     1      -9.234   7.920  69.614  1.00  0.00    -0.153 C  
HETATM    9  N   UNL     1      -8.105   8.705  68.813  1.00  0.00    -0.114 N  
HETATM   10  C   UNL     1     -10.447   7.407  68.852  1.00  0.00    -0.213 C  
HETATM   11  C   UNL     1     -10.020   6.409  67.792  1.00  0.00    -0.147 C  
HETATM   12  C   UNL     1      -8.255   9.772  67.922  1.00  0.00    -0.113 C  
HETATM   13  C   UNL     1     -11.642   7.092  69.770  1.00  0.00    -0.038 C  
HETATM   14  O   UNL     1      -7.792   9.776  66.781  1.00  0.00    -0.101 OA 
HETATM   15  C   UNL     1     -11.138   6.149  66.810  1.00  0.00    -0.230 C  
HETATM   16  C   UNL     1      -9.083  10.839  68.627  1.00  0.00    -0.173 C  
HETATM   17  H   UNL     1      -6.821  11.054  69.046  1.00  0.00     0.000 HD 
HETATM   18  C   UNL     1     -10.425  10.477  67.805  1.00  0.00    -0.263 C  
HETATM   19  O   UNL     1      -8.602  10.318  70.057  1.00  0.00    -0.090 OA 
HETATM   20  O   UNL     1      -6.369  10.307  69.423  1.00  0.00    -0.044 OA 
HETATM   21  C   UNL     1      -7.438   9.451  69.814  1.00  0.00    -0.087 C  
HETATM   22  C   UNL     1     -10.547  11.160  66.413  1.00  0.00    -0.315 C  
HETATM   23  C   UNL     1     -11.778  10.515  68.502  1.00  0.00    -0.125 C  
ENDROOT
BRANCH  16  24
HETATM   24  N   UNL     1      -9.157  12.259  68.825  1.00  0.00    -0.386 N  
HETATM   25  H   UNL     1      -9.753  12.552  69.598  1.00  0.00     0.000 HD 
HETATM   26  O   UNL     1      -7.930  13.146  67.101  1.00  0.00    -0.157 OA 
HETATM   27  C   UNL     1      -8.552  13.291  68.140  1.00  0.00    -0.177 C  
BRANCH  27  28
HETATM   28  C   UNL     1      -8.766  14.620  68.873  1.00  0.00    -0.138 C  
HETATM   29  C   UNL     1      -7.559  14.873  69.812  1.00  0.00    -0.028 C  
HETATM   30  N   UNL     1      -6.468  15.645  69.194  1.00  0.00    -0.123 NA 
HETATM   31  C   UNL     1      -5.969  15.037  67.950  1.00  0.00    -0.148 C  
HETATM   32  C   UNL     1      -6.924  17.055  69.007  1.00  0.00    -0.229 C  
HETATM   33  C   UNL     1      -5.974  17.916  68.082  1.00  0.00    -0.170 C  
HETATM   34  C   UNL     1      -6.699  18.613  66.988  1.00  0.00    -0.205 A  
HETATM   35  C   UNL     1      -6.307  19.154  65.784  1.00  0.00    -0.229 A  
HETATM   36  N   UNL     1      -7.399  19.783  65.230  1.00  0.00    -0.371 NA 
HETATM   37  C   UNL     1      -8.500  19.647  66.047  1.00  0.00    -0.265 A  
HETATM   38  H   UNL     1      -7.394  20.281  64.339  1.00  0.00     0.000 HD 
HETATM   39  C   UNL     1      -9.828  20.075  65.963  1.00  0.00    -0.512 A  
HETATM   40  C   UNL     1     -10.687  19.701  67.014  1.00  0.00    -0.575 A  
HETATM   41  C   UNL     1     -10.267  18.843  68.034  1.00  0.00    -0.452 A  
HETATM   42  C   UNL     1      -8.963  18.347  68.026  1.00  0.00    -0.305 A  
HETATM   43  C   UNL     1      -8.075  18.855  67.090  1.00  0.00    -0.277 A  
HETATM   44  C   UNL     1      -8.507  17.135  68.774  1.00  0.00    -0.225 C  
HETATM   45  C   UNL     1      -9.002  15.868  68.007  1.00  0.00    -0.182 C  
ENDBRANCH  27  28
ENDBRANCH  16  24
TORSDOF 2
ENDMDL
MODEL       24
REMARK 921   NORMALIZED FREE ENERGY PREDICTED BY IDOCK:   -6.17 KCAL/MOL
REMARK 922        TOTAL FREE ENERGY PREDICTED BY IDOCK:   -8.07 KCAL/MOL
REMARK 923 INTER-LIGAND FREE ENERGY PREDICTED BY IDOCK:   -9.16 KCAL/MOL
REMARK 924 INTRA-LIGAND FREE ENERGY PREDICTED BY IDOCK:    1.08 KCAL/MOL
REMARK 927      BINDING AFFINITY PREDICTED BY RF-SCORE:    0.00 PKD
ROOT
HETATM    1  C   UNL     1     -12.569  13.379  70.529  1.00  0.00    -0.211 C  
HETATM    2  C   UNL     1     -13.723  13.238  71.533  1.00  0.00    -0.025 C  
HETATM    3  C   UNL     1     -14.051  14.715  71.933  1.00  0.00    -0.606 C  
HETATM    4  C   UNL     1     -12.975  15.581  71.289  1.00  0.00    -0.499 C  
HETATM    5  N   UNL     1     -11.954  14.639  70.870  1.00  0.00    -0.309 N  
HETATM    6  C   UNL     1     -10.964  15.134  70.057  1.00  0.00    -0.271 C  
HETATM    7  O   UNL     1     -10.495  16.254  70.245  1.00  0.00    -0.171 OA 
HETATM    8  C   UNL     1     -10.415  14.111  69.034  1.00  0.00    -0.183 C  
HETATM    9  N   UNL     1     -11.548  13.112  68.532  1.00  0.00    -0.303 N  
HETATM   10  C   UNL     1      -9.574  14.842  67.997  1.00  0.00    -0.209 C  
HETATM   11  C   UNL     1     -10.453  15.726  67.133  1.00  0.00    -0.309 C  
HETATM   12  C   UNL     1     -11.443  12.084  67.590  1.00  0.00    -0.322 C  
HETATM   13  C   UNL     1      -8.258  15.395  68.575  1.00  0.00    -0.145 C  
HETATM   14  O   UNL     1     -12.187  11.977  66.615  1.00  0.00    -0.550 OA 
HETATM   15  C   UNL     1      -9.714  16.187  65.899  1.00  0.00    -0.374 C  
HETATM   16  C   UNL     1     -10.267  11.207  68.003  1.00  0.00    -0.181 C  
HETATM   17  H   UNL     1     -12.248  10.561  69.002  1.00  0.00     0.000 HD 
HETATM   18  C   UNL     1      -9.292  11.814  66.868  1.00  0.00    -0.197 C  
HETATM   19  O   UNL     1     -10.435  11.642  69.529  1.00  0.00     0.002 OA 
HETATM   20  O   UNL     1     -12.715  11.210  69.516  1.00  0.00    -0.208 OA 
HETATM   21  C   UNL     1     -11.764  12.262  69.643  1.00  0.00    -0.316 C  
HETATM   22  C   UNL     1      -9.423  11.153  65.467  1.00  0.00    -0.251 C  
HETATM   23  C   UNL     1      -7.819  12.049  67.175  1.00  0.00    -0.168 C  
ENDROOT
BRANCH  16  24
HETATM   24  N   UNL     1      -9.874   9.832  68.114  1.00  0.00    -0.145 N  
HETATM   25  H   UNL     1      -9.373   9.599  68.971  1.00  0.00     0.000 HD 
HETATM   26  O   UNL     1     -10.500   8.889  66.119  1.00  0.00    -0.082 OA 
HETATM   27  C   UNL     1     -10.062   8.774  67.251  1.00  0.00    -0.236 C  
BRANCH  27  28
HETATM   28  C   UNL     1      -9.656   7.456  67.920  1.00  0.00    -0.157 C  
HETATM   29  C   UNL     1      -8.152   7.201  67.649  1.00  0.00    -0.114 C  
HETATM   30  N   UNL     1      -7.254   7.743  68.682  1.00  0.00    -0.083 NA 
HETATM   31  C   UNL     1      -7.447   9.185  68.909  1.00  0.00    -0.075 C  
HETATM   32  C   UNL     1      -7.412   6.935  69.929  1.00  0.00    -0.094 C  
HETATM   33  C   UNL     1      -6.742   7.589  71.203  1.00  0.00    -0.046 C  
HETATM   34  C   UNL     1      -7.664   7.682  72.365  1.00  0.00    -0.113 A  
HETATM   35  C   UNL     1      -7.674   8.447  73.509  1.00  0.00    -0.080 A  
HETATM   36  N   UNL     1      -8.722   8.019  74.293  1.00  0.00    -0.413 NA 
HETATM   37  C   UNL     1      -9.404   6.998  73.669  1.00  0.00    -0.192 A  
HETATM   38  H   UNL     1      -8.960   8.404  75.207  1.00  0.00     0.000 HD 
HETATM   39  C   UNL     1     -10.520   6.227  74.011  1.00  0.00    -0.279 A  
HETATM   40  C   UNL     1     -10.948   5.271  73.070  1.00  0.00    -0.354 A  
HETATM   41  C   UNL     1     -10.362   5.174  71.805  1.00  0.00    -0.274 A  
HETATM   42  C   UNL     1      -9.320   6.036  71.459  1.00  0.00    -0.161 A  
HETATM   43  C   UNL     1      -8.790   6.853  72.445  1.00  0.00    -0.139 A  
HETATM   44  C   UNL     1      -8.892   6.336  70.057  1.00  0.00    -0.142 C  
HETATM   45  C   UNL     1      -9.927   7.322  69.427  1.00  0.00    -0.170 C  
ENDBRANCH  27  28
ENDBRANCH  16  24
TORSDOF 2
ENDMDL
MODEL       25
REMARK 921   NORMALIZED FREE ENERGY PREDICTED BY IDOCK:   -6.11 KCAL/MOL
REMARK 922        TOTAL FREE ENERGY PREDICTED BY IDOCK:   -8.00 KCAL/MOL
REMARK 923 INTER-LIGAND FREE ENERGY PREDICTED BY IDOCK:   -7.48 KCAL/MOL
REMARK 924 INTRA-LIGAND FREE ENERGY PREDICTED BY IDOCK:   -0.52 KCAL/MOL
REMARK 927      BINDING AFFINITY PREDICTED BY RF-SCORE:    0.00 PKD
ROOT
HETATM    1  C   UNL     1      -7.340   6.715  68.711  1.00  0.00    -0.090 C  
HETATM    2  C   UNL     1      -6.151   5.895  68.189  1.00  0.00    -0.017 C  
HETATM    3  C   UNL     1      -6.136   4.632  69.113  1.00  0.00    -0.029 C  
HETATM    4  C   UNL     1      -7.180   4.882  70.195  1.00  0.00    -0.051 C  
HETATM    5  N   UNL     1      -7.486   6.295  70.083  1.00  0.00    -0.092 N  
HETATM    6  C   UNL     1      -8.567   6.744  70.801  1.00  0.00    -0.141 C  
HETATM    7  O   UNL     1      -8.791   6.322  71.933  1.00  0.00    -0.139 OA 
HETATM    8  C   UNL     1      -9.336   7.906  70.128  1.00  0.00    -0.156 C  
HETATM    9  N   UNL     1      -9.326   7.779  68.541  1.00  0.00    -0.147 N  
HETATM   10  C   UNL     1     -10.670   8.100  70.835  1.00  0.00    -0.246 C  
HETATM   11  C   UNL     1     -11.581   6.915  70.579  1.00  0.00    -0.396 C  
HETATM   12  C   UNL     1      -9.939   8.611  67.599  1.00  0.00    -0.194 C  
HETATM   13  C   UNL     1     -10.515   8.657  72.262  1.00  0.00    -0.376 C  
HETATM   14  O   UNL     1     -10.696   8.200  66.720  1.00  0.00    -0.278 OA 
HETATM   15  C   UNL     1     -13.005   7.230  70.972  1.00  0.00    -0.233 C  
HETATM   16  C   UNL     1      -9.507  10.039  67.906  1.00  0.00    -0.144 C  
HETATM   17  H   UNL     1      -8.033   8.952  66.499  1.00  0.00     0.000 HD 
HETATM   18  C   UNL     1     -10.922  10.423  68.585  1.00  0.00    -0.288 C  
HETATM   19  O   UNL     1      -8.163   9.523  68.594  1.00  0.00    -0.109 OA 
HETATM   20  O   UNL     1      -7.651   8.137  66.804  1.00  0.00    -0.091 OA 
HETATM   21  C   UNL     1      -7.998   8.119  68.185  1.00  0.00    -0.127 C  
HETATM   22  C   UNL     1     -12.030  10.865  67.589  1.00  0.00     0.495 C  
HETATM   23  C   UNL     1     -10.958  11.328  69.809  1.00  0.00    -0.170 C  
ENDROOT
BRANCH  16  24
HETATM   24  N   UNL     1      -9.080  11.249  67.263  1.00  0.00    -0.154 N  
HETATM   25  H   UNL     1      -9.209  11.262  66.251  1.00  0.00     0.000 HD 
HETATM   26  O   UNL     1      -8.158  12.505  68.946  1.00  0.00     0.029 OA 
HETATM   27  C   UNL     1      -8.525  12.395  67.788  1.00  0.00    -0.169 C  
BRANCH  27  28
HETATM   28  C   UNL     1      -8.449  13.494  66.722  1.00  0.00     0.013 C  
HETATM   29  C   UNL     1      -9.845  13.651  66.067  1.00  0.00    -0.276 C  
HETATM   30  N   UNL     1     -10.706  14.652  66.718  1.00  0.00    -0.296 NA 
HETATM   31  C   UNL     1     -10.894  14.397  68.155  1.00  0.00    -0.244 C  
HETATM   32  C   UNL     1     -10.156  16.013  66.439  1.00  0.00    -0.300 C  
HETATM   33  C   UNL     1     -10.798  17.155  67.323  1.00  0.00    -0.118 C  
HETATM   34  C   UNL     1      -9.787  18.003  68.006  1.00  0.00    -0.324 A  
HETATM   35  C   UNL     1      -9.833  18.840  69.098  1.00  0.00    -0.211 A  
HETATM   36  N   UNL     1      -8.609  19.462  69.203  1.00  0.00    -0.225 NA 
HETATM   37  C   UNL     1      -7.762  19.030  68.206  1.00  0.00    -0.311 A  
HETATM   38  H   UNL     1      -8.363  20.146  69.919  1.00  0.00     0.000 HD 
HETATM   39  C   UNL     1      -6.439  19.326  67.862  1.00  0.00    -0.254 A  
HETATM   40  C   UNL     1      -5.896  18.636  66.762  1.00  0.00    -0.168 A  
HETATM   41  C   UNL     1      -6.601  17.618  66.114  1.00  0.00    -0.302 A  
HETATM   42  C   UNL     1      -7.880  17.275  66.556  1.00  0.00    -0.322 A  
HETATM   43  C   UNL     1      -8.475  18.071  67.523  1.00  0.00    -0.237 A  
HETATM   44  C   UNL     1      -8.565  15.979  66.259  1.00  0.00    -0.363 C  
HETATM   45  C   UNL     1      -7.945  14.875  67.173  1.00  0.00    -0.227 C  
ENDBRANCH  27  28
ENDBRANCH  16  24
TORSDOF 2
ENDMDL
MODEL       26
REMARK 921   NORMALIZED FREE ENERGY PREDICTED BY IDOCK:   -6.11 KCAL/MOL
REMARK 922        TOTAL FREE ENERGY PREDICTED BY IDOCK:   -8.00 KCAL/MOL
REMARK 923 INTER-LIGAND FREE ENERGY PREDICTED BY IDOCK:   -7.18 KCAL/MOL
REMARK 924 INTRA-LIGAND FREE ENERGY PREDICTED BY IDOCK:   -0.82 KCAL/MOL
REMARK 927      BINDING AFFINITY PREDICTED BY RF-SCORE:    0.00 PKD
ROOT
HETATM    1  C   UNL     1      -9.739   3.884  65.413  1.00  0.00    -0.181 C  
HETATM    2  C   UNL     1     -10.701   3.810  64.218  1.00  0.00    -0.216 C  
HETATM    3  C   UNL     1     -10.525   2.347  63.690  1.00  0.00    -0.144 C  
HETATM    4  C   UNL     1      -9.372   1.742  64.483  1.00  0.00    -0.129 C  
HETATM    5  N   UNL     1      -8.745   2.877  65.133  1.00  0.00    -0.108 N  
HETATM    6  C   UNL     1      -7.806   2.588  66.093  1.00  0.00    -0.081 C  
HETATM    7  O   UNL     1      -7.015   1.661  65.942  1.00  0.00    -0.040 OA 
HETATM    8  C   UNL     1      -7.748   3.613  67.250  1.00  0.00    -0.079 C  
HETATM    9  N   UNL     1      -9.185   4.215  67.579  1.00  0.00    -0.144 N  
HETATM   10  C   UNL     1      -6.921   3.036  68.390  1.00  0.00    -0.049 C  
HETATM   11  C   UNL     1      -7.646   1.866  69.028  1.00  0.00    -0.043 C  
HETATM   12  C   UNL     1      -9.535   5.133  68.573  1.00  0.00    -0.133 C  
HETATM   13  C   UNL     1      -5.425   2.918  68.045  1.00  0.00    -0.017 C  
HETATM   14  O   UNL     1     -10.431   4.938  69.394  1.00  0.00    -0.167 OA 
HETATM   15  C   UNL     1      -7.024   1.500  70.355  1.00  0.00    -0.033 C  
HETATM   16  C   UNL     1      -8.603   6.331  68.434  1.00  0.00    -0.114 C  
HETATM   17  H   UNL     1     -10.489   6.517  67.111  1.00  0.00     0.000 HD 
HETATM   18  C   UNL     1      -7.701   5.898  69.701  1.00  0.00    -0.096 C  
HETATM   19  O   UNL     1      -8.382   6.023  66.883  1.00  0.00    -0.106 OA 
HETATM   20  O   UNL     1     -10.661   5.822  66.487  1.00  0.00    -0.258 OA 
HETATM   21  C   UNL     1      -9.443   5.082  66.490  1.00  0.00    -0.149 C  
HETATM   22  C   UNL     1      -8.247   6.356  71.083  1.00  0.00    -0.122 C  
HETATM   23  C   UNL     1      -6.192   6.101  69.667  1.00  0.00    -0.030 C  
ENDROOT
BRANCH  16  24
HETATM   24  N   UNL     1      -8.602   7.766  68.467  1.00  0.00    -0.128 N  
HETATM   25  H   UNL     1      -7.720   8.198  68.195  1.00  0.00     0.000 HD 
HETATM   26  O   UNL     1     -10.665   8.326  69.299  1.00  0.00    -0.211 OA 
HETATM   27  C   UNL     1      -9.599   8.654  68.806  1.00  0.00    -0.156 C  
BRANCH  27  28
HETATM   28  C   UNL     1      -9.179  10.089  68.467  1.00  0.00    -0.141 C  
HETATM   29  C   UNL     1      -7.912  10.041  67.576  1.00  0.00    -0.106 C  
HETATM   30  N   UNL     1      -8.193  10.019  66.131  1.00  0.00    -0.119 NA 
HETATM   31  C   UNL     1      -9.080   8.912  65.737  1.00  0.00    -0.221 C  
HETATM   32  C   UNL     1      -8.721  11.356  65.724  1.00  0.00    -0.062 C  
HETATM   33  C   UNL     1      -9.349  11.380  64.273  1.00  0.00    -0.081 C  
HETATM   34  C   UNL     1     -10.714  11.967  64.237  1.00  0.00    -0.382 A  
HETATM   35  C   UNL     1     -11.757  11.889  63.343  1.00  0.00    -0.403 A  
HETATM   36  N   UNL     1     -12.747  12.743  63.774  1.00  0.00    -0.725 NA 
HETATM   37  C   UNL     1     -12.371  13.364  64.944  1.00  0.00    -0.412 A  
HETATM   38  H   UNL     1     -13.634  12.895  63.294  1.00  0.00     0.000 HD 
HETATM   39  C   UNL     1     -12.984  14.295  65.788  1.00  0.00    -0.149 A  
HETATM   40  C   UNL     1     -12.273  14.678  66.941  1.00  0.00    -0.114 A  
HETATM   41  C   UNL     1     -11.064  14.071  67.292  1.00  0.00    -0.314 A  
HETATM   42  C   UNL     1     -10.535  13.066  66.481  1.00  0.00    -0.284 A  
HETATM   43  C   UNL     1     -11.148  12.817  65.262  1.00  0.00    -0.320 A  
HETATM   44  C   UNL     1      -9.516  12.063  66.921  1.00  0.00    -0.206 C  
HETATM   45  C   UNL     1     -10.232  10.989  67.800  1.00  0.00    -0.210 C  
ENDBRANCH  27  28
ENDBRANCH  16  24
TORSDOF 2
ENDMDL
MODEL       27
REMARK 921   NORMALIZED FREE ENERGY PREDICTED BY IDOCK:   -6.10 KCAL/MOL
REMARK 922        TOTAL FREE ENERGY PREDICTED BY IDOCK:   -8.00 KCAL/MOL
REMARK 923 INTER-LIGAND FREE ENERGY PREDICTED BY IDOCK:   -7.41 KCAL/MOL
REMARK 924 INTRA-LIGAND FREE ENERGY PREDICTED BY IDOCK:   -0.59 KCAL/MOL
REMARK 927      BINDING AFFINITY PREDICTED BY RF-SCORE:    0.00 PKD
ROOT
HETATM    1  C   UNL     1      -8.878   3.789  65.949  1.00  0.00    -0.122 C  
HETATM    2  C   UNL     1      -9.450   2.940  64.805  1.00  0.00    -0.138 C  
HETATM    3  C   UNL     1      -8.435   1.755  64.678  1.00  0.00    -0.086 C  
HETATM    4  C   UNL     1      -7.277   2.083  65.614  1.00  0.00    -0.056 C  
HETATM    5  N   UNL     1      -7.469   3.480  65.952  1.00  0.00    -0.076 N  
HETATM    6  C   UNL     1      -6.684   3.976  66.964  1.00  0.00    -0.047 C  
HETATM    7  O   UNL     1      -5.506   3.645  67.068  1.00  0.00    -0.018 OA 
HETATM    8  C   UNL     1      -7.367   5.074  67.814  1.00  0.00    -0.075 C  
HETATM    9  N   UNL     1      -8.932   4.820  67.959  1.00  0.00    -0.108 N  
HETATM   10  C   UNL     1      -6.547   5.314  69.074  1.00  0.00    -0.051 C  
HETATM   11  C   UNL     1      -6.617   4.105  69.987  1.00  0.00    -0.033 C  
HETATM   12  C   UNL     1      -9.870   5.570  68.675  1.00  0.00    -0.148 C  
HETATM   13  C   UNL     1      -5.192   5.985  68.787  1.00  0.00    -0.004 C  
HETATM   14  O   UNL     1     -10.634   5.084  69.509  1.00  0.00    -0.182 OA 
HETATM   15  C   UNL     1      -6.110   4.439  71.370  1.00  0.00    -0.018 C  
HETATM   16  C   UNL     1      -9.721   7.022  68.238  1.00  0.00    -0.135 C  
HETATM   17  H   UNL     1     -11.179   5.836  66.893  1.00  0.00     0.000 HD 
HETATM   18  C   UNL     1      -8.937   7.447  69.584  1.00  0.00    -0.141 C  
HETATM   19  O   UNL     1      -9.133   6.572  66.824  1.00  0.00    -0.134 OA 
HETATM   20  O   UNL     1     -10.850   5.052  66.470  1.00  0.00    -0.226 OA 
HETATM   21  C   UNL     1      -9.444   5.142  66.679  1.00  0.00    -0.144 C  
HETATM   22  C   UNL     1      -9.850   7.799  70.793  1.00  0.00    -0.183 C  
HETATM   23  C   UNL     1      -7.791   8.447  69.514  1.00  0.00    -0.102 C  
ENDROOT
BRANCH  16  24
HETATM   24  N   UNL     1     -10.498   8.179  67.896  1.00  0.00    -0.333 N  
HETATM   25  H   UNL     1     -11.452   8.175  68.258  1.00  0.00     0.000 HD 
HETATM   26  O   UNL     1      -9.130   9.407  66.524  1.00  0.00    -0.143 OA 
HETATM   27  C   UNL     1     -10.166   9.295  67.159  1.00  0.00    -0.257 C  
BRANCH  27  28
HETATM   28  C   UNL     1     -11.266  10.356  67.264  1.00  0.00    -0.153 C  
HETATM   29  C   UNL     1     -11.509  10.677  68.761  1.00  0.00    -0.262 C  
HETATM   30  N   UNL     1     -10.696  11.790  69.278  1.00  0.00    -0.132 NA 
HETATM   31  C   UNL     1      -9.252  11.586  69.075  1.00  0.00     0.127 C  
HETATM   32  C   UNL     1     -11.190  13.065  68.677  1.00  0.00    -0.277 C  
HETATM   33  C   UNL     1     -10.221  14.294  68.903  1.00  0.00    -0.203 C  
HETATM   34  C   UNL     1      -9.896  15.020  67.648  1.00  0.00    -0.220 A  
HETATM   35  C   UNL     1      -8.882  15.875  67.282  1.00  0.00    -0.196 A  
HETATM   36  N   UNL     1      -9.158  16.340  66.015  1.00  0.00    -0.396 NA 
HETATM   37  C   UNL     1     -10.328  15.787  65.545  1.00  0.00    -0.404 A  
HETATM   38  H   UNL     1      -8.577  17.000  65.498  1.00  0.00     0.000 HD 
HETATM   39  C   UNL     1     -11.046  15.908  64.351  1.00  0.00    -0.165 A  
HETATM   40  C   UNL     1     -12.217  15.136  64.228  1.00  0.00    -0.257 A  
HETATM   41  C   UNL     1     -12.586  14.203  65.202  1.00  0.00    -0.426 A  
HETATM   42  C   UNL     1     -11.785  14.032  66.332  1.00  0.00    -0.407 A  
HETATM   43  C   UNL     1     -10.733  14.913  66.529  1.00  0.00    -0.309 A  
HETATM   44  C   UNL     1     -11.808  12.828  67.219  1.00  0.00    -0.414 C  
HETATM   45  C   UNL     1     -11.049  11.670  66.495  1.00  0.00    -0.357 C  
ENDBRANCH  27  28
ENDBRANCH  16  24
TORSDOF 2
ENDMDL
MODEL       28
REMARK 921   NORMALIZED FREE ENERGY PREDICTED BY IDOCK:   -6.05 KCAL/MOL
REMARK 922        TOTAL FREE ENERGY PREDICTED BY IDOCK:   -7.93 KCAL/MOL
REMARK 923 INTER-LIGAND FREE ENERGY PREDICTED BY IDOCK:   -6.92 KCAL/MOL
REMARK 924 INTRA-LIGAND FREE ENERGY PREDICTED BY IDOCK:   -1.01 KCAL/MOL
REMARK 927      BINDING AFFINITY PREDICTED BY RF-SCORE:    0.00 PKD
ROOT
HETATM    1  C   UNL     1     -10.657  13.289  65.884  1.00  0.00    -0.281 C  
HETATM    2  C   UNL     1     -11.727  12.637  64.997  1.00  0.00    -0.401 C  
HETATM    3  C   UNL     1     -12.251  13.820  64.116  1.00  0.00    -0.443 C  
HETATM    4  C   UNL     1     -11.594  15.082  64.661  1.00  0.00    -0.386 C  
HETATM    5  N   UNL     1     -11.040  14.679  65.940  1.00  0.00    -0.332 N  
HETATM    6  C   UNL     1     -10.195  15.575  66.548  1.00  0.00    -0.283 C  
HETATM    7  O   UNL     1     -10.427  16.781  66.517  1.00  0.00    -0.305 OA 
HETATM    8  C   UNL     1      -9.068  14.917  67.380  1.00  0.00    -0.189 C  
HETATM    9  N   UNL     1      -8.579  13.548  66.732  1.00  0.00    -0.096 N  
HETATM   10  C   UNL     1      -8.028  15.970  67.733  1.00  0.00    -0.152 C  
HETATM   11  C   UNL     1      -7.290  16.423  66.487  1.00  0.00    -0.176 C  
HETATM   12  C   UNL     1      -7.563  12.694  67.172  1.00  0.00    -0.063 C  
HETATM   13  C   UNL     1      -8.548  17.012  68.741  1.00  0.00    -0.238 C  
HETATM   14  O   UNL     1      -6.638  12.312  66.455  1.00  0.00     0.094 OA 
HETATM   15  C   UNL     1      -6.043  17.195  66.844  1.00  0.00    -0.228 C  
HETATM   16  C   UNL     1      -7.830  12.389  68.641  1.00  0.00    -0.049 C  
HETATM   17  H   UNL     1      -8.919  10.928  67.220  1.00  0.00     0.000 HD 
HETATM   18  C   UNL     1      -6.674  13.390  69.158  1.00  0.00    -0.099 C  
HETATM   19  O   UNL     1      -9.391  12.660  68.449  1.00  0.00    -0.205 OA 
HETATM   20  O   UNL     1      -9.509  11.298  66.573  1.00  0.00    -0.184 OA 
HETATM   21  C   UNL     1      -9.641  12.651  66.999  1.00  0.00    -0.219 C  
HETATM   22  C   UNL     1      -5.243  12.782  69.189  1.00  0.00    -0.069 C  
HETATM   23  C   UNL     1      -6.892  14.219  70.417  1.00  0.00     0.195 C  
ENDROOT
BRANCH  16  24
HETATM   24  N   UNL     1      -7.818  11.309  69.586  1.00  0.00    -0.312 N  
HETATM   25  H   UNL     1      -8.152  11.554  70.518  1.00  0.00     0.000 HD 
HETATM   26  O   UNL     1      -6.862   9.559  68.452  1.00  0.00    -0.061 OA 
HETATM   27  C   UNL     1      -7.428   9.995  69.440  1.00  0.00    -0.113 C  
BRANCH  27  28
HETATM   28  C   UNL     1      -7.814   9.179  70.679  1.00  0.00    -0.165 C  
HETATM   29  C   UNL     1      -9.327   9.376  70.955  1.00  0.00    -0.193 C  
HETATM   30  N   UNL     1     -10.192   8.379  70.303  1.00  0.00    -0.193 NA 
HETATM   31  C   UNL     1      -9.991   8.312  68.846  1.00  0.00    -0.186 C  
HETATM   32  C   UNL     1      -9.996   7.060  70.976  1.00  0.00    -0.188 C  
HETATM   33  C   UNL     1     -10.626   5.842  70.189  1.00  0.00    -0.362 C  
HETATM   34  C   UNL     1      -9.669   4.725  69.978  1.00  0.00    -0.280 A  
HETATM   35  C   UNL     1      -9.624   3.669  69.097  1.00  0.00    -0.102 A  
HETATM   36  N   UNL     1      -8.553   2.876  69.444  1.00  0.00    -0.063 NA 
HETATM   37  C   UNL     1      -7.891   3.409  70.528  1.00  0.00    -0.043 A  
HETATM   38  H   UNL     1      -8.286   2.015  68.965  1.00  0.00     0.000 HD 
HETATM   39  C   UNL     1      -6.766   3.022  71.263  1.00  0.00    -0.031 A  
HETATM   40  C   UNL     1      -6.368   3.869  72.315  1.00  0.00    -0.014 A  
HETATM   41  C   UNL     1      -6.992   5.099  72.541  1.00  0.00    -0.084 A  
HETATM   42  C   UNL     1      -8.043   5.502  71.717  1.00  0.00    -0.118 A  
HETATM   43  C   UNL     1      -8.542   4.592  70.798  1.00  0.00    -0.115 A  
HETATM   44  C   UNL     1      -8.514   6.914  71.564  1.00  0.00    -0.114 C  
HETATM   45  C   UNL     1      -7.497   7.675  70.655  1.00  0.00    -0.072 C  
ENDBRANCH  27  28
ENDBRANCH  16  24
TORSDOF 2
ENDMDL
MODEL       29
REMARK 921   NORMALIZED FREE ENERGY PREDICTED BY IDOCK:   -5.83 KCAL/MOL
REMARK 922        TOTAL FREE ENERGY PREDICTED BY IDOCK:   -7.69 KCAL/MOL
REMARK 923 INTER-LIGAND FREE ENERGY PREDICTED BY IDOCK:   -6.79 KCAL/MOL
REMARK 924 INTRA-LIGAND FREE ENERGY PREDICTED BY IDOCK:   -0.90 KCAL/MOL
REMARK 927      BINDING AFFINITY PREDICTED BY RF-SCORE:    0.00 PKD
ROOT
HETATM    1  C   UNL     1      -7.820   4.773  67.125  1.00  0.00    -0.095 C  
HETATM    2  C   UNL     1      -7.870   3.861  65.891  1.00  0.00    -0.090 C  
HETATM    3  C   UNL     1      -7.372   2.478  66.429  1.00  0.00    -0.066 C  
HETATM    4  C   UNL     1      -6.909   2.720  67.861  1.00  0.00    -0.048 C  
HETATM    5  N   UNL     1      -6.829   4.163  67.978  1.00  0.00    -0.047 N  
HETATM    6  C   UNL     1      -6.646   4.664  69.244  1.00  0.00    -0.040 C  
HETATM    7  O   UNL     1      -5.896   4.105  70.040  1.00  0.00    -0.016 OA 
HETATM    8  C   UNL     1      -7.323   6.034  69.486  1.00  0.00    -0.076 C  
HETATM    9  N   UNL     1      -8.685   6.171  68.675  1.00  0.00    -0.112 N  
HETATM   10  C   UNL     1      -7.329   6.332  70.978  1.00  0.00    -0.084 C  
HETATM   11  C   UNL     1      -8.259   5.378  71.703  1.00  0.00    -0.118 C  
HETATM   12  C   UNL     1      -9.588   7.240  68.667  1.00  0.00    -0.141 C  
HETATM   13  C   UNL     1      -5.923   6.612  71.539  1.00  0.00    -0.037 C  
HETATM   14  O   UNL     1     -10.791   7.115  68.893  1.00  0.00    -0.200 OA 
HETATM   15  C   UNL     1      -8.547   5.860  73.105  1.00  0.00    -0.119 C  
HETATM   16  C   UNL     1      -8.792   8.504  68.364  1.00  0.00    -0.139 C  
HETATM   17  H   UNL     1      -9.512   7.430  66.449  1.00  0.00     0.000 HD 
HETATM   18  C   UNL     1      -8.819   9.004  69.899  1.00  0.00    -0.164 C  
HETATM   19  O   UNL     1      -7.677   7.660  67.595  1.00  0.00    -0.116 OA 
HETATM   20  O   UNL     1      -9.255   6.523  66.328  1.00  0.00    -0.159 OA 
HETATM   21  C   UNL     1      -8.263   6.336  67.333  1.00  0.00    -0.109 C  
HETATM   22  C   UNL     1     -10.097   9.787  70.313  1.00  0.00    -0.323 C  
HETATM   23  C   UNL     1      -7.598   9.687  70.499  1.00  0.00    -0.151 C  
ENDROOT
BRANCH  16  24
HETATM   24  N   UNL     1      -8.852   9.713  67.593  1.00  0.00    -0.125 N  
HETATM   25  H   UNL     1      -8.186  10.432  67.875  1.00  0.00     0.000 HD 
HETATM   26  O   UNL     1     -10.612   9.396  66.157  1.00  0.00    -0.065 OA 
HETATM   27  C   UNL     1      -9.661  10.060  66.533  1.00  0.00    -0.200 C  
BRANCH  27  28
HETATM   28  C   UNL     1      -9.189  11.376  65.905  1.00  0.00    -0.231 C  
HETATM   29  C   UNL     1     -10.209  11.807  64.821  1.00  0.00    -0.282 C  
HETATM   30  N   UNL     1     -11.279  12.688  65.318  1.00  0.00    -0.292 NA 
HETATM   31  C   UNL     1     -12.020  12.105  66.448  1.00  0.00    -0.121 C  
HETATM   32  C   UNL     1     -10.692  14.024  65.638  1.00  0.00    -0.303 C  
HETATM   33  C   UNL     1     -11.657  14.964  66.463  1.00  0.00    -0.254 C  
HETATM   34  C   UNL     1     -11.021  15.531  67.681  1.00  0.00    -0.315 A  
HETATM   35  C   UNL     1     -11.517  16.076  68.843  1.00  0.00    -0.362 A  
HETATM   36  N   UNL     1     -10.450  16.547  69.576  1.00  0.00    -0.308 NA 
HETATM   37  C   UNL     1      -9.267  16.302  68.915  1.00  0.00    -0.249 A  
HETATM   38  H   UNL     1     -10.525  17.011  70.481  1.00  0.00     0.000 HD 
HETATM   39  C   UNL     1      -7.923  16.559  69.205  1.00  0.00    -0.182 A  
HETATM   40  C   UNL     1      -6.971  16.116  68.267  1.00  0.00    -0.126 A  
HETATM   41  C   UNL     1      -7.337  15.351  67.156  1.00  0.00    -0.203 A  
HETATM   42  C   UNL     1      -8.678  15.020  66.957  1.00  0.00    -0.262 A  
HETATM   43  C   UNL     1      -9.627  15.603  67.784  1.00  0.00    -0.209 A  
HETATM   44  C   UNL     1      -9.161  13.899  66.093  1.00  0.00    -0.040 C  
HETATM   45  C   UNL     1      -8.935  12.556  66.857  1.00  0.00    -0.212 C  
ENDBRANCH  27  28
ENDBRANCH  16  24
TORSDOF 2
ENDMDL
MODEL       30
REMARK 921   NORMALIZED FREE ENERGY PREDICTED BY IDOCK:   -5.82 KCAL/MOL
REMARK 922        TOTAL FREE ENERGY PREDICTED BY IDOCK:   -7.68 KCAL/MOL
REMARK 923 INTER-LIGAND FREE ENERGY PREDICTED BY IDOCK:   -6.78 KCAL/MOL
REMARK 924 INTRA-LIGAND FREE ENERGY PREDICTED BY IDOCK:   -0.90 KCAL/MOL
REMARK 927      BINDING AFFINITY PREDICTED BY RF-SCORE:    0.00 PKD
ROOT
HETATM    1  C   UNL     1      -6.565   6.779  70.958  1.00  0.00    -0.053 C  
HETATM    2  C   UNL     1      -5.906   7.619  72.061  1.00  0.00    -0.036 C  
HETATM    3  C   UNL     1      -5.301   6.549  73.031  1.00  0.00    -0.037 C  
HETATM    4  C   UNL     1      -5.790   5.195  72.532  1.00  0.00    -0.025 C  
HETATM    5  N   UNL     1      -6.849   5.516  71.594  1.00  0.00    -0.064 N  
HETATM    6  C   UNL     1      -7.319   4.478  70.826  1.00  0.00    -0.052 C  
HETATM    7  O   UNL     1      -7.464   3.356  71.304  1.00  0.00    -0.036 OA 
HETATM    8  C   UNL     1      -7.782   4.898  69.410  1.00  0.00    -0.067 C  
HETATM    9  N   UNL     1      -6.902   6.092  68.832  1.00  0.00    -0.064 N  
HETATM   10  C   UNL     1      -7.973   3.653  68.557  1.00  0.00    -0.072 C  
HETATM   11  C   UNL     1      -6.635   2.992  68.279  1.00  0.00    -0.037 C  
HETATM   12  C   UNL     1      -6.995   6.712  67.582  1.00  0.00    -0.083 C  
HETATM   13  C   UNL     1      -9.175   2.800  69.002  1.00  0.00    -0.221 C  
HETATM   14  O   UNL     1      -6.040   6.843  66.816  1.00  0.00    -0.034 OA 
HETATM   15  C   UNL     1      -6.753   1.973  67.171  1.00  0.00    -0.039 C  
HETATM   16  C   UNL     1      -8.447   7.131  67.389  1.00  0.00    -0.122 C  
HETATM   17  H   UNL     1      -7.197   8.739  68.481  1.00  0.00     0.000 HD 
HETATM   18  C   UNL     1      -8.763   5.917  66.373  1.00  0.00    -0.131 C  
HETATM   19  O   UNL     1      -8.669   7.213  68.967  1.00  0.00    -0.132 OA 
HETATM   20  O   UNL     1      -6.754   8.485  69.282  1.00  0.00    -0.048 OA 
HETATM   21  C   UNL     1      -7.330   7.217  69.577  1.00  0.00    -0.086 C  
HETATM   22  C   UNL     1      -8.384   6.186  64.889  1.00  0.00    -0.092 C  
HETATM   23  C   UNL     1     -10.112   5.213  66.424  1.00  0.00    -0.268 C  
ENDROOT
BRANCH  16  24
HETATM   24  N   UNL     1      -9.249   8.219  66.907  1.00  0.00    -0.150 N  
HETATM   25  H   UNL     1     -10.177   7.953  66.579  1.00  0.00     0.000 HD 
HETATM   26  O   UNL     1      -7.868  10.048  67.014  1.00  0.00    -0.101 OA 
HETATM   27  C   UNL     1      -8.970   9.566  66.815  1.00  0.00    -0.138 C  
BRANCH  27  28
HETATM   28  C   UNL     1     -10.233  10.352  66.443  1.00  0.00    -0.292 C  
HETATM   29  C   UNL     1     -11.348  10.020  67.467  1.00  0.00     0.233 C  
HETATM   30  N   UNL     1     -11.393  10.928  68.624  1.00  0.00    -0.272 NA 
HETATM   31  C   UNL     1     -10.110  11.004  69.343  1.00  0.00    -0.030 C  
HETATM   32  C   UNL     1     -11.879  12.265  68.167  1.00  0.00    -0.311 C  
HETATM   33  C   UNL     1     -11.686  13.414  69.235  1.00  0.00    -0.383 C  
HETATM   34  C   UNL     1     -11.000  14.613  68.686  1.00  0.00    -0.266 A  
HETATM   35  C   UNL     1     -10.320  15.662  69.260  1.00  0.00    -0.250 A  
HETATM   36  N   UNL     1      -9.996  16.552  68.260  1.00  0.00    -0.242 NA 
HETATM   37  C   UNL     1     -10.442  16.090  67.042  1.00  0.00    -0.307 A  
HETATM   38  H   UNL     1      -9.497  17.430  68.402  1.00  0.00     0.000 HD 
HETATM   39  C   UNL     1     -10.377  16.583  65.735  1.00  0.00    -0.359 A  
HETATM   40  C   UNL     1     -10.938  15.783  64.721  1.00  0.00    -0.410 A  
HETATM   41  C   UNL     1     -11.432  14.503  64.987  1.00  0.00    -0.382 A  
HETATM   42  C   UNL     1     -11.381  14.000  66.287  1.00  0.00    -0.336 A  
HETATM   43  C   UNL     1     -10.989  14.854  67.306  1.00  0.00    -0.323 A  
HETATM   44  C   UNL     1     -11.470  12.550  66.645  1.00  0.00    -0.417 C  
HETATM   45  C   UNL     1     -10.098  11.879  66.322  1.00  0.00    -0.249 C  
ENDBRANCH  27  28
ENDBRANCH  16  24
TORSDOF 2
ENDMDL
MODEL       31
REMARK 921   NORMALIZED FREE ENERGY PREDICTED BY IDOCK:   -5.75 KCAL/MOL
REMARK 922        TOTAL FREE ENERGY PREDICTED BY IDOCK:   -7.60 KCAL/MOL
REMARK 923 INTER-LIGAND FREE ENERGY PREDICTED BY IDOCK:   -7.39 KCAL/MOL
REMARK 924 INTRA-LIGAND FREE ENERGY PREDICTED BY IDOCK:   -0.21 KCAL/MOL
REMARK 927      BINDING AFFINITY PREDICTED BY RF-SCORE:    0.00 PKD
ROOT
HETATM    1  C   UNL     1     -10.183   8.059  69.655  1.00  0.00    -0.208 C  
HETATM    2  C   UNL     1     -11.255   7.567  70.639  1.00  0.00    -0.286 C  
HETATM    3  C   UNL     1     -11.538   6.099  70.176  1.00  0.00    -0.260 C  
HETATM    4  C   UNL     1     -10.762   5.903  68.879  1.00  0.00    -0.300 C  
HETATM    5  N   UNL     1     -10.377   7.243  68.481  1.00  0.00    -0.185 N  
HETATM    6  C   UNL     1      -9.471   7.337  67.452  1.00  0.00    -0.132 C  
HETATM    7  O   UNL     1      -9.533   6.580  66.487  1.00  0.00    -0.161 OA 
HETATM    8  C   UNL     1      -8.517   8.551  67.559  1.00  0.00    -0.128 C  
HETATM    9  N   UNL     1      -8.167   8.895  69.073  1.00  0.00    -0.115 N  
HETATM   10  C   UNL     1      -7.375   8.378  66.567  1.00  0.00    -0.081 C  
HETATM   11  C   UNL     1      -6.483   7.225  66.985  1.00  0.00    -0.055 C  
HETATM   12  C   UNL     1      -7.316   9.892  69.562  1.00  0.00    -0.102 C  
HETATM   13  C   UNL     1      -7.830   8.508  65.102  1.00  0.00    -0.116 C  
HETATM   14  O   UNL     1      -6.396   9.674  70.350  1.00  0.00    -0.060 OA 
HETATM   15  C   UNL     1      -5.175   7.249  66.229  1.00  0.00    -0.024 C  
HETATM   16  C   UNL     1      -7.744  11.208  68.923  1.00  0.00    -0.137 C  
HETATM   17  H   UNL     1      -8.901  10.752  70.871  1.00  0.00     0.000 HD 
HETATM   18  C   UNL     1      -6.509  11.214  67.883  1.00  0.00    -0.058 C  
HETATM   19  O   UNL     1      -9.232  10.667  68.722  1.00  0.00    -0.164 OA 
HETATM   20  O   UNL     1      -9.378   9.932  70.919  1.00  0.00     0.000 OA 
HETATM   21  C   UNL     1      -9.360   9.472  69.571  1.00  0.00    -0.190 C  
HETATM   22  C   UNL     1      -5.182  11.801  68.442  1.00  0.00    -0.042 C  
HETATM   23  C   UNL     1      -6.715  11.711  66.459  1.00  0.00     0.039 C  
ENDROOT
BRANCH  16  24
HETATM   24  N   UNL     1      -7.957  12.593  69.233  1.00  0.00    -0.117 N  
HETATM   25  H   UNL     1      -7.742  12.852  70.196  1.00  0.00     0.000 HD 
HETATM   26  O   UNL     1      -8.852  13.482  67.318  1.00  0.00    -0.204 OA 
HETATM   27  C   UNL     1      -8.405  13.629  68.443  1.00  0.00    -0.147 C  
BRANCH  27  28
HETATM   28  C   UNL     1      -8.249  14.968  69.172  1.00  0.00    -0.188 C  
HETATM   29  C   UNL     1      -6.784  15.104  69.658  1.00  0.00    -0.181 C  
HETATM   30  N   UNL     1      -5.892  15.777  68.699  1.00  0.00    -0.099 NA 
HETATM   31  C   UNL     1      -5.884  15.133  67.376  1.00  0.00     0.186 C  
HETATM   32  C   UNL     1      -6.258  17.224  68.636  1.00  0.00    -0.169 C  
HETATM   33  C   UNL     1      -5.592  17.999  67.431  1.00  0.00    -0.145 C  
HETATM   34  C   UNL     1      -6.571  18.766  66.617  1.00  0.00    -0.211 A  
HETATM   35  C   UNL     1      -6.549  19.275  65.339  1.00  0.00    -0.271 A  
HETATM   36  N   UNL     1      -7.703  20.005  65.156  1.00  0.00    -0.321 NA 
HETATM   37  C   UNL     1      -8.483  19.965  66.291  1.00  0.00    -0.338 A  
HETATM   38  H   UNL     1      -7.946  20.505  64.300  1.00  0.00     0.000 HD 
HETATM   39  C   UNL     1      -9.722  20.513  66.635  1.00  0.00    -0.407 A  
HETATM   40  C   UNL     1     -10.219  20.213  67.918  1.00  0.00    -0.501 A  
HETATM   41  C   UNL     1      -9.564  19.315  68.766  1.00  0.00    -0.485 A  
HETATM   42  C   UNL     1      -8.384  18.702  68.344  1.00  0.00    -0.362 A  
HETATM   43  C   UNL     1      -7.811  19.131  67.157  1.00  0.00    -0.269 A  
HETATM   44  C   UNL     1      -7.816  17.449  68.932  1.00  0.00    -0.196 C  
HETATM   45  C   UNL     1      -8.645  16.237  68.401  1.00  0.00    -0.200 C  
ENDBRANCH  27  28
ENDBRANCH  16  24
TORSDOF 2
ENDMDL
MODEL       32
REMARK 921   NORMALIZED FREE ENERGY PREDICTED BY IDOCK:   -5.70 KCAL/MOL
REMARK 922        TOTAL FREE ENERGY PREDICTED BY IDOCK:   -7.54 KCAL/MOL
REMARK 923 INTER-LIGAND FREE ENERGY PREDICTED BY IDOCK:   -6.82 KCAL/MOL
REMARK 924 INTRA-LIGAND FREE ENERGY PREDICTED BY IDOCK:   -0.72 KCAL/MOL
REMARK 927      BINDING AFFINITY PREDICTED BY RF-SCORE:    0.00 PKD
ROOT
HETATM    1  C   UNL     1      -9.335   4.122  66.138  1.00  0.00    -0.166 C  
HETATM    2  C   UNL     1      -9.912   4.095  64.714  1.00  0.00    -0.196 C  
HETATM    3  C   UNL     1      -9.849   2.583  64.316  1.00  0.00    -0.089 C  
HETATM    4  C   UNL     1      -9.095   1.877  65.436  1.00  0.00    -0.091 C  
HETATM    5  N   UNL     1      -8.493   2.952  66.202  1.00  0.00    -0.100 N  
HETATM    6  C   UNL     1      -7.934   2.604  67.407  1.00  0.00    -0.069 C  
HETATM    7  O   UNL     1      -7.307   1.555  67.532  1.00  0.00    -0.051 OA 
HETATM    8  C   UNL     1      -8.033   3.703  68.492  1.00  0.00    -0.070 C  
HETATM    9  N   UNL     1      -9.377   4.547  68.356  1.00  0.00    -0.134 N  
HETATM   10  C   UNL     1      -7.682   3.104  69.846  1.00  0.00    -0.044 C  
HETATM   11  C   UNL     1      -8.751   2.120  70.281  1.00  0.00    -0.118 C  
HETATM   12  C   UNL     1      -9.832   5.590  69.168  1.00  0.00    -0.167 C  
HETATM   13  C   UNL     1      -6.194   2.726  69.965  1.00  0.00    -0.024 C  
HETATM   14  O   UNL     1     -10.946   5.608  69.692  1.00  0.00    -0.348 OA 
HETATM   15  C   UNL     1      -8.609   1.777  71.745  1.00  0.00    -0.080 C  
HETATM   16  C   UNL     1      -8.706   6.612  69.269  1.00  0.00    -0.131 C  
HETATM   17  H   UNL     1     -10.071   6.975  67.440  1.00  0.00     0.000 HD 
HETATM   18  C   UNL     1      -8.295   6.155  70.761  1.00  0.00    -0.126 C  
HETATM   19  O   UNL     1      -8.107   6.142  67.866  1.00  0.00    -0.111 OA 
HETATM   20  O   UNL     1     -10.174   6.264  66.818  1.00  0.00    -0.186 OA 
HETATM   21  C   UNL     1      -9.157   5.347  67.209  1.00  0.00    -0.111 C  
HETATM   22  C   UNL     1      -9.126   6.809  71.902  1.00  0.00    -0.142 C  
HETATM   23  C   UNL     1      -6.828   6.116  71.170  1.00  0.00    -0.067 C  
ENDROOT
BRANCH  16  24
HETATM   24  N   UNL     1      -8.465   8.027  69.249  1.00  0.00    -0.134 N  
HETATM   25  H   UNL     1      -7.511   8.294  69.008  1.00  0.00     0.000 HD 
HETATM   26  O   UNL     1     -10.441   8.959  69.949  1.00  0.00    -0.203 OA 
HETATM   27  C   UNL     1      -9.313   9.083  69.502  1.00  0.00    -0.160 C  
BRANCH  27  28
HETATM   28  C   UNL     1      -8.642  10.411  69.132  1.00  0.00    -0.169 C  
HETATM   29  C   UNL     1      -7.806  10.207  67.844  1.00  0.00    -0.101 C  
HETATM   30  N   UNL     1      -8.540  10.488  66.599  1.00  0.00    -0.129 NA 
HETATM   31  C   UNL     1      -9.780   9.705  66.477  1.00  0.00    -0.212 C  
HETATM   32  C   UNL     1      -8.774  11.960  66.501  1.00  0.00    -0.158 C  
HETATM   33  C   UNL     1      -9.809  12.369  65.379  1.00  0.00    -0.200 C  
HETATM   34  C   UNL     1     -10.887  13.263  65.876  1.00  0.00    -0.289 A  
HETATM   35  C   UNL     1     -12.143  13.583  65.414  1.00  0.00    -0.415 A  
HETATM   36  N   UNL     1     -12.655  14.567  66.230  1.00  0.00    -0.366 NA 
HETATM   37  C   UNL     1     -11.757  14.882  67.225  1.00  0.00    -0.291 A  
HETATM   38  H   UNL     1     -13.570  15.003  66.113  1.00  0.00     0.000 HD 
HETATM   39  C   UNL     1     -11.772  15.783  68.295  1.00  0.00    -0.229 A  
HETATM   40  C   UNL     1     -10.644  15.792  69.138  1.00  0.00    -0.242 A  
HETATM   41  C   UNL     1      -9.609  14.865  68.988  1.00  0.00    -0.204 A  
HETATM   42  C   UNL     1      -9.681  13.908  67.975  1.00  0.00    -0.226 A  
HETATM   43  C   UNL     1     -10.703  14.014  67.044  1.00  0.00    -0.284 A  
HETATM   44  C   UNL     1      -8.899  12.633  67.949  1.00  0.00    -0.182 C  
HETATM   45  C   UNL     1      -9.558  11.633  68.951  1.00  0.00    -0.006 C  
ENDBRANCH  27  28
ENDBRANCH  16  24
TORSDOF 2
ENDMDL
MODEL       33
REMARK 921   NORMALIZED FREE ENERGY PREDICTED BY IDOCK:   -5.63 KCAL/MOL
REMARK 922        TOTAL FREE ENERGY PREDICTED BY IDOCK:   -7.47 KCAL/MOL
REMARK 923 INTER-LIGAND FREE ENERGY PREDICTED BY IDOCK:   -6.63 KCAL/MOL
REMARK 924 INTRA-LIGAND FREE ENERGY PREDICTED BY IDOCK:   -0.84 KCAL/MOL
REMARK 927      BINDING AFFINITY PREDICTED BY RF-SCORE:    0.00 PKD
ROOT
HETATM    1  C   UNL     1      -9.808  14.282  68.155  1.00  0.00    -0.226 C  
HETATM    2  C   UNL     1      -9.612  15.351  69.240  1.00  0.00    -0.268 C  
HETATM    3  C   UNL     1     -10.187  16.653  68.588  1.00  0.00    -0.284 C  
HETATM    4  C   UNL     1     -10.507  16.300  67.141  1.00  0.00    -0.297 C  
HETATM    5  N   UNL     1      -9.841  15.030  66.922  1.00  0.00    -0.233 N  
HETATM    6  C   UNL     1     -10.151  14.372  65.757  1.00  0.00    -0.340 C  
HETATM    7  O   UNL     1     -10.303  14.988  64.705  1.00  0.00    -0.349 OA 
HETATM    8  C   UNL     1     -10.122  12.829  65.875  1.00  0.00    -0.276 C  
HETATM    9  N   UNL     1     -10.593  12.338  67.314  1.00  0.00    -0.221 N  
HETATM   10  C   UNL     1     -10.781  12.220  64.645  1.00  0.00    -0.347 C  
HETATM   11  C   UNL     1     -12.268  12.518  64.641  1.00  0.00    -0.524 C  
HETATM   12  C   UNL     1     -10.732  11.028  67.782  1.00  0.00    -0.227 C  
HETATM   13  C   UNL     1      -9.952  12.418  63.363  1.00  0.00    -0.036 C  
HETATM   14  O   UNL     1     -11.763  10.596  68.298  1.00  0.00    -0.445 OA 
HETATM   15  C   UNL     1     -12.992  11.653  63.637  1.00  0.00    -0.062 C  
HETATM   16  C   UNL     1      -9.421  10.304  67.503  1.00  0.00    -0.152 C  
HETATM   17  H   UNL     1      -9.413  11.399  69.538  1.00  0.00     0.000 HD 
HETATM   18  C   UNL     1     -10.022   9.499  66.239  1.00  0.00    -0.344 C  
HETATM   19  O   UNL     1      -8.614  11.681  67.534  1.00  0.00    -0.140 OA 
HETATM   20  O   UNL     1      -9.588  12.333  69.537  1.00  0.00     0.816 OA 
HETATM   21  C   UNL     1      -9.506  12.673  68.157  1.00  0.00    -0.218 C  
HETATM   22  C   UNL     1     -10.784   8.191  66.596  1.00  0.00     0.104 C  
HETATM   23  C   UNL     1      -9.157   9.256  65.010  1.00  0.00    -0.245 C  
ENDROOT
BRANCH  16  24
HETATM   24  N   UNL     1      -8.491   9.389  68.101  1.00  0.00    -0.120 N  
HETATM   25  H   UNL     1      -8.869   8.842  68.875  1.00  0.00     0.000 HD 
HETATM   26  O   UNL     1      -6.510   9.783  67.014  1.00  0.00    -0.065 OA 
HETATM   27  C   UNL     1      -7.172   9.127  67.800  1.00  0.00    -0.080 C  
BRANCH  27  28
HETATM   28  C   UNL     1      -6.676   7.903  68.579  1.00  0.00    -0.062 C  
HETATM   29  C   UNL     1      -5.423   8.306  69.397  1.00  0.00    -0.030 C  
HETATM   30  N   UNL     1      -5.719   8.775  70.760  1.00  0.00    -0.031 NA 
HETATM   31  C   UNL     1      -6.671   9.897  70.785  1.00  0.00    -0.047 C  
HETATM   32  C   UNL     1      -6.175   7.612  71.580  1.00  0.00    -0.035 C  
HETATM   33  C   UNL     1      -6.816   8.019  72.966  1.00  0.00    -0.106 C  
HETATM   34  C   UNL     1      -8.146   7.399  73.200  1.00  0.00    -0.134 A  
HETATM   35  C   UNL     1      -9.201   7.701  74.031  1.00  0.00    -0.183 A  
HETATM   36  N   UNL     1     -10.137   6.700  73.905  1.00  0.00    -0.290 NA 
HETATM   37  C   UNL     1      -9.715   5.758  72.993  1.00  0.00    -0.155 A  
HETATM   38  H   UNL     1     -11.019   6.660  74.416  1.00  0.00     0.000 HD 
HETATM   39  C   UNL     1     -10.266   4.572  72.498  1.00  0.00    -0.246 A  
HETATM   40  C   UNL     1      -9.523   3.880  71.523  1.00  0.00    -0.226 A  
HETATM   41  C   UNL     1      -8.347   4.409  70.986  1.00  0.00    -0.096 A  
HETATM   42  C   UNL     1      -7.883   5.650  71.427  1.00  0.00    -0.111 A  
HETATM   43  C   UNL     1      -8.521   6.242  72.506  1.00  0.00    -0.120 A  
HETATM   44  C   UNL     1      -6.918   6.514  70.680  1.00  0.00    -0.064 C  
HETATM   45  C   UNL     1      -7.683   7.207  69.508  1.00  0.00    -0.113 C  
ENDBRANCH  27  28
ENDBRANCH  16  24
TORSDOF 2
ENDMDL
MODEL       34
REMARK 921   NORMALIZED FREE ENERGY PREDICTED BY IDOCK:   -5.59 KCAL/MOL
REMARK 922        TOTAL FREE ENERGY PREDICTED BY IDOCK:   -7.42 KCAL/MOL
REMARK 923 INTER-LIGAND FREE ENERGY PREDICTED BY IDOCK:   -6.99 KCAL/MOL
REMARK 924 INTRA-LIGAND FREE ENERGY PREDICTED BY IDOCK:   -0.43 KCAL/MOL
REMARK 927      BINDING AFFINITY PREDICTED BY RF-SCORE:    0.00 PKD
ROOT
HETATM    1  C   UNL     1     -10.412  10.914  66.083  1.00  0.00    -0.229 C  
HETATM    2  C   UNL     1     -11.408  12.080  66.174  1.00  0.00    -0.407 C  
HETATM    3  C   UNL     1     -11.361  12.721  64.747  1.00  0.00    -0.346 C  
HETATM    4  C   UNL     1     -10.239  12.013  63.997  1.00  0.00    -0.365 C  
HETATM    5  N   UNL     1      -9.508  11.301  65.027  1.00  0.00    -0.223 N  
HETATM    6  C   UNL     1      -8.570  10.395  64.594  1.00  0.00    -0.185 C  
HETATM    7  O   UNL     1      -7.858  10.640  63.624  1.00  0.00    -0.050 OA 
HETATM    8  C   UNL     1      -8.401   9.167  65.521  1.00  0.00    -0.133 C  
HETATM    9  N   UNL     1      -9.777   8.749  66.203  1.00  0.00    -0.265 N  
HETATM   10  C   UNL     1      -7.593   8.101  64.796  1.00  0.00    -0.101 C  
HETATM   11  C   UNL     1      -8.391   7.528  63.640  1.00  0.00     0.163 C  
HETATM   12  C   UNL     1     -10.028   7.679  67.067  1.00  0.00    -0.240 C  
HETATM   13  C   UNL     1      -6.121   8.501  64.592  1.00  0.00    -0.065 C  
HETATM   14  O   UNL     1     -10.915   6.846  66.878  1.00  0.00    -0.377 OA 
HETATM   15  C   UNL     1      -7.765   6.253  63.126  1.00  0.00    -0.098 C  
HETATM   16  C   UNL     1      -9.010   7.758  68.197  1.00  0.00    -0.127 C  
HETATM   17  H   UNL     1     -10.908   9.002  68.627  1.00  0.00     0.000 HD 
HETATM   18  C   UNL     1      -8.111   6.556  67.601  1.00  0.00    -0.118 C  
HETATM   19  O   UNL     1      -8.854   9.334  67.993  1.00  0.00    -0.128 OA 
HETATM   20  O   UNL     1     -11.150   9.671  67.997  1.00  0.00    -0.188 OA 
HETATM   21  C   UNL     1      -9.995   9.762  67.169  1.00  0.00    -0.198 C  
HETATM   22  C   UNL     1      -8.583   5.127  67.992  1.00  0.00    -0.103 C  
HETATM   23  C   UNL     1      -6.593   6.624  67.690  1.00  0.00    -0.054 C  
ENDROOT
BRANCH  16  24
HETATM   24  N   UNL     1      -8.895   7.618  69.621  1.00  0.00    -0.140 N  
HETATM   25  H   UNL     1      -8.598   6.695  69.936  1.00  0.00     0.000 HD 
HETATM   26  O   UNL     1      -9.621   9.626  70.459  1.00  0.00    -0.258 OA 
HETATM   27  C   UNL     1      -9.119   8.528  70.631  1.00  0.00    -0.160 C  
BRANCH  27  28
HETATM   28  C   UNL     1      -8.643   7.967  71.976  1.00  0.00    -0.193 C  
HETATM   29  C   UNL     1      -9.708   8.284  73.055  1.00  0.00    -0.206 C  
HETATM   30  N   UNL     1     -10.722   7.230  73.228  1.00  0.00    -0.368 NA 
HETATM   31  C   UNL     1     -11.416   6.893  71.975  1.00  0.00    -0.274 C  
HETATM   32  C   UNL     1     -10.078   6.045  73.869  1.00  0.00    -0.245 C  
HETATM   33  C   UNL     1     -10.967   4.738  73.835  1.00  0.00    -0.325 C  
HETATM   34  C   UNL     1     -10.247   3.556  73.295  1.00  0.00    -0.225 A  
HETATM   35  C   UNL     1     -10.659   2.358  72.757  1.00  0.00    -0.119 A  
HETATM   36  N   UNL     1      -9.540   1.588  72.533  1.00  0.00    -0.077 NA 
HETATM   37  C   UNL     1      -8.403   2.274  72.901  1.00  0.00    -0.062 A  
HETATM   38  H   UNL     1      -9.550   0.644  72.147  1.00  0.00     0.000 HD 
HETATM   39  C   UNL     1      -7.038   1.970  72.879  1.00  0.00    -0.027 A  
HETATM   40  C   UNL     1      -6.154   2.972  73.323  1.00  0.00    -0.008 A  
HETATM   41  C   UNL     1      -6.605   4.251  73.659  1.00  0.00    -0.052 A  
HETATM   42  C   UNL     1      -7.964   4.551  73.564  1.00  0.00    -0.095 A  
HETATM   43  C   UNL     1      -8.847   3.516  73.295  1.00  0.00    -0.091 A  
HETATM   44  C   UNL     1      -8.528   5.934  73.478  1.00  0.00    -0.120 C  
HETATM   45  C   UNL     1      -8.300   6.469  72.029  1.00  0.00    -0.107 C  
ENDBRANCH  27  28
ENDBRANCH  16  24
TORSDOF 2
ENDMDL
MODEL       35
REMARK 921   NORMALIZED FREE ENERGY PREDICTED BY IDOCK:   -5.55 KCAL/MOL
REMARK 922        TOTAL FREE ENERGY PREDICTED BY IDOCK:   -7.38 KCAL/MOL
REMARK 923 INTER-LIGAND FREE ENERGY PREDICTED BY IDOCK:   -7.35 KCAL/MOL
REMARK 924 INTRA-LIGAND FREE ENERGY PREDICTED BY IDOCK:   -0.03 KCAL/MOL
REMARK 927      BINDING AFFINITY PREDICTED BY RF-SCORE:    0.00 PKD
ROOT
HETATM    1  C   UNL     1      -6.428  10.125  70.080  1.00  0.00    -0.106 C  
HETATM    2  C   UNL     1      -5.332  10.435  71.110  1.00  0.00    -0.088 C  
HETATM    3  C   UNL     1      -5.147   9.082  71.875  1.00  0.00    -0.046 C  
HETATM    4  C   UNL     1      -6.244   8.153  71.370  1.00  0.00    -0.037 C  
HETATM    5  N   UNL     1      -7.160   9.025  70.660  1.00  0.00    -0.073 N  
HETATM    6  C   UNL     1      -8.132   8.408  69.911  1.00  0.00    -0.119 C  
HETATM    7  O   UNL     1      -8.698   7.398  70.321  1.00  0.00    -0.143 OA 
HETATM    8  C   UNL     1      -8.534   9.184  68.633  1.00  0.00    -0.127 C  
HETATM    9  N   UNL     1      -7.297   9.961  68.001  1.00  0.00    -0.083 N  
HETATM   10  C   UNL     1      -9.362   8.276  67.736  1.00  0.00    -0.153 C  
HETATM   11  C   UNL     1      -8.502   7.157  67.179  1.00  0.00    -0.121 C  
HETATM   12  C   UNL     1      -7.261  10.734  66.836  1.00  0.00    -0.115 C  
HETATM   13  C   UNL     1     -10.751   7.961  68.320  1.00  0.00    -0.088 C  
HETATM   14  O   UNL     1      -6.451  10.556  65.926  1.00  0.00    -0.111 OA 
HETATM   15  C   UNL     1      -9.196   6.456  66.035  1.00  0.00    -0.087 C  
HETATM   16  C   UNL     1      -8.388  11.754  66.933  1.00  0.00    -0.170 C  
HETATM   17  H   UNL     1      -6.431  12.502  67.906  1.00  0.00     0.000 HD 
HETATM   18  C   UNL     1      -9.334  10.950  65.900  1.00  0.00    -0.226 C  
HETATM   19  O   UNL     1      -8.353  11.694  68.528  1.00  0.00    -0.152 OA 
HETATM   20  O   UNL     1      -6.049  11.971  68.595  1.00  0.00    -0.050 OA 
HETATM   21  C   UNL     1      -7.086  11.040  68.892  1.00  0.00    -0.098 C  
HETATM   22  C   UNL     1      -9.064  11.243  64.397  1.00  0.00     0.014 C  
HETATM   23  C   UNL     1     -10.837  10.887  66.135  1.00  0.00    -0.166 C  
ENDROOT
BRANCH  16  24
HETATM   24  N   UNL     1      -8.679  13.137  66.682  1.00  0.00    -0.426 N  
HETATM   25  H   UNL     1      -8.061  13.588  66.009  1.00  0.00     0.000 HD 
HETATM   26  O   UNL     1     -10.389  13.639  68.127  1.00  0.00    -0.232 OA 
HETATM   27  C   UNL     1      -9.658  13.955  67.204  1.00  0.00    -0.247 C  
BRANCH  27  28
HETATM   28  C   UNL     1      -9.698  15.291  66.454  1.00  0.00    -0.308 C  
HETATM   29  C   UNL     1     -11.026  16.015  66.791  1.00  0.00    -0.112 C  
HETATM   30  N   UNL     1     -10.941  16.921  67.948  1.00  0.00    -0.309 NA 
HETATM   31  C   UNL     1     -10.454  16.251  69.165  1.00  0.00    -0.280 C  
HETATM   32  C   UNL     1     -10.113  18.106  67.570  1.00  0.00    -0.349 C  
HETATM   33  C   UNL     1      -9.685  19.004  68.799  1.00  0.00    -0.473 C  
HETATM   34  C   UNL     1      -8.225  19.280  68.841  1.00  0.00    -0.344 A  
HETATM   35  C   UNL     1      -7.363  19.679  69.837  1.00  0.00     0.172 A  
HETATM   36  N   UNL     1      -6.129  19.891  69.266  1.00  0.00    -0.280 NA 
HETATM   37  C   UNL     1      -6.170  19.621  67.916  1.00  0.00    -0.215 A  
HETATM   38  H   UNL     1      -5.300  20.204  69.771  1.00  0.00     0.000 HD 
HETATM   39  C   UNL     1      -5.221  19.665  66.889  1.00  0.00    -0.160 A  
HETATM   40  C   UNL     1      -5.650  19.275  65.606  1.00  0.00    -0.188 A  
HETATM   41  C   UNL     1      -6.929  18.754  65.388  1.00  0.00    -0.119 A  
HETATM   42  C   UNL     1      -7.813  18.623  66.459  1.00  0.00    -0.287 A  
HETATM   43  C   UNL     1      -7.449  19.168  67.681  1.00  0.00    -0.263 A  
HETATM   44  C   UNL     1      -9.011  17.727  66.471  1.00  0.00    -0.280 C  
HETATM   45  C   UNL     1      -8.524  16.258  66.682  1.00  0.00    -0.306 C  
ENDBRANCH  27  28
ENDBRANCH  16  24
TORSDOF 2
ENDMDL
MODEL       36
REMARK 921   NORMALIZED FREE ENERGY PREDICTED BY IDOCK:   -5.54 KCAL/MOL
REMARK 922        TOTAL FREE ENERGY PREDICTED BY IDOCK:   -7.37 KCAL/MOL
REMARK 923 INTER-LIGAND FREE ENERGY PREDICTED BY IDOCK:   -7.43 KCAL/MOL
REMARK 924 INTRA-LIGAND FREE ENERGY PREDICTED BY IDOCK:    0.06 KCAL/MOL
REMARK 927      BINDING AFFINITY PREDICTED BY RF-SCORE:    0.00 PKD
ROOT
HETATM    1  C   UNL     1     -10.099   8.259  69.128  1.00  0.00    -0.202 C  
HETATM    2  C   UNL     1     -11.099   8.273  70.294  1.00  0.00    -0.220 C  
HETATM    3  C   UNL     1     -11.383   6.757  70.558  1.00  0.00    -0.394 C  
HETATM    4  C   UNL     1     -10.686   5.990  69.441  1.00  0.00    -0.334 C  
HETATM    5  N   UNL     1     -10.350   7.004  68.460  1.00  0.00    -0.180 N  
HETATM    6  C   UNL     1      -9.512   6.616  67.443  1.00  0.00    -0.129 C  
HETATM    7  O   UNL     1      -9.619   5.507  66.926  1.00  0.00    -0.127 OA 
HETATM    8  C   UNL     1      -8.575   7.738  66.933  1.00  0.00    -0.130 C  
HETATM    9  N   UNL     1      -8.138   8.721  68.105  1.00  0.00    -0.106 N  
HETATM   10  C   UNL     1      -7.494   7.125  66.053  1.00  0.00    -0.080 C  
HETATM   11  C   UNL     1      -6.556   6.272  66.887  1.00  0.00    -0.059 C  
HETATM   12  C   UNL     1      -7.278   9.822  68.040  1.00  0.00    -0.080 C  
HETATM   13  C   UNL     1      -8.042   6.588  64.719  1.00  0.00    -0.112 C  
HETATM   14  O   UNL     1      -6.307   9.970  68.781  1.00  0.00    -0.041 OA 
HETATM   15  C   UNL     1      -5.299   5.939  66.119  1.00  0.00    -0.009 C  
HETATM   16  C   UNL     1      -7.768  10.715  66.907  1.00  0.00    -0.122 C  
HETATM   17  H   UNL     1      -8.794  11.196  68.921  1.00  0.00     0.000 HD 
HETATM   18  C   UNL     1      -6.601  10.239  65.898  1.00  0.00    -0.113 C  
HETATM   19  O   UNL     1      -9.256  10.159  67.065  1.00  0.00    -0.144 OA 
HETATM   20  O   UNL     1      -9.252  10.491  69.362  1.00  0.00    -0.184 OA 
HETATM   21  C   UNL     1      -9.309   9.474  68.367  1.00  0.00    -0.133 C  
HETATM   22  C   UNL     1      -5.252  11.000  66.049  1.00  0.00    -0.139 C  
HETATM   23  C   UNL     1      -6.904  10.047  64.419  1.00  0.00    -0.127 C  
ENDROOT
BRANCH  16  24
HETATM   24  N   UNL     1      -7.988  12.094  66.575  1.00  0.00    -0.393 N  
HETATM   25  H   UNL     1      -7.871  12.319  65.588  1.00  0.00     0.000 HD 
HETATM   26  O   UNL     1      -8.363  13.121  68.592  1.00  0.00    -0.099 OA 
HETATM   27  C   UNL     1      -8.330  13.164  67.374  1.00  0.00    -0.188 C  
BRANCH  27  28
HETATM   28  C   UNL     1      -8.668  14.388  66.516  1.00  0.00    -0.042 C  
HETATM   29  C   UNL     1     -10.153  14.766  66.747  1.00  0.00    -0.256 C  
HETATM   30  N   UNL     1     -10.365  15.743  67.827  1.00  0.00    -0.268 NA 
HETATM   31  C   UNL     1      -9.791  15.308  69.112  1.00  0.00    -0.239 C  
HETATM   32  C   UNL     1      -9.847  17.071  67.383  1.00  0.00    -0.262 C  
HETATM   33  C   UNL     1      -9.731  18.134  68.547  1.00  0.00    -0.372 C  
HETATM   34  C   UNL     1      -8.395  18.780  68.617  1.00  0.00    -0.360 A  
HETATM   35  C   UNL     1      -7.719  19.457  69.606  1.00  0.00     0.182 A  
HETATM   36  N   UNL     1      -6.550  19.941  69.063  1.00  0.00    -0.318 NA 
HETATM   37  C   UNL     1      -6.446  19.575  67.739  1.00  0.00    -0.222 A  
HETATM   38  H   UNL     1      -5.857  20.492  69.570  1.00  0.00     0.000 HD 
HETATM   39  C   UNL     1      -5.486  19.790  66.746  1.00  0.00    -0.166 A  
HETATM   40  C   UNL     1      -5.730  19.213  65.485  1.00  0.00    -0.208 A  
HETATM   41  C   UNL     1      -6.820  18.365  65.266  1.00  0.00     0.023 A  
HETATM   42  C   UNL     1      -7.699  18.086  66.313  1.00  0.00    -0.293 A  
HETATM   43  C   UNL     1      -7.552  18.791  67.498  1.00  0.00    -0.243 A  
HETATM   44  C   UNL     1      -8.627  16.913  66.357  1.00  0.00    -0.328 C  
HETATM   45  C   UNL     1      -7.794  15.639  66.705  1.00  0.00    -0.211 C  
ENDBRANCH  27  28
ENDBRANCH  16  24
TORSDOF 2
ENDMDL
MODEL       37
REMARK 921   NORMALIZED FREE ENERGY PREDICTED BY IDOCK:   -5.48 KCAL/MOL
REMARK 922        TOTAL FREE ENERGY PREDICTED BY IDOCK:   -7.30 KCAL/MOL
REMARK 923 INTER-LIGAND FREE ENERGY PREDICTED BY IDOCK:   -6.43 KCAL/MOL
REMARK 924 INTRA-LIGAND FREE ENERGY PREDICTED BY IDOCK:   -0.87 KCAL/MOL
REMARK 927      BINDING AFFINITY PREDICTED BY RF-SCORE:    0.00 PKD
ROOT
HETATM    1  C   UNL     1     -10.359  14.501  68.242  1.00  0.00    -0.236 C  
HETATM    2  C   UNL     1     -10.341  15.665  69.244  1.00  0.00    -0.250 C  
HETATM    3  C   UNL     1     -10.765  16.902  68.385  1.00  0.00    -0.368 C  
HETATM    4  C   UNL     1     -10.827  16.419  66.941  1.00  0.00    -0.118 C  
HETATM    5  N   UNL     1     -10.157  15.132  66.961  1.00  0.00    -0.241 N  
HETATM    6  C   UNL     1     -10.265  14.371  65.823  1.00  0.00    -0.337 C  
HETATM    7  O   UNL     1     -10.214  14.889  64.710  1.00  0.00    -0.331 OA 
HETATM    8  C   UNL     1     -10.287  12.845  66.082  1.00  0.00    -0.276 C  
HETATM    9  N   UNL     1     -11.018  12.490  67.451  1.00  0.00    -0.250 N  
HETATM   10  C   UNL     1     -10.725  12.128  64.813  1.00  0.00    -0.342 C  
HETATM   11  C   UNL     1     -12.182  12.428  64.514  1.00  0.00    -0.509 C  
HETATM   12  C   UNL     1     -11.263  11.228  68.002  1.00  0.00    -0.287 C  
HETATM   13  C   UNL     1      -9.676  12.206  63.689  1.00  0.00    -0.148 C  
HETATM   14  O   UNL     1     -12.378  10.848  68.360  1.00  0.00    -0.477 OA 
HETATM   15  C   UNL     1     -12.731  11.476  63.478  1.00  0.00    -0.043 C  
HETATM   16  C   UNL     1      -9.937  10.479  68.030  1.00  0.00    -0.155 C  
HETATM   17  H   UNL     1     -10.274  11.756  69.926  1.00  0.00     0.000 HD 
HETATM   18  C   UNL     1     -10.317   9.563  66.756  1.00  0.00    -0.298 C  
HETATM   19  O   UNL     1      -9.123  11.851  68.082  1.00  0.00    -0.178 OA 
HETATM   20  O   UNL     1     -10.428  12.687  69.810  1.00  0.00     0.569 OA 
HETATM   21  C   UNL     1     -10.093  12.898  68.442  1.00  0.00    -0.227 C  
HETATM   22  C   UNL     1     -11.155   8.295  67.085  1.00  0.00     0.417 C  
HETATM   23  C   UNL     1      -9.250   9.206  65.730  1.00  0.00    -0.294 C  
ENDROOT
BRANCH  16  24
HETATM   24  N   UNL     1      -9.147   9.620  68.866  1.00  0.00    -0.139 N  
HETATM   25  H   UNL     1      -8.428   9.090  68.375  1.00  0.00     0.000 HD 
HETATM   26  O   UNL     1     -10.087   9.817  70.949  1.00  0.00    -0.243 OA 
HETATM   27  C   UNL     1      -9.202   9.394  70.224  1.00  0.00    -0.245 C  
BRANCH  27  28
HETATM   28  C   UNL     1      -8.002   8.557  70.679  1.00  0.00    -0.104 C  
HETATM   29  C   UNL     1      -8.183   8.196  72.175  1.00  0.00    -0.149 C  
HETATM   30  N   UNL     1      -8.877   6.918  72.406  1.00  0.00    -0.130 NA 
HETATM   31  C   UNL     1     -10.193   6.855  71.750  1.00  0.00    -0.189 C  
HETATM   32  C   UNL     1      -7.973   5.800  71.997  1.00  0.00    -0.107 C  
HETATM   33  C   UNL     1      -8.696   4.397  71.902  1.00  0.00    -0.131 C  
HETATM   34  C   UNL     1      -8.457   3.703  70.610  1.00  0.00    -0.102 A  
HETATM   35  C   UNL     1      -9.111   2.695  69.939  1.00  0.00    -0.112 A  
HETATM   36  N   UNL     1      -8.363   2.373  68.829  1.00  0.00    -0.055 NA 
HETATM   37  C   UNL     1      -7.239   3.167  68.759  1.00  0.00    -0.049 A  
HETATM   38  H   UNL     1      -8.606   1.648  68.154  1.00  0.00     0.000 HD 
HETATM   39  C   UNL     1      -6.174   3.261  67.858  1.00  0.00    -0.032 A  
HETATM   40  C   UNL     1      -5.204   4.248  68.117  1.00  0.00    -0.008 A  
HETATM   41  C   UNL     1      -5.356   5.170  69.156  1.00  0.00    -0.004 A  
HETATM   42  C   UNL     1      -6.489   5.114  69.969  1.00  0.00    -0.035 A  
HETATM   43  C   UNL     1      -7.350   4.038  69.819  1.00  0.00    -0.049 A  
HETATM   44  C   UNL     1      -6.989   6.242  70.814  1.00  0.00    -0.068 C  
HETATM   45  C   UNL     1      -7.697   7.278  69.884  1.00  0.00    -0.103 C  
ENDBRANCH  27  28
ENDBRANCH  16  24
TORSDOF 2
ENDMDL
MODEL       38
REMARK 921   NORMALIZED FREE ENERGY PREDICTED BY IDOCK:   -5.48 KCAL/MOL
REMARK 922        TOTAL FREE ENERGY PREDICTED BY IDOCK:   -7.30 KCAL/MOL
REMARK 923 INTER-LIGAND FREE ENERGY PREDICTED BY IDOCK:   -6.09 KCAL/MOL
REMARK 924 INTRA-LIGAND FREE ENERGY PREDICTED BY IDOCK:   -1.21 KCAL/MOL
REMARK 927      BINDING AFFINITY PREDICTED BY RF-SCORE:    0.00 PKD
ROOT
HETATM    1  C   UNL     1     -11.077  11.742  64.754  1.00  0.00    -0.296 C  
HETATM    2  C   UNL     1     -11.520  11.603  63.290  1.00  0.00    -0.266 C  
HETATM    3  C   UNL     1     -12.268  12.946  62.998  1.00  0.00    -0.082 C  
HETATM    4  C   UNL     1     -12.362  13.681  64.330  1.00  0.00    -0.335 C  
HETATM    5  N   UNL     1     -12.016  12.680  65.321  1.00  0.00    -0.416 N  
HETATM    6  C   UNL     1     -11.807  13.135  66.600  1.00  0.00    -0.391 C  
HETATM    7  O   UNL     1     -12.514  14.017  67.079  1.00  0.00    -0.326 OA 
HETATM    8  C   UNL     1     -10.744  12.334  67.390  1.00  0.00    -0.230 C  
HETATM    9  N   UNL     1      -9.579  11.805  66.443  1.00  0.00    -0.212 N  
HETATM   10  C   UNL     1     -10.369  13.105  68.647  1.00  0.00    -0.207 C  
HETATM   11  C   UNL     1      -9.618  14.373  68.285  1.00  0.00    -0.211 C  
HETATM   12  C   UNL     1      -8.435  11.082  66.795  1.00  0.00    -0.148 C  
HETATM   13  C   UNL     1     -11.508  13.154  69.682  1.00  0.00    -0.261 C  
HETATM   14  O   UNL     1      -7.293  11.424  66.489  1.00  0.00    -0.133 OA 
HETATM   15  C   UNL     1      -8.944  14.970  69.497  1.00  0.00    -0.059 C  
HETATM   16  C   UNL     1      -8.892   9.876  67.607  1.00  0.00    -0.125 C  
HETATM   17  H   UNL     1      -8.879   9.460  65.334  1.00  0.00     0.000 HD 
HETATM   18  C   UNL     1      -8.434  10.527  69.012  1.00  0.00    -0.159 C  
HETATM   19  O   UNL     1     -10.324   9.899  66.901  1.00  0.00    -0.230 OA 
HETATM   20  O   UNL     1      -9.395  10.032  64.778  1.00  0.00    -0.230 OA 
HETATM   21  C   UNL     1     -10.188  10.756  65.713  1.00  0.00    -0.257 C  
HETATM   22  C   UNL     1      -6.934  10.327  69.371  1.00  0.00    -0.083 C  
HETATM   23  C   UNL     1      -9.280  10.318  70.260  1.00  0.00     0.370 C  
ENDROOT
BRANCH  16  24
HETATM   24  N   UNL     1      -8.650   8.470  67.769  1.00  0.00    -0.133 N  
HETATM   25  H   UNL     1      -8.957   8.084  68.661  1.00  0.00     0.000 HD 
HETATM   26  O   UNL     1      -7.509   7.859  65.874  1.00  0.00    -0.074 OA 
HETATM   27  C   UNL     1      -8.070   7.558  66.914  1.00  0.00    -0.116 C  
BRANCH  27  28
HETATM   28  C   UNL     1      -8.244   6.133  67.452  1.00  0.00    -0.109 C  
HETATM   29  C   UNL     1      -6.979   5.309  67.100  1.00  0.00    -0.065 C  
HETATM   30  N   UNL     1      -5.936   5.334  68.138  1.00  0.00    -0.021 NA 
HETATM   31  C   UNL     1      -5.516   6.700  68.494  1.00  0.00    -0.016 C  
HETATM   32  C   UNL     1      -6.411   4.550  69.318  1.00  0.00    -0.036 C  
HETATM   33  C   UNL     1      -5.529   4.748  70.614  1.00  0.00    -0.007 C  
HETATM   34  C   UNL     1      -6.328   5.102  71.816  1.00  0.00    -0.031 A  
HETATM   35  C   UNL     1      -6.019   5.693  73.020  1.00  0.00    -0.036 A  
HETATM   36  N   UNL     1      -7.148   5.662  73.807  1.00  0.00    -0.085 NA 
HETATM   37  C   UNL     1      -8.192   5.075  73.127  1.00  0.00    -0.108 A  
HETATM   38  H   UNL     1      -7.204   6.024  74.759  1.00  0.00     0.000 HD 
HETATM   39  C   UNL     1      -9.526   4.802  73.447  1.00  0.00    -0.132 A  
HETATM   40  C   UNL     1     -10.312   4.199  72.447  1.00  0.00    -0.217 A  
HETATM   41  C   UNL     1      -9.821   3.990  71.155  1.00  0.00    -0.236 A  
HETATM   42  C   UNL     1      -8.517   4.375  70.842  1.00  0.00    -0.105 A  
HETATM   43  C   UNL     1      -7.695   4.806  71.872  1.00  0.00    -0.098 A  
HETATM   44  C   UNL     1      -8.006   4.603  69.454  1.00  0.00    -0.066 C  
HETATM   45  C   UNL     1      -8.543   5.981  68.953  1.00  0.00    -0.116 C  
ENDBRANCH  27  28
ENDBRANCH  16  24
TORSDOF 2
ENDMDL
MODEL       39
REMARK 921   NORMALIZED FREE ENERGY PREDICTED BY IDOCK:   -5.43 KCAL/MOL
REMARK 922        TOTAL FREE ENERGY PREDICTED BY IDOCK:   -7.24 KCAL/MOL
REMARK 923 INTER-LIGAND FREE ENERGY PREDICTED BY IDOCK:   -6.21 KCAL/MOL
REMARK 924 INTRA-LIGAND FREE ENERGY PREDICTED BY IDOCK:   -1.04 KCAL/MOL
REMARK 927      BINDING AFFINITY PREDICTED BY RF-SCORE:    0.00 PKD
ROOT
HETATM    1  C   UNL     1      -6.712  16.596  69.645  1.00  0.00    -0.112 C  
HETATM    2  C   UNL     1      -5.641  16.346  70.718  1.00  0.00     0.022 C  
HETATM    3  C   UNL     1      -5.143  17.783  71.087  1.00  0.00    -0.182 C  
HETATM    4  C   UNL     1      -5.813  18.734  70.103  1.00  0.00    -0.216 C  
HETATM    5  N   UNL     1      -6.348  17.868  69.070  1.00  0.00    -0.222 N  
HETATM    6  C   UNL     1      -7.199  18.453  68.164  1.00  0.00    -0.261 C  
HETATM    7  O   UNL     1      -6.985  19.584  67.737  1.00  0.00    -0.232 OA 
HETATM    8  C   UNL     1      -8.309  17.510  67.639  1.00  0.00    -0.214 C  
HETATM    9  N   UNL     1      -8.785  16.479  68.755  1.00  0.00    -0.250 N  
HETATM   10  C   UNL     1      -9.361  18.333  66.909  1.00  0.00    -0.286 C  
HETATM   11  C   UNL     1     -10.117  19.211  67.889  1.00  0.00    -0.472 C  
HETATM   12  C   UNL     1      -9.784  15.505  68.667  1.00  0.00    -0.208 C  
HETATM   13  C   UNL     1      -8.846  18.924  65.585  1.00  0.00     0.664 C  
HETATM   14  O   UNL     1     -10.711  15.407  69.472  1.00  0.00    -0.234 OA 
HETATM   15  C   UNL     1     -11.372  19.769  67.261  1.00  0.00     0.289 C  
HETATM   16  C   UNL     1      -9.498  14.671  67.424  1.00  0.00    -0.201 C  
HETATM   17  H   UNL     1      -8.402  13.876  69.296  1.00  0.00     0.000 HD 
HETATM   18  C   UNL     1     -10.663  15.383  66.562  1.00  0.00    -0.308 C  
HETATM   19  O   UNL     1      -7.943  15.022  67.505  1.00  0.00    -0.148 OA 
HETATM   20  O   UNL     1      -7.824  14.473  69.757  1.00  0.00     0.077 OA 
HETATM   21  C   UNL     1      -7.707  15.566  68.851  1.00  0.00    -0.175 C  
HETATM   22  C   UNL     1     -12.085  14.784  66.759  1.00  0.00    -0.118 C  
HETATM   23  C   UNL     1     -10.445  15.678  65.084  1.00  0.00    -0.417 C  
ENDROOT
BRANCH  16  24
HETATM   24  N   UNL     1      -9.486  13.314  66.958  1.00  0.00    -0.235 N  
HETATM   25  H   UNL     1      -9.070  13.184  66.036  1.00  0.00     0.000 HD 
HETATM   26  O   UNL     1     -10.603  12.136  68.578  1.00  0.00    -0.221 OA 
HETATM   27  C   UNL     1      -9.944  12.159  67.552  1.00  0.00    -0.197 C  
BRANCH  27  28
HETATM   28  C   UNL     1      -9.500  10.930  66.752  1.00  0.00    -0.200 C  
HETATM   29  C   UNL     1      -7.995  11.073  66.409  1.00  0.00    -0.161 C  
HETATM   30  N   UNL     1      -7.091  10.473  67.405  1.00  0.00    -0.088 NA 
HETATM   31  C   UNL     1      -7.311  10.995  68.764  1.00  0.00    -0.111 C  
HETATM   32  C   UNL     1      -7.213   8.986  67.330  1.00  0.00    -0.083 C  
HETATM   33  C   UNL     1      -6.536   8.229  68.541  1.00  0.00    -0.054 C  
HETATM   34  C   UNL     1      -7.439   7.247  69.195  1.00  0.00    -0.093 A  
HETATM   35  C   UNL     1      -7.446   6.641  70.431  1.00  0.00    -0.090 A  
HETATM   36  N   UNL     1      -8.472   5.722  70.444  1.00  0.00    -0.127 NA 
HETATM   37  C   UNL     1      -9.143   5.733  69.241  1.00  0.00    -0.118 A  
HETATM   38  H   UNL     1      -8.703   5.119  71.233  1.00  0.00     0.000 HD 
HETATM   39  C   UNL     1     -10.237   5.024  68.735  1.00  0.00    -0.164 A  
HETATM   40  C   UNL     1     -10.660   5.348  67.431  1.00  0.00    -0.228 A  
HETATM   41  C   UNL     1     -10.094   6.408  66.719  1.00  0.00    -0.239 A  
HETATM   42  C   UNL     1      -9.076   7.165  67.301  1.00  0.00    -0.130 A  
HETATM   43  C   UNL     1      -8.547   6.734  68.508  1.00  0.00    -0.125 A  
HETATM   44  C   UNL     1      -8.678   8.539  66.862  1.00  0.00    -0.137 C  
HETATM   45  C   UNL     1      -9.743   9.552  67.389  1.00  0.00    -0.201 C  
ENDBRANCH  27  28
ENDBRANCH  16  24
TORSDOF 2
ENDMDL
MODEL       40
REMARK 921   NORMALIZED FREE ENERGY PREDICTED BY IDOCK:   -5.37 KCAL/MOL
REMARK 922        TOTAL FREE ENERGY PREDICTED BY IDOCK:   -7.18 KCAL/MOL
REMARK 923 INTER-LIGAND FREE ENERGY PREDICTED BY IDOCK:   -5.95 KCAL/MOL
REMARK 924 INTRA-LIGAND FREE ENERGY PREDICTED BY IDOCK:   -1.23 KCAL/MOL
REMARK 927      BINDING AFFINITY PREDICTED BY RF-SCORE:    0.00 PKD
ROOT
HETATM    1  C   UNL     1      -7.147   5.964  65.909  1.00  0.00    -0.074 C  
HETATM    2  C   UNL     1      -6.649   5.250  64.644  1.00  0.00    -0.043 C  
HETATM    3  C   UNL     1      -6.037   3.916  65.186  1.00  0.00    -0.023 C  
HETATM    4  C   UNL     1      -6.061   4.022  66.706  1.00  0.00    -0.028 C  
HETATM    5  N   UNL     1      -6.330   5.423  66.967  1.00  0.00    -0.038 N  
HETATM    6  C   UNL     1      -6.624   5.755  68.267  1.00  0.00    -0.052 C  
HETATM    7  O   UNL     1      -6.028   5.228  69.203  1.00  0.00    -0.021 OA 
HETATM    8  C   UNL     1      -7.620   6.931  68.410  1.00  0.00    -0.111 C  
HETATM    9  N   UNL     1      -8.694   6.940  67.235  1.00  0.00    -0.119 N  
HETATM   10  C   UNL     1      -8.112   6.999  69.848  1.00  0.00    -0.125 C  
HETATM   11  C   UNL     1      -8.980   5.796  70.167  1.00  0.00    -0.148 C  
HETATM   12  C   UNL     1      -9.766   7.818  67.045  1.00  0.00    -0.197 C  
HETATM   13  C   UNL     1      -7.015   7.440  70.835  1.00  0.00    -0.059 C  
HETATM   14  O   UNL     1     -10.928   7.447  66.880  1.00  0.00    -0.324 OA 
HETATM   15  C   UNL     1      -9.749   6.007  71.450  1.00  0.00    -0.189 C  
HETATM   16  C   UNL     1      -9.210   9.235  67.112  1.00  0.00    -0.130 C  
HETATM   17  H   UNL     1      -9.111   8.344  64.983  1.00  0.00     0.000 HD 
HETATM   18  C   UNL     1      -9.776   9.489  68.603  1.00  0.00    -0.163 C  
HETATM   19  O   UNL     1      -7.768   8.728  66.651  1.00  0.00    -0.091 OA 
HETATM   20  O   UNL     1      -8.641   7.526  64.867  1.00  0.00    -0.023 OA 
HETATM   21  C   UNL     1      -7.957   7.374  66.107  1.00  0.00    -0.112 C  
HETATM   22  C   UNL     1     -11.256   9.960  68.672  1.00  0.00    -0.122 C  
HETATM   23  C   UNL     1      -8.950  10.284  69.605  1.00  0.00    -0.140 C  
ENDROOT
BRANCH  16  24
HETATM   24  N   UNL     1      -9.308  10.514  66.469  1.00  0.00    -0.160 N  
HETATM   25  H   UNL     1      -8.961  11.297  67.022  1.00  0.00     0.000 HD 
HETATM   26  O   UNL     1     -10.385  10.084  64.490  1.00  0.00    -0.032 OA 
HETATM   27  C   UNL     1      -9.794  10.856  65.226  1.00  0.00    -0.265 C  
BRANCH  27  28
HETATM   28  C   UNL     1      -9.476  12.322  64.909  1.00  0.00     0.164 C  
HETATM   29  C   UNL     1     -10.657  12.928  64.110  1.00  0.00    -0.416 C  
HETATM   30  N   UNL     1     -11.687  13.565  64.947  1.00  0.00    -0.343 NA 
HETATM   31  C   UNL     1     -12.235  12.657  65.969  1.00  0.00    -0.260 C  
HETATM   32  C   UNL     1     -11.124  14.820  65.530  1.00  0.00    -0.346 C  
HETATM   33  C   UNL     1     -12.008  15.440  66.685  1.00  0.00     0.418 C  
HETATM   34  C   UNL     1     -11.235  15.730  67.920  1.00  0.00    -0.313 A  
HETATM   35  C   UNL     1     -11.587  15.922  69.237  1.00  0.00    -0.369 A  
HETATM   36  N   UNL     1     -10.452  16.278  69.929  1.00  0.00    -0.258 NA 
HETATM   37  C   UNL     1      -9.362  16.305  69.087  1.00  0.00    -0.236 A  
HETATM   38  H   UNL     1     -10.421  16.491  70.927  1.00  0.00     0.000 HD 
HETATM   39  C   UNL     1      -8.005  16.589  69.266  1.00  0.00    -0.104 A  
HETATM   40  C   UNL     1      -7.174  16.477  68.135  1.00  0.00    -0.156 A  
HETATM   41  C   UNL     1      -7.656  15.990  66.917  1.00  0.00    -0.268 A  
HETATM   42  C   UNL     1      -8.995  15.612  66.806  1.00  0.00    -0.291 A  
HETATM   43  C   UNL     1      -9.844  15.887  67.866  1.00  0.00    -0.218 A  
HETATM   44  C   UNL     1      -9.541  14.710  65.744  1.00  0.00    -0.266 C  
HETATM   45  C   UNL     1      -9.147  13.240  66.098  1.00  0.00     0.101 C  
ENDBRANCH  27  28
ENDBRANCH  16  24
TORSDOF 2
ENDMDL
MODEL       41
REMARK 921   NORMALIZED FREE ENERGY PREDICTED BY IDOCK:   -5.34 KCAL/MOL
REMARK 922        TOTAL FREE ENERGY PREDICTED BY IDOCK:   -7.14 KCAL/MOL
REMARK 923 INTER-LIGAND FREE ENERGY PREDICTED BY IDOCK:   -6.95 KCAL/MOL
REMARK 924 INTRA-LIGAND FREE ENERGY PREDICTED BY IDOCK:   -0.19 KCAL/MOL
REMARK 927      BINDING AFFINITY PREDICTED BY RF-SCORE:    0.00 PKD
ROOT
HETATM    1  C   UNL     1     -11.423  11.952  64.914  1.00  0.00    -0.253 C  
HETATM    2  C   UNL     1     -11.688  11.876  63.403  1.00  0.00    -0.500 C  
HETATM    3  C   UNL     1     -12.091  13.339  63.022  1.00  0.00     0.043 C  
HETATM    4  C   UNL     1     -12.203  14.106  64.334  1.00  0.00    -0.439 C  
HETATM    5  N   UNL     1     -12.209  13.077  65.356  1.00  0.00    -0.446 N  
HETATM    6  C   UNL     1     -12.079  13.507  66.655  1.00  0.00    -0.396 C  
HETATM    7  O   UNL     1     -12.642  14.528  67.040  1.00  0.00    -0.051 OA 
HETATM    8  C   UNL     1     -11.323  12.519  67.575  1.00  0.00    -0.312 C  
HETATM    9  N   UNL     1     -10.181  11.736  66.789  1.00  0.00    -0.208 N  
HETATM   10  C   UNL     1     -10.963  13.222  68.876  1.00  0.00    -0.278 C  
HETATM   11  C   UNL     1      -9.921  14.295  68.625  1.00  0.00    -0.234 C  
HETATM   12  C   UNL     1      -9.272  10.797  67.286  1.00  0.00    -0.147 C  
HETATM   13  C   UNL     1     -12.192  13.532  69.749  1.00  0.00    -0.330 C  
HETATM   14  O   UNL     1      -8.053  10.886  67.138  1.00  0.00    -0.120 OA 
HETATM   15  C   UNL     1      -9.302  14.765  69.920  1.00  0.00     0.402 C  
HETATM   16  C   UNL     1     -10.076   9.733  68.022  1.00  0.00    -0.171 C  
HETATM   17  H   UNL     1      -9.851   9.273  65.769  1.00  0.00     0.000 HD 
HETATM   18  C   UNL     1      -9.680  10.304  69.480  1.00  0.00    -0.235 C  
HETATM   19  O   UNL     1     -11.364  10.040  67.132  1.00  0.00    -0.113 OA 
HETATM   20  O   UNL     1     -10.157   9.928  65.152  1.00  0.00    -0.309 OA 
HETATM   21  C   UNL     1     -10.896  10.823  65.977  1.00  0.00    -0.032 C  
HETATM   22  C   UNL     1      -8.317   9.802  70.035  1.00  0.00    -0.211 C  
HETATM   23  C   UNL     1     -10.708  10.305  70.603  1.00  0.00    -0.125 C  
ENDROOT
BRANCH  16  24
HETATM   24  N   UNL     1     -10.159   8.312  68.206  1.00  0.00    -0.192 N  
HETATM   25  H   UNL     1     -10.558   8.019  69.098  1.00  0.00     0.000 HD 
HETATM   26  O   UNL     1      -9.157   7.428  66.341  1.00  0.00    -0.152 OA 
HETATM   27  C   UNL     1      -9.787   7.278  67.374  1.00  0.00    -0.159 C  
BRANCH  27  28
HETATM   28  C   UNL     1     -10.284   5.938  67.927  1.00  0.00    -0.225 C  
HETATM   29  C   UNL     1     -10.376   4.919  66.763  1.00  0.00    -0.217 C  
HETATM   30  N   UNL     1      -9.152   4.127  66.560  1.00  0.00    -0.125 NA 
HETATM   31  C   UNL     1      -7.957   4.962  66.354  1.00  0.00    -0.107 C  
HETATM   32  C   UNL     1      -9.002   3.173  67.699  1.00  0.00    -0.154 C  
HETATM   33  C   UNL     1      -7.583   2.479  67.769  1.00  0.00    -0.056 C  
HETATM   34  C   UNL     1      -6.946   2.586  69.107  1.00  0.00    -0.040 A  
HETATM   35  C   UNL     1      -5.649   2.472  69.552  1.00  0.00    -0.017 A  
HETATM   36  N   UNL     1      -5.666   2.551  70.927  1.00  0.00    -0.013 NA 
HETATM   37  C   UNL     1      -6.953   2.730  71.383  1.00  0.00    -0.032 A  
HETATM   38  H   UNL     1      -4.841   2.486  71.524  1.00  0.00     0.000 HD 
HETATM   39  C   UNL     1      -7.520   2.874  72.653  1.00  0.00    -0.045 A  
HETATM   40  C   UNL     1      -8.913   3.074  72.711  1.00  0.00    -0.107 A  
HETATM   41  C   UNL     1      -9.679   3.240  71.554  1.00  0.00    -0.233 A  
HETATM   42  C   UNL     1      -9.059   3.199  70.304  1.00  0.00    -0.194 A  
HETATM   43  C   UNL     1      -7.724   2.830  70.246  1.00  0.00    -0.044 A  
HETATM   44  C   UNL     1      -9.640   3.761  69.045  1.00  0.00    -0.190 C  
HETATM   45  C   UNL     1      -9.483   5.314  69.082  1.00  0.00    -0.184 C  
ENDBRANCH  27  28
ENDBRANCH  16  24
TORSDOF 2
ENDMDL
MODEL       42
REMARK 921   NORMALIZED FREE ENERGY PREDICTED BY IDOCK:   -5.33 KCAL/MOL
REMARK 922        TOTAL FREE ENERGY PREDICTED BY IDOCK:   -7.13 KCAL/MOL
REMARK 923 INTER-LIGAND FREE ENERGY PREDICTED BY IDOCK:   -6.49 KCAL/MOL
REMARK 924 INTRA-LIGAND FREE ENERGY PREDICTED BY IDOCK:   -0.63 KCAL/MOL
REMARK 927      BINDING AFFINITY PREDICTED BY RF-SCORE:    0.00 PKD
ROOT
HETATM    1  C   UNL     1     -12.255  12.963  70.529  1.00  0.00    -0.314 C  
HETATM    2  C   UNL     1     -13.141  12.690  71.753  1.00  0.00    -0.461 C  
HETATM    3  C   UNL     1     -13.990  13.997  71.897  1.00  0.00    -0.537 C  
HETATM    4  C   UNL     1     -13.428  14.985  70.882  1.00  0.00    -0.349 C  
HETATM    5  N   UNL     1     -12.165  14.402  70.469  1.00  0.00    -0.318 N  
HETATM    6  C   UNL     1     -11.550  14.982  69.387  1.00  0.00    -0.315 C  
HETATM    7  O   UNL     1     -11.552  16.202  69.239  1.00  0.00    -0.329 OA 
HETATM    8  C   UNL     1     -10.747  13.992  68.509  1.00  0.00    -0.256 C  
HETATM    9  N   UNL     1     -11.430  12.555  68.465  1.00  0.00    -0.280 N  
HETATM   10  C   UNL     1     -10.386  14.668  67.194  1.00  0.00    -0.265 C  
HETATM   11  C   UNL     1     -11.633  14.905  66.362  1.00  0.00    -0.238 C  
HETATM   12  C   UNL     1     -11.022  11.421  67.756  1.00  0.00    -0.247 C  
HETATM   13  C   UNL     1      -9.350  15.794  67.365  1.00  0.00    -0.214 C  
HETATM   14  O   UNL     1     -11.759  10.793  66.996  1.00  0.00    -0.237 OA 
HETATM   15  C   UNL     1     -11.276  15.251  64.936  1.00  0.00    -0.422 C  
HETATM   16  C   UNL     1      -9.557  11.177  68.094  1.00  0.00    -0.179 C  
HETATM   17  H   UNL     1     -10.993  10.153  69.586  1.00  0.00     0.000 HD 
HETATM   18  C   UNL     1      -9.034  11.765  66.684  1.00  0.00    -0.195 C  
HETATM   19  O   UNL     1      -9.721  11.916  69.499  1.00  0.00     0.555 OA 
HETATM   20  O   UNL     1     -11.624  10.701  70.039  1.00  0.00    -0.271 OA 
HETATM   21  C   UNL     1     -11.168  12.018  69.749  1.00  0.00    -0.029 C  
HETATM   22  C   UNL     1      -9.036  10.748  65.507  1.00  0.00    -0.210 C  
HETATM   23  C   UNL     1      -7.756  12.591  66.630  1.00  0.00     0.306 C  
ENDROOT
BRANCH  16  24
HETATM   24  N   UNL     1      -8.634  10.122  68.405  1.00  0.00    -0.116 N  
HETATM   25  H   UNL     1      -8.900   9.204  68.049  1.00  0.00     0.000 HD 
HETATM   26  O   UNL     1      -7.049  11.115  69.733  1.00  0.00    -0.111 OA 
HETATM   27  C   UNL     1      -7.449  10.148  69.107  1.00  0.00    -0.098 C  
BRANCH  27  28
HETATM   28  C   UNL     1      -6.717   8.807  68.976  1.00  0.00    -0.052 C  
HETATM   29  C   UNL     1      -5.639   8.715  70.085  1.00  0.00    -0.024 C  
HETATM   30  N   UNL     1      -6.109   8.083  71.330  1.00  0.00    -0.034 NA 
HETATM   31  C   UNL     1      -7.299   8.742  71.892  1.00  0.00    -0.012 C  
HETATM   32  C   UNL     1      -6.318   6.626  71.079  1.00  0.00    -0.041 C  
HETATM   33  C   UNL     1      -7.107   5.886  72.231  1.00  0.00    -0.084 C  
HETATM   34  C   UNL     1      -8.263   5.095  71.734  1.00  0.00    -0.117 A  
HETATM   35  C   UNL     1      -9.401   4.601  72.330  1.00  0.00    -0.128 A  
HETATM   36  N   UNL     1     -10.065   3.835  71.398  1.00  0.00    -0.099 NA 
HETATM   37  C   UNL     1      -9.386   3.836  70.200  1.00  0.00    -0.174 A  
HETATM   38  H   UNL     1     -10.939   3.336  71.571  1.00  0.00     0.000 HD 
HETATM   39  C   UNL     1      -9.614   3.243  68.955  1.00  0.00    -0.101 A  
HETATM   40  C   UNL     1      -8.679   3.512  67.938  1.00  0.00    -0.130 A  
HETATM   41  C   UNL     1      -7.635   4.422  68.124  1.00  0.00    -0.068 A  
HETATM   42  C   UNL     1      -7.502   5.080  69.348  1.00  0.00    -0.057 A  
HETATM   43  C   UNL     1      -8.317   4.683  70.397  1.00  0.00    -0.082 A  
HETATM   44  C   UNL     1      -6.732   6.345  69.557  1.00  0.00    -0.053 C  
HETATM   45  C   UNL     1      -7.578   7.533  69.002  1.00  0.00    -0.108 C  
ENDBRANCH  27  28
ENDBRANCH  16  24
TORSDOF 2
ENDMDL
MODEL       43
REMARK 921   NORMALIZED FREE ENERGY PREDICTED BY IDOCK:   -5.23 KCAL/MOL
REMARK 922        TOTAL FREE ENERGY PREDICTED BY IDOCK:   -7.02 KCAL/MOL
REMARK 923 INTER-LIGAND FREE ENERGY PREDICTED BY IDOCK:   -6.43 KCAL/MOL
REMARK 924 INTRA-LIGAND FREE ENERGY PREDICTED BY IDOCK:   -0.60 KCAL/MOL
REMARK 927      BINDING AFFINITY PREDICTED BY RF-SCORE:    0.00 PKD
ROOT
HETATM    1  C   UNL     1      -6.949   3.744  69.472  1.00  0.00    -0.042 C  
HETATM    2  C   UNL     1      -6.212   2.812  68.498  1.00  0.00    -0.029 C  
HETATM    3  C   UNL     1      -5.968   1.515  69.339  1.00  0.00    -0.023 C  
HETATM    4  C   UNL     1      -6.410   1.837  70.761  1.00  0.00    -0.023 C  
HETATM    5  N   UNL     1      -6.550   3.281  70.778  1.00  0.00    -0.031 N  
HETATM    6  C   UNL     1      -7.155   3.821  71.886  1.00  0.00    -0.045 C  
HETATM    7  O   UNL     1      -6.928   3.377  73.009  1.00  0.00    -0.037 OA 
HETATM    8  C   UNL     1      -7.981   5.098  71.596  1.00  0.00    -0.114 C  
HETATM    9  N   UNL     1      -8.664   5.045  70.159  1.00  0.00    -0.107 N  
HETATM   10  C   UNL     1      -8.849   5.417  72.805  1.00  0.00    -0.122 C  
HETATM   11  C   UNL     1      -9.927   4.363  72.974  1.00  0.00    -0.195 C  
HETATM   12  C   UNL     1      -9.507   5.988  69.563  1.00  0.00    -0.139 C  
HETATM   13  C   UNL     1      -8.032   5.884  74.023  1.00  0.00    -0.104 C  
HETATM   14  O   UNL     1     -10.612   5.713  69.097  1.00  0.00    -0.253 OA 
HETATM   15  C   UNL     1     -10.995   4.828  73.936  1.00  0.00    -0.325 C  
HETATM   16  C   UNL     1      -8.806   7.339  69.643  1.00  0.00    -0.141 C  
HETATM   17  H   UNL     1      -8.224   6.149  67.750  1.00  0.00     0.000 HD 
HETATM   18  C   UNL     1      -9.734   7.857  70.859  1.00  0.00    -0.177 C  
HETATM   19  O   UNL     1      -7.375   6.633  69.694  1.00  0.00    -0.079 OA 
HETATM   20  O   UNL     1      -7.857   5.281  67.869  1.00  0.00    -0.090 OA 
HETATM   21  C   UNL     1      -7.582   5.240  69.266  1.00  0.00    -0.073 C  
HETATM   22  C   UNL     1     -11.094   8.475  70.429  1.00  0.00    -0.246 C  
HETATM   23  C   UNL     1      -9.130   8.701  71.972  1.00  0.00    -0.311 C  
ENDROOT
BRANCH  16  24
HETATM   24  N   UNL     1      -8.541   8.517  68.868  1.00  0.00    -0.127 N  
HETATM   25  H   UNL     1      -8.515   9.384  69.404  1.00  0.00     0.000 HD 
HETATM   26  O   UNL     1      -8.458   7.775  66.699  1.00  0.00    -0.120 OA 
HETATM   27  C   UNL     1      -8.317   8.668  67.517  1.00  0.00    -0.120 C  
BRANCH  27  28
HETATM   28  C   UNL     1      -7.860  10.098  67.205  1.00  0.00    -0.099 C  
HETATM   29  C   UNL     1      -7.744  10.261  65.668  1.00  0.00    -0.148 C  
HETATM   30  N   UNL     1      -8.972  10.750  65.020  1.00  0.00    -0.198 NA 
HETATM   31  C   UNL     1     -10.145   9.911  65.311  1.00  0.00    -0.156 C  
HETATM   32  C   UNL     1      -9.177  12.181  65.397  1.00  0.00     0.172 C  
HETATM   33  C   UNL     1     -10.607  12.741  65.026  1.00  0.00    -0.330 C  
HETATM   34  C   UNL     1     -11.290  13.404  66.167  1.00  0.00    -0.324 A  
HETATM   35  C   UNL     1     -12.604  13.711  66.439  1.00  0.00    -0.235 A  
HETATM   36  N   UNL     1     -12.634  14.439  67.607  1.00  0.00    -0.345 NA 
HETATM   37  C   UNL     1     -11.361  14.598  68.108  1.00  0.00    -0.302 A  
HETATM   38  H   UNL     1     -13.480  14.809  68.040  1.00  0.00     0.000 HD 
HETATM   39  C   UNL     1     -10.837  15.231  69.239  1.00  0.00    -0.257 A  
HETATM   40  C   UNL     1      -9.444  15.148  69.430  1.00  0.00    -0.185 A  
HETATM   41  C   UNL     1      -8.636  14.371  68.596  1.00  0.00    -0.161 A  
HETATM   42  C   UNL     1      -9.211  13.663  67.540  1.00  0.00    -0.218 A  
HETATM   43  C   UNL     1     -10.549  13.887  67.253  1.00  0.00    -0.276 A  
HETATM   44  C   UNL     1      -8.577  12.498  66.848  1.00  0.00    -0.158 C  
HETATM   45  C   UNL     1      -8.712  11.246  67.771  1.00  0.00    -0.134 C  
ENDBRANCH  27  28
ENDBRANCH  16  24
TORSDOF 2
ENDMDL
MODEL       44
REMARK 921   NORMALIZED FREE ENERGY PREDICTED BY IDOCK:   -5.16 KCAL/MOL
REMARK 922        TOTAL FREE ENERGY PREDICTED BY IDOCK:   -6.95 KCAL/MOL
REMARK 923 INTER-LIGAND FREE ENERGY PREDICTED BY IDOCK:   -6.81 KCAL/MOL
REMARK 924 INTRA-LIGAND FREE ENERGY PREDICTED BY IDOCK:   -0.13 KCAL/MOL
REMARK 927      BINDING AFFINITY PREDICTED BY RF-SCORE:    0.00 PKD
ROOT
HETATM    1  C   UNL     1     -12.453  12.939  70.811  1.00  0.00    -0.286 C  
HETATM    2  C   UNL     1     -13.409  12.232  71.782  1.00  0.00    -0.353 C  
HETATM    3  C   UNL     1     -14.079  13.409  72.566  1.00  0.00    -0.418 C  
HETATM    4  C   UNL     1     -13.356  14.678  72.133  1.00  0.00    -0.375 C  
HETATM    5  N   UNL     1     -12.170  14.203  71.447  1.00  0.00    -0.337 N  
HETATM    6  C   UNL     1     -11.446  15.144  70.757  1.00  0.00    -0.309 C  
HETATM    7  O   UNL     1     -11.280  16.272  71.214  1.00  0.00    -0.290 OA 
HETATM    8  C   UNL     1     -10.753  14.601  69.484  1.00  0.00    -0.184 C  
HETATM    9  N   UNL     1     -11.620  13.468  68.778  1.00  0.00    -0.300 N  
HETATM   10  C   UNL     1     -10.260  15.771  68.645  1.00  0.00    -0.221 C  
HETATM   11  C   UNL     1     -11.435  16.543  68.073  1.00  0.00     0.016 C  
HETATM   12  C   UNL     1     -11.343  12.772  67.597  1.00  0.00    -0.310 C  
HETATM   13  C   UNL     1      -9.089  16.527  69.300  1.00  0.00    -0.102 C  
HETATM   14  O   UNL     1     -12.131  12.692  66.655  1.00  0.00    -0.519 OA 
HETATM   15  C   UNL     1     -10.987  17.481  66.977  1.00  0.00     0.079 C  
HETATM   16  C   UNL     1      -9.936  12.202  67.725  1.00  0.00    -0.198 C  
HETATM   17  H   UNL     1     -11.546  10.789  68.590  1.00  0.00     0.000 HD 
HETATM   18  C   UNL     1      -9.291  13.320  66.754  1.00  0.00    -0.254 C  
HETATM   19  O   UNL     1     -10.048  12.189  69.317  1.00  0.00     0.144 OA 
HETATM   20  O   UNL     1     -12.113  11.130  69.272  1.00  0.00    -0.338 OA 
HETATM   21  C   UNL     1     -11.475  12.351  69.636  1.00  0.00    -0.194 C  
HETATM   22  C   UNL     1      -9.389  13.006  65.234  1.00  0.00     0.434 C  
HETATM   23  C   UNL     1      -7.913  13.891  67.059  1.00  0.00     0.043 C  
ENDROOT
BRANCH  16  24
HETATM   24  N   UNL     1      -9.174  11.016  67.459  1.00  0.00    -0.144 N  
HETATM   25  H   UNL     1      -8.411  10.842  68.113  1.00  0.00     0.000 HD 
HETATM   26  O   UNL     1     -10.055  10.188  65.509  1.00  0.00    -0.289 OA 
HETATM   27  C   UNL     1      -9.305  10.072  66.463  1.00  0.00    -0.162 C  
BRANCH  27  28
HETATM   28  C   UNL     1      -8.391   8.872  66.737  1.00  0.00    -0.111 C  
HETATM   29  C   UNL     1      -8.784   8.245  68.099  1.00  0.00    -0.136 C  
HETATM   30  N   UNL     1      -9.789   7.174  68.001  1.00  0.00    -0.135 NA 
HETATM   31  C   UNL     1     -11.019   7.604  67.315  1.00  0.00    -0.052 C  
HETATM   32  C   UNL     1      -9.158   5.980  67.362  1.00  0.00    -0.106 C  
HETATM   33  C   UNL     1     -10.193   4.871  66.918  1.00  0.00    -0.254 C  
HETATM   34  C   UNL     1     -10.022   4.445  65.505  1.00  0.00    -0.242 A  
HETATM   35  C   UNL     1     -10.845   3.818  64.597  1.00  0.00     0.004 A  
HETATM   36  N   UNL     1     -10.107   3.568  63.461  1.00  0.00    -0.172 NA 
HETATM   37  C   UNL     1      -8.821   4.038  63.611  1.00  0.00    -0.118 A  
HETATM   38  H   UNL     1     -10.462   3.101  62.627  1.00  0.00     0.000 HD 
HETATM   39  C   UNL     1      -7.691   4.050  62.786  1.00  0.00    -0.061 A  
HETATM   40  C   UNL     1      -6.534   4.667  63.298  1.00  0.00    -0.026 A  
HETATM   41  C   UNL     1      -6.542   5.341  64.522  1.00  0.00    -0.042 A  
HETATM   42  C   UNL     1      -7.720   5.402  65.268  1.00  0.00    -0.089 A  
HETATM   43  C   UNL     1      -8.804   4.648  64.845  1.00  0.00    -0.151 A  
HETATM   44  C   UNL     1      -7.996   6.403  66.344  1.00  0.00    -0.110 C  
HETATM   45  C   UNL     1      -8.344   7.768  65.668  1.00  0.00    -0.143 C  
ENDBRANCH  27  28
ENDBRANCH  16  24
TORSDOF 2
ENDMDL
MODEL       45
REMARK 921   NORMALIZED FREE ENERGY PREDICTED BY IDOCK:   -5.14 KCAL/MOL
REMARK 922        TOTAL FREE ENERGY PREDICTED BY IDOCK:   -6.92 KCAL/MOL
REMARK 923 INTER-LIGAND FREE ENERGY PREDICTED BY IDOCK:   -6.01 KCAL/MOL
REMARK 924 INTRA-LIGAND FREE ENERGY PREDICTED BY IDOCK:   -0.91 KCAL/MOL
REMARK 927      BINDING AFFINITY PREDICTED BY RF-SCORE:    0.00 PKD
ROOT
HETATM    1  C   UNL     1     -10.873  12.655  66.454  1.00  0.00    -0.269 C  
HETATM    2  C   UNL     1     -12.154  12.473  65.626  1.00  0.00    -0.464 C  
HETATM    3  C   UNL     1     -12.587  13.938  65.285  1.00  0.00    -0.508 C  
HETATM    4  C   UNL     1     -11.652  14.853  66.067  1.00  0.00    -0.226 C  
HETATM    5  N   UNL     1     -11.001  13.975  67.020  1.00  0.00    -0.294 N  
HETATM    6  C   UNL     1      -9.937  14.506  67.710  1.00  0.00    -0.225 C  
HETATM    7  O   UNL     1      -9.960  15.667  68.108  1.00  0.00    -0.215 OA 
HETATM    8  C   UNL     1      -8.833  13.478  68.058  1.00  0.00    -0.181 C  
HETATM    9  N   UNL     1      -8.683  12.368  66.927  1.00  0.00    -0.202 N  
HETATM   10  C   UNL     1      -7.588  14.220  68.522  1.00  0.00    -0.127 C  
HETATM   11  C   UNL     1      -6.968  14.985  67.368  1.00  0.00    -0.184 C  
HETATM   12  C   UNL     1      -7.777  11.304  66.870  1.00  0.00    -0.152 C  
HETATM   13  C   UNL     1      -7.774  14.904  69.889  1.00  0.00     0.116 C  
HETATM   14  O   UNL     1      -7.042  11.088  65.907  1.00  0.00    -0.078 OA 
HETATM   15  C   UNL     1      -5.568  15.440  67.708  1.00  0.00    -0.127 C  
HETATM   16  C   UNL     1      -7.882  10.546  68.188  1.00  0.00    -0.109 C  
HETATM   17  H   UNL     1      -9.396   9.796  66.612  1.00  0.00     0.000 HD 
HETATM   18  C   UNL     1      -6.510  11.170  68.767  1.00  0.00    -0.052 C  
HETATM   19  O   UNL     1      -9.385  11.044  68.394  1.00  0.00    -0.164 OA 
HETATM   20  O   UNL     1      -9.998  10.431  66.241  1.00  0.00    -0.207 OA 
HETATM   21  C   UNL     1      -9.835  11.561  67.092  1.00  0.00    -0.191 C  
HETATM   22  C   UNL     1      -5.215  10.429  68.329  1.00  0.00    -0.034 C  
HETATM   23  C   UNL     1      -6.402  11.537  70.241  1.00  0.00    -0.017 C  
ENDROOT
BRANCH  16  24
HETATM   24  N   UNL     1      -7.922   9.214  68.720  1.00  0.00    -0.099 N  
HETATM   25  H   UNL     1      -7.505   8.502  68.120  1.00  0.00     0.000 HD 
HETATM   26  O   UNL     1      -9.097   9.410  70.680  1.00  0.00    -0.240 OA 
HETATM   27  C   UNL     1      -8.431   8.740  69.909  1.00  0.00    -0.131 C  
BRANCH  27  28
HETATM   28  C   UNL     1      -8.032   7.275  70.119  1.00  0.00    -0.112 C  
HETATM   29  C   UNL     1      -9.230   6.514  70.740  1.00  0.00    -0.155 C  
HETATM   30  N   UNL     1     -10.128   5.895  69.751  1.00  0.00    -0.182 NA 
HETATM   31  C   UNL     1     -10.649   6.860  68.769  1.00  0.00    -0.220 C  
HETATM   32  C   UNL     1      -9.421   4.745  69.113  1.00  0.00    -0.149 C  
HETATM   33  C   UNL     1     -10.146   4.184  67.825  1.00  0.00     0.078 C  
HETATM   34  C   UNL     1      -9.245   4.070  66.650  1.00  0.00    -0.173 A  
HETATM   35  C   UNL     1      -9.461   3.986  65.293  1.00  0.00    -0.172 A  
HETATM   36  N   UNL     1      -8.243   3.778  64.684  1.00  0.00    -0.093 NA 
HETATM   37  C   UNL     1      -7.236   3.742  65.622  1.00  0.00    -0.071 A  
HETATM   38  H   UNL     1      -8.107   3.668  63.679  1.00  0.00     0.000 HD 
HETATM   39  C   UNL     1      -5.850   3.569  65.550  1.00  0.00    -0.019 A  
HETATM   40  C   UNL     1      -5.136   3.625  66.763  1.00  0.00    -0.008 A  
HETATM   41  C   UNL     1      -5.762   3.955  67.968  1.00  0.00    -0.022 A  
HETATM   42  C   UNL     1      -7.130   4.229  67.983  1.00  0.00    -0.060 A  
HETATM   43  C   UNL     1      -7.856   4.003  66.824  1.00  0.00    -0.093 A  
HETATM   44  C   UNL     1      -7.837   4.982  69.064  1.00  0.00    -0.080 C  
HETATM   45  C   UNL     1      -7.527   6.503  68.888  1.00  0.00    -0.095 C  
ENDBRANCH  27  28
ENDBRANCH  16  24
TORSDOF 2
ENDMDL
MODEL       46
REMARK 921   NORMALIZED FREE ENERGY PREDICTED BY IDOCK:   -5.12 KCAL/MOL
REMARK 922        TOTAL FREE ENERGY PREDICTED BY IDOCK:   -6.89 KCAL/MOL
REMARK 923 INTER-LIGAND FREE ENERGY PREDICTED BY IDOCK:   -6.56 KCAL/MOL
REMARK 924 INTRA-LIGAND FREE ENERGY PREDICTED BY IDOCK:   -0.34 KCAL/MOL
REMARK 927      BINDING AFFINITY PREDICTED BY RF-SCORE:    0.00 PKD
ROOT
HETATM    1  C   UNL     1      -7.519  16.308  67.305  1.00  0.00    -0.178 C  
HETATM    2  C   UNL     1      -6.300  17.040  66.724  1.00  0.00    -0.246 C  
HETATM    3  C   UNL     1      -6.435  18.493  67.290  1.00  0.00    -0.202 C  
HETATM    4  C   UNL     1      -7.783  18.552  67.997  1.00  0.00    -0.265 C  
HETATM    5  N   UNL     1      -8.477  17.357  67.557  1.00  0.00    -0.212 N  
HETATM    6  C   UNL     1      -9.640  17.047  68.219  1.00  0.00    -0.273 C  
HETATM    7  O   UNL     1     -10.428  17.928  68.555  1.00  0.00    -0.361 OA 
HETATM    8  C   UNL     1      -9.914  15.529  68.339  1.00  0.00    -0.214 C  
HETATM    9  N   UNL     1      -8.567  14.696  68.492  1.00  0.00    -0.166 N  
HETATM   10  C   UNL     1     -11.031  15.300  69.347  1.00  0.00    -0.271 C  
HETATM   11  C   UNL     1     -10.562  15.657  70.745  1.00  0.00    -0.056 C  
HETATM   12  C   UNL     1      -8.413  13.316  68.660  1.00  0.00     0.017 C  
HETATM   13  C   UNL     1     -12.401  15.794  68.845  1.00  0.00     0.197 C  
HETATM   14  O   UNL     1      -7.761  12.810  69.573  1.00  0.00     0.496 OA 
HETATM   15  C   UNL     1     -11.514  15.124  71.790  1.00  0.00    -0.452 C  
HETATM   16  C   UNL     1      -9.203  12.633  67.550  1.00  0.00    -0.190 C  
HETATM   17  H   UNL     1      -7.042  13.146  66.912  1.00  0.00     0.000 HD 
HETATM   18  C   UNL     1     -10.415  12.221  68.534  1.00  0.00    -0.248 C  
HETATM   19  O   UNL     1      -9.055  13.914  66.608  1.00  0.00    -0.247 OA 
HETATM   20  O   UNL     1      -6.767  14.054  66.974  1.00  0.00    -0.022 OA 
HETATM   21  C   UNL     1      -7.993  14.744  67.198  1.00  0.00    -0.174 C  
HETATM   22  C   UNL     1     -10.197  10.902  69.328  1.00  0.00    -0.190 C  
HETATM   23  C   UNL     1     -11.853  12.274  68.035  1.00  0.00    -0.368 C  
ENDROOT
BRANCH  16  24
HETATM   24  N   UNL     1      -9.120  11.549  66.612  1.00  0.00    -0.184 N  
HETATM   25  H   UNL     1      -8.561  10.756  66.926  1.00  0.00     0.000 HD 
HETATM   26  O   UNL     1     -10.240  12.302  64.758  1.00  0.00    -0.279 OA 
HETATM   27  C   UNL     1      -9.672  11.406  65.358  1.00  0.00    -0.230 C  
BRANCH  27  28
HETATM   28  C   UNL     1      -9.479   9.974  64.846  1.00  0.00    -0.355 C  
HETATM   29  C   UNL     1      -8.228   9.934  63.933  1.00  0.00    -0.156 C  
HETATM   30  N   UNL     1      -6.977   9.612  64.638  1.00  0.00    -0.106 NA 
HETATM   31  C   UNL     1      -6.703  10.524  65.761  1.00  0.00    -0.123 C  
HETATM   32  C   UNL     1      -7.015   8.178  65.054  1.00  0.00    -0.070 C  
HETATM   33  C   UNL     1      -5.881   7.780  66.081  1.00  0.00    -0.037 C  
HETATM   34  C   UNL     1      -6.401   7.084  67.286  1.00  0.00    -0.052 A  
HETATM   35  C   UNL     1      -5.900   6.872  68.550  1.00  0.00    -0.018 A  
HETATM   36  N   UNL     1      -6.779   6.051  69.220  1.00  0.00    -0.058 NA 
HETATM   37  C   UNL     1      -7.853   5.738  68.416  1.00  0.00    -0.101 A  
HETATM   38  H   UNL     1      -6.653   5.721  70.177  1.00  0.00     0.000 HD 
HETATM   39  C   UNL     1      -9.005   4.966  68.595  1.00  0.00    -0.130 A  
HETATM   40  C   UNL     1      -9.910   4.910  67.518  1.00  0.00    -0.207 A  
HETATM   41  C   UNL     1      -9.729   5.682  66.367  1.00  0.00    -0.180 A  
HETATM   42  C   UNL     1      -8.621   6.526  66.270  1.00  0.00    -0.141 A  
HETATM   43  C   UNL     1      -7.648   6.446  67.253  1.00  0.00    -0.096 A  
HETATM   44  C   UNL     1      -8.513   7.686  65.331  1.00  0.00    -0.110 C  
HETATM   45  C   UNL     1      -9.369   8.861  65.902  1.00  0.00    -0.301 C  
ENDBRANCH  27  28
ENDBRANCH  16  24
TORSDOF 2
ENDMDL
MODEL       47
REMARK 921   NORMALIZED FREE ENERGY PREDICTED BY IDOCK:   -5.08 KCAL/MOL
REMARK 922        TOTAL FREE ENERGY PREDICTED BY IDOCK:   -6.85 KCAL/MOL
REMARK 923 INTER-LIGAND FREE ENERGY PREDICTED BY IDOCK:   -5.73 KCAL/MOL
REMARK 924 INTRA-LIGAND FREE ENERGY PREDICTED BY IDOCK:   -1.12 KCAL/MOL
REMARK 927      BINDING AFFINITY PREDICTED BY RF-SCORE:    0.00 PKD
ROOT
HETATM    1  C   UNL     1      -7.644  14.882  68.225  1.00  0.00    -0.113 C  
HETATM    2  C   UNL     1      -6.669  15.702  69.082  1.00  0.00    -0.149 C  
HETATM    3  C   UNL     1      -7.073  17.185  68.788  1.00  0.00    -0.229 C  
HETATM    4  C   UNL     1      -8.111  17.132  67.673  1.00  0.00    -0.179 C  
HETATM    5  N   UNL     1      -8.022  15.779  67.160  1.00  0.00    -0.195 N  
HETATM    6  C   UNL     1      -9.010  15.391  66.288  1.00  0.00    -0.306 C  
HETATM    7  O   UNL     1      -9.442  16.167  65.440  1.00  0.00    -0.394 OA 
HETATM    8  C   UNL     1      -9.380  13.891  66.377  1.00  0.00    -0.205 C  
HETATM    9  N   UNL     1      -9.255  13.340  67.865  1.00  0.00    -0.205 N  
HETATM   10  C   UNL     1     -10.676  13.649  65.616  1.00  0.00    -0.283 C  
HETATM   11  C   UNL     1     -11.839  14.314  66.328  1.00  0.00    -0.420 C  
HETATM   12  C   UNL     1      -9.538  12.056  68.342  1.00  0.00    -0.190 C  
HETATM   13  C   UNL     1     -10.513  13.807  64.093  1.00  0.00     0.147 C  
HETATM   14  O   UNL     1     -10.291  11.833  69.290  1.00  0.00    -0.056 OA 
HETATM   15  C   UNL     1     -13.160  13.811  65.796  1.00  0.00    -0.122 C  
HETATM   16  C   UNL     1      -8.776  11.068  67.466  1.00  0.00    -0.128 C  
HETATM   17  H   UNL     1      -7.515  11.829  69.246  1.00  0.00     0.000 HD 
HETATM   18  C   UNL     1     -10.097  10.629  66.647  1.00  0.00    -0.270 C  
HETATM   19  O   UNL     1      -7.685  12.176  67.105  1.00  0.00    -0.160 OA 
HETATM   20  O   UNL     1      -7.391  12.767  69.330  1.00  0.00     0.149 OA 
HETATM   21  C   UNL     1      -7.858  13.265  68.080  1.00  0.00    -0.145 C  
HETATM   22  C   UNL     1     -10.952   9.521  67.326  1.00  0.00    -0.062 C  
HETATM   23  C   UNL     1     -10.008  10.348  65.153  1.00  0.00    -0.390 C  
ENDROOT
BRANCH  16  24
HETATM   24  N   UNL     1      -7.988   9.872  67.543  1.00  0.00    -0.105 N  
HETATM   25  H   UNL     1      -8.014   9.289  66.706  1.00  0.00     0.000 HD 
HETATM   26  O   UNL     1      -7.166   9.857  69.684  1.00  0.00    -0.079 OA 
HETATM   27  C   UNL     1      -7.201   9.382  68.562  1.00  0.00    -0.072 C  
BRANCH  27  28
HETATM   28  C   UNL     1      -6.382   8.179  68.078  1.00  0.00    -0.055 C  
HETATM   29  C   UNL     1      -6.354   7.110  69.200  1.00  0.00    -0.035 C  
HETATM   30  N   UNL     1      -7.441   6.121  69.117  1.00  0.00    -0.088 NA 
HETATM   31  C   UNL     1      -8.777   6.739  69.098  1.00  0.00    -0.131 C  
HETATM   32  C   UNL     1      -7.196   5.236  67.938  1.00  0.00    -0.071 C  
HETATM   33  C   UNL     1      -8.433   4.332  67.551  1.00  0.00    -0.100 C  
HETATM   34  C   UNL     1      -8.799   4.427  66.114  1.00  0.00    -0.115 A  
HETATM   35  C   UNL     1      -9.943   4.139  65.405  1.00  0.00    -0.205 A  
HETATM   36  N   UNL     1      -9.666   4.314  64.068  1.00  0.00    -0.294 NA 
HETATM   37  C   UNL     1      -8.363   4.727  63.896  1.00  0.00    -0.125 A  
HETATM   38  H   UNL     1     -10.332   4.160  63.310  1.00  0.00     0.000 HD 
HETATM   39  C   UNL     1      -7.587   5.047  62.778  1.00  0.00    -0.062 A  
HETATM   40  C   UNL     1      -6.265   5.470  63.018  1.00  0.00    -0.021 A  
HETATM   41  C   UNL     1      -5.785   5.676  64.314  1.00  0.00    -0.021 A  
HETATM   42  C   UNL     1      -6.625   5.450  65.405  1.00  0.00    -0.040 A  
HETATM   43  C   UNL     1      -7.863   4.870  65.171  1.00  0.00    -0.092 A  
HETATM   44  C   UNL     1      -6.411   6.010  66.776  1.00  0.00    -0.050 C  
HETATM   45  C   UNL     1      -6.820   7.517  66.762  1.00  0.00    -0.070 C  
ENDBRANCH  27  28
ENDBRANCH  16  24
TORSDOF 2
ENDMDL
MODEL       48
REMARK 921   NORMALIZED FREE ENERGY PREDICTED BY IDOCK:   -5.07 KCAL/MOL
REMARK 922        TOTAL FREE ENERGY PREDICTED BY IDOCK:   -6.85 KCAL/MOL
REMARK 923 INTER-LIGAND FREE ENERGY PREDICTED BY IDOCK:   -6.16 KCAL/MOL
REMARK 924 INTRA-LIGAND FREE ENERGY PREDICTED BY IDOCK:   -0.69 KCAL/MOL
REMARK 927      BINDING AFFINITY PREDICTED BY RF-SCORE:    0.00 PKD
ROOT
HETATM    1  C   UNL     1      -9.860   4.064  71.249  1.00  0.00    -0.172 C  
HETATM    2  C   UNL     1     -10.441   3.764  72.639  1.00  0.00    -0.194 C  
HETATM    3  C   UNL     1     -10.154   2.238  72.840  1.00  0.00    -0.206 C  
HETATM    4  C   UNL     1      -9.599   1.730  71.515  1.00  0.00    -0.130 C  
HETATM    5  N   UNL     1      -9.887   2.792  70.570  1.00  0.00     0.020 N  
HETATM    6  C   UNL     1      -9.294   2.687  69.335  1.00  0.00    -0.113 C  
HETATM    7  O   UNL     1      -9.194   1.599  68.774  1.00  0.00    -0.116 OA 
HETATM    8  C   UNL     1      -8.936   4.047  68.688  1.00  0.00    -0.117 C  
HETATM    9  N   UNL     1      -8.513   5.126  69.779  1.00  0.00    -0.095 N  
HETATM   10  C   UNL     1      -8.014   3.809  67.501  1.00  0.00    -0.089 C  
HETATM   11  C   UNL     1      -6.663   3.308  67.974  1.00  0.00    -0.045 C  
HETATM   12  C   UNL     1      -8.092   6.444  69.577  1.00  0.00    -0.118 C  
HETATM   13  C   UNL     1      -8.722   3.115  66.323  1.00  0.00    -0.131 C  
HETATM   14  O   UNL     1      -7.046   6.902  70.038  1.00  0.00    -0.070 OA 
HETATM   15  C   UNL     1      -5.635   3.392  66.870  1.00  0.00    -0.022 C  
HETATM   16  C   UNL     1      -9.134   7.125  68.699  1.00  0.00    -0.133 C  
HETATM   17  H   UNL     1      -9.644   7.264  70.948  1.00  0.00     0.000 HD 
HETATM   18  C   UNL     1      -8.213   7.044  67.376  1.00  0.00    -0.119 C  
HETATM   19  O   UNL     1     -10.267   6.121  69.205  1.00  0.00    -0.173 OA 
HETATM   20  O   UNL     1      -9.717   6.452  71.436  1.00  0.00    -0.172 OA 
HETATM   21  C   UNL     1      -9.735   5.465  70.409  1.00  0.00    -0.192 C  
HETATM   22  C   UNL     1      -7.182   8.198  67.221  1.00  0.00    -0.084 C  
HETATM   23  C   UNL     1      -8.847   6.754  66.022  1.00  0.00    -0.150 C  
ENDROOT
BRANCH  16  24
HETATM   24  N   UNL     1      -9.855   8.358  68.558  1.00  0.00    -0.168 N  
HETATM   25  H   UNL     1     -10.407   8.435  67.704  1.00  0.00     0.000 HD 
HETATM   26  O   UNL     1      -9.219   9.610  70.371  1.00  0.00    -0.250 OA 
HETATM   27  C   UNL     1      -9.923   9.456  69.388  1.00  0.00    -0.183 C  
BRANCH  27  28
HETATM   28  C   UNL     1     -11.005  10.429  68.905  1.00  0.00    -0.289 C  
HETATM   29  C   UNL     1     -12.389   9.907  69.365  1.00  0.00     0.776 C  
HETATM   30  N   UNL     1     -12.823  10.425  70.673  1.00  0.00    -0.350 NA 
HETATM   31  C   UNL     1     -11.847  10.163  71.745  1.00  0.00     0.006 C  
HETATM   32  C   UNL     1     -13.150  11.875  70.532  1.00  0.00     0.441 C  
HETATM   33  C   UNL     1     -13.333  12.626  71.910  1.00  0.00    -0.485 C  
HETATM   34  C   UNL     1     -12.521  13.867  72.012  1.00  0.00    -0.198 A  
HETATM   35  C   UNL     1     -12.081  14.628  73.070  1.00  0.00    -0.099 A  
HETATM   36  N   UNL     1     -11.460  15.745  72.557  1.00  0.00    -0.347 NA 
HETATM   37  C   UNL     1     -11.475  15.714  71.180  1.00  0.00    -0.411 A  
HETATM   38  H   UNL     1     -11.046  16.490  73.117  1.00  0.00     0.000 HD 
HETATM   39  C   UNL     1     -10.992  16.570  70.185  1.00  0.00    -0.215 A  
HETATM   40  C   UNL     1     -11.180  16.167  68.849  1.00  0.00    -0.351 A  
HETATM   41  C   UNL     1     -11.717  14.917  68.529  1.00  0.00    -0.338 A  
HETATM   42  C   UNL     1     -12.087  14.043  69.551  1.00  0.00    -0.397 A  
HETATM   43  C   UNL     1     -12.062  14.511  70.856  1.00  0.00    -0.404 A  
HETATM   44  C   UNL     1     -12.269  12.567  69.387  1.00  0.00    -0.117 C  
HETATM   45  C   UNL     1     -10.858  11.902  69.319  1.00  0.00    -0.157 C  
ENDBRANCH  27  28
ENDBRANCH  16  24
TORSDOF 2
ENDMDL
MODEL       49
REMARK 921   NORMALIZED FREE ENERGY PREDICTED BY IDOCK:   -5.04 KCAL/MOL
REMARK 922        TOTAL FREE ENERGY PREDICTED BY IDOCK:   -6.81 KCAL/MOL
REMARK 923 INTER-LIGAND FREE ENERGY PREDICTED BY IDOCK:   -6.02 KCAL/MOL
REMARK 924 INTRA-LIGAND FREE ENERGY PREDICTED BY IDOCK:   -0.80 KCAL/MOL
REMARK 927      BINDING AFFINITY PREDICTED BY RF-SCORE:    0.00 PKD
ROOT
HETATM    1  C   UNL     1      -9.730  10.164  65.288  1.00  0.00    -0.300 C  
HETATM    2  C   UNL     1     -10.734  11.319  65.421  1.00  0.00    -0.291 C  
HETATM    3  C   UNL     1     -10.947  11.798  63.947  1.00  0.00    -0.476 C  
HETATM    4  C   UNL     1      -9.943  11.027  63.098  1.00  0.00    -0.340 C  
HETATM    5  N   UNL     1      -9.028  10.444  64.059  1.00  0.00    -0.210 N  
HETATM    6  C   UNL     1      -8.146   9.509  63.573  1.00  0.00    -0.151 C  
HETATM    7  O   UNL     1      -7.614   9.656  62.476  1.00  0.00    -0.111 OA 
HETATM    8  C   UNL     1      -7.785   8.394  64.584  1.00  0.00    -0.112 C  
HETATM    9  N   UNL     1      -9.014   8.035  65.530  1.00  0.00    -0.065 N  
HETATM   10  C   UNL     1      -7.075   7.265  63.851  1.00  0.00    -0.068 C  
HETATM   11  C   UNL     1      -8.035   6.557  62.913  1.00  0.00    -0.092 C  
HETATM   12  C   UNL     1      -9.082   7.063  66.533  1.00  0.00    -0.156 C  
HETATM   13  C   UNL     1      -5.671   7.662  63.358  1.00  0.00    -0.049 C  
HETATM   14  O   UNL     1      -9.961   6.202  66.587  1.00  0.00    -0.161 OA 
HETATM   15  C   UNL     1      -7.462   5.242  62.441  1.00  0.00    -0.047 C  
HETATM   16  C   UNL     1      -7.893   7.281  67.459  1.00  0.00    -0.112 C  
HETATM   17  H   UNL     1      -9.733   8.538  68.069  1.00  0.00     0.000 HD 
HETATM   18  C   UNL     1      -7.067   6.034  66.851  1.00  0.00    -0.070 C  
HETATM   19  O   UNL     1      -7.825   8.827  67.065  1.00  0.00    -0.094 OA 
HETATM   20  O   UNL     1     -10.098   9.130  67.421  1.00  0.00    -0.197 OA 
HETATM   21  C   UNL     1      -9.101   9.145  66.405  1.00  0.00    -0.170 C  
HETATM   22  C   UNL     1      -7.421   4.650  67.467  1.00  0.00    -0.078 C  
HETATM   23  C   UNL     1      -5.558   6.132  66.674  1.00  0.00    -0.013 C  
ENDROOT
BRANCH  16  24
HETATM   24  N   UNL     1      -7.538   7.302  68.850  1.00  0.00    -0.101 N  
HETATM   25  H   UNL     1      -8.115   6.709  69.446  1.00  0.00     0.000 HD 
HETATM   26  O   UNL     1      -5.859   8.858  68.995  1.00  0.00    -0.039 OA 
HETATM   27  C   UNL     1      -6.544   7.991  69.510  1.00  0.00    -0.038 C  
BRANCH  27  28
HETATM   28  C   UNL     1      -6.426   7.506  70.960  1.00  0.00    -0.039 C  
HETATM   29  C   UNL     1      -6.686   8.703  71.910  1.00  0.00    -0.073 C  
HETATM   30  N   UNL     1      -8.094   8.858  72.312  1.00  0.00    -0.363 NA 
HETATM   31  C   UNL     1      -9.007   8.970  71.163  1.00  0.00    -0.235 C  
HETATM   32  C   UNL     1      -8.457   7.739  73.232  1.00  0.00    -0.178 C  
HETATM   33  C   UNL     1     -10.010   7.607  73.496  1.00  0.00    -0.354 C  
HETATM   34  C   UNL     1     -10.526   6.232  73.271  1.00  0.00    -0.267 A  
HETATM   35  C   UNL     1     -11.779   5.717  73.031  1.00  0.00    -0.037 A  
HETATM   36  N   UNL     1     -11.675   4.344  73.021  1.00  0.00    -0.028 NA 
HETATM   37  C   UNL     1     -10.371   3.958  73.235  1.00  0.00    -0.166 A  
HETATM   38  H   UNL     1     -12.455   3.702  72.874  1.00  0.00     0.000 HD 
HETATM   39  C   UNL     1      -9.727   2.719  73.314  1.00  0.00    -0.149 A  
HETATM   40  C   UNL     1      -8.334   2.735  73.521  1.00  0.00    -0.072 A  
HETATM   41  C   UNL     1      -7.608   3.929  73.529  1.00  0.00    -0.071 A  
HETATM   42  C   UNL     1      -8.272   5.142  73.338  1.00  0.00    -0.111 A  
HETATM   43  C   UNL     1      -9.658   5.133  73.309  1.00  0.00    -0.152 A  
HETATM   44  C   UNL     1      -7.614   6.416  72.910  1.00  0.00    -0.095 C  
HETATM   45  C   UNL     1      -7.318   6.326  71.379  1.00  0.00    -0.085 C  
ENDBRANCH  27  28
ENDBRANCH  16  24
TORSDOF 2
ENDMDL
MODEL       50
REMARK 921   NORMALIZED FREE ENERGY PREDICTED BY IDOCK:   -5.01 KCAL/MOL
REMARK 922        TOTAL FREE ENERGY PREDICTED BY IDOCK:   -6.77 KCAL/MOL
REMARK 923 INTER-LIGAND FREE ENERGY PREDICTED BY IDOCK:   -6.81 KCAL/MOL
REMARK 924 INTRA-LIGAND FREE ENERGY PREDICTED BY IDOCK:    0.04 KCAL/MOL
REMARK 927      BINDING AFFINITY PREDICTED BY RF-SCORE:    0.00 PKD
ROOT
HETATM    1  C   UNL     1      -9.247   3.828  68.278  1.00  0.00    -0.162 C  
HETATM    2  C   UNL     1      -9.338   2.993  66.992  1.00  0.00    -0.159 C  
HETATM    3  C   UNL     1      -9.341   1.516  67.508  1.00  0.00    -0.100 C  
HETATM    4  C   UNL     1      -9.079   1.586  69.008  1.00  0.00    -0.107 C  
HETATM    5  N   UNL     1      -8.623   2.945  69.232  1.00  0.00    -0.063 N  
HETATM    6  C   UNL     1      -8.525   3.347  70.542  1.00  0.00    -0.061 C  
HETATM    7  O   UNL     1      -8.106   2.582  71.407  1.00  0.00    -0.053 OA 
HETATM    8  C   UNL     1      -8.826   4.848  70.767  1.00  0.00    -0.126 C  
HETATM    9  N   UNL     1      -9.939   5.384  69.763  1.00  0.00    -0.202 N  
HETATM   10  C   UNL     1      -9.002   5.106  72.257  1.00  0.00    -0.137 C  
HETATM   11  C   UNL     1     -10.269   4.441  72.761  1.00  0.00    -0.233 C  
HETATM   12  C   UNL     1     -10.495   6.665  69.687  1.00  0.00    -0.213 C  
HETATM   13  C   UNL     1      -7.690   4.962  73.048  1.00  0.00    -0.093 C  
HETATM   14  O   UNL     1     -11.706   6.883  69.712  1.00  0.00    -0.206 OA 
HETATM   15  C   UNL     1     -10.645   4.957  74.130  1.00  0.00    -0.345 C  
HETATM   16  C   UNL     1      -9.341   7.656  69.597  1.00  0.00    -0.156 C  
HETATM   17  H   UNL     1      -9.996   6.870  67.526  1.00  0.00     0.000 HD 
HETATM   18  C   UNL     1      -9.488   8.112  71.140  1.00  0.00    -0.192 C  
HETATM   19  O   UNL     1      -8.390   6.545  68.958  1.00  0.00    -0.115 OA 
HETATM   20  O   UNL     1      -9.984   5.930  67.386  1.00  0.00    -0.127 OA 
HETATM   21  C   UNL     1      -9.267   5.448  68.519  1.00  0.00    -0.111 C  
HETATM   22  C   UNL     1     -10.550   9.218  71.400  1.00  0.00    -0.417 C  
HETATM   23  C   UNL     1      -8.245   8.407  71.968  1.00  0.00    -0.212 C  
ENDROOT
BRANCH  16  24
HETATM   24  N   UNL     1      -8.932   8.847  68.910  1.00  0.00    -0.136 N  
HETATM   25  H   UNL     1      -8.945   9.694  69.478  1.00  0.00     0.000 HD 
HETATM   26  O   UNL     1      -8.587   8.174  66.744  1.00  0.00    -0.125 OA 
HETATM   27  C   UNL     1      -8.523   9.033  67.607  1.00  0.00    -0.117 C  
BRANCH  27  28
HETATM   28  C   UNL     1      -7.975  10.452  67.413  1.00  0.00    -0.107 C  
HETATM   29  C   UNL     1      -7.610  10.647  65.920  1.00  0.00    -0.138 C  
HETATM   30  N   UNL     1      -8.703  11.197  65.101  1.00  0.00    -0.063 NA 
HETATM   31  C   UNL     1      -9.935  10.396  65.177  1.00  0.00    -0.322 C  
HETATM   32  C   UNL     1      -8.917  12.625  65.483  1.00  0.00     0.650 C  
HETATM   33  C   UNL     1     -10.251  13.247  64.906  1.00  0.00    -0.313 C  
HETATM   34  C   UNL     1     -11.084  13.908  65.945  1.00  0.00    -0.291 A  
HETATM   35  C   UNL     1     -12.414  14.257  66.014  1.00  0.00    -0.369 A  
HETATM   36  N   UNL     1     -12.605  14.958  67.184  1.00  0.00    -0.036 NA 
HETATM   37  C   UNL     1     -11.423  15.058  67.884  1.00  0.00    -0.340 A  
HETATM   38  H   UNL     1     -13.496  15.349  67.489  1.00  0.00     0.000 HD 
HETATM   39  C   UNL     1     -11.065  15.643  69.102  1.00  0.00    -0.284 A  
HETATM   40  C   UNL     1      -9.723  15.503  69.508  1.00  0.00    -0.282 A  
HETATM   41  C   UNL     1      -8.819  14.716  68.790  1.00  0.00    -0.166 A  
HETATM   42  C   UNL     1      -9.242  14.056  67.636  1.00  0.00    -0.194 A  
HETATM   43  C   UNL     1     -10.509  14.337  67.148  1.00  0.00    -0.266 A  
HETATM   44  C   UNL     1      -8.546  12.885  67.019  1.00  0.00    -0.171 C  
HETATM   45  C   UNL     1      -8.867  11.617  67.872  1.00  0.00    -0.155 C  
ENDBRANCH  27  28
ENDBRANCH  16  24
TORSDOF 2
ENDMDL
MODEL       51
REMARK 921   NORMALIZED FREE ENERGY PREDICTED BY IDOCK:   -4.99 KCAL/MOL
REMARK 922        TOTAL FREE ENERGY PREDICTED BY IDOCK:   -6.75 KCAL/MOL
REMARK 923 INTER-LIGAND FREE ENERGY PREDICTED BY IDOCK:   -6.26 KCAL/MOL
REMARK 924 INTRA-LIGAND FREE ENERGY PREDICTED BY IDOCK:   -0.49 KCAL/MOL
REMARK 927      BINDING AFFINITY PREDICTED BY RF-SCORE:    0.00 PKD
ROOT
HETATM    1  C   UNL     1     -11.116  12.241  64.928  1.00  0.00    -0.311 C  
HETATM    2  C   UNL     1     -12.129  12.049  63.790  1.00  0.00    -0.599 C  
HETATM    3  C   UNL     1     -12.602  13.505  63.465  1.00  0.00    -0.063 C  
HETATM    4  C   UNL     1     -11.981  14.404  64.528  1.00  0.00    -0.472 C  
HETATM    5  N   UNL     1     -11.505  13.486  65.545  1.00  0.00    -0.301 N  
HETATM    6  C   UNL     1     -10.701  14.021  66.521  1.00  0.00    -0.281 C  
HETATM    7  O   UNL     1     -10.933  15.133  66.990  1.00  0.00    -0.314 OA 
HETATM    8  C   UNL     1      -9.624  13.048  67.058  1.00  0.00    -0.236 C  
HETATM    9  N   UNL     1      -9.093  12.069  65.921  1.00  0.00    -0.111 N  
HETATM   10  C   UNL     1      -8.609  13.828  67.881  1.00  0.00    -0.183 C  
HETATM   11  C   UNL     1      -7.799  14.748  66.986  1.00  0.00    -0.089 C  
HETATM   12  C   UNL     1      -8.104  11.085  66.014  1.00  0.00    -0.110 C  
HETATM   13  C   UNL     1      -9.192  14.359  69.204  1.00  0.00     0.076 C  
HETATM   14  O   UNL     1      -7.136  11.020  65.256  1.00  0.00     0.146 OA 
HETATM   15  C   UNL     1      -6.577  15.267  67.706  1.00  0.00    -0.182 C  
HETATM   16  C   UNL     1      -8.459  10.195  67.198  1.00  0.00    -0.125 C  
HETATM   17  H   UNL     1      -9.457   9.497  65.235  1.00  0.00     0.000 HD 
HETATM   18  C   UNL     1      -7.338  10.857  68.154  1.00  0.00    -0.089 C  
HETATM   19  O   UNL     1     -10.006  10.558  67.053  1.00  0.00    -0.186 OA 
HETATM   20  O   UNL     1     -10.007  10.119  64.774  1.00  0.00    -0.331 OA 
HETATM   21  C   UNL     1     -10.168  11.168  65.723  1.00  0.00    -0.257 C  
HETATM   22  C   UNL     1      -5.910  10.259  68.004  1.00  0.00    -0.041 C  
HETATM   23  C   UNL     1      -7.634  11.082  69.631  1.00  0.00     0.080 C  
ENDROOT
BRANCH  16  24
HETATM   24  N   UNL     1      -8.501   8.817  67.597  1.00  0.00    -0.124 N  
HETATM   25  H   UNL     1      -8.146   8.160  66.903  1.00  0.00     0.000 HD 
HETATM   26  O   UNL     1      -9.537   8.840  69.644  1.00  0.00    -0.167 OA 
HETATM   27  C   UNL     1      -8.943   8.236  68.766  1.00  0.00    -0.144 C  
BRANCH  27  28
HETATM   28  C   UNL     1      -8.573   6.749  68.802  1.00  0.00    -0.123 C  
HETATM   29  C   UNL     1      -9.840   5.927  69.148  1.00  0.00    -0.156 C  
HETATM   30  N   UNL     1     -10.607   5.479  67.974  1.00  0.00    -0.178 NA 
HETATM   31  C   UNL     1     -11.001   6.589  67.091  1.00  0.00    -0.408 C  
HETATM   32  C   UNL     1      -9.824   4.424  67.263  1.00  0.00    -0.162 C  
HETATM   33  C   UNL     1     -10.382   4.074  65.826  1.00  0.00     0.027 C  
HETATM   34  C   UNL     1      -9.340   4.120  64.768  1.00  0.00    -0.164 A  
HETATM   35  C   UNL     1      -9.384   4.243  63.398  1.00  0.00    -0.133 A  
HETATM   36  N   UNL     1      -8.100   4.105  62.921  1.00  0.00    -0.078 NA 
HETATM   37  C   UNL     1      -7.218   3.911  63.961  1.00  0.00    -0.051 A  
HETATM   38  H   UNL     1      -7.838   4.142  61.935  1.00  0.00     0.000 HD 
HETATM   39  C   UNL     1      -5.835   3.725  64.036  1.00  0.00    -0.014 A  
HETATM   40  C   UNL     1      -5.278   3.586  65.322  1.00  0.00    -0.009 A  
HETATM   41  C   UNL     1      -6.050   3.745  66.476  1.00  0.00    -0.024 A  
HETATM   42  C   UNL     1      -7.410   4.039  66.362  1.00  0.00    -0.076 A  
HETATM   43  C   UNL     1      -7.985   4.002  65.101  1.00  0.00    -0.093 A  
HETATM   44  C   UNL     1      -8.248   4.636  67.448  1.00  0.00    -0.101 C  
HETATM   45  C   UNL     1      -7.918   6.160  67.542  1.00  0.00    -0.106 C  
ENDBRANCH  27  28
ENDBRANCH  16  24
TORSDOF 2
ENDMDL
MODEL       52
REMARK 921   NORMALIZED FREE ENERGY PREDICTED BY IDOCK:   -4.88 KCAL/MOL
REMARK 922        TOTAL FREE ENERGY PREDICTED BY IDOCK:   -6.63 KCAL/MOL
REMARK 923 INTER-LIGAND FREE ENERGY PREDICTED BY IDOCK:   -5.83 KCAL/MOL
REMARK 924 INTRA-LIGAND FREE ENERGY PREDICTED BY IDOCK:   -0.80 KCAL/MOL
REMARK 927      BINDING AFFINITY PREDICTED BY RF-SCORE:    0.00 PKD
ROOT
HETATM    1  C   UNL     1      -7.778   8.422  63.964  1.00  0.00    -0.139 C  
HETATM    2  C   UNL     1      -7.958   7.963  62.510  1.00  0.00    -0.149 C  
HETATM    3  C   UNL     1      -7.283   6.551  62.479  1.00  0.00    -0.051 C  
HETATM    4  C   UNL     1      -6.617   6.367  63.837  1.00  0.00    -0.033 C  
HETATM    5  N   UNL     1      -6.623   7.692  64.427  1.00  0.00    -0.048 N  
HETATM    6  C   UNL     1      -6.277   7.771  65.754  1.00  0.00    -0.042 C  
HETATM    7  O   UNL     1      -5.373   7.077  66.212  1.00  0.00    -0.021 OA 
HETATM    8  C   UNL     1      -7.003   8.895  66.531  1.00  0.00    -0.080 C  
HETATM    9  N   UNL     1      -8.483   9.124  65.993  1.00  0.00    -0.126 N  
HETATM   10  C   UNL     1      -6.794   8.688  68.024  1.00  0.00    -0.070 C  
HETATM   11  C   UNL     1      -7.526   7.444  68.492  1.00  0.00    -0.105 C  
HETATM   12  C   UNL     1      -9.450  10.019  66.463  1.00  0.00    -0.175 C  
HETATM   13  C   UNL     1      -5.340   8.937  68.465  1.00  0.00    -0.037 C  
HETATM   14  O   UNL     1     -10.590   9.684  66.782  1.00  0.00    -0.209 OA 
HETATM   15  C   UNL     1      -7.622   7.405  69.999  1.00  0.00    -0.089 C  
HETATM   16  C   UNL     1      -8.805  11.399  66.510  1.00  0.00    -0.187 C  
HETATM   17  H   UNL     1      -9.741  10.929  64.450  1.00  0.00     0.000 HD 
HETATM   18  C   UNL     1      -8.623  11.365  68.114  1.00  0.00    -0.153 C  
HETATM   19  O   UNL     1      -7.769  10.993  65.366  1.00  0.00     0.031 OA 
HETATM   20  O   UNL     1      -9.443  10.149  63.997  1.00  0.00    -0.271 OA 
HETATM   21  C   UNL     1      -8.293   9.766  64.745  1.00  0.00    -0.155 C  
HETATM   22  C   UNL     1      -9.872  11.810  68.927  1.00  0.00    -0.019 C  
HETATM   23  C   UNL     1      -7.374  11.957  68.752  1.00  0.00    -0.105 C  
ENDROOT
BRANCH  16  24
HETATM   24  N   UNL     1      -9.072  12.777  66.210  1.00  0.00    -0.434 N  
HETATM   25  H   UNL     1      -8.242  13.361  66.109  1.00  0.00     0.000 HD 
HETATM   26  O   UNL     1     -11.359  12.947  66.264  1.00  0.00    -0.298 OA 
HETATM   27  C   UNL     1     -10.267  13.440  66.035  1.00  0.00    -0.300 C  
BRANCH  27  28
HETATM   28  C   UNL     1     -10.023  14.859  65.508  1.00  0.00    -0.392 C  
HETATM   29  C   UNL     1     -11.286  15.716  65.777  1.00  0.00    -0.080 C  
HETATM   30  N   UNL     1     -11.265  16.431  67.064  1.00  0.00     0.078 NA 
HETATM   31  C   UNL     1     -11.059  15.534  68.213  1.00  0.00    -0.322 C  
HETATM   32  C   UNL     1     -10.247  17.522  66.991  1.00  0.00    -0.327 C  
HETATM   33  C   UNL     1      -9.903  18.168  68.392  1.00  0.00    -0.380 C  
HETATM   34  C   UNL     1      -8.444  18.217  68.670  1.00  0.00    -0.301 A  
HETATM   35  C   UNL     1      -7.701  18.343  69.822  1.00  0.00     0.820 A  
HETATM   36  N   UNL     1      -6.377  18.448  69.461  1.00  0.00    -0.255 NA 
HETATM   37  C   UNL     1      -6.245  18.377  68.092  1.00  0.00    -0.187 A  
HETATM   38  H   UNL     1      -5.602  18.563  70.115  1.00  0.00     0.000 HD 
HETATM   39  C   UNL     1      -5.152  18.423  67.220  1.00  0.00    -0.139 A  
HETATM   40  C   UNL     1      -5.426  18.281  65.846  1.00  0.00    -0.215 A  
HETATM   41  C   UNL     1      -6.711  17.990  65.380  1.00  0.00     0.003 A  
HETATM   42  C   UNL     1      -7.758  17.843  66.290  1.00  0.00    -0.302 A  
HETATM   43  C   UNL     1      -7.519  18.154  67.620  1.00  0.00    -0.218 A  
HETATM   44  C   UNL     1      -9.047  17.140  66.002  1.00  0.00    -0.140 C  
HETATM   45  C   UNL     1      -8.786  15.601  66.040  1.00  0.00    -0.209 C  
ENDBRANCH  27  28
ENDBRANCH  16  24
TORSDOF 2
ENDMDL
MODEL       53
REMARK 921   NORMALIZED FREE ENERGY PREDICTED BY IDOCK:   -4.87 KCAL/MOL
REMARK 922        TOTAL FREE ENERGY PREDICTED BY IDOCK:   -6.62 KCAL/MOL
REMARK 923 INTER-LIGAND FREE ENERGY PREDICTED BY IDOCK:   -6.18 KCAL/MOL
REMARK 924 INTRA-LIGAND FREE ENERGY PREDICTED BY IDOCK:   -0.43 KCAL/MOL
REMARK 927      BINDING AFFINITY PREDICTED BY RF-SCORE:    0.00 PKD
ROOT
HETATM    1  C   UNL     1     -10.087  14.533  68.069  1.00  0.00    -0.226 C  
HETATM    2  C   UNL     1      -9.976  15.659  69.107  1.00  0.00    -0.244 C  
HETATM    3  C   UNL     1     -10.622  16.891  68.389  1.00  0.00    -0.365 C  
HETATM    4  C   UNL     1     -10.896  16.455  66.955  1.00  0.00    -0.145 C  
HETATM    5  N   UNL     1     -10.148  15.222  66.802  1.00  0.00    -0.252 N  
HETATM    6  C   UNL     1     -10.397  14.494  65.664  1.00  0.00    -0.349 C  
HETATM    7  O   UNL     1     -10.570  15.053  64.584  1.00  0.00    -0.348 OA 
HETATM    8  C   UNL     1     -10.273  12.963  65.852  1.00  0.00    -0.290 C  
HETATM    9  N   UNL     1     -10.735  12.507  67.306  1.00  0.00    -0.230 N  
HETATM   10  C   UNL     1     -10.872  12.260  64.643  1.00  0.00    -0.349 C  
HETATM   11  C   UNL     1     -12.375  12.462  64.605  1.00  0.00    -0.518 C  
HETATM   12  C   UNL     1     -10.799  11.213  67.831  1.00  0.00    -0.235 C  
HETATM   13  C   UNL     1     -10.037  12.453  63.364  1.00  0.00    -0.156 C  
HETATM   14  O   UNL     1     -11.809  10.739  68.352  1.00  0.00    -0.478 OA 
HETATM   15  C   UNL     1     -13.027  11.509  63.632  1.00  0.00     0.167 C  
HETATM   16  C   UNL     1      -9.440  10.563  67.603  1.00  0.00    -0.149 C  
HETATM   17  H   UNL     1      -9.534  11.745  69.585  1.00  0.00     0.000 HD 
HETATM   18  C   UNL     1      -9.970   9.666  66.369  1.00  0.00    -0.323 C  
HETATM   19  O   UNL     1      -8.723  11.988  67.582  1.00  0.00    -0.152 OA 
HETATM   20  O   UNL     1      -9.768  12.665  69.540  1.00  0.00     0.832 OA 
HETATM   21  C   UNL     1      -9.685  12.948  68.147  1.00  0.00    -0.227 C  
HETATM   22  C   UNL     1     -10.653   8.329  66.773  1.00  0.00    -0.226 C  
HETATM   23  C   UNL     1      -9.072   9.424  65.163  1.00  0.00    -0.280 C  
ENDROOT
BRANCH  16  24
HETATM   24  N   UNL     1      -8.465   9.735  68.254  1.00  0.00    -0.114 N  
HETATM   25  H   UNL     1      -8.535   8.742  68.036  1.00  0.00     0.000 HD 
HETATM   26  O   UNL     1      -7.306  11.172  69.616  1.00  0.00    -0.085 OA 
HETATM   27  C   UNL     1      -7.449  10.065  69.124  1.00  0.00    -0.092 C  
BRANCH  27  28
HETATM   28  C   UNL     1      -6.537   8.857  69.368  1.00  0.00    -0.045 C  
HETATM   29  C   UNL     1      -6.146   8.821  70.867  1.00  0.00    -0.040 C  
HETATM   30  N   UNL     1      -7.054   8.023  71.707  1.00  0.00    -0.069 NA 
HETATM   31  C   UNL     1      -8.457   8.455  71.604  1.00  0.00    -0.163 C  
HETATM   32  C   UNL     1      -6.869   6.578  71.377  1.00  0.00    -0.063 C  
HETATM   33  C   UNL     1      -7.988   5.637  71.978  1.00  0.00    -0.107 C  
HETATM   34  C   UNL     1      -8.600   4.738  70.966  1.00  0.00    -0.126 A  
HETATM   35  C   UNL     1      -9.784   4.038  70.911  1.00  0.00    -0.187 A  
HETATM   36  N   UNL     1      -9.768   3.270  69.768  1.00  0.00    -0.072 NA 
HETATM   37  C   UNL     1      -8.598   3.472  69.069  1.00  0.00    -0.082 A  
HETATM   38  H   UNL     1     -10.517   2.641  69.478  1.00  0.00     0.000 HD 
HETATM   39  C   UNL     1      -8.083   2.964  67.873  1.00  0.00    -0.076 A  
HETATM   40  C   UNL     1      -6.828   3.450  67.460  1.00  0.00    -0.050 A  
HETATM   41  C   UNL     1      -6.178   4.478  68.147  1.00  0.00    -0.036 A  
HETATM   42  C   UNL     1      -6.774   5.038  69.278  1.00  0.00    -0.052 A  
HETATM   43  C   UNL     1      -7.921   4.440  69.778  1.00  0.00    -0.056 A  
HETATM   44  C   UNL     1      -6.428   6.375  69.851  1.00  0.00    -0.047 C  
HETATM   45  C   UNL     1      -7.075   7.477  68.954  1.00  0.00    -0.080 C  
ENDBRANCH  27  28
ENDBRANCH  16  24
TORSDOF 2
ENDMDL
MODEL       54
REMARK 921   NORMALIZED FREE ENERGY PREDICTED BY IDOCK:   -4.77 KCAL/MOL
REMARK 922        TOTAL FREE ENERGY PREDICTED BY IDOCK:   -6.51 KCAL/MOL
REMARK 923 INTER-LIGAND FREE ENERGY PREDICTED BY IDOCK:   -6.42 KCAL/MOL
REMARK 924 INTRA-LIGAND FREE ENERGY PREDICTED BY IDOCK:   -0.09 KCAL/MOL
REMARK 927      BINDING AFFINITY PREDICTED BY RF-SCORE:    0.00 PKD
ROOT
HETATM    1  C   UNL     1     -10.177  14.501  68.215  1.00  0.00    -0.234 C  
HETATM    2  C   UNL     1     -10.088  15.611  69.273  1.00  0.00    -0.258 C  
HETATM    3  C   UNL     1     -10.589  16.886  68.517  1.00  0.00    -0.367 C  
HETATM    4  C   UNL     1     -10.760  16.478  67.059  1.00  0.00    -0.191 C  
HETATM    5  N   UNL     1     -10.081  15.201  66.957  1.00  0.00    -0.241 N  
HETATM    6  C   UNL     1     -10.272  14.499  65.792  1.00  0.00    -0.335 C  
HETATM    7  O   UNL     1     -10.313  15.075  64.708  1.00  0.00    -0.349 OA 
HETATM    8  C   UNL     1     -10.262  12.961  65.971  1.00  0.00    -0.284 C  
HETATM    9  N   UNL     1     -10.880  12.526  67.372  1.00  0.00    -0.234 N  
HETATM   10  C   UNL     1     -10.793  12.306  64.705  1.00  0.00    -0.349 C  
HETATM   11  C   UNL     1     -12.271  12.604  64.537  1.00  0.00    -0.514 C  
HETATM   12  C   UNL     1     -11.071  11.235  67.873  1.00  0.00    -0.267 C  
HETATM   13  C   UNL     1      -9.837  12.455  63.507  1.00  0.00    -0.003 C  
HETATM   14  O   UNL     1     -12.151  10.823  68.297  1.00  0.00    -0.496 OA 
HETATM   15  C   UNL     1     -12.893  11.701  63.498  1.00  0.00    -0.189 C  
HETATM   16  C   UNL     1      -9.741  10.501  67.758  1.00  0.00    -0.160 C  
HETATM   17  H   UNL     1      -9.937  11.673  69.739  1.00  0.00     0.000 HD 
HETATM   18  C   UNL     1     -10.213   9.648  66.471  1.00  0.00    -0.294 C  
HETATM   19  O   UNL     1      -8.936  11.878  67.819  1.00  0.00    -0.160 OA 
HETATM   20  O   UNL     1     -10.108  12.607  69.685  1.00  0.00     0.764 OA 
HETATM   21  C   UNL     1      -9.882  12.893  68.309  1.00  0.00    -0.228 C  
HETATM   22  C   UNL     1     -11.012   8.355  66.797  1.00  0.00     0.420 C  
HETATM   23  C   UNL     1      -9.228   9.358  65.346  1.00  0.00    -0.305 C  
ENDROOT
BRANCH  16  24
HETATM   24  N   UNL     1      -8.881   9.609  68.483  1.00  0.00    -0.123 N  
HETATM   25  H   UNL     1      -7.912   9.598  68.165  1.00  0.00     0.000 HD 
HETATM   26  O   UNL     1     -10.274   8.531  69.952  1.00  0.00    -0.194 OA 
HETATM   27  C   UNL     1      -9.151   8.765  69.538  1.00  0.00    -0.146 C  
BRANCH  27  28
HETATM   28  C   UNL     1      -7.852   8.186  70.109  1.00  0.00    -0.098 C  
HETATM   29  C   UNL     1      -7.416   9.040  71.326  1.00  0.00    -0.069 C  
HETATM   30  N   UNL     1      -7.936   8.558  72.617  1.00  0.00    -0.346 NA 
HETATM   31  C   UNL     1      -9.403   8.438  72.634  1.00  0.00    -0.264 C  
HETATM   32  C   UNL     1      -7.247   7.278  72.964  1.00  0.00    -0.072 C  
HETATM   33  C   UNL     1      -7.920   6.495  74.161  1.00  0.00    -0.119 C  
HETATM   34  C   UNL     1      -8.200   5.071  73.844  1.00  0.00    -0.105 A  
HETATM   35  C   UNL     1      -9.047   4.128  74.381  1.00  0.00    -0.099 A  
HETATM   36  N   UNL     1      -8.796   2.929  73.753  1.00  0.00    -0.075 NA 
HETATM   37  C   UNL     1      -7.809   3.080  72.804  1.00  0.00    -0.062 A  
HETATM   38  H   UNL     1      -9.273   2.052  73.961  1.00  0.00     0.000 HD 
HETATM   39  C   UNL     1      -7.191   2.210  71.901  1.00  0.00    -0.038 A  
HETATM   40  C   UNL     1      -6.218   2.762  71.046  1.00  0.00    -0.019 A  
HETATM   41  C   UNL     1      -5.963   4.136  71.016  1.00  0.00    -0.014 A  
HETATM   42  C   UNL     1      -6.678   4.989  71.857  1.00  0.00    -0.048 A  
HETATM   43  C   UNL     1      -7.506   4.424  72.814  1.00  0.00    -0.080 A  
HETATM   44  C   UNL     1      -6.823   6.464  71.652  1.00  0.00    -0.067 C  
HETATM   45  C   UNL     1      -7.863   6.702  70.511  1.00  0.00    -0.106 C  
ENDBRANCH  27  28
ENDBRANCH  16  24
TORSDOF 2
ENDMDL
MODEL       55
REMARK 921   NORMALIZED FREE ENERGY PREDICTED BY IDOCK:   -4.57 KCAL/MOL
REMARK 922        TOTAL FREE ENERGY PREDICTED BY IDOCK:   -6.28 KCAL/MOL
REMARK 923 INTER-LIGAND FREE ENERGY PREDICTED BY IDOCK:   -5.20 KCAL/MOL
REMARK 924 INTRA-LIGAND FREE ENERGY PREDICTED BY IDOCK:   -1.08 KCAL/MOL
REMARK 927      BINDING AFFINITY PREDICTED BY RF-SCORE:    0.00 PKD
ROOT
HETATM    1  C   UNL     1      -6.602  13.392  69.454  1.00  0.00    -0.075 C  
HETATM    2  C   UNL     1      -5.556  12.855  70.442  1.00  0.00    -0.162 C  
HETATM    3  C   UNL     1      -5.159  14.113  71.284  1.00  0.00    -0.137 C  
HETATM    4  C   UNL     1      -5.852  15.301  70.629  1.00  0.00    -0.041 C  
HETATM    5  N   UNL     1      -6.297  14.798  69.343  1.00  0.00    -0.115 N  
HETATM    6  C   UNL     1      -7.151  15.607  68.634  1.00  0.00    -0.127 C  
HETATM    7  O   UNL     1      -6.992  16.824  68.610  1.00  0.00    -0.161 OA 
HETATM    8  C   UNL     1      -8.182  14.838  67.773  1.00  0.00    -0.159 C  
HETATM    9  N   UNL     1      -8.632  13.477  68.466  1.00  0.00    -0.133 N  
HETATM   10  C   UNL     1      -9.256  15.804  67.296  1.00  0.00    -0.217 C  
HETATM   11  C   UNL     1     -10.098  16.277  68.467  1.00  0.00    -0.239 C  
HETATM   12  C   UNL     1      -9.566  12.540  68.014  1.00  0.00    -0.212 C  
HETATM   13  C   UNL     1      -8.733  16.820  66.265  1.00  0.00    -0.342 C  
HETATM   14  O   UNL     1     -10.512  12.141  68.693  1.00  0.00    -0.228 OA 
HETATM   15  C   UNL     1     -11.363  16.951  67.989  1.00  0.00     0.073 C  
HETATM   16  C   UNL     1      -9.187  12.174  66.584  1.00  0.00    -0.206 C  
HETATM   17  H   UNL     1      -8.109  10.861  68.151  1.00  0.00     0.000 HD 
HETATM   18  C   UNL     1     -10.363  13.073  65.940  1.00  0.00    -0.296 C  
HETATM   19  O   UNL     1      -7.659  12.551  66.856  1.00  0.00    -0.063 OA 
HETATM   20  O   UNL     1      -7.585  11.301  68.810  1.00  0.00    -0.116 OA 
HETATM   21  C   UNL     1      -7.504  12.634  68.317  1.00  0.00    -0.123 C  
HETATM   22  C   UNL     1     -11.751  12.378  65.856  1.00  0.00    -0.476 C  
HETATM   23  C   UNL     1     -10.112  13.846  64.652  1.00  0.00    -0.144 C  
ENDROOT
BRANCH  16  24
HETATM   24  N   UNL     1      -9.075  11.047  65.703  1.00  0.00    -0.203 N  
HETATM   25  H   UNL     1      -8.887  11.283  64.729  1.00  0.00     0.000 HD 
HETATM   26  O   UNL     1      -9.549   9.232  67.024  1.00  0.00    -0.154 OA 
HETATM   27  C   UNL     1      -9.180   9.697  65.958  1.00  0.00    -0.182 C  
BRANCH  27  28
HETATM   28  C   UNL     1      -8.759   8.883  64.729  1.00  0.00    -0.162 C  
HETATM   29  C   UNL     1      -7.343   9.334  64.292  1.00  0.00    -0.106 C  
HETATM   30  N   UNL     1      -6.250   8.558  64.902  1.00  0.00    -0.060 NA 
HETATM   31  C   UNL     1      -6.303   8.554  66.373  1.00  0.00    -0.058 C  
HETATM   32  C   UNL     1      -6.253   7.183  64.319  1.00  0.00    -0.037 C  
HETATM   33  C   UNL     1      -5.337   6.157  65.098  1.00  0.00    -0.017 C  
HETATM   34  C   UNL     1      -6.043   4.901  65.460  1.00  0.00    -0.033 A  
HETATM   35  C   UNL     1      -5.809   3.916  66.393  1.00  0.00    -0.023 A  
HETATM   36  N   UNL     1      -6.738   2.919  66.195  1.00  0.00    -0.046 NA 
HETATM   37  C   UNL     1      -7.583   3.247  65.159  1.00  0.00    -0.080 A  
HETATM   38  H   UNL     1      -6.793   2.059  66.741  1.00  0.00     0.000 HD 
HETATM   39  C   UNL     1      -8.676   2.612  64.561  1.00  0.00    -0.100 A  
HETATM   40  C   UNL     1      -9.320   3.300  63.514  1.00  0.00    -0.097 A  
HETATM   41  C   UNL     1      -8.962   4.604  63.165  1.00  0.00    -0.117 A  
HETATM   42  C   UNL     1      -7.936   5.248  63.858  1.00  0.00    -0.105 A  
HETATM   43  C   UNL     1      -7.194   4.508  64.765  1.00  0.00    -0.063 A  
HETATM   44  C   UNL     1      -7.728   6.729  63.892  1.00  0.00    -0.112 C  
HETATM   45  C   UNL     1      -8.784   7.351  64.860  1.00  0.00     0.250 C  
ENDBRANCH  27  28
ENDBRANCH  16  24
TORSDOF 2
ENDMDL
MODEL       56
REMARK 921   NORMALIZED FREE ENERGY PREDICTED BY IDOCK:   -4.56 KCAL/MOL
REMARK 922        TOTAL FREE ENERGY PREDICTED BY IDOCK:   -6.27 KCAL/MOL
REMARK 923 INTER-LIGAND FREE ENERGY PREDICTED BY IDOCK:   -5.73 KCAL/MOL
REMARK 924 INTRA-LIGAND FREE ENERGY PREDICTED BY IDOCK:   -0.54 KCAL/MOL
REMARK 927      BINDING AFFINITY PREDICTED BY RF-SCORE:    0.00 PKD
ROOT
HETATM    1  C   UNL     1      -9.028   3.795  66.254  1.00  0.00    -0.136 C  
HETATM    2  C   UNL     1      -9.471   3.129  64.943  1.00  0.00    -0.143 C  
HETATM    3  C   UNL     1      -9.198   1.607  65.189  1.00  0.00    -0.078 C  
HETATM    4  C   UNL     1      -8.468   1.515  66.524  1.00  0.00    -0.096 C  
HETATM    5  N   UNL     1      -8.064   2.878  66.811  1.00  0.00    -0.083 N  
HETATM    6  C   UNL     1      -7.576   3.116  68.073  1.00  0.00    -0.057 C  
HETATM    7  O   UNL     1      -6.844   2.302  68.630  1.00  0.00    -0.038 OA 
HETATM    8  C   UNL     1      -7.896   4.528  68.619  1.00  0.00    -0.075 C  
HETATM    9  N   UNL     1      -9.312   5.050  68.111  1.00  0.00    -0.120 N  
HETATM   10  C   UNL     1      -7.597   4.568  70.111  1.00  0.00    -0.053 C  
HETATM   11  C   UNL     1      -8.579   3.695  70.870  1.00  0.00    -0.110 C  
HETATM   12  C   UNL     1      -9.954   6.254  68.418  1.00  0.00    -0.140 C  
HETATM   13  C   UNL     1      -6.091   4.482  70.422  1.00  0.00    -0.021 C  
HETATM   14  O   UNL     1     -11.104   6.319  68.854  1.00  0.00    -0.336 OA 
HETATM   15  C   UNL     1      -8.526   3.980  72.352  1.00  0.00    -0.101 C  
HETATM   16  C   UNL     1      -8.968   7.380  68.136  1.00  0.00    -0.129 C  
HETATM   17  H   UNL     1     -10.201   6.795  66.272  1.00  0.00     0.000 HD 
HETATM   18  C   UNL     1      -8.638   7.612  69.700  1.00  0.00    -0.136 C  
HETATM   19  O   UNL     1      -8.198   6.485  67.063  1.00  0.00    -0.111 OA 
HETATM   20  O   UNL     1     -10.167   5.890  65.986  1.00  0.00     0.005 OA 
HETATM   21  C   UNL     1      -9.088   5.356  66.747  1.00  0.00    -0.116 C  
HETATM   22  C   UNL     1      -9.636   8.538  70.452  1.00  0.00    -0.189 C  
HETATM   23  C   UNL     1      -7.218   7.946  70.138  1.00  0.00    -0.058 C  
ENDROOT
BRANCH  16  24
HETATM   24  N   UNL     1      -8.893   8.691  67.557  1.00  0.00    -0.134 N  
HETATM   25  H   UNL     1      -8.046   9.211  67.787  1.00  0.00     0.000 HD 
HETATM   26  O   UNL     1     -10.902   8.965  66.485  1.00  0.00     0.003 OA 
HETATM   27  C   UNL     1      -9.777   9.362  66.740  1.00  0.00    -0.198 C  
BRANCH  27  28
HETATM   28  C   UNL     1      -9.143  10.650  66.204  1.00  0.00    -0.190 C  
HETATM   29  C   UNL     1     -10.024  11.199  65.053  1.00  0.00    -0.273 C  
HETATM   30  N   UNL     1     -11.056  12.153  65.488  1.00  0.00    -0.307 NA 
HETATM   31  C   UNL     1     -11.941  11.604  66.529  1.00  0.00     0.442 C  
HETATM   32  C   UNL     1     -10.391  13.424  65.906  1.00  0.00    -0.290 C  
HETATM   33  C   UNL     1     -11.344  14.419  66.680  1.00  0.00    -0.359 C  
HETATM   34  C   UNL     1     -10.774  14.893  67.968  1.00  0.00    -0.253 A  
HETATM   35  C   UNL     1     -11.323  15.444  69.103  1.00  0.00    -0.315 A  
HETATM   36  N   UNL     1     -10.290  15.799  69.941  1.00  0.00    -0.310 NA 
HETATM   37  C   UNL     1      -9.078  15.473  69.376  1.00  0.00    -0.280 A  
HETATM   38  H   UNL     1     -10.407  16.242  70.853  1.00  0.00     0.000 HD 
HETATM   39  C   UNL     1      -7.748  15.605  69.789  1.00  0.00     0.003 A  
HETATM   40  C   UNL     1      -6.757  15.110  68.921  1.00  0.00    -0.110 A  
HETATM   41  C   UNL     1      -7.086  14.412  67.755  1.00  0.00    -0.191 A  
HETATM   42  C   UNL     1      -8.427  14.204  67.430  1.00  0.00    -0.214 A  
HETATM   43  C   UNL     1      -9.393  14.841  68.193  1.00  0.00    -0.197 A  
HETATM   44  C   UNL     1      -8.922  13.155  66.486  1.00  0.00    -0.072 C  
HETATM   45  C   UNL     1      -8.877  11.775  67.217  1.00  0.00    -0.167 C  
ENDBRANCH  27  28
ENDBRANCH  16  24
TORSDOF 2
ENDMDL
MODEL       57
REMARK 921   NORMALIZED FREE ENERGY PREDICTED BY IDOCK:   -4.55 KCAL/MOL
REMARK 922        TOTAL FREE ENERGY PREDICTED BY IDOCK:   -6.27 KCAL/MOL
REMARK 923 INTER-LIGAND FREE ENERGY PREDICTED BY IDOCK:   -5.16 KCAL/MOL
REMARK 924 INTRA-LIGAND FREE ENERGY PREDICTED BY IDOCK:   -1.10 KCAL/MOL
REMARK 927      BINDING AFFINITY PREDICTED BY RF-SCORE:    0.00 PKD
ROOT
HETATM    1  C   UNL     1     -10.992  11.731  64.329  1.00  0.00    -0.359 C  
HETATM    2  C   UNL     1     -11.740  12.079  63.034  1.00  0.00    -0.076 C  
HETATM    3  C   UNL     1     -12.403  13.461  63.347  1.00  0.00    -0.343 C  
HETATM    4  C   UNL     1     -12.149  13.732  64.825  1.00  0.00    -0.410 C  
HETATM    5  N   UNL     1     -11.700  12.458  65.354  1.00  0.00    -0.389 N  
HETATM    6  C   UNL     1     -11.189  12.474  66.629  1.00  0.00    -0.307 C  
HETATM    7  O   UNL     1     -11.695  13.172  67.503  1.00  0.00    -0.329 OA 
HETATM    8  C   UNL     1     -10.065  11.438  66.872  1.00  0.00    -0.214 C  
HETATM    9  N   UNL     1      -9.176  11.214  65.571  1.00  0.00    -0.216 N  
HETATM   10  C   UNL     1      -9.366  11.756  68.186  1.00  0.00    -0.190 C  
HETATM   11  C   UNL     1      -8.592  13.056  68.071  1.00  0.00    -0.186 C  
HETATM   12  C   UNL     1      -8.057  10.390  65.414  1.00  0.00    -0.152 C  
HETATM   13  C   UNL     1     -10.257  11.498  69.416  1.00  0.00     0.153 C  
HETATM   14  O   UNL     1      -6.977  10.786  64.978  1.00  0.00     0.030 OA 
HETATM   15  C   UNL     1      -7.628  13.217  69.223  1.00  0.00     0.347 C  
HETATM   16  C   UNL     1      -8.447   8.999  65.897  1.00  0.00    -0.140 C  
HETATM   17  H   UNL     1      -8.945   9.333  63.666  1.00  0.00     0.000 HD 
HETATM   18  C   UNL     1      -7.649   9.155  67.292  1.00  0.00    -0.088 C  
HETATM   19  O   UNL     1      -9.985   9.280  65.576  1.00  0.00    -0.228 OA 
HETATM   20  O   UNL     1      -9.510  10.065  63.444  1.00  0.00    -0.294 OA 
HETATM   21  C   UNL     1     -10.020  10.470  64.711  1.00  0.00    -0.345 C  
HETATM   22  C   UNL     1      -6.133   8.815  67.223  1.00  0.00    -0.055 C  
HETATM   23  C   UNL     1      -8.233   8.575  68.573  1.00  0.00    -0.123 C  
ENDROOT
BRANCH  16  24
HETATM   24  N   UNL     1      -8.310   7.611  65.560  1.00  0.00    -0.134 N  
HETATM   25  H   UNL     1      -8.365   6.971  66.352  1.00  0.00     0.000 HD 
HETATM   26  O   UNL     1      -7.874   7.605  63.307  1.00  0.00    -0.134 OA 
HETATM   27  C   UNL     1      -8.116   7.001  64.339  1.00  0.00    -0.052 C  
BRANCH  27  28
HETATM   28  C   UNL     1      -8.257   5.480  64.470  1.00  0.00    -0.129 C  
HETATM   29  C   UNL     1      -7.079   4.803  63.725  1.00  0.00    -0.049 C  
HETATM   30  N   UNL     1      -5.903   4.542  64.570  1.00  0.00    -0.014 NA 
HETATM   31  C   UNL     1      -5.396   5.753  65.236  1.00  0.00    -0.010 C  
HETATM   32  C   UNL     1      -6.236   3.449  65.533  1.00  0.00    -0.028 C  
HETATM   33  C   UNL     1      -5.179   3.278  66.695  1.00  0.00    -0.012 C  
HETATM   34  C   UNL     1      -5.794   3.266  68.048  1.00  0.00    -0.023 A  
HETATM   35  C   UNL     1      -5.305   3.492  69.314  1.00  0.00    -0.012 A  
HETATM   36  N   UNL     1      -6.316   3.227  70.210  1.00  0.00    -0.027 NA 
HETATM   37  C   UNL     1      -7.461   2.848  69.545  1.00  0.00    -0.044 A  
HETATM   38  H   UNL     1      -6.230   3.301  71.224  1.00  0.00     0.000 HD 
HETATM   39  C   UNL     1      -8.746   2.482  69.958  1.00  0.00    -0.125 A  
HETATM   40  C   UNL     1      -9.680   2.182  68.949  1.00  0.00     0.057 A  
HETATM   41  C   UNL     1      -9.378   2.355  67.595  1.00  0.00    -0.189 A  
HETATM   42  C   UNL     1      -8.118   2.826  67.224  1.00  0.00    -0.078 A  
HETATM   43  C   UNL     1      -7.149   2.953  68.208  1.00  0.00    -0.049 A  
HETATM   44  C   UNL     1      -7.795   3.446  65.901  1.00  0.00    -0.085 C  
HETATM   45  C   UNL     1      -8.353   4.904  65.892  1.00  0.00    -0.114 C  
ENDBRANCH  27  28
ENDBRANCH  16  24
TORSDOF 2
ENDMDL
MODEL       58
REMARK 921   NORMALIZED FREE ENERGY PREDICTED BY IDOCK:   -4.49 KCAL/MOL
REMARK 922        TOTAL FREE ENERGY PREDICTED BY IDOCK:   -6.20 KCAL/MOL
REMARK 923 INTER-LIGAND FREE ENERGY PREDICTED BY IDOCK:   -5.83 KCAL/MOL
REMARK 924 INTRA-LIGAND FREE ENERGY PREDICTED BY IDOCK:   -0.36 KCAL/MOL
REMARK 927      BINDING AFFINITY PREDICTED BY RF-SCORE:    0.00 PKD
ROOT
HETATM    1  C   UNL     1     -11.219  12.521  64.910  1.00  0.00    -0.305 C  
HETATM    2  C   UNL     1     -12.197  12.570  63.727  1.00  0.00    -0.615 C  
HETATM    3  C   UNL     1     -12.377  14.101  63.456  1.00  0.00     0.151 C  
HETATM    4  C   UNL     1     -11.650  14.822  64.584  1.00  0.00    -0.399 C  
HETATM    5  N   UNL     1     -11.399  13.791  65.572  1.00  0.00    -0.304 N  
HETATM    6  C   UNL     1     -10.555  14.125  66.603  1.00  0.00    -0.278 C  
HETATM    7  O   UNL     1     -10.599  15.240  67.117  1.00  0.00    -0.288 OA 
HETATM    8  C   UNL     1      -9.703  12.946  67.131  1.00  0.00    -0.221 C  
HETATM    9  N   UNL     1      -9.311  11.933  65.967  1.00  0.00    -0.226 N  
HETATM   10  C   UNL     1      -8.600  13.489  68.029  1.00  0.00    -0.177 C  
HETATM   11  C   UNL     1      -7.594  14.277  67.211  1.00  0.00    -0.118 C  
HETATM   12  C   UNL     1      -8.526  10.779  66.049  1.00  0.00    -0.169 C  
HETATM   13  C   UNL     1      -9.134  14.063  69.353  1.00  0.00     0.598 C  
HETATM   14  O   UNL     1      -7.553  10.566  65.325  1.00  0.00    -0.141 OA 
HETATM   15  C   UNL     1      -6.331  14.528  68.000  1.00  0.00    -0.162 C  
HETATM   16  C   UNL     1      -9.093   9.922  67.174  1.00  0.00    -0.138 C  
HETATM   17  H   UNL     1     -10.112   9.505  65.143  1.00  0.00     0.000 HD 
HETATM   18  C   UNL     1      -7.914  10.323  68.203  1.00  0.00    -0.109 C  
HETATM   19  O   UNL     1     -10.538  10.574  66.989  1.00  0.00    -0.240 OA 
HETATM   20  O   UNL     1     -10.516  10.238  64.692  1.00  0.00    -0.185 OA 
HETATM   21  C   UNL     1     -10.523  11.258  65.686  1.00  0.00    -0.261 C  
HETATM   22  C   UNL     1      -6.616   9.476  68.077  1.00  0.00    -0.062 C  
HETATM   23  C   UNL     1      -8.230  10.538  69.676  1.00  0.00    -0.031 C  
ENDROOT
BRANCH  16  24
HETATM   24  N   UNL     1      -9.408   8.561  67.503  1.00  0.00    -0.142 N  
HETATM   25  H   UNL     1      -9.620   8.398  68.487  1.00  0.00     0.000 HD 
HETATM   26  O   UNL     1      -9.104   7.408  65.543  1.00  0.00     0.022 OA 
HETATM   27  C   UNL     1      -9.471   7.439  66.706  1.00  0.00    -0.176 C  
BRANCH  27  28
HETATM   28  C   UNL     1     -10.069   6.261  67.483  1.00  0.00    -0.186 C  
HETATM   29  C   UNL     1     -10.680   5.256  66.475  1.00  0.00    -0.221 C  
HETATM   30  N   UNL     1      -9.749   4.203  66.035  1.00  0.00    -0.196 NA 
HETATM   31  C   UNL     1      -8.507   4.743  65.458  1.00  0.00    -0.127 C  
HETATM   32  C   UNL     1      -9.501   3.274  67.177  1.00  0.00    -0.140 C  
HETATM   33  C   UNL     1      -8.293   2.282  66.942  1.00  0.00    -0.091 C  
HETATM   34  C   UNL     1      -7.311   2.281  68.057  1.00  0.00    -0.048 A  
HETATM   35  C   UNL     1      -5.995   1.892  68.163  1.00  0.00    -0.024 A  
HETATM   36  N   UNL     1      -5.625   2.012  69.484  1.00  0.00    -0.017 NA 
HETATM   37  C   UNL     1      -6.675   2.489  70.237  1.00  0.00    -0.033 A  
HETATM   38  H   UNL     1      -4.702   1.781  69.853  1.00  0.00     0.000 HD 
HETATM   39  C   UNL     1      -6.836   2.793  71.592  1.00  0.00    -0.030 A  
HETATM   40  C   UNL     1      -8.088   3.302  71.987  1.00  0.00    -0.063 A  
HETATM   41  C   UNL     1      -9.085   3.602  71.055  1.00  0.00    -0.177 A  
HETATM   42  C   UNL     1      -8.848   3.387  69.697  1.00  0.00    -0.150 A  
HETATM   43  C   UNL     1      -7.685   2.727  69.332  1.00  0.00    -0.045 A  
HETATM   44  C   UNL     1      -9.616   4.028  68.585  1.00  0.00    -0.190 C  
HETATM   45  C   UNL     1      -9.134   5.507  68.444  1.00  0.00    -0.117 C  
ENDBRANCH  27  28
ENDBRANCH  16  24
TORSDOF 2
ENDMDL
MODEL       59
REMARK 921   NORMALIZED FREE ENERGY PREDICTED BY IDOCK:   -4.43 KCAL/MOL
REMARK 922        TOTAL FREE ENERGY PREDICTED BY IDOCK:   -6.13 KCAL/MOL
REMARK 923 INTER-LIGAND FREE ENERGY PREDICTED BY IDOCK:   -5.74 KCAL/MOL
REMARK 924 INTRA-LIGAND FREE ENERGY PREDICTED BY IDOCK:   -0.39 KCAL/MOL
REMARK 927      BINDING AFFINITY PREDICTED BY RF-SCORE:    0.00 PKD
ROOT
HETATM    1  C   UNL     1     -10.864  11.746  64.935  1.00  0.00    -0.298 C  
HETATM    2  C   UNL     1     -11.799  11.310  63.798  1.00  0.00     0.235 C  
HETATM    3  C   UNL     1     -12.490  12.642  63.353  1.00  0.00    -0.474 C  
HETATM    4  C   UNL     1     -12.053  13.704  64.355  1.00  0.00    -0.427 C  
HETATM    5  N   UNL     1     -11.465  12.953  65.447  1.00  0.00    -0.313 N  
HETATM    6  C   UNL     1     -10.786  13.681  66.393  1.00  0.00    -0.281 C  
HETATM    7  O   UNL     1     -11.207  14.771  66.771  1.00  0.00    -0.332 OA 
HETATM    8  C   UNL     1      -9.583  12.937  67.022  1.00  0.00    -0.231 C  
HETATM    9  N   UNL     1      -8.870  11.976  65.972  1.00  0.00    -0.035 N  
HETATM   10  C   UNL     1      -8.731  13.929  67.799  1.00  0.00    -0.187 C  
HETATM   11  C   UNL     1      -8.053  14.900  66.850  1.00  0.00    -0.119 C  
HETATM   12  C   UNL     1      -7.738  11.176  66.157  1.00  0.00    -0.053 C  
HETATM   13  C   UNL     1      -9.430  14.454  69.067  1.00  0.00    -0.042 C  
HETATM   14  O   UNL     1      -6.751  11.213  65.423  1.00  0.00     0.181 OA 
HETATM   15  C   UNL     1      -6.952  15.662  67.548  1.00  0.00    -0.218 C  
HETATM   16  C   UNL     1      -7.980  10.329  67.400  1.00  0.00    -0.107 C  
HETATM   17  H   UNL     1      -8.796   9.336  65.480  1.00  0.00     0.000 HD 
HETATM   18  C   UNL     1      -7.009  11.231  68.322  1.00  0.00    -0.071 C  
HETATM   19  O   UNL     1      -9.561  10.425  67.201  1.00  0.00    -0.160 OA 
HETATM   20  O   UNL     1      -9.425   9.826  64.963  1.00  0.00    -0.252 OA 
HETATM   21  C   UNL     1      -9.780  10.901  65.826  1.00  0.00    -0.224 C  
HETATM   22  C   UNL     1      -5.500  10.864  68.242  1.00  0.00    -0.039 C  
HETATM   23  C   UNL     1      -7.379  11.513  69.771  1.00  0.00     0.374 C  
ENDROOT
BRANCH  16  24
HETATM   24  N   UNL     1      -7.813   8.995  67.903  1.00  0.00    -0.100 N  
HETATM   25  H   UNL     1      -6.884   8.598  67.761  1.00  0.00     0.000 HD 
HETATM   26  O   UNL     1      -9.891   8.402  68.671  1.00  0.00    -0.162 OA 
HETATM   27  C   UNL     1      -8.702   8.163  68.548  1.00  0.00    -0.134 C  
BRANCH  27  28
HETATM   28  C   UNL     1      -7.982   6.921  69.087  1.00  0.00    -0.119 C  
HETATM   29  C   UNL     1      -6.736   7.374  69.889  1.00  0.00    -0.047 C  
HETATM   30  N   UNL     1      -6.986   7.578  71.325  1.00  0.00    -0.050 NA 
HETATM   31  C   UNL     1      -8.078   8.530  71.587  1.00  0.00    -0.150 C  
HETATM   32  C   UNL     1      -7.212   6.248  71.967  1.00  0.00    -0.091 C  
HETATM   33  C   UNL     1      -7.791   6.338  73.435  1.00  0.00    -0.098 C  
HETATM   34  C   UNL     1      -9.001   5.499  73.638  1.00  0.00    -0.124 A  
HETATM   35  C   UNL     1     -10.019   5.510  74.565  1.00  0.00    -0.255 A  
HETATM   36  N   UNL     1     -10.815   4.412  74.329  1.00  0.00    -0.268 NA 
HETATM   37  C   UNL     1     -10.341   3.695  73.253  1.00  0.00    -0.163 A  
HETATM   38  H   UNL     1     -11.641   4.164  74.874  1.00  0.00     0.000 HD 
HETATM   39  C   UNL     1     -10.762   2.531  72.602  1.00  0.00    -0.096 A  
HETATM   40  C   UNL     1     -10.010   2.116  71.487  1.00  0.00    -0.149 A  
HETATM   41  C   UNL     1      -8.963   2.890  70.979  1.00  0.00    -0.162 A  
HETATM   42  C   UNL     1      -8.641   4.102  71.590  1.00  0.00    -0.125 A  
HETATM   43  C   UNL     1      -9.267   4.420  72.786  1.00  0.00    -0.145 A  
HETATM   44  C   UNL     1      -7.865   5.205  70.942  1.00  0.00    -0.096 C  
HETATM   45  C   UNL     1      -8.808   5.949  69.945  1.00  0.00    -0.130 C  
ENDBRANCH  27  28
ENDBRANCH  16  24
TORSDOF 2
ENDMDL
MODEL       60
REMARK 921   NORMALIZED FREE ENERGY PREDICTED BY IDOCK:   -4.42 KCAL/MOL
REMARK 922        TOTAL FREE ENERGY PREDICTED BY IDOCK:   -6.11 KCAL/MOL
REMARK 923 INTER-LIGAND FREE ENERGY PREDICTED BY IDOCK:   -5.64 KCAL/MOL
REMARK 924 INTRA-LIGAND FREE ENERGY PREDICTED BY IDOCK:   -0.47 KCAL/MOL
REMARK 927      BINDING AFFINITY PREDICTED BY RF-SCORE:    0.00 PKD
ROOT
HETATM    1  C   UNL     1     -12.889  13.351  71.469  1.00  0.00    -0.337 C  
HETATM    2  C   UNL     1     -13.713  13.864  72.659  1.00  0.00    -0.582 C  
HETATM    3  C   UNL     1     -14.177  15.287  72.204  1.00  0.00    -0.667 C  
HETATM    4  C   UNL     1     -13.461  15.569  70.888  1.00  0.00    -0.284 C  
HETATM    5  N   UNL     1     -12.433  14.550  70.809  1.00  0.00    -0.328 N  
HETATM    6  C   UNL     1     -11.778  14.436  69.607  1.00  0.00    -0.309 C  
HETATM    7  O   UNL     1     -11.474  15.433  68.958  1.00  0.00    -0.294 OA 
HETATM    8  C   UNL     1     -11.335  12.993  69.262  1.00  0.00    -0.251 C  
HETATM    9  N   UNL     1     -12.370  11.913  69.805  1.00  0.00    -0.135 N  
HETATM   10  C   UNL     1     -10.919  12.934  67.799  1.00  0.00    -0.269 C  
HETATM   11  C   UNL     1     -12.124  13.129  66.899  1.00  0.00    -0.377 C  
HETATM   12  C   UNL     1     -12.331  10.523  69.658  1.00  0.00    -0.075 C  
HETATM   13  C   UNL     1      -9.615  13.702  67.517  1.00  0.00    -0.220 C  
HETATM   14  O   UNL     1     -13.266   9.860  69.209  1.00  0.00     1.359 OA 
HETATM   15  C   UNL     1     -11.807  12.738  65.475  1.00  0.00    -0.466 C  
HETATM   16  C   UNL     1     -10.958  10.055  70.123  1.00  0.00    -0.310 C  
HETATM   17  H   UNL     1     -12.484  10.178  71.853  1.00  0.00     0.000 HD 
HETATM   18  C   UNL     1     -10.417   9.836  68.618  1.00  0.00    -0.233 C  
HETATM   19  O   UNL     1     -10.809  11.327  71.076  1.00  0.00     1.439 OA 
HETATM   20  O   UNL     1     -12.911  11.013  72.007  1.00  0.00    -0.452 OA 
HETATM   21  C   UNL     1     -12.153  11.912  71.204  1.00  0.00     0.120 C  
HETATM   22  C   UNL     1     -10.779   8.464  67.982  1.00  0.00    -0.118 C  
HETATM   23  C   UNL     1      -8.976  10.184  68.268  1.00  0.00    -0.120 C  
ENDROOT
BRANCH  16  24
HETATM   24  N   UNL     1     -10.320   9.021  70.887  1.00  0.00    -0.233 N  
HETATM   25  H   UNL     1      -9.467   8.648  70.471  1.00  0.00     0.000 HD 
HETATM   26  O   UNL     1     -11.731   8.656  72.658  1.00  0.00    -0.325 OA 
HETATM   27  C   UNL     1     -10.672   8.450  72.090  1.00  0.00    -0.337 C  
BRANCH  27  28
HETATM   28  C   UNL     1      -9.548   7.542  72.604  1.00  0.00    -0.220 C  
HETATM   29  C   UNL     1     -10.053   6.783  73.857  1.00  0.00    -0.346 C  
HETATM   30  N   UNL     1     -10.668   5.478  73.563  1.00  0.00    -0.267 NA 
HETATM   31  C   UNL     1     -11.778   5.574  72.600  1.00  0.00    -0.175 C  
HETATM   32  C   UNL     1      -9.600   4.531  73.123  1.00  0.00    -0.130 C  
HETATM   33  C   UNL     1     -10.155   3.195  72.486  1.00  0.00    -0.231 C  
HETATM   34  C   UNL     1      -9.552   2.884  71.164  1.00  0.00    -0.226 A  
HETATM   35  C   UNL     1      -9.936   2.085  70.111  1.00  0.00     0.390 A  
HETATM   36  N   UNL     1      -8.918   2.091  69.184  1.00  0.00    -0.093 NA 
HETATM   37  C   UNL     1      -7.884   2.895  69.611  1.00  0.00    -0.042 A  
HETATM   38  H   UNL     1      -8.928   1.574  68.305  1.00  0.00     0.000 HD 
HETATM   39  C   UNL     1      -6.645   3.250  69.069  1.00  0.00    -0.034 A  
HETATM   40  C   UNL     1      -5.854   4.146  69.814  1.00  0.00    -0.018 A  
HETATM   41  C   UNL     1      -6.331   4.747  70.982  1.00  0.00    -0.019 A  
HETATM   42  C   UNL     1      -7.618   4.451  71.435  1.00  0.00    -0.072 A  
HETATM   43  C   UNL     1      -8.321   3.441  70.797  1.00  0.00    -0.090 A  
HETATM   44  C   UNL     1      -8.402   5.297  72.388  1.00  0.00    -0.118 C  
HETATM   45  C   UNL     1      -8.952   6.534  71.608  1.00  0.00    -0.143 C  
ENDBRANCH  27  28
ENDBRANCH  16  24
TORSDOF 2
ENDMDL
MODEL       61
REMARK 921   NORMALIZED FREE ENERGY PREDICTED BY IDOCK:   -4.35 KCAL/MOL
REMARK 922        TOTAL FREE ENERGY PREDICTED BY IDOCK:   -6.04 KCAL/MOL
REMARK 923 INTER-LIGAND FREE ENERGY PREDICTED BY IDOCK:   -5.81 KCAL/MOL
REMARK 924 INTRA-LIGAND FREE ENERGY PREDICTED BY IDOCK:   -0.23 KCAL/MOL
REMARK 927      BINDING AFFINITY PREDICTED BY RF-SCORE:    0.00 PKD
ROOT
HETATM    1  C   UNL     1     -10.844   6.194  72.059  1.00  0.00    -0.247 C  
HETATM    2  C   UNL     1     -12.367   6.215  72.256  1.00  0.00    -0.106 C  
HETATM    3  C   UNL     1     -12.676   4.828  72.913  1.00  0.00     0.916 C  
HETATM    4  C   UNL     1     -11.369   4.044  72.890  1.00  0.00     0.131 C  
HETATM    5  N   UNL     1     -10.514   4.791  71.987  1.00  0.00    -0.187 N  
HETATM    6  C   UNL     1      -9.191   4.423  71.955  1.00  0.00    -0.129 C  
HETATM    7  O   UNL     1      -8.865   3.240  72.010  1.00  0.00    -0.084 OA 
HETATM    8  C   UNL     1      -8.215   5.593  71.685  1.00  0.00    -0.119 C  
HETATM    9  N   UNL     1      -8.734   6.955  72.326  1.00  0.00    -0.127 N  
HETATM   10  C   UNL     1      -6.794   5.140  71.986  1.00  0.00    -0.061 C  
HETATM   11  C   UNL     1      -6.619   4.907  73.474  1.00  0.00    -0.067 C  
HETATM   12  C   UNL     1      -8.113   8.208  72.324  1.00  0.00    -0.139 C  
HETATM   13  C   UNL     1      -6.271   4.101  70.977  1.00  0.00    -0.015 C  
HETATM   14  O   UNL     1      -7.903   8.864  73.344  1.00  0.00    -0.378 OA 
HETATM   15  C   UNL     1      -5.157   4.794  73.838  1.00  0.00    -0.009 C  
HETATM   16  C   UNL     1      -7.759   8.536  70.879  1.00  0.00    -0.090 C  
HETATM   17  H   UNL     1      -9.896   9.210  71.442  1.00  0.00     0.000 HD 
HETATM   18  C   UNL     1      -6.193   8.197  71.085  1.00  0.00    -0.034 C  
HETATM   19  O   UNL     1      -8.934   7.599  70.341  1.00  0.00    -0.149 OA 
HETATM   20  O   UNL     1     -10.495   8.550  71.772  1.00  0.00    -0.248 OA 
HETATM   21  C   UNL     1      -9.813   7.332  71.490  1.00  0.00    -0.174 C  
HETATM   22  C   UNL     1      -5.340   9.361  71.664  1.00  0.00    -0.065 C  
HETATM   23  C   UNL     1      -5.411   7.507  69.976  1.00  0.00    -0.023 C  
ENDROOT
BRANCH  16  24
HETATM   24  N   UNL     1      -7.769   9.618  69.936  1.00  0.00    -0.124 N  
HETATM   25  H   UNL     1      -6.849   9.901  69.600  1.00  0.00     0.000 HD 
HETATM   26  O   UNL     1      -9.972  10.245  69.801  1.00  0.00    -0.230 OA 
HETATM   27  C   UNL     1      -8.821  10.336  69.409  1.00  0.00    -0.163 C  
BRANCH  27  28
HETATM   28  C   UNL     1      -8.336  11.240  68.270  1.00  0.00    -0.150 C  
HETATM   29  C   UNL     1      -7.557  10.379  67.244  1.00  0.00    -0.095 C  
HETATM   30  N   UNL     1      -8.390   9.835  66.159  1.00  0.00    -0.119 NA 
HETATM   31  C   UNL     1      -9.533   9.049  66.653  1.00  0.00    -0.194 C  
HETATM   32  C   UNL     1      -8.804  10.957  65.263  1.00  0.00    -0.167 C  
HETATM   33  C   UNL     1      -9.945  10.569  64.239  1.00  0.00    -0.398 C  
HETATM   34  C   UNL     1     -11.091  11.514  64.256  1.00  0.00    -0.385 A  
HETATM   35  C   UNL     1     -12.401  11.424  63.844  1.00  0.00     0.331 A  
HETATM   36  N   UNL     1     -12.979  12.664  64.001  1.00  0.00    -0.716 NA 
HETATM   37  C   UNL     1     -12.069  13.556  64.524  1.00  0.00    -0.416 A  
HETATM   38  H   UNL     1     -13.945  12.890  63.764  1.00  0.00     0.000 HD 
HETATM   39  C   UNL     1     -12.130  14.908  64.877  1.00  0.00    -0.275 A  
HETATM   40  C   UNL     1     -10.965  15.478  65.424  1.00  0.00    -0.365 A  
HETATM   41  C   UNL     1      -9.837  14.705  65.713  1.00  0.00    -0.359 A  
HETATM   42  C   UNL     1      -9.852  13.335  65.448  1.00  0.00    -0.128 A  
HETATM   43  C   UNL     1     -10.932  12.814  64.752  1.00  0.00    -0.334 A  
HETATM   44  C   UNL     1      -8.926  12.337  66.067  1.00  0.00     0.060 C  
HETATM   45  C   UNL     1      -9.401  12.067  67.530  1.00  0.00    -0.179 C  
ENDBRANCH  27  28
ENDBRANCH  16  24
TORSDOF 2
ENDMDL
MODEL       62
REMARK 921   NORMALIZED FREE ENERGY PREDICTED BY IDOCK:   -4.28 KCAL/MOL
REMARK 922        TOTAL FREE ENERGY PREDICTED BY IDOCK:   -5.96 KCAL/MOL
REMARK 923 INTER-LIGAND FREE ENERGY PREDICTED BY IDOCK:   -4.90 KCAL/MOL
REMARK 924 INTRA-LIGAND FREE ENERGY PREDICTED BY IDOCK:   -1.07 KCAL/MOL
REMARK 927      BINDING AFFINITY PREDICTED BY RF-SCORE:    0.00 PKD
ROOT
HETATM    1  C   UNL     1     -10.516  14.554  68.572  1.00  0.00    -0.250 C  
HETATM    2  C   UNL     1     -11.245  15.806  69.079  1.00  0.00    -0.319 C  
HETATM    3  C   UNL     1     -10.691  16.953  68.170  1.00  0.00    -0.375 C  
HETATM    4  C   UNL     1      -9.575  16.336  67.337  1.00  0.00    -0.230 C  
HETATM    5  N   UNL     1      -9.304  15.064  67.979  1.00  0.00    -0.183 N  
HETATM    6  C   UNL     1      -8.485  14.198  67.296  1.00  0.00    -0.214 C  
HETATM    7  O   UNL     1      -7.505  14.610  66.681  1.00  0.00     0.283 OA 
HETATM    8  C   UNL     1      -8.820  12.703  67.517  1.00  0.00    -0.186 C  
HETATM    9  N   UNL     1     -10.383  12.471  67.707  1.00  0.00    -0.217 N  
HETATM   10  C   UNL     1      -8.078  11.866  66.486  1.00  0.00     0.006 C  
HETATM   11  C   UNL     1      -8.635  12.122  65.098  1.00  0.00     1.127 C  
HETATM   12  C   UNL     1     -11.065  11.264  67.892  1.00  0.00    -0.267 C  
HETATM   13  C   UNL     1      -6.555  11.848  66.713  1.00  0.00    -0.020 C  
HETATM   14  O   UNL     1     -12.017  10.908  67.198  1.00  0.00    -0.115 OA 
HETATM   15  C   UNL     1      -8.162  11.071  64.121  1.00  0.00     0.361 C  
HETATM   16  C   UNL     1     -10.392  10.534  69.048  1.00  0.00    -0.213 C  
HETATM   17  H   UNL     1     -12.048  11.980  69.758  1.00  0.00     0.000 HD 
HETATM   18  C   UNL     1      -9.626   9.499  68.073  1.00  0.00    -0.155 C  
HETATM   19  O   UNL     1      -9.875  11.913  69.663  1.00  0.00     0.697 OA 
HETATM   20  O   UNL     1     -11.973  12.894  69.508  1.00  0.00    -0.312 OA 
HETATM   21  C   UNL     1     -10.645  12.979  69.002  1.00  0.00    -0.044 C  
HETATM   22  C   UNL     1     -10.462   8.259  67.646  1.00  0.00    -0.303 C  
HETATM   23  C   UNL     1      -8.205   9.057  68.397  1.00  0.00    -0.116 C  
ENDROOT
BRANCH  16  24
HETATM   24  N   UNL     1     -10.693   9.765  70.221  1.00  0.00    -0.279 N  
HETATM   25  H   UNL     1      -9.941   9.152  70.534  1.00  0.00     0.000 HD 
HETATM   26  O   UNL     1     -12.882  10.264  70.693  1.00  0.00    -0.336 OA 
HETATM   27  C   UNL     1     -11.833   9.721  70.995  1.00  0.00    -0.356 C  
BRANCH  27  28
HETATM   28  C   UNL     1     -11.584   8.910  72.272  1.00  0.00    -0.332 C  
HETATM   29  C   UNL     1     -12.716   7.863  72.428  1.00  0.00    -0.081 C  
HETATM   30  N   UNL     1     -12.420   6.560  71.810  1.00  0.00    -0.316 NA 
HETATM   31  C   UNL     1     -12.080   6.668  70.382  1.00  0.00    -0.188 C  
HETATM   32  C   UNL     1     -11.355   5.881  72.608  1.00  0.00    -0.292 C  
HETATM   33  C   UNL     1     -10.726   4.621  71.892  1.00  0.00    -0.026 C  
HETATM   34  C   UNL     1      -9.241   4.656  71.845  1.00  0.00    -0.175 A  
HETATM   35  C   UNL     1      -8.301   4.021  71.065  1.00  0.00    -0.075 A  
HETATM   36  N   UNL     1      -7.057   4.351  71.552  1.00  0.00    -0.041 NA 
HETATM   37  C   UNL     1      -7.171   5.205  72.627  1.00  0.00    -0.092 A  
HETATM   38  H   UNL     1      -6.173   4.012  71.170  1.00  0.00     0.000 HD 
HETATM   39  C   UNL     1      -6.248   5.836  73.467  1.00  0.00    -0.062 A  
HETATM   40  C   UNL     1      -6.767   6.684  74.464  1.00  0.00    -0.088 A  
HETATM   41  C   UNL     1      -8.131   6.978  74.539  1.00  0.00    -0.176 A  
HETATM   42  C   UNL     1      -9.011   6.414  73.613  1.00  0.00    -0.134 A  
HETATM   43  C   UNL     1      -8.521   5.449  72.747  1.00  0.00    -0.116 A  
HETATM   44  C   UNL     1     -10.377   6.941  73.305  1.00  0.00    -0.315 C  
HETATM   45  C   UNL     1     -10.224   8.206  72.402  1.00  0.00    -0.368 C  
ENDBRANCH  27  28
ENDBRANCH  16  24
TORSDOF 2
ENDMDL
MODEL       63
REMARK 921   NORMALIZED FREE ENERGY PREDICTED BY IDOCK:   -4.09 KCAL/MOL
REMARK 922        TOTAL FREE ENERGY PREDICTED BY IDOCK:   -5.75 KCAL/MOL
REMARK 923 INTER-LIGAND FREE ENERGY PREDICTED BY IDOCK:   -6.09 KCAL/MOL
REMARK 924 INTRA-LIGAND FREE ENERGY PREDICTED BY IDOCK:    0.34 KCAL/MOL
REMARK 927      BINDING AFFINITY PREDICTED BY RF-SCORE:    0.00 PKD
ROOT
HETATM    1  C   UNL     1     -12.340  14.252  70.641  1.00  0.00    -0.361 C  
HETATM    2  C   UNL     1     -13.225  13.565  71.692  1.00  0.00    -0.449 C  
HETATM    3  C   UNL     1     -13.671  14.739  72.626  1.00  0.00    -0.547 C  
HETATM    4  C   UNL     1     -12.892  15.967  72.171  1.00  0.00    -0.423 C  
HETATM    5  N   UNL     1     -11.856  15.438  71.304  1.00  0.00    -0.341 N  
HETATM    6  C   UNL     1     -11.141  16.359  70.577  1.00  0.00    -0.198 C  
HETATM    7  O   UNL     1     -10.810  17.433  71.071  1.00  0.00     0.824 OA 
HETATM    8  C   UNL     1     -10.676  15.847  69.192  1.00  0.00    -0.259 C  
HETATM    9  N   UNL     1     -11.733  14.845  68.548  1.00  0.00    -0.316 N  
HETATM   10  C   UNL     1     -10.187  17.025  68.362  1.00  0.00    -0.331 C  
HETATM   11  C   UNL     1     -11.347  17.934  68.000  1.00  0.00     0.598 C  
HETATM   12  C   UNL     1     -11.680  14.212  67.302  1.00  0.00    -0.392 C  
HETATM   13  C   UNL     1      -8.874  17.627  68.893  1.00  0.00    -0.124 C  
HETATM   14  O   UNL     1     -12.589  14.266  66.473  1.00  0.00    -0.360 OA 
HETATM   15  C   UNL     1     -10.958  18.903  66.909  1.00  0.00    -0.197 C  
HETATM   16  C   UNL     1     -10.330  13.513  67.204  1.00  0.00    -0.250 C  
HETATM   17  H   UNL     1     -11.941  12.190  68.199  1.00  0.00     0.000 HD 
HETATM   18  C   UNL     1      -9.713  14.635  66.220  1.00  0.00    -0.329 C  
HETATM   19  O   UNL     1     -10.234  13.400  68.793  1.00  0.00    -0.211 OA 
HETATM   20  O   UNL     1     -12.379  12.531  68.970  1.00  0.00    -0.071 OA 
HETATM   21  C   UNL     1     -11.585  13.663  69.312  1.00  0.00    -0.311 C  
HETATM   22  C   UNL     1     -10.038  14.437  64.712  1.00  0.00    -0.138 C  
HETATM   23  C   UNL     1      -8.259  15.061  66.367  1.00  0.00     0.282 C  
ENDROOT
BRANCH  16  24
HETATM   24  N   UNL     1      -9.726  12.286  66.770  1.00  0.00    -0.208 N  
HETATM   25  H   UNL     1     -10.328  11.693  66.198  1.00  0.00     0.000 HD 
HETATM   26  O   UNL     1      -7.666  12.267  67.777  1.00  0.00    -0.117 OA 
HETATM   27  C   UNL     1      -8.466  11.777  66.998  1.00  0.00    -0.175 C  
BRANCH  27  28
HETATM   28  C   UNL     1      -8.223  10.535  66.134  1.00  0.00    -0.151 C  
HETATM   29  C   UNL     1      -6.716  10.459  65.780  1.00  0.00    -0.126 C  
HETATM   30  N   UNL     1      -5.912   9.678  66.734  1.00  0.00    -0.058 NA 
HETATM   31  C   UNL     1      -6.041  10.160  68.119  1.00  0.00    -0.048 C  
HETATM   32  C   UNL     1      -6.265   8.234  66.590  1.00  0.00    -0.054 C  
HETATM   33  C   UNL     1      -5.708   7.321  67.754  1.00  0.00    -0.029 C  
HETATM   34  C   UNL     1      -6.750   6.462  68.372  1.00  0.00    -0.068 A  
HETATM   35  C   UNL     1      -6.846   5.804  69.578  1.00  0.00    -0.061 A  
HETATM   36  N   UNL     1      -8.002   5.056  69.560  1.00  0.00    -0.074 NA 
HETATM   37  C   UNL     1      -8.669   5.230  68.367  1.00  0.00    -0.098 A  
HETATM   38  H   UNL     1      -8.320   4.458  70.322  1.00  0.00     0.000 HD 
HETATM   39  C   UNL     1      -9.862   4.726  67.842  1.00  0.00    -0.191 A  
HETATM   40  C   UNL     1     -10.237   5.175  66.561  1.00  0.00    -0.300 A  
HETATM   41  C   UNL     1      -9.516   6.169  65.893  1.00  0.00     0.025 A  
HETATM   42  C   UNL     1      -8.389   6.728  66.497  1.00  0.00    -0.121 A  
HETATM   43  C   UNL     1      -7.928   6.162  67.675  1.00  0.00    -0.106 A  
HETATM   44  C   UNL     1      -7.784   8.043  66.120  1.00  0.00    -0.087 C  
HETATM   45  C   UNL     1      -8.676   9.182  66.708  1.00  0.00    -0.138 C  
ENDBRANCH  27  28
ENDBRANCH  16  24
TORSDOF 2
ENDMDL
MODEL       64
REMARK 921   NORMALIZED FREE ENERGY PREDICTED BY IDOCK:   -4.03 KCAL/MOL
REMARK 922        TOTAL FREE ENERGY PREDICTED BY IDOCK:   -5.68 KCAL/MOL
REMARK 923 INTER-LIGAND FREE ENERGY PREDICTED BY IDOCK:   -5.16 KCAL/MOL
REMARK 924 INTRA-LIGAND FREE ENERGY PREDICTED BY IDOCK:   -0.52 KCAL/MOL
REMARK 927      BINDING AFFINITY PREDICTED BY RF-SCORE:    0.00 PKD
ROOT
HETATM    1  C   UNL     1      -6.437  12.653  69.338  1.00  0.00    -0.099 C  
HETATM    2  C   UNL     1      -5.365  12.527  70.430  1.00  0.00    -0.134 C  
HETATM    3  C   UNL     1      -5.523  13.844  71.260  1.00  0.00    -0.208 C  
HETATM    4  C   UNL     1      -6.530  14.705  70.507  1.00  0.00    -0.053 C  
HETATM    5  N   UNL     1      -6.644  14.075  69.206  1.00  0.00    -0.116 N  
HETATM    6  C   UNL     1      -7.661  14.524  68.398  1.00  0.00    -0.122 C  
HETATM    7  O   UNL     1      -7.945  15.718  68.347  1.00  0.00    -0.134 OA 
HETATM    8  C   UNL     1      -8.265  13.436  67.478  1.00  0.00    -0.185 C  
HETATM    9  N   UNL     1      -8.263  12.006  68.175  1.00  0.00    -0.155 N  
HETATM   10  C   UNL     1      -9.564  13.954  66.878  1.00  0.00    -0.271 C  
HETATM   11  C   UNL     1     -10.624  14.094  67.954  1.00  0.00    -0.244 C  
HETATM   12  C   UNL     1      -8.755  10.796  67.676  1.00  0.00    -0.126 C  
HETATM   13  C   UNL     1      -9.344  15.089  65.861  1.00  0.00    -0.249 C  
HETATM   14  O   UNL     1      -9.556  10.085  68.284  1.00  0.00    -0.139 OA 
HETATM   15  C   UNL     1     -11.995  14.271  67.346  1.00  0.00    -0.426 C  
HETATM   16  C   UNL     1      -8.139  10.589  66.298  1.00  0.00    -0.142 C  
HETATM   17  H   UNL     1      -6.815   9.750  67.995  1.00  0.00     0.000 HD 
HETATM   18  C   UNL     1      -9.493  11.007  65.524  1.00  0.00    -0.250 C  
HETATM   19  O   UNL     1      -6.879  11.487  66.688  1.00  0.00    -0.134 OA 
HETATM   20  O   UNL     1      -6.546  10.348  68.683  1.00  0.00    -0.051 OA 
HETATM   21  C   UNL     1      -6.900  11.622  68.153  1.00  0.00    -0.068 C  
HETATM   22  C   UNL     1     -10.528   9.860  65.344  1.00  0.00     0.174 C  
HETATM   23  C   UNL     1      -9.416  11.818  64.237  1.00  0.00     0.010 C  
ENDROOT
BRANCH  16  24
HETATM   24  N   UNL     1      -7.551   9.575  65.469  1.00  0.00    -0.102 N  
HETATM   25  H   UNL     1      -7.814   8.620  65.711  1.00  0.00     0.000 HD 
HETATM   26  O   UNL     1      -6.151  10.723  64.060  1.00  0.00     0.010 OA 
HETATM   27  C   UNL     1      -6.690   9.683  64.398  1.00  0.00    -0.111 C  
BRANCH  27  28
HETATM   28  C   UNL     1      -6.526   8.327  63.703  1.00  0.00    -0.072 C  
HETATM   29  C   UNL     1      -5.150   7.729  64.093  1.00  0.00    -0.029 C  
HETATM   30  N   UNL     1      -5.186   6.863  65.283  1.00  0.00    -0.026 NA 
HETATM   31  C   UNL     1      -5.751   7.536  66.463  1.00  0.00    -0.032 C  
HETATM   32  C   UNL     1      -5.905   5.600  64.937  1.00  0.00    -0.021 C  
HETATM   33  C   UNL     1      -6.284   4.717  66.192  1.00  0.00    -0.035 C  
HETATM   34  C   UNL     1      -7.717   4.323  66.218  1.00  0.00    -0.094 A  
HETATM   35  C   UNL     1      -8.564   3.892  67.213  1.00  0.00    -0.102 A  
HETATM   36  N   UNL     1      -9.765   3.557  66.629  1.00  0.00    -0.403 NA 
HETATM   37  C   UNL     1      -9.717   3.779  65.270  1.00  0.00    -0.167 A  
HETATM   38  H   UNL     1     -10.576   3.196  67.131  1.00  0.00     0.000 HD 
HETATM   39  C   UNL     1     -10.637   3.617  64.229  1.00  0.00    -0.208 A  
HETATM   40  C   UNL     1     -10.214   3.993  62.939  1.00  0.00    -0.144 A  
HETATM   41  C   UNL     1      -8.978   4.609  62.724  1.00  0.00    -0.120 A  
HETATM   42  C   UNL     1      -8.130   4.853  63.805  1.00  0.00    -0.112 A  
HETATM   43  C   UNL     1      -8.475   4.327  65.040  1.00  0.00    -0.117 A  
HETATM   44  C   UNL     1      -7.010   5.845  63.804  1.00  0.00    -0.046 C  
HETATM   45  C   UNL     1      -7.621   7.275  63.948  1.00  0.00    -0.110 C  
ENDBRANCH  27  28
ENDBRANCH  16  24
TORSDOF 2
ENDMDL
MODEL       65
REMARK 921   NORMALIZED FREE ENERGY PREDICTED BY IDOCK:   -3.98 KCAL/MOL
REMARK 922        TOTAL FREE ENERGY PREDICTED BY IDOCK:   -5.63 KCAL/MOL
REMARK 923 INTER-LIGAND FREE ENERGY PREDICTED BY IDOCK:   -5.58 KCAL/MOL
REMARK 924 INTRA-LIGAND FREE ENERGY PREDICTED BY IDOCK:   -0.05 KCAL/MOL
REMARK 927      BINDING AFFINITY PREDICTED BY RF-SCORE:    0.00 PKD
ROOT
HETATM    1  C   UNL     1      -9.063  16.026  68.099  1.00  0.00    -0.187 C  
HETATM    2  C   UNL     1      -8.490  17.238  68.849  1.00  0.00    -0.175 C  
HETATM    3  C   UNL     1      -9.046  18.465  68.052  1.00  0.00    -0.308 C  
HETATM    4  C   UNL     1      -9.739  17.896  66.821  1.00  0.00    -0.314 C  
HETATM    5  N   UNL     1      -9.299  16.515  66.762  1.00  0.00    -0.231 N  
HETATM    6  C   UNL     1      -9.952  15.704  65.866  1.00  0.00    -0.351 C  
HETATM    7  O   UNL     1     -10.274  16.122  64.757  1.00  0.00    -0.425 OA 
HETATM    8  C   UNL     1     -10.078  14.231  66.322  1.00  0.00    -0.298 C  
HETATM    9  N   UNL     1     -10.249  14.114  67.900  1.00  0.00    -0.232 N  
HETATM   10  C   UNL     1     -11.076  13.513  65.425  1.00  0.00    -0.302 C  
HETATM   11  C   UNL     1     -12.476  14.047  65.660  1.00  0.00    -0.531 C  
HETATM   12  C   UNL     1     -10.427  12.961  68.671  1.00  0.00    -0.213 C  
HETATM   13  C   UNL     1     -10.557  13.318  63.989  1.00  0.00    -0.217 C  
HETATM   14  O   UNL     1     -11.350  12.814  69.472  1.00  0.00    -0.231 OA 
HETATM   15  C   UNL     1     -13.515  13.136  65.050  1.00  0.00     0.954 C  
HETATM   16  C   UNL     1      -9.314  11.989  68.300  1.00  0.00    -0.197 C  
HETATM   17  H   UNL     1      -8.695  13.442  69.987  1.00  0.00     0.000 HD 
HETATM   18  C   UNL     1     -10.288  11.066  67.403  1.00  0.00    -0.242 C  
HETATM   19  O   UNL     1      -8.366  13.193  67.850  1.00  0.00    -0.145 OA 
HETATM   20  O   UNL     1      -8.754  14.374  69.811  1.00  0.00     0.441 OA 
HETATM   21  C   UNL     1      -8.961  14.420  68.402  1.00  0.00    -0.188 C  
HETATM   22  C   UNL     1     -11.093   9.997  68.195  1.00  0.00    -0.252 C  
HETATM   23  C   UNL     1      -9.774  10.448  66.109  1.00  0.00    -0.262 C  
ENDROOT
BRANCH  16  24
HETATM   24  N   UNL     1      -8.384  11.066  68.885  1.00  0.00    -0.237 N  
HETATM   25  H   UNL     1      -8.635  10.083  68.780  1.00  0.00     0.000 HD 
HETATM   26  O   UNL     1      -6.824  12.393  69.918  1.00  0.00     0.113 OA 
HETATM   27  C   UNL     1      -7.207  11.290  69.565  1.00  0.00    -0.018 C  
BRANCH  27  28
HETATM   28  C   UNL     1      -6.460   9.972  69.796  1.00  0.00    -0.064 C  
HETATM   29  C   UNL     1      -6.545   9.606  71.300  1.00  0.00     0.084 C  
HETATM   30  N   UNL     1      -7.696   8.757  71.648  1.00  0.00    -0.260 NA 
HETATM   31  C   UNL     1      -8.983   9.342  71.239  1.00  0.00    -0.027 C  
HETATM   32  C   UNL     1      -7.475   7.392  71.083  1.00  0.00    -0.077 C  
HETATM   33  C   UNL     1      -8.759   6.471  71.116  1.00  0.00    -0.138 C  
HETATM   34  C   UNL     1      -9.069   5.852  69.801  1.00  0.00    -0.147 A  
HETATM   35  C   UNL     1     -10.206   5.300  69.257  1.00  0.00    -0.231 A  
HETATM   36  N   UNL     1      -9.872   4.771  68.030  1.00  0.00    -0.146 NA 
HETATM   37  C   UNL     1      -8.538   4.985  67.761  1.00  0.00    -0.103 A  
HETATM   38  H   UNL     1     -10.521   4.289  67.408  1.00  0.00     0.000 HD 
HETATM   39  C   UNL     1      -7.704   4.668  66.684  1.00  0.00    -0.091 A  
HETATM   40  C   UNL     1      -6.364   5.095  66.767  1.00  0.00    -0.040 A  
HETATM   41  C   UNL     1      -5.915   5.899  67.818  1.00  0.00    -0.017 A  
HETATM   42  C   UNL     1      -6.805   6.287  68.820  1.00  0.00    -0.070 A  
HETATM   43  C   UNL     1      -8.072   5.723  68.826  1.00  0.00    -0.102 A  
HETATM   44  C   UNL     1      -6.598   7.445  69.743  1.00  0.00    -0.039 C  
HETATM   45  C   UNL     1      -6.899   8.761  68.957  1.00  0.00    -0.059 C  
ENDBRANCH  27  28
ENDBRANCH  16  24
TORSDOF 2
ENDMDL
MODEL       66
REMARK 921   NORMALIZED FREE ENERGY PREDICTED BY IDOCK:   -3.98 KCAL/MOL
REMARK 922        TOTAL FREE ENERGY PREDICTED BY IDOCK:   -5.62 KCAL/MOL
REMARK 923 INTER-LIGAND FREE ENERGY PREDICTED BY IDOCK:   -6.28 KCAL/MOL
REMARK 924 INTRA-LIGAND FREE ENERGY PREDICTED BY IDOCK:    0.66 KCAL/MOL
REMARK 927      BINDING AFFINITY PREDICTED BY RF-SCORE:    0.00 PKD
ROOT
HETATM    1  C   UNL     1      -7.639  16.686  67.020  1.00  0.00    -0.202 C  
HETATM    2  C   UNL     1      -6.641  17.701  66.445  1.00  0.00    -0.278 C  
HETATM    3  C   UNL     1      -7.271  19.088  66.805  1.00  0.00    -0.220 C  
HETATM    4  C   UNL     1      -8.646  18.792  67.393  1.00  0.00    -0.273 C  
HETATM    5  N   UNL     1      -8.891  17.402  67.060  1.00  0.00    -0.228 N  
HETATM    6  C   UNL     1      -9.972  16.811  67.667  1.00  0.00    -0.262 C  
HETATM    7  O   UNL     1     -11.022  17.428  67.824  1.00  0.00    -0.317 OA 
HETATM    8  C   UNL     1      -9.787  15.303  67.961  1.00  0.00    -0.216 C  
HETATM    9  N   UNL     1      -8.276  14.954  68.323  1.00  0.00    -0.139 N  
HETATM   10  C   UNL     1     -10.888  14.837  68.902  1.00  0.00    -0.259 C  
HETATM   11  C   UNL     1     -10.710  15.461  70.273  1.00  0.00    -0.320 C  
HETATM   12  C   UNL     1      -7.733  13.716  68.680  1.00  0.00    -0.107 C  
HETATM   13  C   UNL     1     -12.277  14.823  68.237  1.00  0.00    -0.065 C  
HETATM   14  O   UNL     1      -7.066  13.534  69.698  1.00  0.00     0.091 OA 
HETATM   15  C   UNL     1     -11.567  14.763  71.303  1.00  0.00    -0.314 C  
HETATM   16  C   UNL     1      -8.148  12.712  67.611  1.00  0.00    -0.173 C  
HETATM   17  H   UNL     1      -6.187  13.811  67.079  1.00  0.00     0.000 HD 
HETATM   18  C   UNL     1      -9.282  12.042  68.545  1.00  0.00    -0.116 C  
HETATM   19  O   UNL     1      -8.289  13.874  66.526  1.00  0.00     0.134 OA 
HETATM   20  O   UNL     1      -6.208  14.760  67.044  1.00  0.00    -0.109 OA 
HETATM   21  C   UNL     1      -7.602  15.050  67.082  1.00  0.00    -0.139 C  
HETATM   22  C   UNL     1      -8.767  10.944  69.518  1.00  0.00     0.231 C  
HETATM   23  C   UNL     1     -10.602  11.591  67.935  1.00  0.00    -0.224 C  
ENDROOT
BRANCH  16  24
HETATM   24  N   UNL     1      -7.636  11.621  66.832  1.00  0.00    -0.202 N  
HETATM   25  H   UNL     1      -6.668  11.371  67.032  1.00  0.00     0.000 HD 
HETATM   26  O   UNL     1      -9.333  11.103  65.378  1.00  0.00    -0.212 OA 
HETATM   27  C   UNL     1      -8.239  10.857  65.857  1.00  0.00    -0.133 C  
BRANCH  27  28
HETATM   28  C   UNL     1      -7.349   9.667  65.480  1.00  0.00    -0.106 C  
HETATM   29  C   UNL     1      -6.504   9.264  66.715  1.00  0.00    -0.067 C  
HETATM   30  N   UNL     1      -7.132   8.238  67.564  1.00  0.00    -0.082 NA 
HETATM   31  C   UNL     1      -8.476   8.622  68.026  1.00  0.00    -0.127 C  
HETATM   32  C   UNL     1      -7.122   6.936  66.833  1.00  0.00    -0.075 C  
HETATM   33  C   UNL     1      -8.032   5.825  67.494  1.00  0.00    -0.102 C  
HETATM   34  C   UNL     1      -8.971   5.191  66.533  1.00  0.00    -0.118 A  
HETATM   35  C   UNL     1     -10.140   4.479  66.678  1.00  0.00    -0.209 A  
HETATM   36  N   UNL     1     -10.519   4.032  65.432  1.00  0.00    -0.480 NA 
HETATM   37  C   UNL     1      -9.624   4.457  64.476  1.00  0.00    -0.105 A  
HETATM   38  H   UNL     1     -11.347   3.467  65.244  1.00  0.00     0.000 HD 
HETATM   39  C   UNL     1      -9.537   4.296  63.089  1.00  0.00    -0.098 A  
HETATM   40  C   UNL     1      -8.458   4.925  62.439  1.00  0.00    -0.105 A  
HETATM   41  C   UNL     1      -7.581   5.769  63.125  1.00  0.00    -0.084 A  
HETATM   42  C   UNL     1      -7.764   5.993  64.490  1.00  0.00    -0.100 A  
HETATM   43  C   UNL     1      -8.717   5.238  65.156  1.00  0.00    -0.146 A  
HETATM   44  C   UNL     1      -7.197   7.152  65.248  1.00  0.00    -0.073 C  
HETATM   45  C   UNL     1      -8.048   8.419  64.917  1.00  0.00    -0.149 C  
ENDBRANCH  27  28
ENDBRANCH  16  24
TORSDOF 2
ENDMDL
MODEL       67
REMARK 921   NORMALIZED FREE ENERGY PREDICTED BY IDOCK:   -3.89 KCAL/MOL
REMARK 922        TOTAL FREE ENERGY PREDICTED BY IDOCK:   -5.52 KCAL/MOL
REMARK 923 INTER-LIGAND FREE ENERGY PREDICTED BY IDOCK:   -5.64 KCAL/MOL
REMARK 924 INTRA-LIGAND FREE ENERGY PREDICTED BY IDOCK:    0.12 KCAL/MOL
REMARK 927      BINDING AFFINITY PREDICTED BY RF-SCORE:    0.00 PKD
ROOT
HETATM    1  C   UNL     1      -6.939   4.762  67.695  1.00  0.00    -0.061 C  
HETATM    2  C   UNL     1      -6.457   4.292  66.314  1.00  0.00    -0.041 C  
HETATM    3  C   UNL     1      -5.455   3.136  66.644  1.00  0.00    -0.017 C  
HETATM    4  C   UNL     1      -5.292   3.131  68.159  1.00  0.00    -0.013 C  
HETATM    5  N   UNL     1      -5.871   4.389  68.590  1.00  0.00    -0.024 N  
HETATM    6  C   UNL     1      -6.055   4.544  69.942  1.00  0.00    -0.018 C  
HETATM    7  O   UNL     1      -5.220   4.134  70.744  1.00  0.00     0.000 OA 
HETATM    8  C   UNL     1      -7.289   5.400  70.318  1.00  0.00    -0.067 C  
HETATM    9  N   UNL     1      -8.483   5.200  69.285  1.00  0.00    -0.092 N  
HETATM   10  C   UNL     1      -7.575   5.239  71.804  1.00  0.00    -0.107 C  
HETATM   11  C   UNL     1      -8.054   3.830  72.100  1.00  0.00    -0.076 C  
HETATM   12  C   UNL     1      -9.759   5.771  69.312  1.00  0.00    -0.144 C  
HETATM   13  C   UNL     1      -6.501   5.889  72.695  1.00  0.00    -0.063 C  
HETATM   14  O   UNL     1     -10.799   5.116  69.247  1.00  0.00    -0.057 OA 
HETATM   15  C   UNL     1      -8.665   3.742  73.479  1.00  0.00    -0.086 C  
HETATM   16  C   UNL     1      -9.579   7.278  69.455  1.00  0.00    -0.155 C  
HETATM   17  H   UNL     1      -9.554   6.589  67.250  1.00  0.00     0.000 HD 
HETATM   18  C   UNL     1      -9.977   7.273  71.020  1.00  0.00    -0.188 C  
HETATM   19  O   UNL     1      -8.135   7.205  68.779  1.00  0.00    -0.118 OA 
HETATM   20  O   UNL     1      -8.912   5.935  66.998  1.00  0.00    -0.115 OA 
HETATM   21  C   UNL     1      -8.046   5.889  68.128  1.00  0.00    -0.109 C  
HETATM   22  C   UNL     1     -11.504   7.326  71.310  1.00  0.00    -0.304 C  
HETATM   23  C   UNL     1      -9.251   8.191  71.994  1.00  0.00    -0.253 C  
ENDROOT
BRANCH  16  24
HETATM   24  N   UNL     1     -10.090   8.524  68.960  1.00  0.00    -0.195 N  
HETATM   25  H   UNL     1     -10.974   8.454  68.456  1.00  0.00     0.000 HD 
HETATM   26  O   UNL     1      -8.469  10.061  69.483  1.00  0.00    -0.150 OA 
HETATM   27  C   UNL     1      -9.581   9.801  69.055  1.00  0.00    -0.177 C  
BRANCH  27  28
HETATM   28  C   UNL     1     -10.607  10.827  68.560  1.00  0.00    -0.223 C  
HETATM   29  C   UNL     1     -12.031  10.279  68.830  1.00  0.00     0.264 C  
HETATM   30  N   UNL     1     -12.592  10.678  70.131  1.00  0.00    -0.282 NA 
HETATM   31  C   UNL     1     -11.729  10.307  71.265  1.00  0.00    -0.291 C  
HETATM   32  C   UNL     1     -12.901  12.139  70.094  1.00  0.00     0.415 C  
HETATM   33  C   UNL     1     -13.219  12.761  71.512  1.00  0.00    -0.330 C  
HETATM   34  C   UNL     1     -12.419  13.978  71.809  1.00  0.00    -0.328 A  
HETATM   35  C   UNL     1     -12.085  14.633  72.972  1.00  0.00    -0.099 A  
HETATM   36  N   UNL     1     -11.414  15.785  72.629  1.00  0.00    -0.311 NA 
HETATM   37  C   UNL     1     -11.292  15.883  71.261  1.00  0.00    -0.365 A  
HETATM   38  H   UNL     1     -11.057  16.471  73.295  1.00  0.00     0.000 HD 
HETATM   39  C   UNL     1     -10.711  16.822  70.404  1.00  0.00     0.220 A  
HETATM   40  C   UNL     1     -10.766  16.547  69.024  1.00  0.00    -0.332 A  
HETATM   41  C   UNL     1     -11.270  15.338  68.536  1.00  0.00    -0.308 A  
HETATM   42  C   UNL     1     -11.742  14.377  69.431  1.00  0.00    -0.362 A  
HETATM   43  C   UNL     1     -11.846  14.722  70.769  1.00  0.00    -0.370 A  
HETATM   44  C   UNL     1     -11.909  12.925  69.112  1.00  0.00    -0.353 C  
HETATM   45  C   UNL     1     -10.499  12.254  69.122  1.00  0.00     0.043 C  
ENDBRANCH  27  28
ENDBRANCH  16  24
TORSDOF 2
ENDMDL
MODEL       68
REMARK 921   NORMALIZED FREE ENERGY PREDICTED BY IDOCK:   -3.73 KCAL/MOL
REMARK 922        TOTAL FREE ENERGY PREDICTED BY IDOCK:   -5.35 KCAL/MOL
REMARK 923 INTER-LIGAND FREE ENERGY PREDICTED BY IDOCK:   -5.07 KCAL/MOL
REMARK 924 INTRA-LIGAND FREE ENERGY PREDICTED BY IDOCK:   -0.28 KCAL/MOL
REMARK 927      BINDING AFFINITY PREDICTED BY RF-SCORE:    0.00 PKD
ROOT
HETATM    1  C   UNL     1     -12.053  13.676  69.774  1.00  0.00    -0.334 C  
HETATM    2  C   UNL     1     -13.394  13.709  70.521  1.00  0.00     0.315 C  
HETATM    3  C   UNL     1     -13.512  15.191  71.009  1.00  0.00    -0.493 C  
HETATM    4  C   UNL     1     -12.183  15.858  70.674  1.00  0.00    -0.309 C  
HETATM    5  N   UNL     1     -11.295  14.756  70.358  1.00  0.00    -0.244 N  
HETATM    6  C   UNL     1     -10.083  15.090  69.804  1.00  0.00    -0.087 C  
HETATM    7  O   UNL     1      -9.460  16.073  70.196  1.00  0.00     0.214 OA 
HETATM    8  C   UNL     1      -9.538  14.046  68.800  1.00  0.00    -0.097 C  
HETATM    9  N   UNL     1     -10.710  13.338  67.989  1.00  0.00    -0.235 N  
HETATM   10  C   UNL     1      -8.379  14.655  68.024  1.00  0.00    -0.146 C  
HETATM   11  C   UNL     1      -8.878  15.758  67.109  1.00  0.00    -0.224 C  
HETATM   12  C   UNL     1     -10.610  12.377  66.978  1.00  0.00    -0.225 C  
HETATM   13  C   UNL     1      -7.130  14.885  68.895  1.00  0.00    -0.117 C  
HETATM   14  O   UNL     1     -11.143  12.491  65.875  1.00  0.00    -0.279 OA 
HETATM   15  C   UNL     1      -7.826  16.138  66.093  1.00  0.00     0.164 C  
HETATM   16  C   UNL     1      -9.732  11.250  67.510  1.00  0.00    -0.177 C  
HETATM   17  H   UNL     1     -11.961  10.961  68.043  1.00  0.00     0.000 HD 
HETATM   18  C   UNL     1      -8.447  11.718  66.651  1.00  0.00    -0.153 C  
HETATM   19  O   UNL     1     -10.125  11.606  69.015  1.00  0.00    -0.138 OA 
HETATM   20  O   UNL     1     -12.393  11.656  68.526  1.00  0.00    -0.406 OA 
HETATM   21  C   UNL     1     -11.308  12.479  68.942  1.00  0.00    -0.297 C  
HETATM   22  C   UNL     1      -8.408  11.193  65.187  1.00  0.00     0.190 C  
HETATM   23  C   UNL     1      -7.052  11.622  67.253  1.00  0.00    -0.134 C  
ENDROOT
BRANCH  16  24
HETATM   24  N   UNL     1      -9.636   9.819  67.545  1.00  0.00    -0.147 N  
HETATM   25  H   UNL     1      -9.236   9.439  68.403  1.00  0.00     0.000 HD 
HETATM   26  O   UNL     1     -10.349   9.141  65.473  1.00  0.00     0.255 OA 
HETATM   27  C   UNL     1      -9.998   8.874  66.610  1.00  0.00    -0.276 C  
BRANCH  27  28
HETATM   28  C   UNL     1      -9.905   7.465  67.206  1.00  0.00    -0.230 C  
HETATM   29  C   UNL     1      -9.024   6.587  66.281  1.00  0.00    -0.156 C  
HETATM   30  N   UNL     1      -7.595   6.588  66.632  1.00  0.00    -0.093 NA 
HETATM   31  C   UNL     1      -7.018   7.942  66.677  1.00  0.00    -0.072 C  
HETATM   32  C   UNL     1      -7.414   5.840  67.913  1.00  0.00    -0.078 C  
HETATM   33  C   UNL     1      -5.985   6.023  68.563  1.00  0.00    -0.020 C  
HETATM   34  C   UNL     1      -6.041   6.425  69.993  1.00  0.00    -0.030 A  
HETATM   35  C   UNL     1      -5.141   7.021  70.846  1.00  0.00    -0.023 A  
HETATM   36  N   UNL     1      -5.704   7.045  72.103  1.00  0.00    -0.037 NA 
HETATM   37  C   UNL     1      -6.963   6.488  72.077  1.00  0.00    -0.073 A  
HETATM   38  H   UNL     1      -5.252   7.422  72.936  1.00  0.00     0.000 HD 
HETATM   39  C   UNL     1      -7.948   6.272  73.046  1.00  0.00    -0.107 A  
HETATM   40  C   UNL     1      -9.152   5.685  72.613  1.00  0.00    -0.132 A  
HETATM   41  C   UNL     1      -9.403   5.438  71.260  1.00  0.00    -0.182 A  
HETATM   42  C   UNL     1      -8.438   5.769  70.308  1.00  0.00    -0.128 A  
HETATM   43  C   UNL     1      -7.192   6.182  70.754  1.00  0.00    -0.074 A  
HETATM   44  C   UNL     1      -8.709   5.957  68.849  1.00  0.00    -0.116 C  
HETATM   45  C   UNL     1      -9.392   7.347  68.651  1.00  0.00    -0.139 C  
ENDBRANCH  27  28
ENDBRANCH  16  24
TORSDOF 2
ENDMDL
MODEL       69
REMARK 921   NORMALIZED FREE ENERGY PREDICTED BY IDOCK:   -3.64 KCAL/MOL
REMARK 922        TOTAL FREE ENERGY PREDICTED BY IDOCK:   -5.24 KCAL/MOL
REMARK 923 INTER-LIGAND FREE ENERGY PREDICTED BY IDOCK:   -7.42 KCAL/MOL
REMARK 924 INTRA-LIGAND FREE ENERGY PREDICTED BY IDOCK:    2.17 KCAL/MOL
REMARK 927      BINDING AFFINITY PREDICTED BY RF-SCORE:    0.00 PKD
ROOT
HETATM    1  C   UNL     1      -9.779   4.718  68.040  1.00  0.00    -0.147 C  
HETATM    2  C   UNL     1      -9.904   4.128  66.627  1.00  0.00    -0.210 C  
HETATM    3  C   UNL     1      -9.259   2.709  66.758  1.00  0.00    -0.106 C  
HETATM    4  C   UNL     1      -8.658   2.640  68.157  1.00  0.00    -0.090 C  
HETATM    5  N   UNL     1      -8.661   4.015  68.620  1.00  0.00    -0.094 N  
HETATM    6  C   UNL     1      -8.373   4.211  69.949  1.00  0.00    -0.061 C  
HETATM    7  O   UNL     1      -7.505   3.548  70.511  1.00  0.00    -0.040 OA 
HETATM    8  C   UNL     1      -9.109   5.416  70.585  1.00  0.00    -0.144 C  
HETATM    9  N   UNL     1     -10.558   5.618  69.960  1.00  0.00    -0.301 N  
HETATM   10  C   UNL     1      -8.970   5.345  72.098  1.00  0.00    -0.140 C  
HETATM   11  C   UNL     1      -9.749   4.163  72.645  1.00  0.00    -0.196 C  
HETATM   12  C   UNL     1     -11.525   6.570  70.300  1.00  0.00    -0.411 C  
HETATM   13  C   UNL     1      -7.532   5.609  72.581  1.00  0.00    -0.097 C  
HETATM   14  O   UNL     1     -12.685   6.285  70.596  1.00  0.00     0.375 OA 
HETATM   15  C   UNL     1      -9.912   4.266  74.143  1.00  0.00    -0.193 C  
HETATM   16  C   UNL     1     -10.854   7.937  70.249  1.00  0.00    -0.241 C  
HETATM   17  H   UNL     1     -11.708   7.293  68.201  1.00  0.00     0.000 HD 
HETATM   18  C   UNL     1     -10.744   8.049  71.856  1.00  0.00    -0.311 C  
HETATM   19  O   UNL     1      -9.777   7.408  69.197  1.00  0.00    -0.162 OA 
HETATM   20  O   UNL     1     -11.406   6.469  67.836  1.00  0.00    -0.245 OA 
HETATM   21  C   UNL     1     -10.299   6.138  68.668  1.00  0.00    -0.206 C  
HETATM   22  C   UNL     1     -12.018   8.589  72.566  1.00  0.00    -0.401 C  
HETATM   23  C   UNL     1      -9.512   8.677  72.494  1.00  0.00    -0.247 C  
ENDROOT
BRANCH  16  24
HETATM   24  N   UNL     1     -11.078   9.285  69.811  1.00  0.00    -0.373 N  
HETATM   25  H   UNL     1     -10.302   9.702  69.299  1.00  0.00     0.000 HD 
HETATM   26  O   UNL     1     -13.128   9.841  70.678  1.00  0.00    -0.191 OA 
HETATM   27  C   UNL     1     -12.172  10.108  69.969  1.00  0.00    -0.051 C  
BRANCH  27  28
HETATM   28  C   UNL     1     -12.015  11.379  69.127  1.00  0.00    -0.395 C  
HETATM   29  C   UNL     1     -10.816  12.195  69.673  1.00  0.00     0.246 C  
HETATM   30  N   UNL     1      -9.530  11.878  69.029  1.00  0.00     0.130 NA 
HETATM   31  C   UNL     1      -9.191  10.447  69.103  1.00  0.00    -0.191 C  
HETATM   32  C   UNL     1      -9.553  12.395  67.628  1.00  0.00    -0.193 C  
HETATM   33  C   UNL     1      -8.368  11.860  66.730  1.00  0.00    -0.153 C  
HETATM   34  C   UNL     1      -8.826  11.283  65.440  1.00  0.00    -0.055 A  
HETATM   35  C   UNL     1      -8.259  10.418  64.533  1.00  0.00    -0.131 A  
HETATM   36  N   UNL     1      -9.105  10.327  63.450  1.00  0.00    -0.237 NA 
HETATM   37  C   UNL     1     -10.222  11.108  63.646  1.00  0.00    -0.387 A  
HETATM   38  H   UNL     1      -8.930   9.761  62.620  1.00  0.00     0.000 HD 
HETATM   39  C   UNL     1     -11.367  11.370  62.887  1.00  0.00     0.431 A  
HETATM   40  C   UNL     1     -12.330  12.226  63.457  1.00  0.00    -0.670 A  
HETATM   41  C   UNL     1     -12.206  12.698  64.766  1.00  0.00    -0.528 A  
HETATM   42  C   UNL     1     -11.101  12.327  65.533  1.00  0.00    -0.348 A  
HETATM   43  C   UNL     1     -10.076  11.630  64.912  1.00  0.00    -0.303 A  
HETATM   44  C   UNL     1     -11.037  12.396  67.026  1.00  0.00    -0.327 C  
HETATM   45  C   UNL     1     -11.854  11.199  67.609  1.00  0.00    -0.025 C  
ENDBRANCH  27  28
ENDBRANCH  16  24
TORSDOF 2
ENDMDL
MODEL       70
REMARK 921   NORMALIZED FREE ENERGY PREDICTED BY IDOCK:   -3.62 KCAL/MOL
REMARK 922        TOTAL FREE ENERGY PREDICTED BY IDOCK:   -5.22 KCAL/MOL
REMARK 923 INTER-LIGAND FREE ENERGY PREDICTED BY IDOCK:   -4.40 KCAL/MOL
REMARK 924 INTRA-LIGAND FREE ENERGY PREDICTED BY IDOCK:   -0.82 KCAL/MOL
REMARK 927      BINDING AFFINITY PREDICTED BY RF-SCORE:    0.00 PKD
ROOT
HETATM    1  C   UNL     1      -6.422  16.958  70.078  1.00  0.00     0.155 C  
HETATM    2  C   UNL     1      -5.342  17.111  71.158  1.00  0.00    -0.013 C  
HETATM    3  C   UNL     1      -5.129  18.658  71.256  1.00  0.00    -0.265 C  
HETATM    4  C   UNL     1      -5.950  19.274  70.130  1.00  0.00    -0.235 C  
HETATM    5  N   UNL     1      -6.296  18.152  69.278  1.00  0.00    -0.250 N  
HETATM    6  C   UNL     1      -7.227  18.395  68.298  1.00  0.00    -0.263 C  
HETATM    7  O   UNL     1      -7.223  19.452  67.672  1.00  0.00    -0.227 OA 
HETATM    8  C   UNL     1      -8.130  17.182  67.969  1.00  0.00    -0.210 C  
HETATM    9  N   UNL     1      -8.421  16.296  69.259  1.00  0.00    -0.209 N  
HETATM   10  C   UNL     1      -9.306  17.648  67.123  1.00  0.00    -0.245 C  
HETATM   11  C   UNL     1     -10.230  18.528  67.944  1.00  0.00    -0.415 C  
HETATM   12  C   UNL     1      -9.218  15.151  69.365  1.00  0.00    -0.175 C  
HETATM   13  C   UNL     1      -8.891  18.079  65.705  1.00  0.00     0.384 C  
HETATM   14  O   UNL     1     -10.122  15.026  70.191  1.00  0.00    -0.099 OA 
HETATM   15  C   UNL     1     -11.558  18.719  67.249  1.00  0.00     1.175 C  
HETATM   16  C   UNL     1      -8.759  14.178  68.286  1.00  0.00    -0.181 C  
HETATM   17  H   UNL     1      -7.563  13.951  70.250  1.00  0.00     0.000 HD 
HETATM   18  C   UNL     1     -10.023  14.491  67.332  1.00  0.00    -0.227 C  
HETATM   19  O   UNL     1      -7.299  14.824  68.275  1.00  0.00    -0.102 OA 
HETATM   20  O   UNL     1      -7.116  14.719  70.586  1.00  0.00     0.216 OA 
HETATM   21  C   UNL     1      -7.193  15.634  69.498  1.00  0.00    -0.198 C  
HETATM   22  C   UNL     1     -11.309  13.680  67.657  1.00  0.00    -0.328 C  
HETATM   23  C   UNL     1      -9.840  14.553  65.821  1.00  0.00    -0.343 C  
ENDROOT
BRANCH  16  24
HETATM   24  N   UNL     1      -8.483  12.786  68.069  1.00  0.00    -0.168 N  
HETATM   25  H   UNL     1      -9.087  12.146  68.585  1.00  0.00     0.000 HD 
HETATM   26  O   UNL     1      -6.634  12.769  66.712  1.00  0.00     0.041 OA 
HETATM   27  C   UNL     1      -7.535  12.174  67.278  1.00  0.00    -0.152 C  
BRANCH  27  28
HETATM   28  C   UNL     1      -7.787  10.663  67.210  1.00  0.00    -0.112 C  
HETATM   29  C   UNL     1      -6.423   9.928  67.223  1.00  0.00    -0.069 C  
HETATM   30  N   UNL     1      -5.949   9.562  68.568  1.00  0.00    -0.043 NA 
HETATM   31  C   UNL     1      -5.863  10.717  69.478  1.00  0.00    -0.041 C  
HETATM   32  C   UNL     1      -6.815   8.468  69.101  1.00  0.00    -0.058 C  
HETATM   33  C   UNL     1      -6.615   8.191  70.644  1.00  0.00    -0.037 C  
HETATM   34  C   UNL     1      -7.891   8.184  71.406  1.00  0.00    -0.110 A  
HETATM   35  C   UNL     1      -8.201   8.338  72.738  1.00  0.00    -0.160 A  
HETATM   36  N   UNL     1      -9.553   8.118  72.885  1.00  0.00    -0.275 NA 
HETATM   37  C   UNL     1     -10.129   7.838  71.666  1.00  0.00    -0.185 A  
HETATM   38  H   UNL     1     -10.056   8.157  73.771  1.00  0.00     0.000 HD 
HETATM   39  C   UNL     1     -11.434   7.550  71.254  1.00  0.00    -0.298 A  
HETATM   40  C   UNL     1     -11.639   7.344  69.876  1.00  0.00     0.053 A  
HETATM   41  C   UNL     1     -10.613   7.534  68.947  1.00  0.00    -0.184 A  
HETATM   42  C   UNL     1      -9.348   7.929  69.385  1.00  0.00    -0.152 A  
HETATM   43  C   UNL     1      -9.108   7.960  70.750  1.00  0.00    -0.154 A  
HETATM   44  C   UNL     1      -8.305   8.562  68.520  1.00  0.00    -0.123 C  
HETATM   45  C   UNL     1      -8.699  10.055  68.288  1.00  0.00    -0.119 C  
ENDBRANCH  27  28
ENDBRANCH  16  24
TORSDOF 2
ENDMDL
MODEL       71
REMARK 921   NORMALIZED FREE ENERGY PREDICTED BY IDOCK:   -3.31 KCAL/MOL
REMARK 922        TOTAL FREE ENERGY PREDICTED BY IDOCK:   -4.87 KCAL/MOL
REMARK 923 INTER-LIGAND FREE ENERGY PREDICTED BY IDOCK:   -4.03 KCAL/MOL
REMARK 924 INTRA-LIGAND FREE ENERGY PREDICTED BY IDOCK:   -0.84 KCAL/MOL
REMARK 927      BINDING AFFINITY PREDICTED BY RF-SCORE:    0.00 PKD
ROOT
HETATM    1  C   UNL     1      -6.953  12.721  69.556  1.00  0.00     0.187 C  
HETATM    2  C   UNL     1      -5.961  13.357  70.541  1.00  0.00    -0.121 C  
HETATM    3  C   UNL     1      -6.093  14.891  70.262  1.00  0.00    -0.158 C  
HETATM    4  C   UNL     1      -6.997  15.028  69.043  1.00  0.00    -0.127 C  
HETATM    5  N   UNL     1      -7.067  13.688  68.492  1.00  0.00    -0.099 N  
HETATM    6  C   UNL     1      -8.002  13.482  67.507  1.00  0.00    -0.181 C  
HETATM    7  O   UNL     1      -8.211  14.335  66.648  1.00  0.00     0.033 OA 
HETATM    8  C   UNL     1      -8.610  12.059  67.500  1.00  0.00    -0.167 C  
HETATM    9  N   UNL     1      -8.737  11.464  68.971  1.00  0.00     0.008 N  
HETATM   10  C   UNL     1      -9.836  12.044  66.598  1.00  0.00    -0.220 C  
HETATM   11  C   UNL     1     -10.951  12.871  67.209  1.00  0.00    -0.289 C  
HETATM   12  C   UNL     1      -9.268  10.233  69.366  1.00  0.00    -0.189 C  
HETATM   13  C   UNL     1      -9.486  12.205  65.108  1.00  0.00     0.049 C  
HETATM   14  O   UNL     1     -10.146  10.114  70.221  1.00  0.00    -0.227 OA 
HETATM   15  C   UNL     1     -12.269  12.598  66.523  1.00  0.00    -0.130 C  
HETATM   16  C   UNL     1      -8.580   9.155  68.538  1.00  0.00    -0.129 C  
HETATM   17  H   UNL     1      -7.417   9.666  70.468  1.00  0.00     0.000 HD 
HETATM   18  C   UNL     1      -9.855   8.949  67.570  1.00  0.00    -0.237 C  
HETATM   19  O   UNL     1      -7.295  10.080  68.336  1.00  0.00    -0.076 OA 
HETATM   20  O   UNL     1      -7.157  10.571  70.600  1.00  0.00    -0.250 OA 
HETATM   21  C   UNL     1      -7.401  11.162  69.328  1.00  0.00    -0.097 C  
HETATM   22  C   UNL     1     -10.943   7.979  68.112  1.00  0.00     0.139 C  
HETATM   23  C   UNL     1      -9.649   8.689  66.084  1.00  0.00    -0.305 C  
ENDROOT
BRANCH  16  24
HETATM   24  N   UNL     1      -8.002   7.846  68.652  1.00  0.00    -0.122 N  
HETATM   25  H   UNL     1      -8.316   7.309  69.460  1.00  0.00     0.000 HD 
HETATM   26  O   UNL     1      -6.495   7.728  66.927  1.00  0.00    -0.052 OA 
HETATM   27  C   UNL     1      -7.093   7.195  67.846  1.00  0.00    -0.085 C  
BRANCH  27  28
HETATM   28  C   UNL     1      -6.958   5.727  68.265  1.00  0.00    -0.069 C  
HETATM   29  C   UNL     1      -5.474   5.438  68.604  1.00  0.00    -0.007 C  
HETATM   30  N   UNL     1      -5.130   5.641  70.021  1.00  0.00    -0.004 NA 
HETATM   31  C   UNL     1      -5.462   6.992  70.502  1.00  0.00    -0.023 C  
HETATM   32  C   UNL     1      -5.774   4.564  70.831  1.00  0.00    -0.016 C  
HETATM   33  C   UNL     1      -5.743   4.831  72.388  1.00  0.00    -0.012 C  
HETATM   34  C   UNL     1      -7.077   4.701  73.030  1.00  0.00    -0.078 A  
HETATM   35  C   UNL     1      -7.609   5.158  74.214  1.00  0.00    -0.090 A  
HETATM   36  N   UNL     1      -8.873   4.627  74.341  1.00  0.00    -0.108 NA 
HETATM   37  C   UNL     1      -9.178   3.844  73.250  1.00  0.00    -0.105 A  
HETATM   38  H   UNL     1      -9.496   4.790  75.132  1.00  0.00     0.000 HD 
HETATM   39  C   UNL     1     -10.299   3.095  72.877  1.00  0.00    -0.248 A  
HETATM   40  C   UNL     1     -10.241   2.435  71.634  1.00  0.00     0.055 A  
HETATM   41  C   UNL     1      -9.166   2.613  70.759  1.00  0.00    -0.203 A  
HETATM   42  C   UNL     1      -8.114   3.455  71.120  1.00  0.00    -0.067 A  
HETATM   43  C   UNL     1      -8.093   3.962  72.411  1.00  0.00    -0.085 A  
HETATM   44  C   UNL     1      -7.139   4.061  70.161  1.00  0.00    -0.042 C  
HETATM   45  C   UNL     1      -7.844   5.244  69.425  1.00  0.00    -0.088 C  
ENDBRANCH  27  28
ENDBRANCH  16  24
TORSDOF 2
ENDMDL
MODEL       72
REMARK 921   NORMALIZED FREE ENERGY PREDICTED BY IDOCK:   -3.15 KCAL/MOL
REMARK 922        TOTAL FREE ENERGY PREDICTED BY IDOCK:   -4.70 KCAL/MOL
REMARK 923 INTER-LIGAND FREE ENERGY PREDICTED BY IDOCK:   -5.33 KCAL/MOL
REMARK 924 INTRA-LIGAND FREE ENERGY PREDICTED BY IDOCK:    0.64 KCAL/MOL
REMARK 927      BINDING AFFINITY PREDICTED BY RF-SCORE:    0.00 PKD
ROOT
HETATM    1  C   UNL     1     -10.837   6.189  72.063  1.00  0.00    -0.247 C  
HETATM    2  C   UNL     1     -12.362   6.235  72.236  1.00  0.00    -0.147 C  
HETATM    3  C   UNL     1     -12.701   4.865  72.914  1.00  0.00     0.855 C  
HETATM    4  C   UNL     1     -11.406   4.063  72.925  1.00  0.00     0.131 C  
HETATM    5  N   UNL     1     -10.527   4.780  72.023  1.00  0.00    -0.187 N  
HETATM    6  C   UNL     1      -9.209   4.393  72.018  1.00  0.00    -0.128 C  
HETATM    7  O   UNL     1      -8.900   3.206  72.099  1.00  0.00    -0.083 OA 
HETATM    8  C   UNL     1      -8.212   5.543  71.741  1.00  0.00    -0.119 C  
HETATM    9  N   UNL     1      -8.720   6.924  72.350  1.00  0.00    -0.126 N  
HETATM   10  C   UNL     1      -6.802   5.075  72.073  1.00  0.00    -0.053 C  
HETATM   11  C   UNL     1      -6.653   4.868  73.568  1.00  0.00    -0.067 C  
HETATM   12  C   UNL     1      -8.081   8.167  72.334  1.00  0.00    -0.146 C  
HETATM   13  C   UNL     1      -6.279   4.010  71.092  1.00  0.00    -0.015 C  
HETATM   14  O   UNL     1      -7.877   8.840  73.344  1.00  0.00    -0.406 OA 
HETATM   15  C   UNL     1      -5.199   4.740  73.956  1.00  0.00    -0.009 C  
HETATM   16  C   UNL     1      -7.699   8.464  70.889  1.00  0.00    -0.088 C  
HETATM   17  H   UNL     1      -9.835   9.179  71.406  1.00  0.00     0.000 HD 
HETATM   18  C   UNL     1      -6.143   8.106  71.125  1.00  0.00    -0.034 C  
HETATM   19  O   UNL     1      -8.880   7.534  70.350  1.00  0.00    -0.143 OA 
HETATM   20  O   UNL     1     -10.448   8.534  71.738  1.00  0.00    -0.248 OA 
HETATM   21  C   UNL     1      -9.780   7.301  71.490  1.00  0.00    -0.159 C  
HETATM   22  C   UNL     1      -5.281   9.268  71.696  1.00  0.00    -0.057 C  
HETATM   23  C   UNL     1      -5.354   7.384  70.042  1.00  0.00    -0.023 C  
ENDROOT
BRANCH  16  24
HETATM   24  N   UNL     1      -7.680   9.527  69.925  1.00  0.00    -0.110 N  
HETATM   25  H   UNL     1      -6.750   9.793  69.602  1.00  0.00     0.000 HD 
HETATM   26  O   UNL     1      -9.871  10.178  69.739  1.00  0.00    -0.232 OA 
HETATM   27  C   UNL     1      -8.712  10.248  69.366  1.00  0.00    -0.156 C  
BRANCH  27  28
HETATM   28  C   UNL     1      -8.196  11.125  68.220  1.00  0.00    -0.134 C  
HETATM   29  C   UNL     1      -8.872  10.672  66.901  1.00  0.00    -0.138 C  
HETATM   30  N   UNL     1     -10.120  11.386  66.587  1.00  0.00    -0.207 NA 
HETATM   31  C   UNL     1     -11.114  11.303  67.670  1.00  0.00    -0.277 C  
HETATM   32  C   UNL     1      -9.788  12.794  66.214  1.00  0.00    -0.267 C  
HETATM   33  C   UNL     1     -11.044  13.751  66.152  1.00  0.00    -0.296 C  
HETATM   34  C   UNL     1     -10.868  14.998  66.941  1.00  0.00    -0.315 A  
HETATM   35  C   UNL     1     -11.744  15.920  67.467  1.00  0.00     0.226 A  
HETATM   36  N   UNL     1     -11.003  16.946  68.008  1.00  0.00    -0.329 NA 
HETATM   37  C   UNL     1      -9.656  16.699  67.856  1.00  0.00    -0.234 A  
HETATM   38  H   UNL     1     -11.395  17.773  68.459  1.00  0.00     0.000 HD 
HETATM   39  C   UNL     1      -8.497  17.391  68.218  1.00  0.00    -0.249 A  
HETATM   40  C   UNL     1      -7.266  16.782  67.907  1.00  0.00    -0.159 A  
HETATM   41  C   UNL     1      -7.200  15.494  67.370  1.00  0.00    -0.241 A  
HETATM   42  C   UNL     1      -8.379  14.788  67.124  1.00  0.00    -0.240 A  
HETATM   43  C   UNL     1      -9.585  15.456  67.268  1.00  0.00    -0.213 A  
HETATM   44  C   UNL     1      -8.466  13.303  66.960  1.00  0.00    -0.138 C  
HETATM   45  C   UNL     1      -8.358  12.647  68.373  1.00  0.00    -0.125 C  
ENDBRANCH  27  28
ENDBRANCH  16  24
TORSDOF 2
ENDMDL
MODEL       73
REMARK 921   NORMALIZED FREE ENERGY PREDICTED BY IDOCK:   -3.06 KCAL/MOL
REMARK 922        TOTAL FREE ENERGY PREDICTED BY IDOCK:   -4.59 KCAL/MOL
REMARK 923 INTER-LIGAND FREE ENERGY PREDICTED BY IDOCK:   -4.90 KCAL/MOL
REMARK 924 INTRA-LIGAND FREE ENERGY PREDICTED BY IDOCK:    0.31 KCAL/MOL
REMARK 927      BINDING AFFINITY PREDICTED BY RF-SCORE:    0.00 PKD
ROOT
HETATM    1  C   UNL     1      -8.664   4.067  70.402  1.00  0.00    -0.078 C  
HETATM    2  C   UNL     1      -7.831   2.848  69.982  1.00  0.00    -0.048 C  
HETATM    3  C   UNL     1      -8.205   1.759  71.043  1.00  0.00    -0.058 C  
HETATM    4  C   UNL     1      -9.072   2.458  72.084  1.00  0.00    -0.081 C  
HETATM    5  N   UNL     1      -8.896   3.872  71.812  1.00  0.00    -0.102 N  
HETATM    6  C   UNL     1      -9.745   4.729  72.469  1.00  0.00    -0.148 C  
HETATM    7  O   UNL     1     -10.060   4.531  73.639  1.00  0.00    -0.142 OA 
HETATM    8  C   UNL     1     -10.108   6.000  71.664  1.00  0.00    -0.190 C  
HETATM    9  N   UNL     1     -10.191   5.706  70.102  1.00  0.00    -0.228 N  
HETATM   10  C   UNL     1     -11.278   6.702  72.337  1.00  0.00    -0.302 C  
HETATM   11  C   UNL     1     -12.538   5.866  72.211  1.00  0.00     0.262 C  
HETATM   12  C   UNL     1     -10.524   6.587  69.068  1.00  0.00    -0.216 C  
HETATM   13  C   UNL     1     -10.902   7.327  73.693  1.00  0.00    -0.169 C  
HETATM   14  O   UNL     1     -11.402   6.359  68.237  1.00  0.00    -0.268 OA 
HETATM   15  C   UNL     1     -13.764   6.677  72.558  1.00  0.00     0.523 C  
HETATM   16  C   UNL     1      -9.635   7.816  69.215  1.00  0.00    -0.159 C  
HETATM   17  H   UNL     1      -8.649   6.154  67.947  1.00  0.00     0.000 HD 
HETATM   18  C   UNL     1     -10.820   8.718  69.838  1.00  0.00    -0.211 C  
HETATM   19  O   UNL     1      -8.515   6.959  69.964  1.00  0.00    -0.136 OA 
HETATM   20  O   UNL     1      -8.548   5.297  68.345  1.00  0.00    -0.096 OA 
HETATM   21  C   UNL     1      -8.837   5.545  69.717  1.00  0.00    -0.119 C  
HETATM   22  C   UNL     1     -11.751   9.393  68.792  1.00  0.00     0.831 C  
HETATM   23  C   UNL     1     -10.516   9.711  70.952  1.00  0.00    -0.359 C  
ENDROOT
BRANCH  16  24
HETATM   24  N   UNL     1      -8.852   8.737  68.441  1.00  0.00    -0.138 N  
HETATM   25  H   UNL     1      -9.348   9.169  67.662  1.00  0.00     0.000 HD 
HETATM   26  O   UNL     1      -6.751   8.618  69.353  1.00  0.00    -0.047 OA 
HETATM   27  C   UNL     1      -7.540   9.134  68.580  1.00  0.00    -0.084 C  
BRANCH  27  28
HETATM   28  C   UNL     1      -7.231  10.307  67.643  1.00  0.00    -0.087 C  
HETATM   29  C   UNL     1      -6.927   9.751  66.229  1.00  0.00    -0.094 C  
HETATM   30  N   UNL     1      -8.107   9.653  65.354  1.00  0.00    -0.123 NA 
HETATM   31  C   UNL     1      -9.192   8.853  65.944  1.00  0.00    -0.229 C  
HETATM   32  C   UNL     1      -8.543  11.032  64.979  1.00  0.00     0.022 C  
HETATM   33  C   UNL     1      -9.969  11.087  64.299  1.00  0.00    -0.373 C  
HETATM   34  C   UNL     1     -10.881  12.074  64.934  1.00  0.00    -0.349 A  
HETATM   35  C   UNL     1     -12.248  12.232  64.946  1.00  0.00    -0.339 A  
HETATM   36  N   UNL     1     -12.531  13.403  65.611  1.00  0.00    -0.469 NA 
HETATM   37  C   UNL     1     -11.370  14.002  66.047  1.00  0.00    -0.328 A  
HETATM   38  H   UNL     1     -13.470  13.776  65.761  1.00  0.00     0.000 HD 
HETATM   39  C   UNL     1     -11.092  15.173  66.760  1.00  0.00    -0.307 A  
HETATM   40  C   UNL     1      -9.739  15.438  67.049  1.00  0.00    -0.231 A  
HETATM   41  C   UNL     1      -8.731  14.519  66.745  1.00  0.00    -0.214 A  
HETATM   42  C   UNL     1      -9.061  13.310  66.131  1.00  0.00     0.101 A  
HETATM   43  C   UNL     1     -10.364  13.132  65.693  1.00  0.00    -0.291 A  
HETATM   44  C   UNL     1      -8.194  12.091  66.128  1.00  0.00     0.308 C  
HETATM   45  C   UNL     1      -8.293  11.414  67.532  1.00  0.00    -0.137 C  
ENDBRANCH  27  28
ENDBRANCH  16  24
TORSDOF 2
ENDMDL
MODEL       74
REMARK 921   NORMALIZED FREE ENERGY PREDICTED BY IDOCK:   -2.86 KCAL/MOL
REMARK 922        TOTAL FREE ENERGY PREDICTED BY IDOCK:   -4.37 KCAL/MOL
REMARK 923 INTER-LIGAND FREE ENERGY PREDICTED BY IDOCK:   -4.39 KCAL/MOL
REMARK 924 INTRA-LIGAND FREE ENERGY PREDICTED BY IDOCK:    0.02 KCAL/MOL
REMARK 927      BINDING AFFINITY PREDICTED BY RF-SCORE:    0.00 PKD
ROOT
HETATM    1  C   UNL     1      -8.180   5.325  66.576  1.00  0.00    -0.108 C  
HETATM    2  C   UNL     1      -7.984   4.574  65.251  1.00  0.00    -0.098 C  
HETATM    3  C   UNL     1      -7.072   3.363  65.641  1.00  0.00    -0.066 C  
HETATM    4  C   UNL     1      -6.666   3.585  67.093  1.00  0.00    -0.046 C  
HETATM    5  N   UNL     1      -7.027   4.963  67.364  1.00  0.00    -0.060 N  
HETATM    6  C   UNL     1      -6.971   5.362  68.677  1.00  0.00    -0.060 C  
HETATM    7  O   UNL     1      -6.065   4.981  69.413  1.00  0.00    -0.020 OA 
HETATM    8  C   UNL     1      -8.027   6.427  69.060  1.00  0.00    -0.111 C  
HETATM    9  N   UNL     1      -9.388   6.223  68.261  1.00  0.00    -0.114 N  
HETATM   10  C   UNL     1      -8.082   6.553  70.576  1.00  0.00    -0.117 C  
HETATM   11  C   UNL     1      -8.656   5.290  71.190  1.00  0.00    -0.128 C  
HETATM   12  C   UNL     1     -10.573   6.958  68.363  1.00  0.00    -0.210 C  
HETATM   13  C   UNL     1      -6.814   7.191  71.171  1.00  0.00    -0.060 C  
HETATM   14  O   UNL     1     -11.674   6.448  68.567  1.00  0.00     0.085 OA 
HETATM   15  C   UNL     1      -9.039   5.514  72.634  1.00  0.00    -0.140 C  
HETATM   16  C   UNL     1     -10.210   8.429  68.200  1.00  0.00    -0.208 C  
HETATM   17  H   UNL     1     -10.620   7.390  66.178  1.00  0.00     0.000 HD 
HETATM   18  C   UNL     1     -10.346   8.736  69.780  1.00  0.00    -0.214 C  
HETATM   19  O   UNL     1      -8.912   8.052  67.352  1.00  0.00    -0.132 OA 
HETATM   20  O   UNL     1     -10.102   6.623  65.963  1.00  0.00     0.163 OA 
HETATM   21  C   UNL     1      -9.073   6.646  66.947  1.00  0.00    -0.136 C  
HETATM   22  C   UNL     1     -11.790   9.042  70.268  1.00  0.00     0.076 C  
HETATM   23  C   UNL     1      -9.375   9.695  70.456  1.00  0.00    -0.227 C  
ENDROOT
BRANCH  16  24
HETATM   24  N   UNL     1     -10.657   9.635  67.562  1.00  0.00    -0.270 N  
HETATM   25  H   UNL     1     -11.664   9.690  67.412  1.00  0.00     0.000 HD 
HETATM   26  O   UNL     1      -8.729  10.779  67.075  1.00  0.00    -0.134 OA 
HETATM   27  C   UNL     1      -9.947  10.730  67.120  1.00  0.00    -0.194 C  
BRANCH  27  28
HETATM   28  C   UNL     1     -10.900  11.859  66.711  1.00  0.00    -0.307 C  
HETATM   29  C   UNL     1     -12.205  11.736  67.538  1.00  0.00     0.545 C  
HETATM   30  N   UNL     1     -12.195  12.501  68.795  1.00  0.00    -0.074 NA 
HETATM   31  C   UNL     1     -11.059  12.157  69.666  1.00  0.00     0.022 C  
HETATM   32  C   UNL     1     -12.254  13.958  68.471  1.00  0.00    -0.166 C  
HETATM   33  C   UNL     1     -11.943  14.899  69.702  1.00  0.00    -0.360 C  
HETATM   34  C   UNL     1     -10.903  15.920  69.409  1.00  0.00    -0.288 A  
HETATM   35  C   UNL     1     -10.076  16.685  70.200  1.00  0.00     0.530 A  
HETATM   36  N   UNL     1      -9.391  17.552  69.378  1.00  0.00     0.164 NA 
HETATM   37  C   UNL     1      -9.749  17.352  68.063  1.00  0.00    -0.281 A  
HETATM   38  H   UNL     1      -8.714  18.245  69.697  1.00  0.00     0.000 HD 
HETATM   39  C   UNL     1      -9.364  17.939  66.853  1.00  0.00    -0.276 A  
HETATM   40  C   UNL     1      -9.948  17.426  65.680  1.00  0.00     0.034 A  
HETATM   41  C   UNL     1     -10.782  16.305  65.706  1.00  0.00    -0.264 A  
HETATM   42  C   UNL     1     -11.057  15.677  66.921  1.00  0.00    -0.181 A  
HETATM   43  C   UNL     1     -10.622  16.288  68.088  1.00  0.00    -0.307 A  
HETATM   44  C   UNL     1     -11.561  14.276  67.062  1.00  0.00    -0.406 C  
HETATM   45  C   UNL     1     -10.369  13.298  66.817  1.00  0.00    -0.257 C  
ENDBRANCH  27  28
ENDBRANCH  16  24
TORSDOF 2
ENDMDL
MODEL       75
REMARK 921   NORMALIZED FREE ENERGY PREDICTED BY IDOCK:   -2.13 KCAL/MOL
REMARK 922        TOTAL FREE ENERGY PREDICTED BY IDOCK:   -3.56 KCAL/MOL
REMARK 923 INTER-LIGAND FREE ENERGY PREDICTED BY IDOCK:   -4.54 KCAL/MOL
REMARK 924 INTRA-LIGAND FREE ENERGY PREDICTED BY IDOCK:    0.98 KCAL/MOL
REMARK 927      BINDING AFFINITY PREDICTED BY RF-SCORE:    0.00 PKD
ROOT
HETATM    1  C   UNL     1     -10.461  11.692  64.763  1.00  0.00    -0.295 C  
HETATM    2  C   UNL     1     -10.583  11.712  63.232  1.00  0.00    -0.420 C  
HETATM    3  C   UNL     1     -11.664  12.810  62.959  1.00  0.00     0.010 C  
HETATM    4  C   UNL     1     -12.212  13.218  64.322  1.00  0.00    -0.392 C  
HETATM    5  N   UNL     1     -11.733  12.191  65.227  1.00  0.00    -0.337 N  
HETATM    6  C   UNL     1     -11.899  12.434  66.569  1.00  0.00    -0.339 C  
HETATM    7  O   UNL     1     -12.923  12.965  66.991  1.00  0.00     0.742 OA 
HETATM    8  C   UNL     1     -10.783  11.841  67.462  1.00  0.00    -0.221 C  
HETATM    9  N   UNL     1      -9.368  11.864  66.733  1.00  0.00    -0.195 N  
HETATM   10  C   UNL     1     -10.893  12.433  68.860  1.00  0.00    -0.239 C  
HETATM   11  C   UNL     1     -10.541  13.909  68.837  1.00  0.00    -0.228 C  
HETATM   12  C   UNL     1      -8.128  11.450  67.230  1.00  0.00    -0.148 C  
HETATM   13  C   UNL     1     -12.143  11.951  69.617  1.00  0.00    -0.304 C  
HETATM   14  O   UNL     1      -7.123  12.161  67.228  1.00  0.00    -0.134 OA 
HETATM   15  C   UNL     1     -10.309  14.433  70.234  1.00  0.00     0.680 C  
HETATM   16  C   UNL     1      -8.301  10.032  67.759  1.00  0.00    -0.114 C  
HETATM   17  H   UNL     1      -7.775  10.079  65.510  1.00  0.00     0.000 HD 
HETATM   18  C   UNL     1      -8.320  10.508  69.302  1.00  0.00    -0.144 C  
HETATM   19  O   UNL     1      -9.524   9.773  66.767  1.00  0.00    -0.152 OA 
HETATM   20  O   UNL     1      -8.346  10.572  64.933  1.00  0.00    -0.170 OA 
HETATM   21  C   UNL     1      -9.475  10.843  65.757  1.00  0.00    -0.211 C  
HETATM   22  C   UNL     1      -6.918  10.686  69.952  1.00  0.00    -0.148 C  
HETATM   23  C   UNL     1      -9.250   9.828  70.298  1.00  0.00    -0.225 C  
ENDROOT
BRANCH  16  24
HETATM   24  N   UNL     1      -7.650   8.753  67.787  1.00  0.00    -0.096 N  
HETATM   25  H   UNL     1      -8.279   7.955  67.870  1.00  0.00     0.000 HD 
HETATM   26  O   UNL     1      -5.410   9.247  67.772  1.00  0.00    -0.034 OA 
HETATM   27  C   UNL     1      -6.312   8.428  67.720  1.00  0.00    -0.053 C  
BRANCH  27  28
HETATM   28  C   UNL     1      -6.135   6.914  67.562  1.00  0.00    -0.032 C  
HETATM   29  C   UNL     1      -6.570   6.220  68.878  1.00  0.00    -0.048 C  
HETATM   30  N   UNL     1      -7.988   5.825  68.909  1.00  0.00    -0.097 NA 
HETATM   31  C   UNL     1      -8.901   6.951  68.654  1.00  0.00    -0.124 C  
HETATM   32  C   UNL     1      -8.191   4.689  67.961  1.00  0.00    -0.091 C  
HETATM   33  C   UNL     1      -9.710   4.368  67.665  1.00  0.00    -0.198 C  
HETATM   34  C   UNL     1     -10.021   4.297  66.214  1.00  0.00    -0.229 A  
HETATM   35  C   UNL     1     -11.185   4.399  65.487  1.00  0.00     0.650 A  
HETATM   36  N   UNL     1     -10.885   4.134  64.170  1.00  0.00    -0.498 NA 
HETATM   37  C   UNL     1      -9.539   3.877  64.026  1.00  0.00    -0.162 A  
HETATM   38  H   UNL     1     -11.563   4.129  63.408  1.00  0.00     0.000 HD 
HETATM   39  C   UNL     1      -8.724   3.564  62.934  1.00  0.00    -0.093 A  
HETATM   40  C   UNL     1      -7.349   3.397  63.190  1.00  0.00    -0.053 A  
HETATM   41  C   UNL     1      -6.803   3.647  64.452  1.00  0.00    -0.045 A  
HETATM   42  C   UNL     1      -7.634   4.065  65.493  1.00  0.00    -0.082 A  
HETATM   43  C   UNL     1      -9.004   4.059  65.281  1.00  0.00    -0.132 A  
HETATM   44  C   UNL     1      -7.164   4.756  66.734  1.00  0.00    -0.080 C  
HETATM   45  C   UNL     1      -6.849   6.244  66.377  1.00  0.00    -0.062 C  
ENDBRANCH  27  28
ENDBRANCH  16  24
TORSDOF 2
ENDMDL
MODEL       76
REMARK 921   NORMALIZED FREE ENERGY PREDICTED BY IDOCK:   -2.09 KCAL/MOL
REMARK 922        TOTAL FREE ENERGY PREDICTED BY IDOCK:   -3.51 KCAL/MOL
REMARK 923 INTER-LIGAND FREE ENERGY PREDICTED BY IDOCK:   -4.84 KCAL/MOL
REMARK 924 INTRA-LIGAND FREE ENERGY PREDICTED BY IDOCK:    1.33 KCAL/MOL
REMARK 927      BINDING AFFINITY PREDICTED BY RF-SCORE:    0.00 PKD
ROOT
HETATM    1  C   UNL     1      -6.909  14.917  69.800  1.00  0.00    -0.182 C  
HETATM    2  C   UNL     1      -6.032  14.159  70.808  1.00  0.00    -0.198 C  
HETATM    3  C   UNL     1      -5.163  15.283  71.463  1.00  0.00    -0.064 C  
HETATM    4  C   UNL     1      -5.460  16.560  70.687  1.00  0.00    -0.112 C  
HETATM    5  N   UNL     1      -6.153  16.107  69.496  1.00  0.00    -0.159 N  
HETATM    6  C   UNL     1      -6.735  17.081  68.722  1.00  0.00    -0.193 C  
HETATM    7  O   UNL     1      -6.173  18.157  68.534  1.00  0.00    -0.189 OA 
HETATM    8  C   UNL     1      -8.033  16.631  68.009  1.00  0.00    -0.171 C  
HETATM    9  N   UNL     1      -8.862  15.597  68.890  1.00  0.00    -0.204 N  
HETATM   10  C   UNL     1      -8.749  17.854  67.454  1.00  0.00    -0.237 C  
HETATM   11  C   UNL     1      -9.280  18.714  68.585  1.00  0.00    -0.361 C  
HETATM   12  C   UNL     1     -10.094  15.001  68.601  1.00  0.00    -0.233 C  
HETATM   13  C   UNL     1      -7.997  18.506  66.280  1.00  0.00    -0.273 C  
HETATM   14  O   UNL     1     -11.060  15.032  69.362  1.00  0.00    -0.252 OA 
HETATM   15  C   UNL     1     -10.274  19.731  68.075  1.00  0.00    -0.581 C  
HETATM   16  C   UNL     1      -9.980  14.373  67.217  1.00  0.00    -0.247 C  
HETATM   17  H   UNL     1      -9.291  12.944  68.897  1.00  0.00     0.000 HD 
HETATM   18  C   UNL     1     -10.828  15.551  66.508  1.00  0.00    -0.284 C  
HETATM   19  O   UNL     1      -8.399  14.221  67.377  1.00  0.00    -0.174 OA 
HETATM   20  O   UNL     1      -8.596  13.243  69.473  1.00  0.00     0.924 OA 
HETATM   21  C   UNL     1      -8.106  14.402  68.808  1.00  0.00    -0.127 C  
HETATM   22  C   UNL     1     -12.372  15.378  66.570  1.00  0.00     0.991 C  
HETATM   23  C   UNL     1     -10.435  16.044  65.122  1.00  0.00    -0.331 C  
ENDROOT
BRANCH  16  24
HETATM   24  N   UNL     1     -10.332  13.189  66.486  1.00  0.00    -0.278 N  
HETATM   25  H   UNL     1      -9.569  12.774  65.953  1.00  0.00     0.000 HD 
HETATM   26  O   UNL     1     -12.588  12.949  66.827  1.00  0.00    -0.205 OA 
HETATM   27  C   UNL     1     -11.534  12.522  66.387  1.00  0.00    -0.365 C  
BRANCH  27  28
HETATM   28  C   UNL     1     -11.347  11.183  65.665  1.00  0.00     0.130 C  
HETATM   29  C   UNL     1     -11.617  11.388  64.153  1.00  0.00    -0.030 C  
HETATM   30  N   UNL     1     -10.419  11.724  63.368  1.00  0.00    -0.423 NA 
HETATM   31  C   UNL     1      -9.714  12.911  63.879  1.00  0.00     0.591 C  
HETATM   32  C   UNL     1      -9.540  10.518  63.291  1.00  0.00    -0.331 C  
HETATM   33  C   UNL     1      -8.088  10.820  62.744  1.00  0.00    -0.109 C  
HETATM   34  C   UNL     1      -7.012  10.288  63.620  1.00  0.00    -0.070 A  
HETATM   35  C   UNL     1      -5.675  10.581  63.765  1.00  0.00    -0.101 A  
HETATM   36  N   UNL     1      -5.140   9.680  64.657  1.00  0.00    -0.048 NA 
HETATM   37  C   UNL     1      -6.111   8.814  65.108  1.00  0.00    -0.059 A  
HETATM   38  H   UNL     1      -4.161   9.656  64.945  1.00  0.00     0.000 HD 
HETATM   39  C   UNL     1      -6.113   7.740  66.004  1.00  0.00    -0.038 A  
HETATM   40  C   UNL     1      -7.347   7.102  66.234  1.00  0.00    -0.076 A  
HETATM   41  C   UNL     1      -8.538   7.590  65.688  1.00  0.00    -0.131 A  
HETATM   42  C   UNL     1      -8.512   8.732  64.885  1.00  0.00    -0.189 A  
HETATM   43  C   UNL     1      -7.279   9.250  64.522  1.00  0.00    -0.101 A  
HETATM   44  C   UNL     1      -9.699   9.592  64.588  1.00  0.00    -0.040 C  
HETATM   45  C   UNL     1      -9.995  10.472  65.844  1.00  0.00    -0.313 C  
ENDBRANCH  27  28
ENDBRANCH  16  24
TORSDOF 2
ENDMDL
MODEL       77
REMARK 921   NORMALIZED FREE ENERGY PREDICTED BY IDOCK:   -2.01 KCAL/MOL
REMARK 922        TOTAL FREE ENERGY PREDICTED BY IDOCK:   -3.43 KCAL/MOL
REMARK 923 INTER-LIGAND FREE ENERGY PREDICTED BY IDOCK:   -2.91 KCAL/MOL
REMARK 924 INTRA-LIGAND FREE ENERGY PREDICTED BY IDOCK:   -0.52 KCAL/MOL
REMARK 927      BINDING AFFINITY PREDICTED BY RF-SCORE:    0.00 PKD
ROOT
HETATM    1  C   UNL     1      -9.723   5.299  66.286  1.00  0.00    -0.169 C  
HETATM    2  C   UNL     1     -10.665   4.444  65.425  1.00  0.00    -0.145 C  
HETATM    3  C   UNL     1      -9.770   3.239  64.981  1.00  0.00    -0.084 C  
HETATM    4  C   UNL     1      -8.357   3.559  65.454  1.00  0.00    -0.098 C  
HETATM    5  N   UNL     1      -8.403   4.964  65.810  1.00  0.00    -0.113 N  
HETATM    6  C   UNL     1      -7.312   5.460  66.481  1.00  0.00    -0.086 C  
HETATM    7  O   UNL     1      -6.174   5.108  66.180  1.00  0.00    -0.029 OA 
HETATM    8  C   UNL     1      -7.646   6.582  67.492  1.00  0.00    -0.105 C  
HETATM    9  N   UNL     1      -9.069   6.359  68.171  1.00  0.00    -0.115 N  
HETATM   10  C   UNL     1      -6.440   6.824  68.388  1.00  0.00    -0.042 C  
HETATM   11  C   UNL     1      -6.206   5.629  69.293  1.00  0.00    -0.029 C  
HETATM   12  C   UNL     1      -9.694   7.136  69.152  1.00  0.00    -0.158 C  
HETATM   13  C   UNL     1      -5.258   7.466  67.640  1.00  0.00    -0.021 C  
HETATM   14  O   UNL     1     -10.130   6.676  70.207  1.00  0.00    -0.177 OA 
HETATM   15  C   UNL     1      -5.250   5.973  70.411  1.00  0.00    -0.013 C  
HETATM   16  C   UNL     1      -9.687   8.578  68.662  1.00  0.00    -0.164 C  
HETATM   17  H   UNL     1     -11.533   7.402  67.924  1.00  0.00     0.000 HD 
HETATM   18  C   UNL     1      -8.482   9.008  69.648  1.00  0.00    -0.128 C  
HETATM   19  O   UNL     1      -9.626   8.098  67.141  1.00  0.00    -0.153 OA 
HETATM   20  O   UNL     1     -11.380   6.605  67.429  1.00  0.00    -0.299 OA 
HETATM   21  C   UNL     1      -9.987   6.672  67.140  1.00  0.00    -0.160 C  
HETATM   22  C   UNL     1      -8.918   9.394  71.089  1.00  0.00    -0.026 C  
HETATM   23  C   UNL     1      -7.417   9.985  69.168  1.00  0.00    -0.092 C  
ENDROOT
BRANCH  16  24
HETATM   24  N   UNL     1     -10.519   9.745  68.586  1.00  0.00    -0.201 N  
HETATM   25  H   UNL     1     -10.292  10.382  67.822  1.00  0.00     0.000 HD 
HETATM   26  O   UNL     1     -11.892   9.596  70.417  1.00  0.00    -0.240 OA 
HETATM   27  C   UNL     1     -11.575  10.145  69.375  1.00  0.00    -0.087 C  
BRANCH  27  28
HETATM   28  C   UNL     1     -12.284  11.353  68.753  1.00  0.00    -0.101 C  
HETATM   29  C   UNL     1     -13.149  12.040  69.840  1.00  0.00     1.114 C  
HETATM   30  N   UNL     1     -12.454  13.109  70.576  1.00  0.00    -0.289 NA 
HETATM   31  C   UNL     1     -11.201  12.653  71.199  1.00  0.00     2.917 C  
HETATM   32  C   UNL     1     -12.255  14.272  69.660  1.00  0.00    -0.323 C  
HETATM   33  C   UNL     1     -11.258  15.363  70.221  1.00  0.00    -0.328 C  
HETATM   34  C   UNL     1     -10.188  15.726  69.257  1.00  0.00    -0.248 A  
HETATM   35  C   UNL     1      -8.951  16.316  69.391  1.00  0.00    -0.071 A  
HETATM   36  N   UNL     1      -8.440  16.514  68.127  1.00  0.00    -0.186 NA 
HETATM   37  C   UNL     1      -9.318  16.048  67.174  1.00  0.00    -0.211 A  
HETATM   38  H   UNL     1      -7.537  16.945  67.926  1.00  0.00     0.000 HD 
HETATM   39  C   UNL     1      -9.295  15.997  65.777  1.00  0.00    -0.250 A  
HETATM   40  C   UNL     1     -10.400  15.399  65.141  1.00  0.00    -0.405 A  
HETATM   41  C   UNL     1     -11.418  14.779  65.870  1.00  0.00    -0.319 A  
HETATM   42  C   UNL     1     -11.352  14.754  67.264  1.00  0.00    -0.366 A  
HETATM   43  C   UNL     1     -10.357  15.492  67.887  1.00  0.00    -0.250 A  
HETATM   44  C   UNL     1     -12.106  13.801  68.137  1.00  0.00    -0.316 C  
HETATM   45  C   UNL     1     -11.400  12.410  68.070  1.00  0.00    -0.340 C  
ENDBRANCH  27  28
ENDBRANCH  16  24
TORSDOF 2
ENDMDL
MODEL       78
REMARK 921   NORMALIZED FREE ENERGY PREDICTED BY IDOCK:   -1.89 KCAL/MOL
REMARK 922        TOTAL FREE ENERGY PREDICTED BY IDOCK:   -3.30 KCAL/MOL
REMARK 923 INTER-LIGAND FREE ENERGY PREDICTED BY IDOCK:   -2.25 KCAL/MOL
REMARK 924 INTRA-LIGAND FREE ENERGY PREDICTED BY IDOCK:   -1.05 KCAL/MOL
REMARK 927      BINDING AFFINITY PREDICTED BY RF-SCORE:    0.00 PKD
ROOT
HETATM    1  C   UNL     1     -10.163  11.506  69.102  1.00  0.00    -0.013 C  
HETATM    2  C   UNL     1      -9.797  12.898  68.566  1.00  0.00    -0.147 C  
HETATM    3  C   UNL     1     -10.928  13.823  69.128  1.00  0.00    -0.246 C  
HETATM    4  C   UNL     1     -11.945  12.900  69.788  1.00  0.00    -0.296 C  
HETATM    5  N   UNL     1     -11.587  11.574  69.322  1.00  0.00    -0.292 N  
HETATM    6  C   UNL     1     -12.212  10.520  69.944  1.00  0.00    -0.218 C  
HETATM    7  O   UNL     1     -13.399  10.584  70.253  1.00  0.00    -0.090 OA 
HETATM    8  C   UNL     1     -11.342   9.244  70.052  1.00  0.00    -0.113 C  
HETATM    9  N   UNL     1      -9.802   9.594  70.250  1.00  0.00    -0.256 N  
HETATM   10  C   UNL     1     -12.000   8.271  71.020  1.00  0.00    -0.260 C  
HETATM   11  C   UNL     1     -11.950   8.819  72.434  1.00  0.00    -0.369 C  
HETATM   12  C   UNL     1      -8.727   8.716  70.421  1.00  0.00    -0.155 C  
HETATM   13  C   UNL     1     -13.308   7.672  70.472  1.00  0.00     0.701 C  
HETATM   14  O   UNL     1      -7.930   8.792  71.356  1.00  0.00    -0.135 OA 
HETATM   15  C   UNL     1     -12.277   7.745  73.444  1.00  0.00     1.554 C  
HETATM   16  C   UNL     1      -8.782   7.704  69.284  1.00  0.00    -0.136 C  
HETATM   17  H   UNL     1      -7.592   9.603  68.723  1.00  0.00     0.000 HD 
HETATM   18  C   UNL     1      -9.378   6.535  70.225  1.00  0.00    -0.163 C  
HETATM   19  O   UNL     1      -9.555   8.742  68.350  1.00  0.00    -0.144 OA 
HETATM   20  O   UNL     1      -8.036  10.440  68.795  1.00  0.00    -0.106 OA 
HETATM   21  C   UNL     1      -9.397  10.064  68.977  1.00  0.00    -0.181 C  
HETATM   22  C   UNL     1      -8.315   5.729  71.024  1.00  0.00    -0.123 C  
HETATM   23  C   UNL     1     -10.424   5.575  69.676  1.00  0.00    -0.379 C  
ENDROOT
BRANCH  16  24
HETATM   24  N   UNL     1      -7.939   7.015  68.348  1.00  0.00    -0.121 N  
HETATM   25  H   UNL     1      -8.437   6.482  67.637  1.00  0.00     0.000 HD 
HETATM   26  O   UNL     1      -5.806   7.404  69.099  1.00  0.00    -0.022 OA 
HETATM   27  C   UNL     1      -6.565   6.958  68.255  1.00  0.00    -0.058 C  
BRANCH  27  28
HETATM   28  C   UNL     1      -6.143   6.274  66.950  1.00  0.00    -0.025 C  
HETATM   29  C   UNL     1      -5.126   5.152  67.279  1.00  0.00    -0.004 C  
HETATM   30  N   UNL     1      -5.739   3.834  67.511  1.00  0.00    -0.021 NA 
HETATM   31  C   UNL     1      -6.763   3.857  68.568  1.00  0.00    -0.046 C  
HETATM   32  C   UNL     1      -6.259   3.310  66.212  1.00  0.00    -0.028 C  
HETATM   33  C   UNL     1      -7.206   2.054  66.364  1.00  0.00    -0.056 C  
HETATM   34  C   UNL     1      -8.500   2.208  65.650  1.00  0.00    -0.100 A  
HETATM   35  C   UNL     1      -9.726   1.594  65.765  1.00  0.00     0.517 A  
HETATM   36  N   UNL     1     -10.530   2.064  64.751  1.00  0.00     0.125 NA 
HETATM   37  C   UNL     1      -9.851   2.987  63.987  1.00  0.00    -0.159 A  
HETATM   38  H   UNL     1     -11.494   1.771  64.588  1.00  0.00     0.000 HD 
HETATM   39  C   UNL     1     -10.188   3.756  62.868  1.00  0.00    -0.187 A  
HETATM   40  C   UNL     1      -9.203   4.634  62.376  1.00  0.00    -0.111 A  
HETATM   41  C   UNL     1      -7.988   4.819  63.041  1.00  0.00    -0.080 A  
HETATM   42  C   UNL     1      -7.730   4.114  64.218  1.00  0.00    -0.084 A  
HETATM   43  C   UNL     1      -8.626   3.127  64.600  1.00  0.00    -0.099 A  
HETATM   44  C   UNL     1      -6.704   4.499  65.236  1.00  0.00    -0.049 C  
HETATM   45  C   UNL     1      -7.262   5.698  66.067  1.00  0.00    -0.073 C  
ENDBRANCH  27  28
ENDBRANCH  16  24
TORSDOF 2
ENDMDL
MODEL       79
REMARK 921   NORMALIZED FREE ENERGY PREDICTED BY IDOCK:   -1.86 KCAL/MOL
REMARK 922        TOTAL FREE ENERGY PREDICTED BY IDOCK:   -3.26 KCAL/MOL
REMARK 923 INTER-LIGAND FREE ENERGY PREDICTED BY IDOCK:   -5.00 KCAL/MOL
REMARK 924 INTRA-LIGAND FREE ENERGY PREDICTED BY IDOCK:    1.75 KCAL/MOL
REMARK 927      BINDING AFFINITY PREDICTED BY RF-SCORE:    0.00 PKD
ROOT
HETATM    1  C   UNL     1     -11.721   8.466  70.899  1.00  0.00    -0.246 C  
HETATM    2  C   UNL     1     -13.050   9.126  71.296  1.00  0.00    -0.297 C  
HETATM    3  C   UNL     1     -13.988   7.914  71.612  1.00  0.00    -0.482 C  
HETATM    4  C   UNL     1     -13.216   6.662  71.215  1.00  0.00     0.126 C  
HETATM    5  N   UNL     1     -12.103   7.156  70.428  1.00  0.00    -0.160 N  
HETATM    6  C   UNL     1     -11.117   6.248  70.127  1.00  0.00    -0.377 C  
HETATM    7  O   UNL     1     -11.396   5.089  69.834  1.00  0.00     1.069 OA 
HETATM    8  C   UNL     1      -9.698   6.860  70.038  1.00  0.00    -0.167 C  
HETATM    9  N   UNL     1      -9.506   8.057  71.069  1.00  0.00    -0.155 N  
HETATM   10  C   UNL     1      -8.669   5.739  70.021  1.00  0.00    -0.132 C  
HETATM   11  C   UNL     1      -8.635   5.034  71.364  1.00  0.00    -0.132 C  
HETATM   12  C   UNL     1      -8.361   8.825  71.305  1.00  0.00    -0.176 C  
HETATM   13  C   UNL     1      -8.702   4.916  68.720  1.00  0.00    -0.105 C  
HETATM   14  O   UNL     1      -7.868   8.986  72.421  1.00  0.00    -0.345 OA 
HETATM   15  C   UNL     1      -7.408   4.162  71.488  1.00  0.00    -0.055 C  
HETATM   16  C   UNL     1      -7.884   9.354  69.958  1.00  0.00    -0.132 C  
HETATM   17  H   UNL     1      -9.441  10.741  70.954  1.00  0.00     0.000 HD 
HETATM   18  C   UNL     1      -6.673   8.291  69.861  1.00  0.00    -0.043 C  
HETATM   19  O   UNL     1      -9.361   9.262  69.360  1.00  0.00    -0.153 OA 
HETATM   20  O   UNL     1     -10.285  10.366  71.180  1.00  0.00     0.784 OA 
HETATM   21  C   UNL     1     -10.268   9.111  70.509  1.00  0.00    -0.235 C  
HETATM   22  C   UNL     1      -5.370   8.709  70.599  1.00  0.00    -0.027 C  
HETATM   23  C   UNL     1      -6.310   7.671  68.518  1.00  0.00    -0.044 C  
ENDROOT
BRANCH  16  24
HETATM   24  N   UNL     1      -7.370  10.540  69.333  1.00  0.00    -0.119 N  
HETATM   25  H   UNL     1      -7.600  10.634  68.344  1.00  0.00     0.000 HD 
HETATM   26  O   UNL     1      -6.122  11.559  70.965  1.00  0.00    -0.342 OA 
HETATM   27  C   UNL     1      -6.618  11.571  69.851  1.00  0.00    -0.059 C  
BRANCH  27  28
HETATM   28  C   UNL     1      -6.509  12.718  68.840  1.00  0.00    -0.091 C  
HETATM   29  C   UNL     1      -6.602  12.132  67.408  1.00  0.00    -0.147 C  
HETATM   30  N   UNL     1      -7.970  12.081  66.866  1.00  0.00    -0.146 NA 
HETATM   31  C   UNL     1      -8.901  11.340  67.732  1.00  0.00    -0.141 C  
HETATM   32  C   UNL     1      -8.427  13.475  66.584  1.00  0.00     0.163 C  
HETATM   33  C   UNL     1      -9.976  13.591  66.290  1.00  0.00    -0.302 C  
HETATM   34  C   UNL     1     -10.651  14.627  67.114  1.00  0.00    -0.282 A  
HETATM   35  C   UNL     1     -11.961  14.850  67.471  1.00  0.00    -0.131 A  
HETATM   36  N   UNL     1     -12.013  16.041  68.160  1.00  0.00    -0.177 NA 
HETATM   37  C   UNL     1     -10.754  16.589  68.272  1.00  0.00    -0.345 A  
HETATM   38  H   UNL     1     -12.865  16.459  68.536  1.00  0.00     0.000 HD 
HETATM   39  C   UNL     1     -10.252  17.752  68.862  1.00  0.00    -0.345 A  
HETATM   40  C   UNL     1      -8.860  17.955  68.790  1.00  0.00    -0.206 A  
HETATM   41  C   UNL     1      -8.005  16.986  68.260  1.00  0.00    -0.222 A  
HETATM   42  C   UNL     1      -8.533  15.788  67.778  1.00  0.00    -0.162 A  
HETATM   43  C   UNL     1      -9.911  15.667  67.692  1.00  0.00    -0.237 A  
HETATM   44  C   UNL     1      -7.749  14.529  67.581  1.00  0.00    -0.194 C  
HETATM   45  C   UNL     1      -7.514  13.873  68.979  1.00  0.00    -0.032 C  
ENDBRANCH  27  28
ENDBRANCH  16  24
TORSDOF 2
ENDMDL
MODEL       80
REMARK 921   NORMALIZED FREE ENERGY PREDICTED BY IDOCK:   -1.77 KCAL/MOL
REMARK 922        TOTAL FREE ENERGY PREDICTED BY IDOCK:   -3.16 KCAL/MOL
REMARK 923 INTER-LIGAND FREE ENERGY PREDICTED BY IDOCK:   -3.19 KCAL/MOL
REMARK 924 INTRA-LIGAND FREE ENERGY PREDICTED BY IDOCK:    0.03 KCAL/MOL
REMARK 927      BINDING AFFINITY PREDICTED BY RF-SCORE:    0.00 PKD
ROOT
HETATM    1  C   UNL     1      -6.773  16.656  70.054  1.00  0.00     0.327 C  
HETATM    2  C   UNL     1      -5.762  16.690  71.209  1.00  0.00     0.602 C  
HETATM    3  C   UNL     1      -5.185  18.144  71.154  1.00  0.00    -0.230 C  
HETATM    4  C   UNL     1      -5.755  18.783  69.894  1.00  0.00    -0.243 C  
HETATM    5  N   UNL     1      -6.307  17.672  69.142  1.00  0.00    -0.222 N  
HETATM    6  C   UNL     1      -7.085  17.996  68.057  1.00  0.00    -0.220 C  
HETATM    7  O   UNL     1      -6.782  18.932  67.321  1.00  0.00    -0.203 OA 
HETATM    8  C   UNL     1      -8.233  16.996  67.780  1.00  0.00    -0.192 C  
HETATM    9  N   UNL     1      -8.816  16.379  69.127  1.00  0.00    -0.226 N  
HETATM   10  C   UNL     1      -9.201  17.610  66.780  1.00  0.00    -0.281 C  
HETATM   11  C   UNL     1      -9.934  18.782  67.406  1.00  0.00    -0.378 C  
HETATM   12  C   UNL     1      -9.872  15.476  69.283  1.00  0.00    -0.270 C  
HETATM   13  C   UNL     1      -8.601  17.743  65.369  1.00  0.00     1.433 C  
HETATM   14  O   UNL     1     -10.832  15.675  70.027  1.00  0.00    -0.278 OA 
HETATM   15  C   UNL     1     -11.126  19.185  66.572  1.00  0.00     0.009 C  
HETATM   16  C   UNL     1      -9.595  14.291  68.367  1.00  0.00    -0.221 C  
HETATM   17  H   UNL     1      -8.623  14.048  70.448  1.00  0.00     0.000 HD 
HETATM   18  C   UNL     1     -10.679  14.764  67.267  1.00  0.00    -0.294 C  
HETATM   19  O   UNL     1      -8.024  14.569  68.423  1.00  0.00    -0.126 OA 
HETATM   20  O   UNL     1      -8.025  14.727  70.739  1.00  0.00     1.162 OA 
HETATM   21  C   UNL     1      -7.804  15.485  69.554  1.00  0.00    -0.194 C  
HETATM   22  C   UNL     1     -12.143  14.326  67.557  1.00  0.00    -0.347 C  
HETATM   23  C   UNL     1     -10.387  14.584  65.784  1.00  0.00    -0.347 C  
ENDROOT
BRANCH  16  24
HETATM   24  N   UNL     1      -9.653  12.857  68.332  1.00  0.00    -0.320 N  
HETATM   25  H   UNL     1     -10.453  12.451  68.817  1.00  0.00     0.000 HD 
HETATM   26  O   UNL     1      -7.725  12.226  67.264  1.00  0.00    -0.154 OA 
HETATM   27  C   UNL     1      -8.805  11.940  67.751  1.00  0.00    -0.166 C  
BRANCH  27  28
HETATM   28  C   UNL     1      -9.418  10.535  67.799  1.00  0.00    -0.162 C  
HETATM   29  C   UNL     1     -10.256  10.312  66.515  1.00  0.00    -0.226 C  
HETATM   30  N   UNL     1      -9.505   9.704  65.404  1.00  0.00    -0.262 NA 
HETATM   31  C   UNL     1      -8.298  10.466  65.044  1.00  0.00    -0.166 C  
HETATM   32  C   UNL     1      -9.209   8.280  65.747  1.00  0.00    -0.078 C  
HETATM   33  C   UNL     1      -8.152   7.599  64.789  1.00  0.00    -0.121 C  
HETATM   34  C   UNL     1      -7.040   6.940  65.521  1.00  0.00    -0.068 A  
HETATM   35  C   UNL     1      -5.769   6.549  65.165  1.00  0.00    -0.026 A  
HETATM   36  N   UNL     1      -5.220   5.874  66.232  1.00  0.00    -0.009 NA 
HETATM   37  C   UNL     1      -6.109   5.833  67.284  1.00  0.00    -0.025 A  
HETATM   38  H   UNL     1      -4.287   5.462  66.243  1.00  0.00     0.000 HD 
HETATM   39  C   UNL     1      -6.061   5.293  68.573  1.00  0.00    -0.026 A  
HETATM   40  C   UNL     1      -7.191   5.488  69.389  1.00  0.00    -0.065 A  
HETATM   41  C   UNL     1      -8.263   6.285  68.979  1.00  0.00    -0.114 A  
HETATM   42  C   UNL     1      -8.227   6.899  67.726  1.00  0.00    -0.117 A  
HETATM   43  C   UNL     1      -7.197   6.563  66.861  1.00  0.00    -0.078 A  
HETATM   44  C   UNL     1      -9.062   8.075  67.329  1.00  0.00    -0.153 C  
HETATM   45  C   UNL     1      -8.450   9.354  67.983  1.00  0.00    -0.120 C  
ENDBRANCH  27  28
ENDBRANCH  16  24
TORSDOF 2
ENDMDL
MODEL       81
REMARK 921   NORMALIZED FREE ENERGY PREDICTED BY IDOCK:   -1.54 KCAL/MOL
REMARK 922        TOTAL FREE ENERGY PREDICTED BY IDOCK:   -2.90 KCAL/MOL
REMARK 923 INTER-LIGAND FREE ENERGY PREDICTED BY IDOCK:   -2.73 KCAL/MOL
REMARK 924 INTRA-LIGAND FREE ENERGY PREDICTED BY IDOCK:   -0.16 KCAL/MOL
REMARK 927      BINDING AFFINITY PREDICTED BY RF-SCORE:    0.00 PKD
ROOT
HETATM    1  C   UNL     1      -9.562   6.370  67.225  1.00  0.00    -0.125 C  
HETATM    2  C   UNL     1     -10.635   6.378  66.126  1.00  0.00     0.411 C  
HETATM    3  C   UNL     1     -10.698   4.886  65.658  1.00  0.00    -0.139 C  
HETATM    4  C   UNL     1      -9.562   4.165  66.373  1.00  0.00    -0.202 C  
HETATM    5  N   UNL     1      -8.735   5.231  66.906  1.00  0.00    -0.112 N  
HETATM    6  C   UNL     1      -7.753   4.857  67.791  1.00  0.00    -0.083 C  
HETATM    7  O   UNL     1      -7.104   3.829  67.615  1.00  0.00    -0.054 OA 
HETATM    8  C   UNL     1      -7.454   5.909  68.886  1.00  0.00    -0.085 C  
HETATM    9  N   UNL     1      -8.765   6.706  69.312  1.00  0.00    -0.131 N  
HETATM   10  C   UNL     1      -6.602   5.271  69.973  1.00  0.00    -0.039 C  
HETATM   11  C   UNL     1      -7.406   4.232  70.731  1.00  0.00    -0.044 C  
HETATM   12  C   UNL     1      -8.898   7.699  70.287  1.00  0.00    -0.145 C  
HETATM   13  C   UNL     1      -5.174   4.945  69.501  1.00  0.00     0.000 C  
HETATM   14  O   UNL     1      -9.729   7.655  71.194  1.00  0.00    -0.163 OA 
HETATM   15  C   UNL     1      -6.711   3.837  72.013  1.00  0.00    -0.019 C  
HETATM   16  C   UNL     1      -7.839   8.758  70.005  1.00  0.00    -0.094 C  
HETATM   17  H   UNL     1      -9.804   9.140  68.850  1.00  0.00     0.000 HD 
HETATM   18  C   UNL     1      -6.882   8.259  71.205  1.00  0.00    -0.059 C  
HETATM   19  O   UNL     1      -7.809   8.366  68.458  1.00  0.00    -0.115 OA 
HETATM   20  O   UNL     1     -10.122   8.451  68.279  1.00  0.00    -0.186 OA 
HETATM   21  C   UNL     1      -9.014   7.559  68.209  1.00  0.00    -0.130 C  
HETATM   22  C   UNL     1      -7.230   8.836  72.606  1.00  0.00     0.097 C  
HETATM   23  C   UNL     1      -5.370   8.260  71.025  1.00  0.00    -0.029 C  
ENDROOT
BRANCH  16  24
HETATM   24  N   UNL     1      -7.652  10.181  69.966  1.00  0.00    -0.217 N  
HETATM   25  H   UNL     1      -8.413  10.722  70.376  1.00  0.00     0.000 HD 
HETATM   26  O   UNL     1      -5.694  10.475  68.809  1.00  0.00    -0.041 OA 
HETATM   27  C   UNL     1      -6.612  10.934  69.467  1.00  0.00    -0.109 C  
BRANCH  27  28
HETATM   28  C   UNL     1      -6.775  12.405  69.864  1.00  0.00     0.221 C  
HETATM   29  C   UNL     1      -5.570  13.208  69.312  1.00  0.00    -0.079 C  
HETATM   30  N   UNL     1      -5.789  13.778  67.973  1.00  0.00    -0.122 NA 
HETATM   31  C   UNL     1      -6.167  12.764  66.975  1.00  0.00     0.306 C  
HETATM   32  C   UNL     1      -6.786  14.886  68.078  1.00  0.00    -0.141 C  
HETATM   33  C   UNL     1      -7.341  15.379  66.683  1.00  0.00     0.450 C  
HETATM   34  C   UNL     1      -8.826  15.421  66.627  1.00  0.00    -0.330 A  
HETATM   35  C   UNL     1      -9.737  15.431  65.595  1.00  0.00    -0.331 A  
HETATM   36  N   UNL     1     -10.990  15.595  66.141  1.00  0.00    -0.261 NA 
HETATM   37  C   UNL     1     -10.911  15.676  67.514  1.00  0.00    -0.316 A  
HETATM   38  H   UNL     1     -11.856  15.649  65.604  1.00  0.00     0.000 HD 
HETATM   39  C   UNL     1     -11.856  15.835  68.532  1.00  0.00    -0.233 A  
HETATM   40  C   UNL     1     -11.375  15.841  69.855  1.00  0.00    -0.349 A  
HETATM   41  C   UNL     1     -10.033  15.583  70.148  1.00  0.00    -0.081 A  
HETATM   42  C   UNL     1      -9.138  15.321  69.111  1.00  0.00    -0.236 A  
HETATM   43  C   UNL     1      -9.579  15.487  67.807  1.00  0.00    -0.209 A  
HETATM   44  C   UNL     1      -7.819  14.634  69.275  1.00  0.00    -0.071 C  
HETATM   45  C   UNL     1      -8.080  13.104  69.448  1.00  0.00     0.860 C  
ENDBRANCH  27  28
ENDBRANCH  16  24
TORSDOF 2
ENDMDL
MODEL       82
REMARK 921   NORMALIZED FREE ENERGY PREDICTED BY IDOCK:   -1.53 KCAL/MOL
REMARK 922        TOTAL FREE ENERGY PREDICTED BY IDOCK:   -2.89 KCAL/MOL
REMARK 923 INTER-LIGAND FREE ENERGY PREDICTED BY IDOCK:   -3.25 KCAL/MOL
REMARK 924 INTRA-LIGAND FREE ENERGY PREDICTED BY IDOCK:    0.36 KCAL/MOL
REMARK 927      BINDING AFFINITY PREDICTED BY RF-SCORE:    0.00 PKD
ROOT
HETATM    1  C   UNL     1      -8.761  11.359  68.317  1.00  0.00    -0.160 C  
HETATM    2  C   UNL     1      -7.765  12.236  67.544  1.00  0.00    -0.158 C  
HETATM    3  C   UNL     1      -8.531  13.587  67.350  1.00  0.00    -0.203 C  
HETATM    4  C   UNL     1      -9.949  13.350  67.855  1.00  0.00    -0.236 C  
HETATM    5  N   UNL     1     -10.053  11.909  67.983  1.00  0.00    -0.189 N  
HETATM    6  C   UNL     1     -11.164  11.433  68.634  1.00  0.00    -0.243 C  
HETATM    7  O   UNL     1     -12.265  11.950  68.464  1.00  0.00    -0.391 OA 
HETATM    8  C   UNL     1     -10.919  10.131  69.435  1.00  0.00    -0.245 C  
HETATM    9  N   UNL     1      -9.452  10.084  70.050  1.00  0.00    -0.198 N  
HETATM   10  C   UNL     1     -12.104   9.879  70.355  1.00  0.00    -0.230 C  
HETATM   11  C   UNL     1     -12.156  10.929  71.449  1.00  0.00    -0.241 C  
HETATM   12  C   UNL     1      -8.880   9.095  70.856  1.00  0.00    -0.233 C  
HETATM   13  C   UNL     1     -13.386   9.500  69.591  1.00  0.00     2.450 C  
HETATM   14  O   UNL     1      -8.346   9.327  71.941  1.00  0.00    -0.265 OA 
HETATM   15  C   UNL     1     -13.096  10.513  72.556  1.00  0.00     0.309 C  
HETATM   16  C   UNL     1      -9.078   7.761  70.148  1.00  0.00    -0.153 C  
HETATM   17  H   UNL     1      -7.140   8.834  69.489  1.00  0.00     0.000 HD 
HETATM   18  C   UNL     1     -10.280   7.310  71.127  1.00  0.00    -0.197 C  
HETATM   19  O   UNL     1      -9.148   8.486  68.727  1.00  0.00    -0.142 OA 
HETATM   20  O   UNL     1      -7.221   9.713  69.136  1.00  0.00    -0.063 OA 
HETATM   21  C   UNL     1      -8.623   9.846  68.927  1.00  0.00    -0.135 C  
HETATM   22  C   UNL     1      -9.829   6.649  72.460  1.00  0.00    -0.176 C  
HETATM   23  C   UNL     1     -11.472   6.545  70.568  1.00  0.00    -0.448 C  
ENDROOT
BRANCH  16  24
HETATM   24  N   UNL     1      -8.392   6.539  69.837  1.00  0.00    -0.129 N  
HETATM   25  H   UNL     1      -8.678   6.099  68.963  1.00  0.00     0.000 HD 
HETATM   26  O   UNL     1      -7.052   6.150  71.658  1.00  0.00    -0.077 OA 
HETATM   27  C   UNL     1      -7.410   5.862  70.528  1.00  0.00    -0.085 C  
BRANCH  27  28
HETATM   28  C   UNL     1      -6.841   4.723  69.675  1.00  0.00    -0.052 C  
HETATM   29  C   UNL     1      -7.546   3.401  70.071  1.00  0.00    -0.044 C  
HETATM   30  N   UNL     1      -8.746   3.098  69.275  1.00  0.00    -0.073 NA 
HETATM   31  C   UNL     1      -9.741   4.182  69.304  1.00  0.00    -0.149 C  
HETATM   32  C   UNL     1      -8.324   2.737  67.888  1.00  0.00    -0.080 C  
HETATM   33  C   UNL     1      -9.516   2.687  66.851  1.00  0.00     0.030 C  
HETATM   34  C   UNL     1      -9.258   3.487  65.626  1.00  0.00    -0.158 A  
HETATM   35  C   UNL     1     -10.072   4.024  64.654  1.00  0.00    -0.206 A  
HETATM   36  N   UNL     1      -9.265   4.573  63.683  1.00  0.00    -0.260 NA 
HETATM   37  C   UNL     1      -7.938   4.416  64.016  1.00  0.00    -0.091 A  
HETATM   38  H   UNL     1      -9.602   5.032  62.837  1.00  0.00     0.000 HD 
HETATM   39  C   UNL     1      -6.735   4.781  63.403  1.00  0.00    -0.038 A  
HETATM   40  C   UNL     1      -5.546   4.462  64.088  1.00  0.00    -0.014 A  
HETATM   41  C   UNL     1      -5.566   3.913  65.373  1.00  0.00    -0.014 A  
HETATM   42  C   UNL     1      -6.788   3.662  65.998  1.00  0.00    -0.060 A  
HETATM   43  C   UNL     1      -7.948   3.815  65.255  1.00  0.00    -0.093 A  
HETATM   44  C   UNL     1      -6.971   3.485  67.472  1.00  0.00    -0.054 C  
HETATM   45  C   UNL     1      -6.904   4.891  68.148  1.00  0.00    -0.056 C  
ENDBRANCH  27  28
ENDBRANCH  16  24
TORSDOF 2
ENDMDL
MODEL       83
REMARK 921   NORMALIZED FREE ENERGY PREDICTED BY IDOCK:   -1.36 KCAL/MOL
REMARK 922        TOTAL FREE ENERGY PREDICTED BY IDOCK:   -2.70 KCAL/MOL
REMARK 923 INTER-LIGAND FREE ENERGY PREDICTED BY IDOCK:   -2.93 KCAL/MOL
REMARK 924 INTRA-LIGAND FREE ENERGY PREDICTED BY IDOCK:    0.24 KCAL/MOL
REMARK 927      BINDING AFFINITY PREDICTED BY RF-SCORE:    0.00 PKD
ROOT
HETATM    1  C   UNL     1      -7.778  15.016  66.959  1.00  0.00    -0.084 C  
HETATM    2  C   UNL     1      -6.717  16.001  66.448  1.00  0.00     0.922 C  
HETATM    3  C   UNL     1      -7.427  17.393  66.540  1.00  0.00    -0.315 C  
HETATM    4  C   UNL     1      -8.875  17.109  66.921  1.00  0.00    -0.235 C  
HETATM    5  N   UNL     1      -9.033  15.683  66.709  1.00  0.00    -0.238 N  
HETATM    6  C   UNL     1     -10.190  15.120  67.190  1.00  0.00    -0.247 C  
HETATM    7  O   UNL     1     -11.263  15.710  67.100  1.00  0.00    -0.269 OA 
HETATM    8  C   UNL     1     -10.027  13.660  67.678  1.00  0.00    -0.239 C  
HETATM    9  N   UNL     1      -8.594  13.410  68.323  1.00  0.00    -0.173 N  
HETATM   10  C   UNL     1     -11.264  13.256  68.468  1.00  0.00    -0.304 C  
HETATM   11  C   UNL     1     -11.333  14.030  69.772  1.00  0.00    -0.239 C  
HETATM   12  C   UNL     1      -8.095  12.239  68.902  1.00  0.00     0.160 C  
HETATM   13  C   UNL     1     -12.519  13.118  67.587  1.00  0.00     0.323 C  
HETATM   14  O   UNL     1      -7.607  12.193  70.031  1.00  0.00     0.988 OA 
HETATM   15  C   UNL     1     -12.339  13.414  70.716  1.00  0.00    -0.433 C  
HETATM   16  C   UNL     1      -8.303  11.112  67.899  1.00  0.00    -0.129 C  
HETATM   17  H   UNL     1      -6.301  12.222  67.581  1.00  0.00     0.000 HD 
HETATM   18  C   UNL     1      -9.566  10.502  68.700  1.00  0.00    -0.171 C  
HETATM   19  O   UNL     1      -8.281  12.144  66.681  1.00  0.00    -0.129 OA 
HETATM   20  O   UNL     1      -6.335  13.160  67.436  1.00  0.00    -0.219 OA 
HETATM   21  C   UNL     1      -7.720  13.398  67.209  1.00  0.00    -0.079 C  
HETATM   22  C   UNL     1      -9.202   9.535  69.862  1.00  0.00    -0.242 C  
HETATM   23  C   UNL     1     -10.754   9.938  67.933  1.00  0.00    -0.316 C  
ENDROOT
BRANCH  16  24
HETATM   24  N   UNL     1      -7.644   9.964  67.342  1.00  0.00    -0.091 N  
HETATM   25  H   UNL     1      -7.534   9.181  67.987  1.00  0.00     0.000 HD 
HETATM   26  O   UNL     1      -7.040  10.613  65.227  1.00  0.00    -0.089 OA 
HETATM   27  C   UNL     1      -7.137   9.747  66.080  1.00  0.00    -0.101 C  
BRANCH  27  28
HETATM   28  C   UNL     1      -6.731   8.279  65.909  1.00  0.00    -0.053 C  
HETATM   29  C   UNL     1      -5.266   8.107  66.386  1.00  0.00    -0.025 C  
HETATM   30  N   UNL     1      -5.135   7.745  67.807  1.00  0.00    -0.029 NA 
HETATM   31  C   UNL     1      -5.807   8.699  68.704  1.00  0.00    -0.044 C  
HETATM   32  C   UNL     1      -5.613   6.342  67.992  1.00  0.00    -0.008 C  
HETATM   33  C   UNL     1      -5.815   5.931  69.505  1.00  0.00    -0.020 C  
HETATM   34  C   UNL     1      -7.151   5.339  69.775  1.00  0.00    -0.059 A  
HETATM   35  C   UNL     1      -7.899   5.167  70.918  1.00  0.00    -0.096 A  
HETATM   36  N   UNL     1      -9.021   4.444  70.583  1.00  0.00    -0.102 NA 
HETATM   37  C   UNL     1      -9.024   4.156  69.236  1.00  0.00    -0.109 A  
HETATM   38  H   UNL     1      -9.750   4.161  71.239  1.00  0.00     0.000 HD 
HETATM   39  C   UNL     1      -9.905   3.472  68.393  1.00  0.00     0.100 A  
HETATM   40  C   UNL     1      -9.566   3.413  67.027  1.00  0.00    -0.117 A  
HETATM   41  C   UNL     1      -8.465   4.105  66.515  1.00  0.00    -0.104 A  
HETATM   42  C   UNL     1      -7.670   4.869  67.371  1.00  0.00    -0.091 A  
HETATM   43  C   UNL     1      -7.905   4.782  68.734  1.00  0.00    -0.076 A  
HETATM   44  C   UNL     1      -6.751   5.964  66.931  1.00  0.00    -0.058 C  
HETATM   45  C   UNL     1      -7.613   7.223  66.595  1.00  0.00    -0.093 C  
ENDBRANCH  27  28
ENDBRANCH  16  24
TORSDOF 2
ENDMDL
MODEL       84
REMARK 921   NORMALIZED FREE ENERGY PREDICTED BY IDOCK:   -1.14 KCAL/MOL
REMARK 922        TOTAL FREE ENERGY PREDICTED BY IDOCK:   -2.45 KCAL/MOL
REMARK 923 INTER-LIGAND FREE ENERGY PREDICTED BY IDOCK:   -1.72 KCAL/MOL
REMARK 924 INTRA-LIGAND FREE ENERGY PREDICTED BY IDOCK:   -0.72 KCAL/MOL
REMARK 927      BINDING AFFINITY PREDICTED BY RF-SCORE:    0.00 PKD
ROOT
HETATM    1  C   UNL     1      -7.276   7.016  72.206  1.00  0.00    -0.073 C  
HETATM    2  C   UNL     1      -6.010   6.910  73.069  1.00  0.00    -0.056 C  
HETATM    3  C   UNL     1      -6.446   7.514  74.445  1.00  0.00    -0.092 C  
HETATM    4  C   UNL     1      -7.846   8.079  74.239  1.00  0.00    -0.230 C  
HETATM    5  N   UNL     1      -8.020   8.101  72.800  1.00  0.00    -0.147 N  
HETATM    6  C   UNL     1      -9.289   8.361  72.342  1.00  0.00    -0.285 C  
HETATM    7  O   UNL     1      -9.998   9.198  72.895  1.00  0.00     0.571 OA 
HETATM    8  C   UNL     1      -9.644   7.643  71.018  1.00  0.00    -0.163 C  
HETATM    9  N   UNL     1      -8.949   6.214  70.917  1.00  0.00    -0.142 N  
HETATM   10  C   UNL     1     -11.144   7.743  70.782  1.00  0.00    -0.265 C  
HETATM   11  C   UNL     1     -11.897   6.920  71.811  1.00  0.00    -0.354 C  
HETATM   12  C   UNL     1      -9.060   5.265  69.896  1.00  0.00    -0.130 C  
HETATM   13  C   UNL     1     -11.605   9.175  70.455  1.00  0.00    -0.238 C  
HETATM   14  O   UNL     1      -9.374   4.091  70.090  1.00  0.00    -0.133 OA 
HETATM   15  C   UNL     1     -13.337   6.724  71.400  1.00  0.00    -0.150 C  
HETATM   16  C   UNL     1      -8.752   5.973  68.582  1.00  0.00    -0.110 C  
HETATM   17  H   UNL     1      -6.854   5.153  69.613  1.00  0.00     0.000 HD 
HETATM   18  C   UNL     1     -10.305   6.047  68.147  1.00  0.00    -0.251 C  
HETATM   19  O   UNL     1      -7.861   7.061  69.337  1.00  0.00    -0.109 OA 
HETATM   20  O   UNL     1      -6.673   5.441  70.500  1.00  0.00    -0.043 OA 
HETATM   21  C   UNL     1      -7.587   6.519  70.677  1.00  0.00    -0.102 C  
HETATM   22  C   UNL     1     -10.853   4.771  67.447  1.00  0.00     0.651 C  
HETATM   23  C   UNL     1     -10.837   7.279  67.428  1.00  0.00    -0.317 C  
ENDROOT
BRANCH  16  24
HETATM   24  N   UNL     1      -8.042   5.796  67.348  1.00  0.00    -0.102 N  
HETATM   25  H   UNL     1      -8.145   6.562  66.683  1.00  0.00     0.000 HD 
HETATM   26  O   UNL     1      -7.129   3.697  67.503  1.00  0.00    -0.057 OA 
HETATM   27  C   UNL     1      -7.245   4.759  66.914  1.00  0.00    -0.077 C  
BRANCH  27  28
HETATM   28  C   UNL     1      -6.531   5.138  65.612  1.00  0.00    -0.036 C  
HETATM   29  C   UNL     1      -7.068   4.240  64.468  1.00  0.00    -0.051 C  
HETATM   30  N   UNL     1      -8.216   4.811  63.743  1.00  0.00    -0.108 NA 
HETATM   31  C   UNL     1      -9.339   5.154  64.630  1.00  0.00     0.183 C  
HETATM   32  C   UNL     1      -7.742   5.973  62.933  1.00  0.00    -0.090 C  
HETATM   33  C   UNL     1      -8.911   6.863  62.349  1.00  0.00     0.435 C  
HETATM   34  C   UNL     1      -8.747   8.310  62.645  1.00  0.00     0.117 A  
HETATM   35  C   UNL     1      -9.615   9.377  62.670  1.00  0.00     0.738 A  
HETATM   36  N   UNL     1      -8.876  10.517  62.897  1.00  0.00    -0.208 NA 
HETATM   37  C   UNL     1      -7.542  10.205  63.037  1.00  0.00    -0.143 A  
HETATM   38  H   UNL     1      -9.262  11.459  62.954  1.00  0.00     0.000 HD 
HETATM   39  C   UNL     1      -6.390  10.960  63.280  1.00  0.00     0.304 A  
HETATM   40  C   UNL     1      -5.176  10.255  63.390  1.00  0.00    -0.128 A  
HETATM   41  C   UNL     1      -5.135   8.859  63.376  1.00  0.00    -0.062 A  
HETATM   42  C   UNL     1      -6.320   8.135  63.240  1.00  0.00    -0.080 A  
HETATM   43  C   UNL     1      -7.486   8.831  62.959  1.00  0.00    -0.102 A  
HETATM   44  C   UNL     1      -6.490   6.697  63.620  1.00  0.00    -0.041 C  
HETATM   45  C   UNL     1      -6.604   6.610  65.175  1.00  0.00    -0.046 C  
ENDBRANCH  27  28
ENDBRANCH  16  24
TORSDOF 2
ENDMDL
MODEL       85
REMARK 921   NORMALIZED FREE ENERGY PREDICTED BY IDOCK:   -0.73 KCAL/MOL
REMARK 922        TOTAL FREE ENERGY PREDICTED BY IDOCK:   -2.00 KCAL/MOL
REMARK 923 INTER-LIGAND FREE ENERGY PREDICTED BY IDOCK:   -3.21 KCAL/MOL
REMARK 924 INTRA-LIGAND FREE ENERGY PREDICTED BY IDOCK:    1.22 KCAL/MOL
REMARK 927      BINDING AFFINITY PREDICTED BY RF-SCORE:    0.00 PKD
ROOT
HETATM    1  C   UNL     1      -9.012  10.251  69.552  1.00  0.00    -0.157 C  
HETATM    2  C   UNL     1      -7.995  11.107  68.782  1.00  0.00    -0.144 C  
HETATM    3  C   UNL     1      -8.853  12.293  68.227  1.00  0.00    -0.178 C  
HETATM    4  C   UNL     1     -10.304  11.960  68.554  1.00  0.00    -0.218 C  
HETATM    5  N   UNL     1     -10.278  10.561  68.934  1.00  0.00    -0.197 N  
HETATM    6  C   UNL     1     -11.428  10.060  69.493  1.00  0.00    -0.120 C  
HETATM    7  O   UNL     1     -12.532  10.391  69.069  1.00  0.00    -0.093 OA 
HETATM    8  C   UNL     1     -11.188   8.957  70.552  1.00  0.00    -0.252 C  
HETATM    9  N   UNL     1      -9.849   9.209  71.374  1.00  0.00    -0.303 N  
HETATM   10  C   UNL     1     -12.479   8.710  71.319  1.00  0.00    -0.284 C  
HETATM   11  C   UNL     1     -12.823   9.915  72.176  1.00  0.00    -0.435 C  
HETATM   12  C   UNL     1      -9.322   8.456  72.428  1.00  0.00    -0.285 C  
HETATM   13  C   UNL     1     -13.568   8.042  70.460  1.00  0.00     0.972 C  
HETATM   14  O   UNL     1      -9.005   8.936  73.516  1.00  0.00    -0.019 OA 
HETATM   15  C   UNL     1     -13.888   9.573  73.191  1.00  0.00     0.797 C  
HETATM   16  C   UNL     1      -9.259   7.006  71.962  1.00  0.00    -0.138 C  
HETATM   17  H   UNL     1      -7.360   8.198  71.405  1.00  0.00     0.000 HD 
HETATM   18  C   UNL     1     -10.556   6.574  72.821  1.00  0.00    -0.257 C  
HETATM   19  O   UNL     1      -9.164   7.463  70.436  1.00  0.00    -0.157 OA 
HETATM   20  O   UNL     1      -7.469   8.985  70.884  1.00  0.00    -0.093 OA 
HETATM   21  C   UNL     1      -8.823   8.895  70.450  1.00  0.00    -0.181 C  
HETATM   22  C   UNL     1     -10.270   6.214  74.307  1.00  0.00    -0.326 C  
HETATM   23  C   UNL     1     -11.551   5.575  72.248  1.00  0.00    -0.176 C  
ENDROOT
BRANCH  16  24
HETATM   24  N   UNL     1      -8.409   5.850  71.992  1.00  0.00    -0.115 N  
HETATM   25  H   UNL     1      -8.809   5.014  71.567  1.00  0.00     0.000 HD 
HETATM   26  O   UNL     1      -6.562   6.522  73.176  1.00  0.00    -0.067 OA 
HETATM   27  C   UNL     1      -7.139   5.686  72.501  1.00  0.00    -0.085 C  
BRANCH  27  28
HETATM   28  C   UNL     1      -6.567   4.324  72.090  1.00  0.00    -0.022 C  
HETATM   29  C   UNL     1      -7.294   3.215  72.891  1.00  0.00    -0.046 C  
HETATM   30  N   UNL     1      -8.484   2.668  72.219  1.00  0.00    -0.065 NA 
HETATM   31  C   UNL     1      -9.467   3.704  71.864  1.00  0.00    -0.136 C  
HETATM   32  C   UNL     1      -8.042   1.861  71.041  1.00  0.00    -0.046 C  
HETATM   33  C   UNL     1      -9.217   1.473  70.057  1.00  0.00    -0.161 C  
HETATM   34  C   UNL     1      -8.929   1.815  68.640  1.00  0.00    -0.157 A  
HETATM   35  C   UNL     1      -9.720   2.000  67.529  1.00  0.00     0.310 A  
HETATM   36  N   UNL     1      -8.890   2.188  66.447  1.00  0.00    -0.121 NA 
HETATM   37  C   UNL     1      -7.571   2.145  66.839  1.00  0.00    -0.065 A  
HETATM   38  H   UNL     1      -9.208   2.339  65.489  1.00  0.00     0.000 HD 
HETATM   39  C   UNL     1      -6.354   2.279  66.163  1.00  0.00    -0.024 A  
HETATM   40  C   UNL     1      -5.181   2.201  66.938  1.00  0.00    -0.008 A  
HETATM   41  C   UNL     1      -5.228   2.114  68.332  1.00  0.00    -0.012 A  
HETATM   42  C   UNL     1      -6.463   2.093  68.981  1.00  0.00    -0.029 A  
HETATM   43  C   UNL     1      -7.609   1.994  68.207  1.00  0.00    -0.054 A  
HETATM   44  C   UNL     1      -6.673   2.421  70.426  1.00  0.00    -0.033 C  
HETATM   45  C   UNL     1      -6.602   3.972  70.594  1.00  0.00    -0.032 C  
ENDBRANCH  27  28
ENDBRANCH  16  24
TORSDOF 2
ENDMDL
MODEL       86
REMARK 921   NORMALIZED FREE ENERGY PREDICTED BY IDOCK:   -0.52 KCAL/MOL
REMARK 922        TOTAL FREE ENERGY PREDICTED BY IDOCK:   -1.76 KCAL/MOL
REMARK 923 INTER-LIGAND FREE ENERGY PREDICTED BY IDOCK:   -0.95 KCAL/MOL
REMARK 924 INTRA-LIGAND FREE ENERGY PREDICTED BY IDOCK:   -0.81 KCAL/MOL
REMARK 927      BINDING AFFINITY PREDICTED BY RF-SCORE:    0.00 PKD
ROOT
HETATM    1  C   UNL     1      -6.964  13.516  69.764  1.00  0.00     0.274 C  
HETATM    2  C   UNL     1      -5.821  13.736  70.766  1.00  0.00    -0.188 C  
HETATM    3  C   UNL     1      -5.988  15.231  71.198  1.00  0.00     0.309 C  
HETATM    4  C   UNL     1      -7.079  15.813  70.308  1.00  0.00     0.518 C  
HETATM    5  N   UNL     1      -7.246  14.834  69.251  1.00  0.00    -0.157 N  
HETATM    6  C   UNL     1      -8.330  15.006  68.426  1.00  0.00    -0.154 C  
HETATM    7  O   UNL     1      -8.673  16.127  68.060  1.00  0.00    -0.173 OA 
HETATM    8  C   UNL     1      -8.940  13.685  67.898  1.00  0.00    -0.195 C  
HETATM    9  N   UNL     1      -8.827  12.514  68.971  1.00  0.00     0.360 N  
HETATM   10  C   UNL     1     -10.297  13.974  67.273  1.00  0.00    -0.264 C  
HETATM   11  C   UNL     1     -11.292  14.388  68.340  1.00  0.00    -0.312 C  
HETATM   12  C   UNL     1      -9.293  11.199  68.872  1.00  0.00    -0.106 C  
HETATM   13  C   UNL     1     -10.194  14.777  65.964  1.00  0.00    -0.320 C  
HETATM   14  O   UNL     1     -10.020  10.670  69.713  1.00  0.00    -0.137 OA 
HETATM   15  C   UNL     1     -12.706  14.346  67.810  1.00  0.00     0.885 C  
HETATM   16  C   UNL     1      -8.755  10.623  67.568  1.00  0.00    -0.125 C  
HETATM   17  H   UNL     1      -7.290  10.340  69.331  1.00  0.00     0.000 HD 
HETATM   18  C   UNL     1     -10.173  10.766  66.809  1.00  0.00    -0.279 C  
HETATM   19  O   UNL     1      -7.517  11.629  67.594  1.00  0.00    -0.103 OA 
HETATM   20  O   UNL     1      -7.007  11.117  69.799  1.00  0.00    -0.127 OA 
HETATM   21  C   UNL     1      -7.452  12.176  68.958  1.00  0.00     0.039 C  
HETATM   22  C   UNL     1     -11.163   9.589  67.037  1.00  0.00     0.515 C  
HETATM   23  C   UNL     1     -10.215  11.177  65.343  1.00  0.00    -0.327 C  
ENDROOT
BRANCH  16  24
HETATM   24  N   UNL     1      -8.174   9.431  67.019  1.00  0.00    -0.115 N  
HETATM   25  H   UNL     1      -8.329   8.588  67.570  1.00  0.00     0.000 HD 
HETATM   26  O   UNL     1      -7.030  10.148  65.165  1.00  0.00    -0.129 OA 
HETATM   27  C   UNL     1      -7.442   9.241  65.867  1.00  0.00    -0.095 C  
BRANCH  27  28
HETATM   28  C   UNL     1      -7.237   7.745  65.602  1.00  0.00    -0.068 C  
HETATM   29  C   UNL     1      -5.716   7.451  65.545  1.00  0.00    -0.037 C  
HETATM   30  N   UNL     1      -5.127   7.074  66.840  1.00  0.00    -0.013 NA 
HETATM   31  C   UNL     1      -5.368   8.076  67.891  1.00  0.00    -0.033 C  
HETATM   32  C   UNL     1      -5.620   5.714  67.214  1.00  0.00    -0.012 C  
HETATM   33  C   UNL     1      -5.314   5.314  68.713  1.00  0.00    -0.004 C  
HETATM   34  C   UNL     1      -6.514   4.833  69.445  1.00  0.00    -0.036 A  
HETATM   35  C   UNL     1      -6.829   4.718  70.780  1.00  0.00    -0.036 A  
HETATM   36  N   UNL     1      -8.051   4.091  70.873  1.00  0.00    -0.066 NA 
HETATM   37  C   UNL     1      -8.544   3.810  69.619  1.00  0.00    -0.069 A  
HETATM   38  H   UNL     1      -8.525   3.866  71.748  1.00  0.00     0.000 HD 
HETATM   39  C   UNL     1      -9.714   3.204  69.151  1.00  0.00     0.063 A  
HETATM   40  C   UNL     1      -9.878   3.123  67.754  1.00  0.00     0.254 A  
HETATM   41  C   UNL     1      -8.974   3.725  66.875  1.00  0.00    -0.154 A  
HETATM   42  C   UNL     1      -7.873   4.417  67.382  1.00  0.00    -0.096 A  
HETATM   43  C   UNL     1      -7.624   4.344  68.744  1.00  0.00    -0.063 A  
HETATM   44  C   UNL     1      -7.082   5.435  66.624  1.00  0.00    -0.069 C  
HETATM   45  C   UNL     1      -7.905   6.762  66.577  1.00  0.00    -0.104 C  
ENDBRANCH  27  28
ENDBRANCH  16  24
TORSDOF 2
ENDMDL
MODEL       87
REMARK 921   NORMALIZED FREE ENERGY PREDICTED BY IDOCK:   -0.52 KCAL/MOL
REMARK 922        TOTAL FREE ENERGY PREDICTED BY IDOCK:   -1.76 KCAL/MOL
REMARK 923 INTER-LIGAND FREE ENERGY PREDICTED BY IDOCK:   -4.57 KCAL/MOL
REMARK 924 INTRA-LIGAND FREE ENERGY PREDICTED BY IDOCK:    2.81 KCAL/MOL
REMARK 927      BINDING AFFINITY PREDICTED BY RF-SCORE:    0.00 PKD
ROOT
HETATM    1  C   UNL     1      -7.066  14.886  68.174  1.00  0.00    -0.119 C  
HETATM    2  C   UNL     1      -5.819  15.783  68.169  1.00  0.00    -0.133 C  
HETATM    3  C   UNL     1      -6.351  17.162  68.681  1.00  0.00    -0.163 C  
HETATM    4  C   UNL     1      -7.866  17.027  68.778  1.00  0.00    -0.253 C  
HETATM    5  N   UNL     1      -8.168  15.809  68.050  1.00  0.00    -0.139 N  
HETATM    6  C   UNL     1      -9.450  15.330  68.168  1.00  0.00    -0.203 C  
HETATM    7  O   UNL     1     -10.410  16.095  68.184  1.00  0.00    -0.252 OA 
HETATM    8  C   UNL     1      -9.556  13.787  68.111  1.00  0.00    -0.216 C  
HETATM    9  N   UNL     1      -8.290  13.083  68.771  1.00  0.00     0.047 N  
HETATM   10  C   UNL     1     -10.945  13.364  68.566  1.00  0.00    -0.292 C  
HETATM   11  C   UNL     1     -11.126  13.648  70.046  1.00  0.00     0.179 C  
HETATM   12  C   UNL     1      -8.044  11.717  68.938  1.00  0.00    -0.004 C  
HETATM   13  C   UNL     1     -12.048  13.757  67.567  1.00  0.00    -0.366 C  
HETATM   14  O   UNL     1      -7.756  11.205  70.020  1.00  0.00     0.285 OA 
HETATM   15  C   UNL     1     -12.341  12.936  70.591  1.00  0.00    -0.385 C  
HETATM   16  C   UNL     1      -8.229  11.053  67.579  1.00  0.00    -0.117 C  
HETATM   17  H   UNL     1      -6.078  11.832  67.899  1.00  0.00     0.000 HD 
HETATM   18  C   UNL     1      -9.672  10.441  67.967  1.00  0.00    -0.166 C  
HETATM   19  O   UNL     1      -7.878  12.416  66.827  1.00  0.00    -0.066 OA 
HETATM   20  O   UNL     1      -5.967  12.755  68.100  1.00  0.00    -0.068 OA 
HETATM   21  C   UNL     1      -7.256  13.297  67.828  1.00  0.00    -0.151 C  
HETATM   22  C   UNL     1      -9.628   9.089  68.734  1.00  0.00    -0.155 C  
HETATM   23  C   UNL     1     -10.783  10.390  66.927  1.00  0.00    -0.272 C  
ENDROOT
BRANCH  16  24
HETATM   24  N   UNL     1      -7.641  10.065  66.720  1.00  0.00    -0.102 N  
HETATM   25  H   UNL     1      -6.621  10.065  66.705  1.00  0.00     0.000 HD 
HETATM   26  O   UNL     1      -9.426   9.065  65.684  1.00  0.00    -0.244 OA 
HETATM   27  C   UNL     1      -8.229   9.117  65.912  1.00  0.00    -0.113 C  
BRANCH  27  28
HETATM   28  C   UNL     1      -7.174   8.149  65.363  1.00  0.00    -0.068 C  
HETATM   29  C   UNL     1      -6.003   8.062  66.374  1.00  0.00    -0.041 C  
HETATM   30  N   UNL     1      -6.146   6.988  67.370  1.00  0.00    -0.038 NA 
HETATM   31  C   UNL     1      -7.406   7.073  68.126  1.00  0.00    -0.097 C  
HETATM   32  C   UNL     1      -5.971   5.671  66.686  1.00  0.00    -0.018 C  
HETATM   33  C   UNL     1      -6.400   4.431  67.568  1.00  0.00    -0.037 C  
HETATM   34  C   UNL     1      -7.338   3.515  66.870  1.00  0.00    -0.067 A  
HETATM   35  C   UNL     1      -8.227   2.557  67.302  1.00  0.00    -0.077 A  
HETATM   36  N   UNL     1      -8.748   1.933  66.191  1.00  0.00    -0.113 NA 
HETATM   37  C   UNL     1      -8.225   2.482  65.041  1.00  0.00    -0.087 A  
HETATM   38  H   UNL     1      -9.427   1.172  66.215  1.00  0.00     0.000 HD 
HETATM   39  C   UNL     1      -8.411   2.235  63.677  1.00  0.00    -0.081 A  
HETATM   40  C   UNL     1      -7.698   3.050  62.777  1.00  0.00    -0.066 A  
HETATM   41  C   UNL     1      -6.932   4.133  63.218  1.00  0.00    -0.044 A  
HETATM   42  C   UNL     1      -6.858   4.416  64.582  1.00  0.00    -0.046 A  
HETATM   43  C   UNL     1      -7.417   3.510  65.471  1.00  0.00    -0.077 A  
HETATM   44  C   UNL     1      -6.448   5.734  65.159  1.00  0.00    -0.042 C  
HETATM   45  C   UNL     1      -7.643   6.728  65.009  1.00  0.00    -0.100 C  
ENDBRANCH  27  28
ENDBRANCH  16  24
TORSDOF 2
ENDMDL
MODEL       88
REMARK 921   NORMALIZED FREE ENERGY PREDICTED BY IDOCK:   -0.21 KCAL/MOL
REMARK 922        TOTAL FREE ENERGY PREDICTED BY IDOCK:   -1.41 KCAL/MOL
REMARK 923 INTER-LIGAND FREE ENERGY PREDICTED BY IDOCK:   -2.86 KCAL/MOL
REMARK 924 INTRA-LIGAND FREE ENERGY PREDICTED BY IDOCK:    1.45 KCAL/MOL
REMARK 927      BINDING AFFINITY PREDICTED BY RF-SCORE:    0.00 PKD
ROOT
HETATM    1  C   UNL     1     -12.131   9.257  71.190  1.00  0.00    -0.316 C  
HETATM    2  C   UNL     1     -13.231  10.224  71.653  1.00  0.00    -0.509 C  
HETATM    3  C   UNL     1     -14.140   9.340  72.570  1.00  0.00    -0.319 C  
HETATM    4  C   UNL     1     -13.622   7.913  72.438  1.00  0.00     0.095 C  
HETATM    5  N   UNL     1     -12.740   7.953  71.287  1.00  0.00    -0.272 N  
HETATM    6  C   UNL     1     -11.961   6.841  71.077  1.00  0.00    -0.379 C  
HETATM    7  O   UNL     1     -12.410   5.713  71.262  1.00  0.00     0.847 OA 
HETATM    8  C   UNL     1     -10.580   7.146  70.449  1.00  0.00    -0.224 C  
HETATM    9  N   UNL     1     -10.002   8.544  70.945  1.00  0.00    -0.183 N  
HETATM   10  C   UNL     1      -9.697   5.911  70.558  1.00  0.00    -0.217 C  
HETATM   11  C   UNL     1      -9.343   5.642  72.008  1.00  0.00    -0.165 C  
HETATM   12  C   UNL     1      -8.776   9.138  70.629  1.00  0.00    -0.229 C  
HETATM   13  C   UNL     1     -10.167   4.758  69.653  1.00  0.00    -0.200 C  
HETATM   14  O   UNL     1      -7.975   9.537  71.474  1.00  0.00    -0.225 OA 
HETATM   15  C   UNL     1      -8.209   4.649  72.115  1.00  0.00    -0.110 C  
HETATM   16  C   UNL     1      -8.658   9.154  69.109  1.00  0.00    -0.133 C  
HETATM   17  H   UNL     1      -9.745  11.019  69.933  1.00  0.00     0.000 HD 
HETATM   18  C   UNL     1      -7.620   7.918  69.081  1.00  0.00    -0.098 C  
HETATM   19  O   UNL     1     -10.247   9.143  68.951  1.00  0.00    -0.195 OA 
HETATM   20  O   UNL     1     -10.518  10.880  70.467  1.00  0.00     0.443 OA 
HETATM   21  C   UNL     1     -10.799   9.498  70.268  1.00  0.00    -0.269 C  
HETATM   22  C   UNL     1      -6.130   8.306  69.301  1.00  0.00    -0.038 C  
HETATM   23  C   UNL     1      -7.707   6.874  67.976  1.00  0.00    -0.113 C  
ENDROOT
BRANCH  16  24
HETATM   24  N   UNL     1      -8.245   9.993  68.021  1.00  0.00    -0.115 N  
HETATM   25  H   UNL     1      -8.879  10.000  67.223  1.00  0.00     0.000 HD 
HETATM   26  O   UNL     1      -6.192  10.795  68.658  1.00  0.00    -0.043 OA 
HETATM   27  C   UNL     1      -7.131  10.792  67.879  1.00  0.00    -0.085 C  
BRANCH  27  28
HETATM   28  C   UNL     1      -7.252  11.666  66.626  1.00  0.00    -0.025 C  
HETATM   29  C   UNL     1      -6.944  10.799  65.380  1.00  0.00     0.070 C  
HETATM   30  N   UNL     1      -8.130  10.165  64.780  1.00  0.00    -0.151 NA 
HETATM   31  C   UNL     1      -8.888   9.346  65.740  1.00  0.00    -0.171 C  
HETATM   32  C   UNL     1      -8.966  11.222  64.135  1.00  0.00     0.117 C  
HETATM   33  C   UNL     1     -10.410  10.731  63.722  1.00  0.00    -0.294 C  
HETATM   34  C   UNL     1     -11.493  11.617  64.222  1.00  0.00    -0.332 A  
HETATM   35  C   UNL     1     -12.843  11.442  64.428  1.00  0.00     1.282 A  
HETATM   36  N   UNL     1     -13.374  12.657  64.798  1.00  0.00    -0.588 NA 
HETATM   37  C   UNL     1     -12.388  13.617  64.852  1.00  0.00    -0.406 A  
HETATM   38  H   UNL     1     -14.359  12.823  65.004  1.00  0.00     0.000 HD 
HETATM   39  C   UNL     1     -12.377  14.978  65.170  1.00  0.00     0.048 A  
HETATM   40  C   UNL     1     -11.130  15.631  65.140  1.00  0.00    -0.357 A  
HETATM   41  C   UNL     1      -9.941  14.930  64.920  1.00  0.00    -0.081 A  
HETATM   42  C   UNL     1      -9.980  13.551  64.715  1.00  0.00    -0.156 A  
HETATM   43  C   UNL     1     -11.219  12.945  64.572  1.00  0.00    -0.372 A  
HETATM   44  C   UNL     1      -8.814  12.629  64.884  1.00  0.00     1.530 C  
HETATM   45  C   UNL     1      -8.584  12.403  66.412  1.00  0.00     0.076 C  
ENDBRANCH  27  28
ENDBRANCH  16  24
TORSDOF 2
ENDMDL
MODEL       89
REMARK 921   NORMALIZED FREE ENERGY PREDICTED BY IDOCK:    0.32 KCAL/MOL
REMARK 922        TOTAL FREE ENERGY PREDICTED BY IDOCK:   -0.83 KCAL/MOL
REMARK 923 INTER-LIGAND FREE ENERGY PREDICTED BY IDOCK:    0.10 KCAL/MOL
REMARK 924 INTRA-LIGAND FREE ENERGY PREDICTED BY IDOCK:   -0.93 KCAL/MOL
REMARK 927      BINDING AFFINITY PREDICTED BY RF-SCORE:    0.00 PKD
ROOT
HETATM    1  C   UNL     1     -10.106  18.491  68.854  1.00  0.00    -0.310 C  
HETATM    2  C   UNL     1     -11.283  19.393  69.256  1.00  0.00     2.479 C  
HETATM    3  C   UNL     1     -10.691  20.839  69.166  1.00  0.00     0.730 C  
HETATM    4  C   UNL     1      -9.200  20.674  68.898  1.00  0.00     0.965 C  
HETATM    5  N   UNL     1      -8.935  19.274  69.168  1.00  0.00    -0.226 N  
HETATM    6  C   UNL     1      -7.702  18.801  68.790  1.00  0.00    -0.318 C  
HETATM    7  O   UNL     1      -6.693  19.486  68.934  1.00  0.00    -0.283 OA 
HETATM    8  C   UNL     1      -7.703  17.320  68.341  1.00  0.00    -0.247 C  
HETATM    9  N   UNL     1      -9.058  16.926  67.606  1.00  0.00    -0.222 N  
HETATM   10  C   UNL     1      -6.382  17.005  67.653  1.00  0.00    -0.165 C  
HETATM   11  C   UNL     1      -6.285  17.745  66.333  1.00  0.00    -0.246 C  
HETATM   12  C   UNL     1      -9.412  15.700  67.034  1.00  0.00    -0.224 C  
HETATM   13  C   UNL     1      -5.187  17.003  68.624  1.00  0.00    -0.132 C  
HETATM   14  O   UNL     1      -9.810  15.580  65.875  1.00  0.00    -0.301 OA 
HETATM   15  C   UNL     1      -5.164  17.195  65.483  1.00  0.00     0.903 C  
HETATM   16  C   UNL     1      -9.181  14.624  68.087  1.00  0.00    -0.192 C  
HETATM   17  H   UNL     1     -11.288  15.561  68.226  1.00  0.00     0.000 HD 
HETATM   18  C   UNL     1      -7.815  14.107  67.398  1.00  0.00    -0.195 C  
HETATM   19  O   UNL     1      -9.380  15.684  69.264  1.00  0.00    -0.234 OA 
HETATM   20  O   UNL     1     -11.346  16.502  68.341  1.00  0.00    -0.348 OA 
HETATM   21  C   UNL     1     -10.006  16.868  68.656  1.00  0.00    -0.279 C  
HETATM   22  C   UNL     1      -8.009  13.079  66.247  1.00  0.00     1.156 C  
HETATM   23  C   UNL     1      -6.641  13.671  68.265  1.00  0.00    -0.108 C  
ENDROOT
BRANCH  16  24
HETATM   24  N   UNL     1      -9.776  13.439  68.635  1.00  0.00    -0.390 N  
HETATM   25  H   UNL     1      -9.113  12.710  68.898  1.00  0.00     0.000 HD 
HETATM   26  O   UNL     1     -12.036  13.802  68.476  1.00  0.00    -0.356 OA 
HETATM   27  C   UNL     1     -11.098  13.124  68.864  1.00  0.00    -0.266 C  
BRANCH  27  28
HETATM   28  C   UNL     1     -11.210  11.827  69.672  1.00  0.00    -0.225 C  
HETATM   29  C   UNL     1     -12.259  10.907  68.997  1.00  0.00    -0.042 C  
HETATM   30  N   UNL     1     -11.695   9.977  68.005  1.00  0.00     0.103 NA 
HETATM   31  C   UNL     1     -10.930  10.662  66.950  1.00  0.00    -0.161 C  
HETATM   32  C   UNL     1     -10.892   8.940  68.720  1.00  0.00    -0.002 C  
HETATM   33  C   UNL     1      -9.984   8.065  67.767  1.00  0.00    -0.224 C  
HETATM   34  C   UNL     1      -8.567   8.001  68.207  1.00  0.00    -0.130 A  
HETATM   35  C   UNL     1      -7.388   7.691  67.567  1.00  0.00    -0.095 A  
HETATM   36  N   UNL     1      -6.386   7.682  68.512  1.00  0.00    -0.042 NA 
HETATM   37  C   UNL     1      -6.892   7.996  69.754  1.00  0.00    -0.044 A  
HETATM   38  H   UNL     1      -5.406   7.472  68.319  1.00  0.00     0.000 HD 
HETATM   39  C   UNL     1      -6.326   8.130  71.025  1.00  0.00    -0.037 A  
HETATM   40  C   UNL     1      -7.190   8.505  72.073  1.00  0.00    -0.108 A  
HETATM   41  C   UNL     1      -8.525   8.844  71.836  1.00  0.00    -0.038 A  
HETATM   42  C   UNL     1      -9.027   8.804  70.534  1.00  0.00    -0.203 A  
HETATM   43  C   UNL     1      -8.224   8.269  69.538  1.00  0.00    -0.119 A  
HETATM   44  C   UNL     1     -10.259   9.517  70.073  1.00  0.00    -0.281 C  
HETATM   45  C   UNL     1      -9.915  11.031  69.904  1.00  0.00     0.557 C  
ENDBRANCH  27  28
ENDBRANCH  16  24
TORSDOF 2
ENDMDL
MODEL       90
REMARK 921   NORMALIZED FREE ENERGY PREDICTED BY IDOCK:    0.69 KCAL/MOL
REMARK 922        TOTAL FREE ENERGY PREDICTED BY IDOCK:   -0.41 KCAL/MOL
REMARK 923 INTER-LIGAND FREE ENERGY PREDICTED BY IDOCK:    0.47 KCAL/MOL
REMARK 924 INTRA-LIGAND FREE ENERGY PREDICTED BY IDOCK:   -0.88 KCAL/MOL
REMARK 927      BINDING AFFINITY PREDICTED BY RF-SCORE:    0.00 PKD
ROOT
HETATM    1  C   UNL     1     -11.097  16.030  68.035  1.00  0.00    -0.334 C  
HETATM    2  C   UNL     1     -12.503  16.616  67.840  1.00  0.00     2.286 C  
HETATM    3  C   UNL     1     -12.239  18.139  67.589  1.00  0.00     3.636 C  
HETATM    4  C   UNL     1     -10.750  18.359  67.826  1.00  0.00    -0.340 C  
HETATM    5  N   UNL     1     -10.305  17.148  68.488  1.00  0.00    -0.341 N  
HETATM    6  C   UNL     1      -8.947  16.988  68.620  1.00  0.00    -0.267 C  
HETATM    7  O   UNL     1      -8.224  17.943  68.892  1.00  0.00    -0.250 OA 
HETATM    8  C   UNL     1      -8.475  15.516  68.558  1.00  0.00    -0.163 C  
HETATM    9  N   UNL     1      -9.370  14.650  67.568  1.00  0.00    -0.192 N  
HETATM   10  C   UNL     1      -6.962  15.482  68.392  1.00  0.00    -0.115 C  
HETATM   11  C   UNL     1      -6.569  16.008  67.024  1.00  0.00    -0.088 C  
HETATM   12  C   UNL     1      -9.231  13.301  67.225  1.00  0.00    -0.222 C  
HETATM   13  C   UNL     1      -6.212  15.965  69.647  1.00  0.00    -0.177 C  
HETATM   14  O   UNL     1      -9.163  12.897  66.065  1.00  0.00    -0.105 OA 
HETATM   15  C   UNL     1      -5.132  15.670  66.705  1.00  0.00     1.055 C  
HETATM   16  C   UNL     1      -9.159  12.508  68.525  1.00  0.00    -0.061 C  
HETATM   17  H   UNL     1     -11.330  12.826  67.799  1.00  0.00     0.000 HD 
HETATM   18  C   UNL     1      -7.562  12.295  68.419  1.00  0.00    -0.128 C  
HETATM   19  O   UNL     1      -9.979  13.637  69.300  1.00  0.00     0.130 OA 
HETATM   20  O   UNL     1     -11.624  13.720  67.664  1.00  0.00    -0.307 OA 
HETATM   21  C   UNL     1     -10.590  14.491  68.269  1.00  0.00    -0.241 C  
HETATM   22  C   UNL     1      -7.117  11.090  67.542  1.00  0.00    -0.091 C  
HETATM   23  C   UNL     1      -6.702  12.345  69.674  1.00  0.00     0.065 C  
ENDROOT
BRANCH  16  24
HETATM   24  N   UNL     1      -9.641  11.302  69.135  1.00  0.00    -0.411 N  
HETATM   25  H   UNL     1      -8.980  10.849  69.765  1.00  0.00     0.000 HD 
HETATM   26  O   UNL     1     -11.704  10.962  68.191  1.00  0.00    -0.506 OA 
HETATM   27  C   UNL     1     -10.852  10.656  69.009  1.00  0.00    -0.235 C  
BRANCH  27  28
HETATM   28  C   UNL     1     -10.969   9.526  70.037  1.00  0.00    -0.284 C  
HETATM   29  C   UNL     1     -11.339   8.215  69.300  1.00  0.00     0.447 C  
HETATM   30  N   UNL     1     -10.178   7.412  68.881  1.00  0.00    -0.191 NA 
HETATM   31  C   UNL     1      -9.233   8.167  68.042  1.00  0.00    -0.132 C  
HETATM   32  C   UNL     1      -9.533   6.829  70.096  1.00  0.00    -0.158 C  
HETATM   33  C   UNL     1      -8.108   6.202  69.824  1.00  0.00    -0.119 C  
HETATM   34  C   UNL     1      -7.064   6.697  70.759  1.00  0.00    -0.069 A  
HETATM   35  C   UNL     1      -5.689   6.732  70.713  1.00  0.00    -0.027 A  
HETATM   36  N   UNL     1      -5.239   7.203  71.926  1.00  0.00    -0.035 NA 
HETATM   37  C   UNL     1      -6.300   7.490  72.755  1.00  0.00    -0.059 A  
HETATM   38  H   UNL     1      -4.257   7.323  72.176  1.00  0.00     0.000 HD 
HETATM   39  C   UNL     1      -6.406   7.987  74.058  1.00  0.00    -0.113 A  
HETATM   40  C   UNL     1      -7.706   8.179  74.565  1.00  0.00    -0.285 A  
HETATM   41  C   UNL     1      -8.838   7.995  73.767  1.00  0.00    -0.313 A  
HETATM   42  C   UNL     1      -8.689   7.604  72.436  1.00  0.00    -0.170 A  
HETATM   43  C   UNL     1      -7.423   7.250  71.995  1.00  0.00    -0.080 A  
HETATM   44  C   UNL     1      -9.730   7.772  71.376  1.00  0.00    -0.194 C  
HETATM   45  C   UNL     1      -9.751   9.272  70.940  1.00  0.00    -0.346 C  
ENDBRANCH  27  28
ENDBRANCH  16  24
TORSDOF 2
ENDMDL
MODEL       91
REMARK 921   NORMALIZED FREE ENERGY PREDICTED BY IDOCK:    0.81 KCAL/MOL
REMARK 922        TOTAL FREE ENERGY PREDICTED BY IDOCK:   -0.27 KCAL/MOL
REMARK 923 INTER-LIGAND FREE ENERGY PREDICTED BY IDOCK:   -0.53 KCAL/MOL
REMARK 924 INTRA-LIGAND FREE ENERGY PREDICTED BY IDOCK:    0.26 KCAL/MOL
REMARK 927      BINDING AFFINITY PREDICTED BY RF-SCORE:    0.00 PKD
ROOT
HETATM    1  C   UNL     1     -10.177  17.815  66.349  1.00  0.00    -0.365 C  
HETATM    2  C   UNL     1     -11.265  17.807  65.265  1.00  0.00     0.830 C  
HETATM    3  C   UNL     1     -11.550  19.325  65.013  1.00  0.00     2.663 C  
HETATM    4  C   UNL     1     -10.757  20.089  66.067  1.00  0.00    -0.259 C  
HETATM    5  N   UNL     1     -10.358  19.076  67.025  1.00  0.00    -0.382 N  
HETATM    6  C   UNL     1      -9.438  19.460  67.970  1.00  0.00    -0.339 C  
HETATM    7  O   UNL     1      -9.490  20.573  68.486  1.00  0.00     0.098 OA 
HETATM    8  C   UNL     1      -8.478  18.329  68.414  1.00  0.00    -0.303 C  
HETATM    9  N   UNL     1      -8.148  17.332  67.217  1.00  0.00    -0.188 N  
HETATM   10  C   UNL     1      -7.324  18.932  69.201  1.00  0.00    -0.264 C  
HETATM   11  C   UNL     1      -6.444  19.767  68.290  1.00  0.00    -0.291 C  
HETATM   12  C   UNL     1      -7.299  16.221  67.223  1.00  0.00    -0.182 C  
HETATM   13  C   UNL     1      -7.758  19.485  70.571  1.00  0.00     1.308 C  
HETATM   14  O   UNL     1      -6.391  16.055  66.409  1.00  0.00     0.077 OA 
HETATM   15  C   UNL     1      -5.126  20.088  68.955  1.00  0.00    -0.210 C  
HETATM   16  C   UNL     1      -7.710  15.341  68.397  1.00  0.00    -0.124 C  
HETATM   17  H   UNL     1      -8.897  14.862  66.473  1.00  0.00     0.000 HD 
HETATM   18  C   UNL     1      -6.461  15.807  69.308  1.00  0.00    -0.154 C  
HETATM   19  O   UNL     1      -9.198  15.916  68.352  1.00  0.00    -0.189 OA 
HETATM   20  O   UNL     1      -9.380  15.570  66.064  1.00  0.00    -0.316 OA 
HETATM   21  C   UNL     1      -9.345  16.593  67.054  1.00  0.00    -0.224 C  
HETATM   22  C   UNL     1      -5.138  15.028  69.057  1.00  0.00    -0.091 C  
HETATM   23  C   UNL     1      -6.644  16.013  70.805  1.00  0.00     1.093 C  
ENDROOT
BRANCH  16  24
HETATM   24  N   UNL     1      -7.920  13.967  68.755  1.00  0.00    -0.246 N  
HETATM   25  H   UNL     1      -7.575  13.709  69.679  1.00  0.00     0.000 HD 
HETATM   26  O   UNL     1      -8.844  13.018  66.882  1.00  0.00    -0.214 OA 
HETATM   27  C   UNL     1      -8.512  12.940  68.053  1.00  0.00    -0.178 C  
BRANCH  27  28
HETATM   28  C   UNL     1      -8.697  11.712  68.951  1.00  0.00     0.078 C  
HETATM   29  C   UNL     1     -10.211  11.406  69.075  1.00  0.00    -0.117 C  
HETATM   30  N   UNL     1     -10.720  10.465  68.063  1.00  0.00    -0.228 NA 
HETATM   31  C   UNL     1     -10.445  10.903  66.685  1.00  0.00    -0.254 C  
HETATM   32  C   UNL     1     -10.177   9.105  68.357  1.00  0.00    -0.200 C  
HETATM   33  C   UNL     1     -10.391   8.066  67.185  1.00  0.00    -0.395 C  
HETATM   34  C   UNL     1      -9.142   7.362  66.793  1.00  0.00    -0.178 A  
HETATM   35  C   UNL     1      -8.753   6.679  65.664  1.00  0.00    -0.082 A  
HETATM   36  N   UNL     1      -7.513   6.131  65.909  1.00  0.00    -0.080 NA 
HETATM   37  C   UNL     1      -7.083   6.462  67.174  1.00  0.00    -0.073 A  
HETATM   38  H   UNL     1      -6.987   5.561  65.246  1.00  0.00     0.000 HD 
HETATM   39  C   UNL     1      -5.926   6.181  67.909  1.00  0.00    -0.017 A  
HETATM   40  C   UNL     1      -5.838   6.739  69.199  1.00  0.00    -0.018 A  
HETATM   41  C   UNL     1      -6.802   7.629  69.680  1.00  0.00    -0.044 A  
HETATM   42  C   UNL     1      -7.889   7.971  68.874  1.00  0.00    -0.113 A  
HETATM   43  C   UNL     1      -8.061   7.288  67.681  1.00  0.00    -0.114 A  
HETATM   44  C   UNL     1      -8.743   9.184  69.066  1.00  0.00    -0.135 C  
HETATM   45  C   UNL     1      -7.955  10.428  68.546  1.00  0.00    -0.114 C  
ENDBRANCH  27  28
ENDBRANCH  16  24
TORSDOF 2
ENDMDL
MODEL       92
REMARK 921   NORMALIZED FREE ENERGY PREDICTED BY IDOCK:    1.04 KCAL/MOL
REMARK 922        TOTAL FREE ENERGY PREDICTED BY IDOCK:   -0.01 KCAL/MOL
REMARK 923 INTER-LIGAND FREE ENERGY PREDICTED BY IDOCK:   -0.52 KCAL/MOL
REMARK 924 INTRA-LIGAND FREE ENERGY PREDICTED BY IDOCK:    0.50 KCAL/MOL
REMARK 927      BINDING AFFINITY PREDICTED BY RF-SCORE:    0.00 PKD
ROOT
HETATM    1  C   UNL     1      -7.054   9.963  64.187  1.00  0.00    -0.128 C  
HETATM    2  C   UNL     1      -6.314  10.290  62.882  1.00  0.00    -0.140 C  
HETATM    3  C   UNL     1      -5.483   8.995  62.592  1.00  0.00    -0.078 C  
HETATM    4  C   UNL     1      -5.655   8.096  63.809  1.00  0.00    -0.053 C  
HETATM    5  N   UNL     1      -6.233   8.960  64.820  1.00  0.00    -0.065 N  
HETATM    6  C   UNL     1      -6.698   8.344  65.957  1.00  0.00    -0.061 C  
HETATM    7  O   UNL     1      -6.085   7.408  66.462  1.00  0.00    -0.038 OA 
HETATM    8  C   UNL     1      -7.927   9.036  66.594  1.00  0.00    -0.100 C  
HETATM    9  N   UNL     1      -8.877   9.682  65.492  1.00  0.00    -0.160 N  
HETATM   10  C   UNL     1      -8.540   8.110  67.634  1.00  0.00    -0.130 C  
HETATM   11  C   UNL     1      -9.160   6.899  66.961  1.00  0.00    -0.146 C  
HETATM   12  C   UNL     1     -10.089  10.354  65.678  1.00  0.00    -0.269 C  
HETATM   13  C   UNL     1      -7.647   7.928  68.874  1.00  0.00    -0.100 C  
HETATM   14  O   UNL     1     -11.130  10.054  65.092  1.00  0.00     0.935 OA 
HETATM   15  C   UNL     1     -10.061   6.150  67.915  1.00  0.00    -0.179 C  
HETATM   16  C   UNL     1      -9.850  11.445  66.714  1.00  0.00    -0.206 C  
HETATM   17  H   UNL     1      -9.389  12.151  64.563  1.00  0.00     0.000 HD 
HETATM   18  C   UNL     1     -10.579  10.618  67.894  1.00  0.00    -0.266 C  
HETATM   19  O   UNL     1      -8.301  11.514  66.336  1.00  0.00    -0.172 OA 
HETATM   20  O   UNL     1      -8.750  11.655  64.063  1.00  0.00     0.398 OA 
HETATM   21  C   UNL     1      -8.155  10.817  65.048  1.00  0.00     0.036 C  
HETATM   22  C   UNL     1     -12.126  10.771  67.944  1.00  0.00     0.731 C  
HETATM   23  C   UNL     1     -10.026  10.665  69.311  1.00  0.00    -0.215 C  
ENDROOT
BRANCH  16  24
HETATM   24  N   UNL     1     -10.160  12.818  66.995  1.00  0.00    -0.237 N  
HETATM   25  H   UNL     1      -9.638  13.224  67.771  1.00  0.00     0.000 HD 
HETATM   26  O   UNL     1     -11.864  13.333  65.548  1.00  0.00    -0.335 OA 
HETATM   27  C   UNL     1     -11.049  13.678  66.387  1.00  0.00    -0.303 C  
BRANCH  27  28
HETATM   28  C   UNL     1     -10.854  15.107  66.905  1.00  0.00    -0.317 C  
HETATM   29  C   UNL     1     -11.662  15.278  68.217  1.00  0.00    -0.301 C  
HETATM   30  N   UNL     1     -10.899  14.969  69.438  1.00  0.00    -0.251 NA 
HETATM   31  C   UNL     1     -10.317  13.617  69.423  1.00  0.00     0.295 C  
HETATM   32  C   UNL     1      -9.875  16.037  69.647  1.00  0.00    -0.196 C  
HETATM   33  C   UNL     1      -8.791  15.677  70.740  1.00  0.00     2.278 C  
HETATM   34  C   UNL     1      -7.396  15.857  70.260  1.00  0.00     0.827 A  
HETATM   35  C   UNL     1      -6.179  15.367  70.676  1.00  0.00     0.152 A  
HETATM   36  N   UNL     1      -5.201  15.972  69.920  1.00  0.00    -0.124 NA 
HETATM   37  C   UNL     1      -5.763  16.837  69.007  1.00  0.00    -0.143 A  
HETATM   38  H   UNL     1      -4.199  15.804  70.022  1.00  0.00     0.000 HD 
HETATM   39  C   UNL     1      -5.241  17.678  68.019  1.00  0.00    -0.136 A  
HETATM   40  C   UNL     1      -6.166  18.404  67.245  1.00  0.00    -0.180 A  
HETATM   41  C   UNL     1      -7.544  18.208  67.374  1.00  0.00    -0.220 A  
HETATM   42  C   UNL     1      -8.025  17.278  68.296  1.00  0.00    -0.244 A  
HETATM   43  C   UNL     1      -7.123  16.696  69.173  1.00  0.00    -0.226 A  
HETATM   44  C   UNL     1      -9.390  16.667  68.257  1.00  0.00    -0.224 C  
HETATM   45  C   UNL     1      -9.409  15.578  67.138  1.00  0.00    -0.227 C  
ENDBRANCH  27  28
ENDBRANCH  16  24
TORSDOF 2
ENDMDL
MODEL       93
REMARK 921   NORMALIZED FREE ENERGY PREDICTED BY IDOCK:    1.12 KCAL/MOL
REMARK 922        TOTAL FREE ENERGY PREDICTED BY IDOCK:    0.07 KCAL/MOL
REMARK 923 INTER-LIGAND FREE ENERGY PREDICTED BY IDOCK:   -0.60 KCAL/MOL
REMARK 924 INTRA-LIGAND FREE ENERGY PREDICTED BY IDOCK:    0.67 KCAL/MOL
REMARK 927      BINDING AFFINITY PREDICTED BY RF-SCORE:    0.00 PKD
ROOT
HETATM    1  C   UNL     1     -10.387   4.548  64.720  1.00  0.00     0.040 C  
HETATM    2  C   UNL     1     -11.750   4.787  64.053  1.00  0.00     2.314 C  
HETATM    3  C   UNL     1     -11.487   4.463  62.544  1.00  0.00     0.773 C  
HETATM    4  C   UNL     1      -9.986   4.236  62.411  1.00  0.00    -0.120 C  
HETATM    5  N   UNL     1      -9.432   4.736  63.655  1.00  0.00     0.079 N  
HETATM    6  C   UNL     1      -8.110   4.449  63.893  1.00  0.00    -0.095 C  
HETATM    7  O   UNL     1      -7.284   4.486  62.985  1.00  0.00    -0.043 OA 
HETATM    8  C   UNL     1      -7.765   4.252  65.388  1.00  0.00    -0.086 C  
HETATM    9  N   UNL     1      -8.967   3.583  66.188  1.00  0.00    -0.135 N  
HETATM   10  C   UNL     1      -6.378   3.635  65.505  1.00  0.00    -0.032 C  
HETATM   11  C   UNL     1      -6.389   2.211  64.982  1.00  0.00    -0.023 C  
HETATM   12  C   UNL     1      -9.016   3.219  67.538  1.00  0.00    -0.151 C  
HETATM   13  C   UNL     1      -5.256   4.601  65.083  1.00  0.00    -0.012 C  
HETATM   14  O   UNL     1      -9.327   2.094  67.928  1.00  0.00    -0.186 OA 
HETATM   15  C   UNL     1      -5.138   1.472  65.395  1.00  0.00    -0.004 C  
HETATM   16  C   UNL     1      -8.600   4.438  68.352  1.00  0.00    -0.094 C  
HETATM   17  H   UNL     1     -10.866   4.404  67.902  1.00  0.00     0.000 HD 
HETATM   18  C   UNL     1      -7.125   3.853  68.653  1.00  0.00    -0.051 C  
HETATM   19  O   UNL     1      -9.080   5.421  67.190  1.00  0.00    -0.112 OA 
HETATM   20  O   UNL     1     -11.135   4.362  66.992  1.00  0.00     1.200 OA 
HETATM   21  C   UNL     1      -9.924   4.621  66.289  1.00  0.00    -0.247 C  
HETATM   22  C   UNL     1      -7.038   2.886  69.868  1.00  0.00    -0.040 C  
HETATM   23  C   UNL     1      -5.924   4.788  68.670  1.00  0.00    -0.026 C  
ENDROOT
BRANCH  16  24
HETATM   24  N   UNL     1      -8.944   5.169  69.538  1.00  0.00    -0.098 N  
HETATM   25  H   UNL     1      -8.653   6.147  69.536  1.00  0.00     0.000 HD 
HETATM   26  O   UNL     1      -9.889   3.608  70.927  1.00  0.00    -0.174 OA 
HETATM   27  C   UNL     1      -9.603   4.767  70.679  1.00  0.00    -0.185 C  
BRANCH  27  28
HETATM   28  C   UNL     1      -9.925   5.974  71.568  1.00  0.00    -0.212 C  
HETATM   29  C   UNL     1      -8.658   6.354  72.374  1.00  0.00    -0.120 C  
HETATM   30  N   UNL     1      -7.801   7.352  71.713  1.00  0.00    -0.089 NA 
HETATM   31  C   UNL     1      -7.386   6.944  70.361  1.00  0.00    -0.081 C  
HETATM   32  C   UNL     1      -8.499   8.672  71.731  1.00  0.00    -0.155 C  
HETATM   33  C   UNL     1      -7.836   9.758  70.792  1.00  0.00     0.146 C  
HETATM   34  C   UNL     1      -8.807  10.407  69.874  1.00  0.00     0.140 A  
HETATM   35  C   UNL     1      -8.677  11.105  68.694  1.00  0.00    -0.153 A  
HETATM   36  N   UNL     1      -9.921  11.579  68.345  1.00  0.00    -0.201 NA 
HETATM   37  C   UNL     1     -10.863  11.186  69.270  1.00  0.00    -0.229 A  
HETATM   38  H   UNL     1     -10.119  12.141  67.517  1.00  0.00     0.000 HD 
HETATM   39  C   UNL     1     -12.242  11.383  69.393  1.00  0.00    -0.288 A  
HETATM   40  C   UNL     1     -12.877  10.780  70.496  1.00  0.00    -0.335 A  
HETATM   41  C   UNL     1     -12.188   9.927  71.363  1.00  0.00    -0.499 A  
HETATM   42  C   UNL     1     -10.835   9.667  71.144  1.00  0.00    -0.404 A  
HETATM   43  C   UNL     1     -10.177  10.397  70.166  1.00  0.00    -0.050 A  
HETATM   44  C   UNL     1     -10.091   8.495  71.701  1.00  0.00    -0.338 C  
HETATM   45  C   UNL     1     -10.476   7.229  70.872  1.00  0.00    -0.225 C  
ENDBRANCH  27  28
ENDBRANCH  16  24
TORSDOF 2
ENDMDL
MODEL       94
REMARK 921   NORMALIZED FREE ENERGY PREDICTED BY IDOCK:    1.92 KCAL/MOL
REMARK 922        TOTAL FREE ENERGY PREDICTED BY IDOCK:    0.97 KCAL/MOL
REMARK 923 INTER-LIGAND FREE ENERGY PREDICTED BY IDOCK:    1.78 KCAL/MOL
REMARK 924 INTRA-LIGAND FREE ENERGY PREDICTED BY IDOCK:   -0.82 KCAL/MOL
REMARK 927      BINDING AFFINITY PREDICTED BY RF-SCORE:    0.00 PKD
ROOT
HETATM    1  C   UNL     1     -10.602  18.420  66.243  1.00  0.00    -0.311 C  
HETATM    2  C   UNL     1     -11.646  18.898  65.224  1.00  0.00     2.544 C  
HETATM    3  C   UNL     1     -11.503  20.457  65.248  1.00  0.00     1.326 C  
HETATM    4  C   UNL     1     -10.534  20.779  66.379  1.00  0.00     0.781 C  
HETATM    5  N   UNL     1     -10.432  19.544  67.132  1.00  0.00    -0.444 N  
HETATM    6  C   UNL     1      -9.446  19.490  68.086  1.00  0.00    -0.359 C  
HETATM    7  O   UNL     1      -9.192  20.467  68.786  1.00  0.00     0.354 OA 
HETATM    8  C   UNL     1      -8.835  18.082  68.287  1.00  0.00    -0.286 C  
HETATM    9  N   UNL     1      -8.786  17.261  66.924  1.00  0.00    -0.231 N  
HETATM   10  C   UNL     1      -7.562  18.202  69.113  1.00  0.00    -0.062 C  
HETATM   11  C   UNL     1      -6.483  18.914  68.319  1.00  0.00    -0.242 C  
HETATM   12  C   UNL     1      -8.275  15.978  66.702  1.00  0.00    -0.289 C  
HETATM   13  C   UNL     1      -7.833  18.600  70.575  1.00  0.00     2.839 C  
HETATM   14  O   UNL     1      -7.445  15.719  65.831  1.00  0.00     0.926 OA 
HETATM   15  C   UNL     1      -5.130  18.744  68.968  1.00  0.00    -0.191 C  
HETATM   16  C   UNL     1      -8.916  15.050  67.726  1.00  0.00    -0.179 C  
HETATM   17  H   UNL     1     -10.182  15.257  65.804  1.00  0.00     0.000 HD 
HETATM   18  C   UNL     1      -7.590  14.992  68.645  1.00  0.00    -0.128 C  
HETATM   19  O   UNL     1     -10.189  16.005  67.847  1.00  0.00    -0.247 OA 
HETATM   20  O   UNL     1     -10.450  16.130  65.544  1.00  0.00    -0.371 OA 
HETATM   21  C   UNL     1     -10.139  16.914  66.691  1.00  0.00    -0.304 C  
HETATM   22  C   UNL     1      -6.532  13.941  68.207  1.00  0.00    -0.111 C  
HETATM   23  C   UNL     1      -7.716  14.972  70.163  1.00  0.00     0.362 C  
ENDROOT
BRANCH  16  24
HETATM   24  N   UNL     1      -9.497  13.743  67.853  1.00  0.00    -0.207 N  
HETATM   25  H   UNL     1      -9.674  13.446  68.812  1.00  0.00     0.000 HD 
HETATM   26  O   UNL     1      -9.582  12.938  65.707  1.00  0.00    -0.196 OA 
HETATM   27  C   UNL     1      -9.855  12.825  66.890  1.00  0.00    -0.236 C  
BRANCH  27  28
HETATM   28  C   UNL     1     -10.642  11.669  67.516  1.00  0.00    -0.245 C  
HETATM   29  C   UNL     1     -11.045  10.675  66.398  1.00  0.00     0.110 C  
HETATM   30  N   UNL     1     -10.070   9.594  66.173  1.00  0.00    -0.277 NA 
HETATM   31  C   UNL     1      -8.717  10.096  65.883  1.00  0.00    -0.146 C  
HETATM   32  C   UNL     1     -10.105   8.665  67.342  1.00  0.00    -0.229 C  
HETATM   33  C   UNL     1      -8.903   7.639  67.377  1.00  0.00    -0.124 C  
HETATM   34  C   UNL     1      -8.191   7.618  68.681  1.00  0.00    -0.128 A  
HETATM   35  C   UNL     1      -6.941   7.194  69.073  1.00  0.00    -0.075 A  
HETATM   36  N   UNL     1      -6.867   7.311  70.443  1.00  0.00    -0.052 NA 
HETATM   37  C   UNL     1      -8.043   7.821  70.947  1.00  0.00    -0.102 A  
HETATM   38  H   UNL     1      -6.055   7.057  71.006  1.00  0.00     0.000 HD 
HETATM   39  C   UNL     1      -8.490   8.138  72.234  1.00  0.00    -0.227 A  
HETATM   40  C   UNL     1      -9.783   8.683  72.345  1.00  0.00    -0.313 A  
HETATM   41  C   UNL     1     -10.542   9.005  71.216  1.00  0.00    -0.378 A  
HETATM   42  C   UNL     1     -10.018   8.776  69.944  1.00  0.00    -0.193 A  
HETATM   43  C   UNL     1      -8.823   8.081  69.842  1.00  0.00    -0.144 A  
HETATM   44  C   UNL     1     -10.505   9.431  68.690  1.00  0.00    -0.236 C  
HETATM   45  C   UNL     1      -9.963  10.895  68.658  1.00  0.00    -0.196 C  
ENDBRANCH  27  28
ENDBRANCH  16  24
TORSDOF 2
ENDMDL
MODEL       95
REMARK 921   NORMALIZED FREE ENERGY PREDICTED BY IDOCK:    2.41 KCAL/MOL
REMARK 922        TOTAL FREE ENERGY PREDICTED BY IDOCK:    1.51 KCAL/MOL
REMARK 923 INTER-LIGAND FREE ENERGY PREDICTED BY IDOCK:    0.86 KCAL/MOL
REMARK 924 INTRA-LIGAND FREE ENERGY PREDICTED BY IDOCK:    0.65 KCAL/MOL
REMARK 927      BINDING AFFINITY PREDICTED BY RF-SCORE:    0.00 PKD
ROOT
HETATM    1  C   UNL     1     -10.261  11.138  65.052  1.00  0.00    -0.296 C  
HETATM    2  C   UNL     1     -10.222  10.794  63.556  1.00  0.00    -0.315 C  
HETATM    3  C   UNL     1     -10.377  12.183  62.851  1.00  0.00     0.310 C  
HETATM    4  C   UNL     1     -10.666  13.192  63.956  1.00  0.00    -0.302 C  
HETATM    5  N   UNL     1     -10.991  12.380  65.113  1.00  0.00    -0.292 N  
HETATM    6  C   UNL     1     -11.079  13.039  66.315  1.00  0.00    -0.289 C  
HETATM    7  O   UNL     1     -11.592  14.152  66.388  1.00  0.00    -0.341 OA 
HETATM    8  C   UNL     1     -10.637  12.193  67.533  1.00  0.00    -0.214 C  
HETATM    9  N   UNL     1      -9.453  11.196  67.161  1.00  0.00    -0.172 N  
HETATM   10  C   UNL     1     -10.472  13.104  68.741  1.00  0.00    -0.187 C  
HETATM   11  C   UNL     1      -9.289  14.033  68.544  1.00  0.00    -0.182 C  
HETATM   12  C   UNL     1      -8.772  10.307  67.998  1.00  0.00    -0.122 C  
HETATM   13  C   UNL     1     -11.810  13.661  69.259  1.00  0.00    -0.395 C  
HETATM   14  O   UNL     1      -7.546  10.278  68.106  1.00  0.00    -0.086 OA 
HETATM   15  C   UNL     1      -8.896  14.696  69.843  1.00  0.00     0.612 C  
HETATM   16  C   UNL     1      -9.820   9.462  68.712  1.00  0.00    -0.163 C  
HETATM   17  H   UNL     1      -9.198   8.566  66.675  1.00  0.00     0.000 HD 
HETATM   18  C   UNL     1      -9.665  10.271  70.101  1.00  0.00     0.065 C  
HETATM   19  O   UNL     1     -10.860   9.684  67.523  1.00  0.00    -0.286 OA 
HETATM   20  O   UNL     1      -9.299   9.111  65.903  1.00  0.00    -0.207 OA 
HETATM   21  C   UNL     1     -10.086  10.198  66.382  1.00  0.00    -0.236 C  
HETATM   22  C   UNL     1      -8.506   9.788  71.017  1.00  0.00     0.623 C  
HETATM   23  C   UNL     1     -10.892  10.559  70.955  1.00  0.00     0.591 C  
ENDROOT
BRANCH  16  24
HETATM   24  N   UNL     1     -10.094   8.111  69.114  1.00  0.00    -0.197 N  
HETATM   25  H   UNL     1      -9.462   7.413  68.722  1.00  0.00     0.000 HD 
HETATM   26  O   UNL     1     -12.001   8.261  70.379  1.00  0.00    -0.026 OA 
HETATM   27  C   UNL     1     -11.070   7.604  69.943  1.00  0.00    -0.150 C  
BRANCH  27  28
HETATM   28  C   UNL     1     -10.810   6.123  70.238  1.00  0.00    -0.385 C  
HETATM   29  C   UNL     1     -11.721   5.264  69.325  1.00  0.00     3.450 C  
HETATM   30  N   UNL     1     -11.104   4.887  68.043  1.00  0.00     1.090 NA 
HETATM   31  C   UNL     1     -10.635   6.049  67.270  1.00  0.00    -0.294 C  
HETATM   32  C   UNL     1     -10.021   3.892  68.304  1.00  0.00     0.180 C  
HETATM   33  C   UNL     1      -9.078   3.633  67.063  1.00  0.00    -0.186 C  
HETATM   34  C   UNL     1      -7.634   3.763  67.389  1.00  0.00    -0.075 A  
HETATM   35  C   UNL     1      -6.505   3.978  66.631  1.00  0.00    -0.041 A  
HETATM   36  N   UNL     1      -5.414   3.888  67.465  1.00  0.00    -0.016 NA 
HETATM   37  C   UNL     1      -5.815   3.635  68.758  1.00  0.00    -0.023 A  
HETATM   38  H   UNL     1      -4.444   3.995  67.168  1.00  0.00     0.000 HD 
HETATM   39  C   UNL     1      -5.136   3.461  69.967  1.00  0.00    -0.004 A  
HETATM   40  C   UNL     1      -5.921   3.243  71.116  1.00  0.00    -0.014 A  
HETATM   41  C   UNL     1      -7.316   3.314  71.074  1.00  0.00    -0.033 A  
HETATM   42  C   UNL     1      -7.957   3.598  69.867  1.00  0.00    -0.055 A  
HETATM   43  C   UNL     1      -7.192   3.639  68.712  1.00  0.00    -0.050 A  
HETATM   44  C   UNL     1      -9.357   4.110  69.745  1.00  0.00    -0.237 C  
HETATM   45  C   UNL     1      -9.359   5.628  70.114  1.00  0.00    -0.188 C  
ENDBRANCH  27  28
ENDBRANCH  16  24
TORSDOF 2
ENDMDL
MODEL       96
REMARK 921   NORMALIZED FREE ENERGY PREDICTED BY IDOCK:    2.43 KCAL/MOL
REMARK 922        TOTAL FREE ENERGY PREDICTED BY IDOCK:    1.53 KCAL/MOL
REMARK 923 INTER-LIGAND FREE ENERGY PREDICTED BY IDOCK:    0.47 KCAL/MOL
REMARK 924 INTRA-LIGAND FREE ENERGY PREDICTED BY IDOCK:    1.05 KCAL/MOL
REMARK 927      BINDING AFFINITY PREDICTED BY RF-SCORE:    0.00 PKD
ROOT
HETATM    1  C   UNL     1      -8.226   9.203  64.283  1.00  0.00    -0.161 C  
HETATM    2  C   UNL     1      -8.880   9.454  62.917  1.00  0.00    -0.216 C  
HETATM    3  C   UNL     1      -9.089   8.017  62.334  1.00  0.00     0.723 C  
HETATM    4  C   UNL     1      -8.398   7.061  63.299  1.00  0.00     0.196 C  
HETATM    5  N   UNL     1      -7.584   7.919  64.139  1.00  0.00    -0.105 N  
HETATM    6  C   UNL     1      -7.021   7.332  65.246  1.00  0.00    -0.056 C  
HETATM    7  O   UNL     1      -6.567   6.192  65.193  1.00  0.00    -0.041 OA 
HETATM    8  C   UNL     1      -6.875   8.280  66.460  1.00  0.00    -0.067 C  
HETATM    9  N   UNL     1      -8.068   9.332  66.534  1.00  0.00    -0.104 N  
HETATM   10  C   UNL     1      -6.548   7.460  67.700  1.00  0.00    -0.061 C  
HETATM   11  C   UNL     1      -7.738   6.605  68.096  1.00  0.00    -0.105 C  
HETATM   12  C   UNL     1      -8.299  10.317  67.499  1.00  0.00    -0.114 C  
HETATM   13  C   UNL     1      -5.138   6.844  67.655  1.00  0.00    -0.011 C  
HETATM   14  O   UNL     1      -9.362  10.438  68.107  1.00  0.00    -0.141 OA 
HETATM   15  C   UNL     1      -7.569   6.054  69.491  1.00  0.00    -0.093 C  
HETATM   16  C   UNL     1      -7.017  11.130  67.634  1.00  0.00    -0.084 C  
HETATM   17  H   UNL     1      -8.408  11.938  65.975  1.00  0.00     0.000 HD 
HETATM   18  C   UNL     1      -6.600  10.421  69.023  1.00  0.00    -0.058 C  
HETATM   19  O   UNL     1      -6.585  10.762  66.142  1.00  0.00    -0.121 OA 
HETATM   20  O   UNL     1      -8.662  11.340  65.282  1.00  0.00    -0.095 OA 
HETATM   21  C   UNL     1      -7.787  10.234  65.478  1.00  0.00    -0.152 C  
HETATM   22  C   UNL     1      -7.244  11.040  70.296  1.00  0.00     0.647 C  
HETATM   23  C   UNL     1      -5.138  10.103  69.307  1.00  0.00    -0.035 C  
ENDROOT
BRANCH  16  24
HETATM   24  N   UNL     1      -6.549  12.480  67.766  1.00  0.00    -0.105 N  
HETATM   25  H   UNL     1      -5.829  12.750  67.097  1.00  0.00     0.000 HD 
HETATM   26  O   UNL     1      -7.643  13.292  69.612  1.00  0.00     0.487 OA 
HETATM   27  C   UNL     1      -6.914  13.472  68.651  1.00  0.00    -0.100 C  
BRANCH  27  28
HETATM   28  C   UNL     1      -6.289  14.811  68.246  1.00  0.00    -0.123 C  
HETATM   29  C   UNL     1      -6.445  14.993  66.715  1.00  0.00     1.421 C  
HETATM   30  N   UNL     1      -7.673  15.701  66.315  1.00  0.00     0.251 NA 
HETATM   31  C   UNL     1      -8.894  15.064  66.835  1.00  0.00    -0.258 C  
HETATM   32  C   UNL     1      -7.553  17.135  66.715  1.00  0.00    -0.239 C  
HETATM   33  C   UNL     1      -8.911  17.939  66.626  1.00  0.00    -0.285 C  
HETATM   34  C   UNL     1      -9.236  18.677  67.873  1.00  0.00    -0.316 A  
HETATM   35  C   UNL     1     -10.400  19.195  68.394  1.00  0.00    -0.327 A  
HETATM   36  N   UNL     1     -10.079  19.886  69.540  1.00  0.00    -0.491 NA 
HETATM   37  C   UNL     1      -8.725  19.814  69.782  1.00  0.00     0.731 A  
HETATM   38  H   UNL     1     -10.749  20.383  70.127  1.00  0.00     0.000 HD 
HETATM   39  C   UNL     1      -7.892  20.319  70.785  1.00  0.00     1.531 A  
HETATM   40  C   UNL     1      -6.524  19.995  70.702  1.00  0.00    -0.170 A  
HETATM   41  C   UNL     1      -6.037  19.115  69.732  1.00  0.00    -0.285 A  
HETATM   42  C   UNL     1      -6.918  18.543  68.813  1.00  0.00    -0.295 A  
HETATM   43  C   UNL     1      -8.227  18.998  68.791  1.00  0.00    -0.369 A  
HETATM   44  C   UNL     1      -6.639  17.307  68.019  1.00  0.00    -0.168 C  
HETATM   45  C   UNL     1      -6.805  16.071  68.959  1.00  0.00    -0.159 C  
ENDBRANCH  27  28
ENDBRANCH  16  24
TORSDOF 2
ENDMDL
MODEL       97
REMARK 921   NORMALIZED FREE ENERGY PREDICTED BY IDOCK:    2.60 KCAL/MOL
REMARK 922        TOTAL FREE ENERGY PREDICTED BY IDOCK:    1.73 KCAL/MOL
REMARK 923 INTER-LIGAND FREE ENERGY PREDICTED BY IDOCK:    0.01 KCAL/MOL
REMARK 924 INTRA-LIGAND FREE ENERGY PREDICTED BY IDOCK:    1.72 KCAL/MOL
REMARK 927      BINDING AFFINITY PREDICTED BY RF-SCORE:    0.00 PKD
ROOT
HETATM    1  C   UNL     1      -8.963   7.895  68.316  1.00  0.00    -0.132 C  
HETATM    2  C   UNL     1      -9.068   7.059  69.600  1.00  0.00    -0.144 C  
HETATM    3  C   UNL     1      -8.581   5.638  69.160  1.00  0.00    -0.105 C  
HETATM    4  C   UNL     1      -8.399   5.698  67.648  1.00  0.00    -0.100 C  
HETATM    5  N   UNL     1      -9.063   6.926  67.252  1.00  0.00    -0.123 N  
HETATM    6  C   UNL     1      -8.859   7.339  65.958  1.00  0.00    -0.136 C  
HETATM    7  O   UNL     1      -8.822   6.529  65.036  1.00  0.00     0.070 OA 
HETATM    8  C   UNL     1      -8.851   8.877  65.779  1.00  0.00    -0.186 C  
HETATM    9  N   UNL     1      -8.233   9.615  67.046  1.00  0.00    -0.116 N  
HETATM   10  C   UNL     1      -8.308   9.217  64.399  1.00  0.00    -0.175 C  
HETATM   11  C   UNL     1      -6.833   8.872  64.312  1.00  0.00    -0.082 C  
HETATM   12  C   UNL     1      -8.027  10.985  67.238  1.00  0.00    -0.126 C  
HETATM   13  C   UNL     1      -9.262   8.808  63.262  1.00  0.00     0.843 C  
HETATM   14  O   UNL     1      -6.944  11.471  67.562  1.00  0.00    -0.087 OA 
HETATM   15  C   UNL     1      -6.197   9.505  63.097  1.00  0.00    -0.102 C  
HETATM   16  C   UNL     1      -9.348  11.687  66.949  1.00  0.00    -0.188 C  
HETATM   17  H   UNL     1      -9.173  11.000  69.148  1.00  0.00     0.000 HD 
HETATM   18  C   UNL     1      -8.861  12.216  65.503  1.00  0.00     0.441 C  
HETATM   19  O   UNL     1     -10.170  10.370  67.320  1.00  0.00    -0.190 OA 
HETATM   20  O   UNL     1      -9.013  10.077  69.311  1.00  0.00    -0.155 OA 
HETATM   21  C   UNL     1      -9.237   9.485  68.036  1.00  0.00    -0.129 C  
HETATM   22  C   UNL     1      -8.047  13.541  65.528  1.00  0.00     3.762 C  
HETATM   23  C   UNL     1      -9.839  12.251  64.337  1.00  0.00    -0.136 C  
ENDROOT
BRANCH  16  24
HETATM   24  N   UNL     1     -10.199  12.732  67.444  1.00  0.00    -0.221 N  
HETATM   25  H   UNL     1      -9.889  13.157  68.318  1.00  0.00     0.000 HD 
HETATM   26  O   UNL     1     -11.967  12.777  65.984  1.00  0.00    -0.411 OA 
HETATM   27  C   UNL     1     -11.366  13.255  66.931  1.00  0.00    -0.318 C  
BRANCH  27  28
HETATM   28  C   UNL     1     -11.780  14.509  67.708  1.00  0.00    -0.403 C  
HETATM   29  C   UNL     1     -11.620  14.234  69.225  1.00  0.00    -0.306 C  
HETATM   30  N   UNL     1     -10.303  14.604  69.768  1.00  0.00    -0.018 NA 
HETATM   31  C   UNL     1      -9.189  13.955  69.058  1.00  0.00     0.207 C  
HETATM   32  C   UNL     1     -10.191  16.093  69.783  1.00  0.00    -0.208 C  
HETATM   33  C   UNL     1      -8.725  16.621  70.051  1.00  0.00     1.500 C  
HETATM   34  C   UNL     1      -8.270  17.616  69.047  1.00  0.00    -0.051 A  
HETATM   35  C   UNL     1      -7.031  18.071  68.656  1.00  0.00    -0.260 A  
HETATM   36  N   UNL     1      -7.222  19.094  67.755  1.00  0.00    -0.237 NA 
HETATM   37  C   UNL     1      -8.567  19.302  67.541  1.00  0.00    -0.292 A  
HETATM   38  H   UNL     1      -6.473  19.624  67.307  1.00  0.00     0.000 HD 
HETATM   39  C   UNL     1      -9.296  20.188  66.741  1.00  0.00    -0.513 A  
HETATM   40  C   UNL     1     -10.698  20.070  66.772  1.00  0.00    -0.364 A  
HETATM   41  C   UNL     1     -11.332  19.041  67.475  1.00  0.00     0.324 A  
HETATM   42  C   UNL     1     -10.565  18.109  68.174  1.00  0.00    -0.320 A  
HETATM   43  C   UNL     1      -9.201  18.331  68.283  1.00  0.00    -0.322 A  
HETATM   44  C   UNL     1     -11.047  16.759  68.604  1.00  0.00    -0.247 C  
HETATM   45  C   UNL     1     -11.062  15.822  67.355  1.00  0.00    -0.235 C  
ENDBRANCH  27  28
ENDBRANCH  16  24
TORSDOF 2
ENDMDL
MODEL       98
REMARK 921   NORMALIZED FREE ENERGY PREDICTED BY IDOCK:    2.88 KCAL/MOL
REMARK 922        TOTAL FREE ENERGY PREDICTED BY IDOCK:    2.04 KCAL/MOL
REMARK 923 INTER-LIGAND FREE ENERGY PREDICTED BY IDOCK:    1.18 KCAL/MOL
REMARK 924 INTRA-LIGAND FREE ENERGY PREDICTED BY IDOCK:    0.86 KCAL/MOL
REMARK 927      BINDING AFFINITY PREDICTED BY RF-SCORE:    0.00 PKD
ROOT
HETATM    1  C   UNL     1      -7.413  11.557  67.913  1.00  0.00    -0.103 C  
HETATM    2  C   UNL     1      -6.010  11.762  67.323  1.00  0.00    -0.124 C  
HETATM    3  C   UNL     1      -5.925  13.308  67.094  1.00  0.00     0.460 C  
HETATM    4  C   UNL     1      -7.314  13.860  67.392  1.00  0.00    -0.109 C  
HETATM    5  N   UNL     1      -8.168  12.689  67.435  1.00  0.00    -0.176 N  
HETATM    6  C   UNL     1      -9.444  12.881  67.908  1.00  0.00    -0.208 C  
HETATM    7  O   UNL     1     -10.078  13.891  67.616  1.00  0.00    -0.236 OA 
HETATM    8  C   UNL     1     -10.025  11.667  68.671  1.00  0.00    -0.184 C  
HETATM    9  N   UNL     1      -8.899  10.880  69.474  1.00  0.00     0.128 N  
HETATM   10  C   UNL     1     -11.284  12.097  69.410  1.00  0.00    -0.248 C  
HETATM   11  C   UNL     1     -10.934  13.051  70.537  1.00  0.00     1.662 C  
HETATM   12  C   UNL     1      -9.044   9.762  70.302  1.00  0.00    -0.157 C  
HETATM   13  C   UNL     1     -12.454  12.419  68.464  1.00  0.00     0.657 C  
HETATM   14  O   UNL     1      -8.625   9.713  71.458  1.00  0.00    -0.000 OA 
HETATM   15  C   UNL     1     -12.097  13.220  71.486  1.00  0.00     0.334 C  
HETATM   16  C   UNL     1      -9.805   8.706  69.510  1.00  0.00    -0.187 C  
HETATM   17  H   UNL     1      -7.523   8.592  69.170  1.00  0.00     0.000 HD 
HETATM   18  C   UNL     1     -11.190   8.978  70.296  1.00  0.00    -0.232 C  
HETATM   19  O   UNL     1      -9.290   9.319  68.129  1.00  0.00    -0.134 OA 
HETATM   20  O   UNL     1      -7.085   9.373  68.851  1.00  0.00    -0.066 OA 
HETATM   21  C   UNL     1      -8.168  10.211  68.462  1.00  0.00    -0.111 C  
HETATM   22  C   UNL     1     -11.339   8.218  71.645  1.00  0.00    -0.329 C  
HETATM   23  C   UNL     1     -12.514   8.930  69.546  1.00  0.00     2.134 C  
ENDROOT
BRANCH  16  24
HETATM   24  N   UNL     1      -9.820   7.297  69.236  1.00  0.00    -0.164 N  
HETATM   25  H   UNL     1     -10.468   7.012  68.503  1.00  0.00     0.000 HD 
HETATM   26  O   UNL     1      -8.395   6.393  70.789  1.00  0.00    -0.123 OA 
HETATM   27  C   UNL     1      -9.100   6.268  69.802  1.00  0.00    -0.143 C  
BRANCH  27  28
HETATM   28  C   UNL     1      -9.308   4.970  69.014  1.00  0.00    -0.176 C  
HETATM   29  C   UNL     1     -10.653   5.059  68.250  1.00  0.00     0.165 C  
HETATM   30  N   UNL     1     -10.537   5.605  66.888  1.00  0.00    -0.283 NA 
HETATM   31  C   UNL     1      -9.896   6.930  66.855  1.00  0.00    -0.183 C  
HETATM   32  C   UNL     1      -9.839   4.604  66.026  1.00  0.00    -0.224 C  
HETATM   33  C   UNL     1      -9.376   5.177  64.628  1.00  0.00     0.168 C  
HETATM   34  C   UNL     1      -7.944   4.911  64.333  1.00  0.00    -0.104 A  
HETATM   35  C   UNL     1      -7.031   5.478  63.473  1.00  0.00    -0.042 A  
HETATM   36  N   UNL     1      -5.871   4.739  63.542  1.00  0.00    -0.017 NA 
HETATM   37  C   UNL     1      -6.009   3.709  64.447  1.00  0.00    -0.018 A  
HETATM   38  H   UNL     1      -5.027   4.928  63.001  1.00  0.00     0.000 HD 
HETATM   39  C   UNL     1      -5.161   2.692  64.894  1.00  0.00    -0.008 A  
HETATM   40  C   UNL     1      -5.670   1.823  65.879  1.00  0.00    -0.013 A  
HETATM   41  C   UNL     1      -6.919   2.035  66.469  1.00  0.00    -0.043 A  
HETATM   42  C   UNL     1      -7.693   3.127  66.073  1.00  0.00    -0.078 A  
HETATM   43  C   UNL     1      -7.265   3.874  64.987  1.00  0.00    -0.067 A  
HETATM   44  C   UNL     1      -8.812   3.713  66.874  1.00  0.00    -0.140 C  
HETATM   45  C   UNL     1      -8.197   4.560  68.033  1.00  0.00    -0.094 C  
ENDBRANCH  27  28
ENDBRANCH  16  24
TORSDOF 2
ENDMDL
MODEL       99
REMARK 921   NORMALIZED FREE ENERGY PREDICTED BY IDOCK:    3.04 KCAL/MOL
REMARK 922        TOTAL FREE ENERGY PREDICTED BY IDOCK:    2.22 KCAL/MOL
REMARK 923 INTER-LIGAND FREE ENERGY PREDICTED BY IDOCK:   -0.44 KCAL/MOL
REMARK 924 INTRA-LIGAND FREE ENERGY PREDICTED BY IDOCK:    2.66 KCAL/MOL
REMARK 927      BINDING AFFINITY PREDICTED BY RF-SCORE:    0.00 PKD
ROOT
HETATM    1  C   UNL     1      -7.553   7.415  66.593  1.00  0.00    -0.100 C  
HETATM    2  C   UNL     1      -7.296   7.481  65.080  1.00  0.00    -0.078 C  
HETATM    3  C   UNL     1      -6.062   6.542  64.872  1.00  0.00    -0.037 C  
HETATM    4  C   UNL     1      -5.587   6.145  66.265  1.00  0.00    -0.013 C  
HETATM    5  N   UNL     1      -6.273   7.061  67.156  1.00  0.00    -0.042 N  
HETATM    6  C   UNL     1      -6.196   6.779  68.498  1.00  0.00    -0.030 C  
HETATM    7  O   UNL     1      -5.153   6.363  68.996  1.00  0.00    -0.007 OA 
HETATM    8  C   UNL     1      -7.453   7.185  69.304  1.00  0.00    -0.093 C  
HETATM    9  N   UNL     1      -8.783   7.017  68.446  1.00  0.00    -0.125 N  
HETATM   10  C   UNL     1      -7.390   6.549  70.684  1.00  0.00    -0.079 C  
HETATM   11  C   UNL     1      -7.544   5.043  70.579  1.00  0.00    -0.070 C  
HETATM   12  C   UNL     1     -10.105   7.248  68.839  1.00  0.00    -0.180 C  
HETATM   13  C   UNL     1      -6.284   7.149  71.571  1.00  0.00    -0.037 C  
HETATM   14  O   UNL     1     -11.005   6.417  68.719  1.00  0.00    -0.291 OA 
HETATM   15  C   UNL     1      -7.828   4.430  71.930  1.00  0.00    -0.085 C  
HETATM   16  C   UNL     1     -10.165   8.651  69.431  1.00  0.00    -0.210 C  
HETATM   17  H   UNL     1     -10.482   8.640  67.142  1.00  0.00     0.000 HD 
HETATM   18  C   UNL     1     -10.220   8.111  70.951  1.00  0.00    -0.216 C  
HETATM   19  O   UNL     1      -8.904   9.107  68.565  1.00  0.00    -0.129 OA 
HETATM   20  O   UNL     1      -9.802   8.251  66.604  1.00  0.00    -0.227 OA 
HETATM   21  C   UNL     1      -8.724   8.087  67.520  1.00  0.00    -0.125 C  
HETATM   22  C   UNL     1     -11.638   7.727  71.461  1.00  0.00    -0.303 C  
HETATM   23  C   UNL     1      -9.478   8.857  72.052  1.00  0.00    -0.249 C  
ENDROOT
BRANCH  16  24
HETATM   24  N   UNL     1     -10.977   9.834  69.441  1.00  0.00    -0.292 N  
HETATM   25  H   UNL     1     -10.584  10.626  68.933  1.00  0.00     0.000 HD 
HETATM   26  O   UNL     1     -12.752   9.304  70.794  1.00  0.00    -0.134 OA 
HETATM   27  C   UNL     1     -12.202  10.075  70.025  1.00  0.00     0.028 C  
BRANCH  27  28
HETATM   28  C   UNL     1     -12.762  11.424  69.564  1.00  0.00     0.264 C  
HETATM   29  C   UNL     1     -12.501  12.478  70.669  1.00  0.00    -0.238 C  
HETATM   30  N   UNL     1     -11.230  13.207  70.519  1.00  0.00     0.698 NA 
HETATM   31  C   UNL     1     -10.064  12.312  70.445  1.00  0.00     3.844 C  
HETATM   32  C   UNL     1     -11.336  14.118  69.340  1.00  0.00    -0.272 C  
HETATM   33  C   UNL     1      -9.953  14.729  68.880  1.00  0.00    -0.233 C  
HETATM   34  C   UNL     1      -9.689  14.550  67.428  1.00  0.00    -0.222 A  
HETATM   35  C   UNL     1      -8.546  14.578  66.661  1.00  0.00    -0.057 A  
HETATM   36  N   UNL     1      -8.922  14.462  65.341  1.00  0.00     0.420 NA 
HETATM   37  C   UNL     1     -10.290  14.343  65.239  1.00  0.00    -0.403 A  
HETATM   38  H   UNL     1      -8.277  14.464  64.550  1.00  0.00     0.000 HD 
HETATM   39  C   UNL     1     -11.172  14.195  64.164  1.00  0.00    -0.056 A  
HETATM   40  C   UNL     1     -12.541  14.072  64.474  1.00  0.00    -0.242 A  
HETATM   41  C   UNL     1     -12.988  13.981  65.794  1.00  0.00    -0.297 A  
HETATM   42  C   UNL     1     -12.066  14.022  66.840  1.00  0.00    -0.465 A  
HETATM   43  C   UNL     1     -10.745  14.318  66.538  1.00  0.00    -0.297 A  
HETATM   44  C   UNL     1     -12.327  13.530  68.228  1.00  0.00     0.060 C  
HETATM   45  C   UNL     1     -12.257  11.969  68.217  1.00  0.00     0.181 C  
ENDBRANCH  27  28
ENDBRANCH  16  24
TORSDOF 2
ENDMDL
MODEL      100
REMARK 921   NORMALIZED FREE ENERGY PREDICTED BY IDOCK:    4.18 KCAL/MOL
REMARK 922        TOTAL FREE ENERGY PREDICTED BY IDOCK:    3.49 KCAL/MOL
REMARK 923 INTER-LIGAND FREE ENERGY PREDICTED BY IDOCK:    3.83 KCAL/MOL
REMARK 924 INTRA-LIGAND FREE ENERGY PREDICTED BY IDOCK:   -0.34 KCAL/MOL
REMARK 927      BINDING AFFINITY PREDICTED BY RF-SCORE:    0.00 PKD
ROOT
HETATM    1  C   UNL     1      -8.809   8.542  72.256  1.00  0.00    -0.208 C  
HETATM    2  C   UNL     1      -8.667   8.994  73.717  1.00  0.00     1.417 C  
HETATM    3  C   UNL     1      -8.566   7.650  74.512  1.00  0.00    -0.188 C  
HETATM    4  C   UNL     1      -8.828   6.536  73.506  1.00  0.00    -0.124 C  
HETATM    5  N   UNL     1      -9.372   7.217  72.346  1.00  0.00    -0.137 N  
HETATM    6  C   UNL     1      -9.492   6.469  71.200  1.00  0.00    -0.167 C  
HETATM    7  O   UNL     1      -9.858   5.297  71.248  1.00  0.00    -0.159 OA 
HETATM    8  C   UNL     1      -9.290   7.275  69.895  1.00  0.00    -0.154 C  
HETATM    9  N   UNL     1      -8.217   8.436  70.078  1.00  0.00    -0.118 N  
HETATM   10  C   UNL     1      -9.127   6.308  68.730  1.00  0.00    -0.127 C  
HETATM   11  C   UNL     1      -7.818   5.551  68.851  1.00  0.00    -0.095 C  
HETATM   12  C   UNL     1      -7.746   9.342  69.123  1.00  0.00    -0.079 C  
HETATM   13  C   UNL     1     -10.425   5.552  68.394  1.00  0.00    -0.227 C  
HETATM   14  O   UNL     1      -6.552   9.516  68.881  1.00  0.00    -0.047 OA 
HETATM   15  C   UNL     1      -7.473   4.853  67.558  1.00  0.00    -0.079 C  
HETATM   16  C   UNL     1      -8.962   9.996  68.479  1.00  0.00    -0.124 C  
HETATM   17  H   UNL     1      -8.264  11.105  70.382  1.00  0.00     0.000 HD 
HETATM   18  C   UNL     1      -8.842   9.116  67.131  1.00  0.00    -0.130 C  
HETATM   19  O   UNL     1      -9.840   9.730  69.785  1.00  0.00    -0.206 OA 
HETATM   20  O   UNL     1      -8.214  10.608  71.190  1.00  0.00     2.155 OA 
HETATM   21  C   UNL     1      -8.894   9.400  70.863  1.00  0.00    -0.103 C  
HETATM   22  C   UNL     1      -7.855   9.674  66.067  1.00  0.00    -0.102 C  
HETATM   23  C   UNL     1     -10.100   8.617  66.432  1.00  0.00    -0.294 C  
ENDROOT
BRANCH  16  24
HETATM   24  N   UNL     1      -9.451  11.270  68.032  1.00  0.00    -0.168 N  
HETATM   25  H   UNL     1     -10.166  11.222  67.307  1.00  0.00     0.000 HD 
HETATM   26  O   UNL     1      -8.178  12.806  69.163  1.00  0.00     0.299 OA 
HETATM   27  C   UNL     1      -9.112  12.547  68.424  1.00  0.00    -0.135 C  
BRANCH  27  28
HETATM   28  C   UNL     1     -10.075  13.570  67.812  1.00  0.00    -0.236 C  
HETATM   29  C   UNL     1     -11.231  13.829  68.811  1.00  0.00    -0.271 C  
HETATM   30  N   UNL     1     -10.987  14.946  69.738  1.00  0.00    -0.265 NA 
HETATM   31  C   UNL     1      -9.738  14.793  70.502  1.00  0.00     1.125 C  
HETATM   32  C   UNL     1     -11.043  16.227  68.971  1.00  0.00    -0.331 C  
HETATM   33  C   UNL     1     -10.499  17.476  69.774  1.00  0.00     0.378 C  
HETATM   34  C   UNL     1      -9.482  18.256  69.021  1.00  0.00    -0.148 A  
HETATM   35  C   UNL     1      -8.508  19.154  69.395  1.00  0.00     0.163 A  
HETATM   36  N   UNL     1      -7.935  19.655  68.247  1.00  0.00    -0.323 NA 
HETATM   37  C   UNL     1      -8.510  19.085  67.133  1.00  0.00    -0.280 A  
HETATM   38  H   UNL     1      -7.189  20.351  68.225  1.00  0.00     0.000 HD 
HETATM   39  C   UNL     1      -8.306  19.227  65.757  1.00  0.00     0.135 A  
HETATM   40  C   UNL     1      -9.093  18.425  64.909  1.00  0.00     3.868 A  
HETATM   41  C   UNL     1      -9.954  17.448  65.415  1.00  0.00     0.398 A  
HETATM   42  C   UNL     1     -10.050  17.260  66.794  1.00  0.00    -0.302 A  
HETATM   43  C   UNL     1      -9.408  18.165  67.626  1.00  0.00    -0.260 A  
HETATM   44  C   UNL     1     -10.577  16.024  67.452  1.00  0.00    -0.316 C  
HETATM   45  C   UNL     1      -9.479  14.917  67.370  1.00  0.00    -0.206 C  
ENDBRANCH  27  28
ENDBRANCH  16  24
TORSDOF 2
ENDMDL
MODEL      101
REMARK 921   NORMALIZED FREE ENERGY PREDICTED BY IDOCK:    5.56 KCAL/MOL
REMARK 922        TOTAL FREE ENERGY PREDICTED BY IDOCK:    5.03 KCAL/MOL
REMARK 923 INTER-LIGAND FREE ENERGY PREDICTED BY IDOCK:    6.17 KCAL/MOL
REMARK 924 INTRA-LIGAND FREE ENERGY PREDICTED BY IDOCK:   -1.15 KCAL/MOL
REMARK 927      BINDING AFFINITY PREDICTED BY RF-SCORE:    0.00 PKD
ROOT
HETATM    1  C   UNL     1     -11.017  15.283  68.000  1.00  0.00    -0.299 C  
HETATM    2  C   UNL     1     -12.277  15.896  67.370  1.00  0.00     1.175 C  
HETATM    3  C   UNL     1     -12.222  17.396  67.813  1.00  0.00     2.707 C  
HETATM    4  C   UNL     1     -11.059  17.510  68.792  1.00  0.00     0.348 C  
HETATM    5  N   UNL     1     -10.732  16.137  69.127  1.00  0.00    -0.269 N  
HETATM    6  C   UNL     1      -9.566  15.942  69.828  1.00  0.00    -0.084 C  
HETATM    7  O   UNL     1      -9.230  16.716  70.720  1.00  0.00     2.789 OA 
HETATM    8  C   UNL     1      -8.847  14.611  69.500  1.00  0.00     0.224 C  
HETATM    9  N   UNL     1      -9.036  14.198  67.975  1.00  0.00    -0.175 N  
HETATM   10  C   UNL     1      -7.440  14.648  70.078  1.00  0.00     0.222 C  
HETATM   11  C   UNL     1      -6.592  15.666  69.338  1.00  0.00    -0.166 C  
HETATM   12  C   UNL     1      -8.509  13.090  67.304  1.00  0.00    -0.199 C  
HETATM   13  C   UNL     1      -7.422  14.604  71.617  1.00  0.00     3.117 C  
HETATM   14  O   UNL     1      -7.864  13.171  66.259  1.00  0.00     0.894 OA 
HETATM   15  C   UNL     1      -5.126  15.483  69.652  1.00  0.00    -0.096 C  
HETATM   16  C   UNL     1      -8.868  11.853  68.118  1.00  0.00    -0.178 C  
HETATM   17  H   UNL     1     -10.516  12.424  66.603  1.00  0.00     0.000 HD 
HETATM   18  C   UNL     1      -7.378  11.701  68.723  1.00  0.00    -0.118 C  
HETATM   19  O   UNL     1     -10.141  12.589  68.740  1.00  0.00    -0.166 OA 
HETATM   20  O   UNL     1     -10.883  13.299  66.658  1.00  0.00    -0.278 OA 
HETATM   21  C   UNL     1     -10.385  13.775  67.905  1.00  0.00    -0.244 C  
HETATM   22  C   UNL     1      -6.376  10.935  67.815  1.00  0.00    -0.062 C  
HETATM   23  C   UNL     1      -7.184  11.259  70.167  1.00  0.00     0.678 C  
ENDROOT
BRANCH  16  24
HETATM   24  N   UNL     1      -9.333  10.503  67.969  1.00  0.00    -0.143 N  
HETATM   25  H   UNL     1      -9.421   9.984  68.842  1.00  0.00     0.000 HD 
HETATM   26  O   UNL     1      -9.496  10.196  65.702  1.00  0.00    -0.187 OA 
HETATM   27  C   UNL     1      -9.680   9.795  66.840  1.00  0.00    -0.192 C  
BRANCH  27  28
HETATM   28  C   UNL     1     -10.329   8.460  67.220  1.00  0.00    -0.369 C  
HETATM   29  C   UNL     1      -9.683   7.332  66.377  1.00  0.00    -0.079 C  
HETATM   30  N   UNL     1      -8.520   6.693  67.016  1.00  0.00    -0.113 NA 
HETATM   31  C   UNL     1      -7.470   7.657  67.386  1.00  0.00    -0.100 C  
HETATM   32  C   UNL     1      -8.995   5.882  68.177  1.00  0.00    -0.115 C  
HETATM   33  C   UNL     1      -7.834   5.393  69.132  1.00  0.00    -0.090 C  
HETATM   34  C   UNL     1      -8.082   5.711  70.562  1.00  0.00    -0.105 A  
HETATM   35  C   UNL     1      -7.266   5.815  71.666  1.00  0.00    -0.086 A  
HETATM   36  N   UNL     1      -8.069   6.022  72.766  1.00  0.00    -0.107 NA 
HETATM   37  C   UNL     1      -9.394   6.071  72.392  1.00  0.00    -0.146 A  
HETATM   38  H   UNL     1      -7.731   6.125  73.723  1.00  0.00     0.000 HD 
HETATM   39  C   UNL     1     -10.592   6.259  73.089  1.00  0.00    -0.273 A  
HETATM   40  C   UNL     1     -11.777   6.277  72.329  1.00  0.00    -0.344 A  
HETATM   41  C   UNL     1     -11.753   6.228  70.933  1.00  0.00    -0.289 A  
HETATM   42  C   UNL     1     -10.530   6.150  70.265  1.00  0.00    -0.288 A  
HETATM   43  C   UNL     1      -9.383   5.958  71.020  1.00  0.00    -0.178 A  
HETATM   44  C   UNL     1     -10.319   6.506  68.828  1.00  0.00    -0.220 C  
HETATM   45  C   UNL     1     -10.296   8.062  68.705  1.00  0.00    -0.223 C  
ENDBRANCH  27  28
ENDBRANCH  16  24
TORSDOF 2
ENDMDL
MODEL      102
REMARK 921   NORMALIZED FREE ENERGY PREDICTED BY IDOCK:    6.00 KCAL/MOL
REMARK 922        TOTAL FREE ENERGY PREDICTED BY IDOCK:    5.52 KCAL/MOL
REMARK 923 INTER-LIGAND FREE ENERGY PREDICTED BY IDOCK:    3.77 KCAL/MOL
REMARK 924 INTRA-LIGAND FREE ENERGY PREDICTED BY IDOCK:    1.75 KCAL/MOL
REMARK 927      BINDING AFFINITY PREDICTED BY RF-SCORE:    0.00 PKD
ROOT
HETATM    1  C   UNL     1     -12.328  13.377  65.627  1.00  0.00    -0.470 C  
HETATM    2  C   UNL     1     -13.352  13.376  64.482  1.00  0.00     0.904 C  
HETATM    3  C   UNL     1     -13.403  14.873  64.029  1.00  0.00     2.204 C  
HETATM    4  C   UNL     1     -12.561  15.652  65.032  1.00  0.00     0.869 C  
HETATM    5  N   UNL     1     -12.359  14.728  66.132  1.00  0.00    -0.067 N  
HETATM    6  C   UNL     1     -11.441  15.101  67.082  1.00  0.00    -0.250 C  
HETATM    7  O   UNL     1     -11.358  16.269  67.454  1.00  0.00    -0.081 OA 
HETATM    8  C   UNL     1     -10.677  13.918  67.723  1.00  0.00    -0.246 C  
HETATM    9  N   UNL     1     -10.434  12.738  66.681  1.00  0.00    -0.255 N  
HETATM   10  C   UNL     1      -9.487  14.455  68.506  1.00  0.00    -0.212 C  
HETATM   11  C   UNL     1      -8.453  15.037  67.561  1.00  0.00    -0.188 C  
HETATM   12  C   UNL     1      -9.755  11.532  66.878  1.00  0.00    -0.186 C  
HETATM   13  C   UNL     1      -9.904  15.234  69.767  1.00  0.00    -0.188 C  
HETATM   14  O   UNL     1      -8.842  11.140  66.153  1.00  0.00    -0.181 OA 
HETATM   15  C   UNL     1      -7.136  15.259  68.268  1.00  0.00    -0.117 C  
HETATM   16  C   UNL     1     -10.345  10.876  68.121  1.00  0.00    -0.178 C  
HETATM   17  H   UNL     1     -11.493  10.317  66.195  1.00  0.00     0.000 HD 
HETATM   18  C   UNL     1      -9.088  11.282  69.049  1.00  0.00     0.015 C  
HETATM   19  O   UNL     1     -11.732  11.638  67.907  1.00  0.00    -0.459 OA 
HETATM   20  O   UNL     1     -11.849  11.026  65.671  1.00  0.00     0.364 OA 
HETATM   21  C   UNL     1     -11.716  12.155  66.529  1.00  0.00    -0.321 C  
HETATM   22  C   UNL     1      -7.881  10.304  68.984  1.00  0.00    -0.114 C  
HETATM   23  C   UNL     1      -9.313  11.703  70.495  1.00  0.00     4.847 C  
ENDROOT
BRANCH  16  24
HETATM   24  N   UNL     1     -10.768   9.602  68.628  1.00  0.00    -0.291 N  
HETATM   25  H   UNL     1     -10.472   8.801  68.070  1.00  0.00     0.000 HD 
HETATM   26  O   UNL     1     -12.073  10.107  70.445  1.00  0.00    -0.272 OA 
HETATM   27  C   UNL     1     -11.508   9.284  69.746  1.00  0.00     0.087 C  
BRANCH  27  28
HETATM   28  C   UNL     1     -11.503   7.769  69.980  1.00  0.00     0.023 C  
HETATM   29  C   UNL     1     -11.448   7.051  68.607  1.00  0.00     0.344 C  
HETATM   30  N   UNL     1     -10.085   6.757  68.136  1.00  0.00    -0.156 NA 
HETATM   31  C   UNL     1      -9.232   7.955  68.069  1.00  0.00    -0.131 C  
HETATM   32  C   UNL     1      -9.503   5.680  68.992  1.00  0.00    -0.126 C  
HETATM   33  C   UNL     1      -7.947   5.481  68.797  1.00  0.00    -0.095 C  
HETATM   34  C   UNL     1      -7.191   5.496  70.076  1.00  0.00    -0.068 A  
HETATM   35  C   UNL     1      -5.870   5.712  70.395  1.00  0.00    -0.024 A  
HETATM   36  N   UNL     1      -5.719   5.483  71.745  1.00  0.00    -0.020 NA 
HETATM   37  C   UNL     1      -6.925   5.137  72.312  1.00  0.00    -0.079 A  
HETATM   38  H   UNL     1      -4.837   5.559  72.253  1.00  0.00     0.000 HD 
HETATM   39  C   UNL     1      -7.328   4.814  73.612  1.00  0.00    -0.082 A  
HETATM   40  C   UNL     1      -8.695   4.538  73.807  1.00  0.00    -0.105 A  
HETATM   41  C   UNL     1      -9.628   4.695  72.778  1.00  0.00    -0.164 A  
HETATM   42  C   UNL     1      -9.204   5.125  71.520  1.00  0.00    -0.177 A  
HETATM   43  C   UNL     1      -7.841   5.226  71.288  1.00  0.00    -0.107 A  
HETATM   44  C   UNL     1     -10.094   5.728  70.480  1.00  0.00    -0.269 C  
HETATM   45  C   UNL     1     -10.401   7.203  70.890  1.00  0.00    -0.214 C  
ENDBRANCH  27  28
ENDBRANCH  16  24
TORSDOF 2
ENDMDL
MODEL      103
REMARK 921   NORMALIZED FREE ENERGY PREDICTED BY IDOCK:    6.52 KCAL/MOL
REMARK 922        TOTAL FREE ENERGY PREDICTED BY IDOCK:    6.11 KCAL/MOL
REMARK 923 INTER-LIGAND FREE ENERGY PREDICTED BY IDOCK:    7.28 KCAL/MOL
REMARK 924 INTRA-LIGAND FREE ENERGY PREDICTED BY IDOCK:   -1.17 KCAL/MOL
REMARK 927      BINDING AFFINITY PREDICTED BY RF-SCORE:    0.00 PKD
ROOT
HETATM    1  C   UNL     1     -10.791   5.821  67.165  1.00  0.00    -0.217 C  
HETATM    2  C   UNL     1     -11.430   5.736  65.771  1.00  0.00     1.753 C  
HETATM    3  C   UNL     1     -11.502   4.199  65.488  1.00  0.00     1.775 C  
HETATM    4  C   UNL     1     -10.756   3.519  66.630  1.00  0.00     2.556 C  
HETATM    5  N   UNL     1     -10.039   4.596  67.286  1.00  0.00    -0.156 N  
HETATM    6  C   UNL     1      -9.455   4.294  68.493  1.00  0.00    -0.153 C  
HETATM    7  O   UNL     1      -8.905   3.211  68.673  1.00  0.00    -0.094 OA 
HETATM    8  C   UNL     1      -9.421   5.475  69.492  1.00  0.00    -0.141 C  
HETATM    9  N   UNL     1     -10.699   6.411  69.344  1.00  0.00    -0.257 N  
HETATM   10  C   UNL     1      -9.056   4.951  70.874  1.00  0.00    -0.184 C  
HETATM   11  C   UNL     1     -10.178   4.091  71.425  1.00  0.00    -0.059 C  
HETATM   12  C   UNL     1     -11.036   7.545  70.090  1.00  0.00    -0.231 C  
HETATM   13  C   UNL     1      -7.598   4.465  70.964  1.00  0.00    -0.063 C  
HETATM   14  O   UNL     1     -12.121   7.691  70.654  1.00  0.00    -0.185 OA 
HETATM   15  C   UNL     1      -9.997   3.847  72.905  1.00  0.00    -0.203 C  
HETATM   16  C   UNL     1      -9.832   8.478  70.067  1.00  0.00    -0.179 C  
HETATM   17  H   UNL     1     -11.245   8.813  68.270  1.00  0.00     0.000 HD 
HETATM   18  C   UNL     1      -9.390   8.101  71.574  1.00  0.00    -0.210 C  
HETATM   19  O   UNL     1      -9.334   7.859  68.683  1.00  0.00    -0.146 OA 
HETATM   20  O   UNL     1     -11.431   8.068  67.710  1.00  0.00     0.701 OA 
HETATM   21  C   UNL     1     -10.471   7.105  68.131  1.00  0.00    -0.200 C  
HETATM   22  C   UNL     1     -10.116   8.902  72.691  1.00  0.00     0.253 C  
HETATM   23  C   UNL     1      -7.914   7.975  71.926  1.00  0.00    -0.140 C  
ENDROOT
BRANCH  16  24
HETATM   24  N   UNL     1      -9.484   9.863  69.929  1.00  0.00    -0.269 N  
HETATM   25  H   UNL     1      -8.508  10.080  70.131  1.00  0.00     0.000 HD 
HETATM   26  O   UNL     1     -11.465  10.911  69.438  1.00  0.00    -0.251 OA 
HETATM   27  C   UNL     1     -10.253  10.948  69.568  1.00  0.00    -0.062 C  
BRANCH  27  28
HETATM   28  C   UNL     1      -9.371  12.182  69.346  1.00  0.00     1.025 C  
HETATM   29  C   UNL     1      -8.077  11.747  68.612  1.00  0.00    -0.104 C  
HETATM   30  N   UNL     1      -8.164  11.823  67.144  1.00  0.00    -0.162 NA 
HETATM   31  C   UNL     1      -9.292  11.049  66.597  1.00  0.00    -0.177 C  
HETATM   32  C   UNL     1      -8.198  13.260  66.738  1.00  0.00     0.166 C  
HETATM   33  C   UNL     1      -8.597  13.487  65.225  1.00  0.00     2.696 C  
HETATM   34  C   UNL     1      -9.698  14.469  65.053  1.00  0.00     0.132 A  
HETATM   35  C   UNL     1     -10.591  14.725  64.037  1.00  0.00     1.339 A  
HETATM   36  N   UNL     1     -11.316  15.843  64.385  1.00  0.00    -0.790 NA 
HETATM   37  C   UNL     1     -10.920  16.309  65.618  1.00  0.00    -0.106 A  
HETATM   38  H   UNL     1     -12.045  16.266  63.809  1.00  0.00     0.000 HD 
HETATM   39  C   UNL     1     -11.319  17.380  66.424  1.00  0.00     1.040 A  
HETATM   40  C   UNL     1     -10.678  17.516  67.670  1.00  0.00    -0.306 A  
HETATM   41  C   UNL     1      -9.770  16.561  68.135  1.00  0.00    -0.234 A  
HETATM   42  C   UNL     1      -9.478  15.446  67.349  1.00  0.00    -0.207 A  
HETATM   43  C   UNL     1      -9.976  15.407  66.056  1.00  0.00    -0.350 A  
HETATM   44  C   UNL     1      -8.883  14.172  67.862  1.00  0.00    -0.182 C  
HETATM   45  C   UNL     1     -10.001  13.369  68.599  1.00  0.00    -0.139 C  
ENDBRANCH  27  28
ENDBRANCH  16  24
TORSDOF 2
ENDMDL
MODEL      104
REMARK 921   NORMALIZED FREE ENERGY PREDICTED BY IDOCK:    7.15 KCAL/MOL
REMARK 922        TOTAL FREE ENERGY PREDICTED BY IDOCK:    6.81 KCAL/MOL
REMARK 923 INTER-LIGAND FREE ENERGY PREDICTED BY IDOCK:    6.13 KCAL/MOL
REMARK 924 INTRA-LIGAND FREE ENERGY PREDICTED BY IDOCK:    0.67 KCAL/MOL
REMARK 927      BINDING AFFINITY PREDICTED BY RF-SCORE:    0.00 PKD
ROOT
HETATM    1  C   UNL     1      -9.066  13.039  66.576  1.00  0.00    -0.127 C  
HETATM    2  C   UNL     1      -8.498  13.778  65.356  1.00  0.00     2.986 C  
HETATM    3  C   UNL     1      -9.527  14.931  65.107  1.00  0.00     0.413 C  
HETATM    4  C   UNL     1     -10.686  14.683  66.065  1.00  0.00    -0.312 C  
HETATM    5  N   UNL     1     -10.479  13.329  66.541  1.00  0.00    -0.278 N  
HETATM    6  C   UNL     1     -11.264  12.926  67.594  1.00  0.00    -0.278 C  
HETATM    7  O   UNL     1     -12.447  13.251  67.659  1.00  0.00    -0.078 OA 
HETATM    8  C   UNL     1     -10.573  11.927  68.553  1.00  0.00    -0.222 C  
HETATM    9  N   UNL     1      -9.012  12.213  68.679  1.00  0.00    -0.069 N  
HETATM   10  C   UNL     1     -11.397  11.803  69.826  1.00  0.00    -0.245 C  
HETATM   11  C   UNL     1     -11.347  13.098  70.615  1.00  0.00     0.866 C  
HETATM   12  C   UNL     1      -8.069  11.551  69.471  1.00  0.00     0.613 C  
HETATM   13  C   UNL     1     -12.743  11.090  69.601  1.00  0.00     0.059 C  
HETATM   14  O   UNL     1      -7.316  12.127  70.256  1.00  0.00     0.994 OA 
HETATM   15  C   UNL     1     -11.859  12.897  72.022  1.00  0.00     2.162 C  
HETATM   16  C   UNL     1      -8.197  10.061  69.180  1.00  0.00    -0.137 C  
HETATM   17  H   UNL     1      -6.746  11.125  67.730  1.00  0.00     0.000 HD 
HETATM   18  C   UNL     1      -8.984   9.762  70.557  1.00  0.00    -0.052 C  
HETATM   19  O   UNL     1      -8.783  10.360  67.725  1.00  0.00    -0.121 OA 
HETATM   20  O   UNL     1      -7.082  11.859  67.229  1.00  0.00    -0.121 OA 
HETATM   21  C   UNL     1      -8.488  11.773  67.439  1.00  0.00    -0.158 C  
HETATM   22  C   UNL     1      -8.075   9.543  71.799  1.00  0.00     1.027 C  
HETATM   23  C   UNL     1     -10.118   8.745  70.582  1.00  0.00    -0.248 C  
ENDROOT
BRANCH  16  24
HETATM   24  N   UNL     1      -7.405   8.885  68.958  1.00  0.00    -0.072 N  
HETATM   25  H   UNL     1      -7.889   8.129  68.474  1.00  0.00     0.000 HD 
HETATM   26  O   UNL     1      -5.410   9.328  70.001  1.00  0.00    -0.028 OA 
HETATM   27  C   UNL     1      -6.096   8.611  69.292  1.00  0.00    -0.042 C  
BRANCH  27  28
HETATM   28  C   UNL     1      -5.638   7.302  68.640  1.00  0.00    -0.022 C  
HETATM   29  C   UNL     1      -6.168   6.113  69.481  1.00  0.00    -0.033 C  
HETATM   30  N   UNL     1      -7.482   5.608  69.049  1.00  0.00    -0.082 NA 
HETATM   31  C   UNL     1      -8.516   6.656  69.021  1.00  0.00    -0.130 C  
HETATM   32  C   UNL     1      -7.322   4.918  67.734  1.00  0.00    -0.074 C  
HETATM   33  C   UNL     1      -8.690   4.599  67.010  1.00  0.00    -0.104 C  
HETATM   34  C   UNL     1      -8.730   5.071  65.601  1.00  0.00    -0.139 A  
HETATM   35  C   UNL     1      -9.752   5.341  64.720  1.00  0.00     0.512 A  
HETATM   36  N   UNL     1      -9.189   5.639  63.499  1.00  0.00     0.002 NA 
HETATM   37  C   UNL     1      -7.815   5.583  63.577  1.00  0.00    -0.096 A  
HETATM   38  H   UNL     1      -9.715   5.869  62.656  1.00  0.00     0.000 HD 
HETATM   39  C   UNL     1      -6.782   5.796  62.659  1.00  0.00    -0.039 A  
HETATM   40  C   UNL     1      -5.464   5.670  63.138  1.00  0.00    -0.014 A  
HETATM   41  C   UNL     1      -5.195   5.458  64.493  1.00  0.00    -0.010 A  
HETATM   42  C   UNL     1      -6.250   5.359  65.400  1.00  0.00    -0.034 A  
HETATM   43  C   UNL     1      -7.542   5.310  64.899  1.00  0.00    -0.083 A  
HETATM   44  C   UNL     1      -6.126   5.553  66.878  1.00  0.00    -0.030 C  
HETATM   45  C   UNL     1      -6.013   7.083  67.165  1.00  0.00    -0.025 C  
ENDBRANCH  27  28
ENDBRANCH  16  24
TORSDOF 2
ENDMDL
MODEL      105
REMARK 921   NORMALIZED FREE ENERGY PREDICTED BY IDOCK:    7.28 KCAL/MOL
REMARK 922        TOTAL FREE ENERGY PREDICTED BY IDOCK:    6.95 KCAL/MOL
REMARK 923 INTER-LIGAND FREE ENERGY PREDICTED BY IDOCK:    3.08 KCAL/MOL
REMARK 924 INTRA-LIGAND FREE ENERGY PREDICTED BY IDOCK:    3.87 KCAL/MOL
REMARK 927      BINDING AFFINITY PREDICTED BY RF-SCORE:    0.00 PKD
ROOT
HETATM    1  C   UNL     1      -9.764   4.105  64.909  1.00  0.00    -0.191 C  
HETATM    2  C   UNL     1     -10.701   3.476  63.867  1.00  0.00    -0.248 C  
HETATM    3  C   UNL     1      -9.873   2.276  63.300  1.00  0.00    -0.113 C  
HETATM    4  C   UNL     1      -8.480   2.393  63.906  1.00  0.00    -0.085 C  
HETATM    5  N   UNL     1      -8.442   3.728  64.472  1.00  0.00    -0.097 N  
HETATM    6  C   UNL     1      -7.369   4.018  65.280  1.00  0.00    -0.072 C  
HETATM    7  O   UNL     1      -6.243   3.614  65.001  1.00  0.00    -0.023 OA 
HETATM    8  C   UNL     1      -7.691   5.002  66.430  1.00  0.00    -0.092 C  
HETATM    9  N   UNL     1      -9.175   4.809  66.974  1.00  0.00    -0.121 N  
HETATM   10  C   UNL     1      -6.542   4.999  67.428  1.00  0.00    -0.053 C  
HETATM   11  C   UNL     1      -6.474   3.666  68.150  1.00  0.00    -0.037 C  
HETATM   12  C   UNL     1      -9.810   5.484  68.021  1.00  0.00    -0.139 C  
HETATM   13  C   UNL     1      -5.259   5.636  66.865  1.00  0.00    -0.005 C  
HETATM   14  O   UNL     1     -10.361   4.913  68.962  1.00  0.00    -0.148 OA 
HETATM   15  C   UNL     1      -5.582   3.752  69.366  1.00  0.00    -0.017 C  
HETATM   16  C   UNL     1      -9.651   6.977  67.763  1.00  0.00    -0.123 C  
HETATM   17  H   UNL     1     -11.523   6.094  66.734  1.00  0.00     0.000 HD 
HETATM   18  C   UNL     1      -8.495   7.145  68.878  1.00  0.00    -0.126 C  
HETATM   19  O   UNL     1      -9.512   6.726  66.192  1.00  0.00    -0.121 OA 
HETATM   20  O   UNL     1     -11.395   5.370  66.132  1.00  0.00     0.109 OA 
HETATM   21  C   UNL     1      -9.983   5.353  65.946  1.00  0.00    -0.020 C  
HETATM   22  C   UNL     1      -9.009   7.349  70.331  1.00  0.00    -0.150 C  
HETATM   23  C   UNL     1      -7.323   8.083  68.625  1.00  0.00    -0.089 C  
ENDROOT
BRANCH  16  24
HETATM   24  N   UNL     1     -10.381   8.212  67.815  1.00  0.00    -0.227 N  
HETATM   25  H   UNL     1     -11.046   8.347  67.054  1.00  0.00     0.000 HD 
HETATM   26  O   UNL     1      -9.493   9.331  69.610  1.00  0.00    -0.163 OA 
HETATM   27  C   UNL     1     -10.329   9.245  68.725  1.00  0.00    -0.211 C  
BRANCH  27  28
HETATM   28  C   UNL     1     -11.464  10.243  68.471  1.00  0.00    -0.169 C  
HETATM   29  C   UNL     1     -12.809   9.581  68.864  1.00  0.00     4.231 C  
HETATM   30  N   UNL     1     -13.212   9.820  70.260  1.00  0.00     0.249 NA 
HETATM   31  C   UNL     1     -12.187   9.402  71.231  1.00  0.00    -0.345 C  
HETATM   32  C   UNL     1     -13.599  11.255  70.409  1.00  0.00     1.461 C  
HETATM   33  C   UNL     1     -13.758  11.721  71.911  1.00  0.00     0.100 C  
HETATM   34  C   UNL     1     -12.990  12.954  72.225  1.00  0.00    -0.313 A  
HETATM   35  C   UNL     1     -12.539  13.518  73.397  1.00  0.00     1.720 A  
HETATM   36  N   UNL     1     -11.981  14.738  73.089  1.00  0.00    -0.182 NA 
HETATM   37  C   UNL     1     -12.047  14.970  71.733  1.00  0.00    -0.361 A  
HETATM   38  H   UNL     1     -11.574  15.381  73.770  1.00  0.00     0.000 HD 
HETATM   39  C   UNL     1     -11.635  16.021  70.908  1.00  0.00    -0.453 A  
HETATM   40  C   UNL     1     -11.859  15.873  69.525  1.00  0.00    -0.310 A  
HETATM   41  C   UNL     1     -12.359  14.684  68.987  1.00  0.00    -0.102 A  
HETATM   42  C   UNL     1     -12.657  13.615  69.833  1.00  0.00    -0.116 A  
HETATM   43  C   UNL     1     -12.600  13.827  71.202  1.00  0.00    -0.452 A  
HETATM   44  C   UNL     1     -12.789  12.191  69.393  1.00  0.00     1.027 C  
HETATM   45  C   UNL     1     -11.357  11.615  69.156  1.00  0.00    -0.345 C  
ENDBRANCH  27  28
ENDBRANCH  16  24
TORSDOF 2
ENDMDL
MODEL      106
REMARK 921   NORMALIZED FREE ENERGY PREDICTED BY IDOCK:    8.69 KCAL/MOL
REMARK 922        TOTAL FREE ENERGY PREDICTED BY IDOCK:    8.53 KCAL/MOL
REMARK 923 INTER-LIGAND FREE ENERGY PREDICTED BY IDOCK:    9.12 KCAL/MOL
REMARK 924 INTRA-LIGAND FREE ENERGY PREDICTED BY IDOCK:   -0.60 KCAL/MOL
REMARK 927      BINDING AFFINITY PREDICTED BY RF-SCORE:    0.00 PKD
ROOT
HETATM    1  C   UNL     1     -11.248   4.230  64.435  1.00  0.00     0.351 C  
HETATM    2  C   UNL     1     -12.578   3.759  63.827  1.00  0.00     6.546 C  
HETATM    3  C   UNL     1     -12.184   2.476  63.021  1.00  0.00     2.894 C  
HETATM    4  C   UNL     1     -10.663   2.392  63.068  1.00  0.00    -0.205 C  
HETATM    5  N   UNL     1     -10.243   3.694  63.549  1.00  0.00    -0.192 N  
HETATM    6  C   UNL     1      -8.920   3.818  63.897  1.00  0.00    -0.109 C  
HETATM    7  O   UNL     1      -8.040   3.278  63.231  1.00  0.00    -0.078 OA 
HETATM    8  C   UNL     1      -8.662   4.804  65.062  1.00  0.00    -0.147 C  
HETATM    9  N   UNL     1      -9.851   4.792  66.119  1.00  0.00    -0.196 N  
HETATM   10  C   UNL     1      -7.237   4.622  65.565  1.00  0.00    -0.071 C  
HETATM   11  C   UNL     1      -7.084   3.272  66.240  1.00  0.00    -0.062 C  
HETATM   12  C   UNL     1      -9.960   5.514  67.312  1.00  0.00    -0.165 C  
HETATM   13  C   UNL     1      -6.179   5.101  64.554  1.00  0.00    -0.026 C  
HETATM   14  O   UNL     1     -10.196   4.995  68.402  1.00  0.00    -0.146 OA 
HETATM   15  C   UNL     1      -5.803   3.206  67.039  1.00  0.00    -0.023 C  
HETATM   16  C   UNL     1      -9.712   6.980  66.979  1.00  0.00    -0.167 C  
HETATM   17  H   UNL     1     -11.930   6.380  66.735  1.00  0.00     0.000 HD 
HETATM   18  C   UNL     1      -8.215   6.964  67.584  1.00  0.00    -0.117 C  
HETATM   19  O   UNL     1     -10.197   6.757  65.475  1.00  0.00     1.146 OA 
HETATM   20  O   UNL     1     -12.131   5.662  66.145  1.00  0.00     1.864 OA 
HETATM   21  C   UNL     1     -10.902   5.466  65.451  1.00  0.00     0.813 C  
HETATM   22  C   UNL     1      -8.125   7.193  69.120  1.00  0.00    -0.121 C  
HETATM   23  C   UNL     1      -7.106   7.747  66.895  1.00  0.00    -0.081 C  
ENDROOT
BRANCH  16  24
HETATM   24  N   UNL     1     -10.200   8.299  67.269  1.00  0.00    -0.247 N  
HETATM   25  H   UNL     1     -10.751   8.371  68.124  1.00  0.00     0.000 HD 
HETATM   26  O   UNL     1      -9.553   9.563  65.467  1.00  0.00    -0.260 OA 
HETATM   27  C   UNL     1     -10.046   9.482  66.580  1.00  0.00    -0.252 C  
BRANCH  27  28
HETATM   28  C   UNL     1     -10.567  10.660  67.412  1.00  0.00    -0.304 C  
HETATM   29  C   UNL     1      -9.996  10.549  68.848  1.00  0.00    -0.204 C  
HETATM   30  N   UNL     1      -8.723  11.261  69.046  1.00  0.00    -0.036 NA 
HETATM   31  C   UNL     1      -7.678  10.842  68.097  1.00  0.00    -0.102 C  
HETATM   32  C   UNL     1      -8.984  12.731  69.006  1.00  0.00     0.523 C  
HETATM   33  C   UNL     1      -7.674  13.610  68.898  1.00  0.00     0.005 C  
HETATM   34  C   UNL     1      -7.726  14.604  67.795  1.00  0.00    -0.169 A  
HETATM   35  C   UNL     1      -6.765  15.307  67.105  1.00  0.00     0.125 A  
HETATM   36  N   UNL     1      -7.409  16.182  66.259  1.00  0.00    -0.047 NA 
HETATM   37  C   UNL     1      -8.775  16.049  66.377  1.00  0.00    -0.327 A  
HETATM   38  H   UNL     1      -6.940  16.838  65.633  1.00  0.00     0.000 HD 
HETATM   39  C   UNL     1      -9.866  16.672  65.764  1.00  0.00    -0.241 A  
HETATM   40  C   UNL     1     -11.149  16.228  66.138  1.00  0.00     0.142 A  
HETATM   41  C   UNL     1     -11.326  15.137  66.993  1.00  0.00    -0.277 A  
HETATM   42  C   UNL     1     -10.210  14.469  67.501  1.00  0.00    -0.232 A  
HETATM   43  C   UNL     1      -8.957  15.016  67.269  1.00  0.00    -0.212 A  
HETATM   44  C   UNL     1     -10.228  13.082  68.060  1.00  0.00    -0.233 C  
HETATM   45  C   UNL     1     -10.299  12.073  66.870  1.00  0.00    -0.238 C  
ENDBRANCH  27  28
ENDBRANCH  16  24
TORSDOF 2
ENDMDL
MODEL      107
REMARK 921   NORMALIZED FREE ENERGY PREDICTED BY IDOCK:    9.06 KCAL/MOL
REMARK 922        TOTAL FREE ENERGY PREDICTED BY IDOCK:    8.94 KCAL/MOL
REMARK 923 INTER-LIGAND FREE ENERGY PREDICTED BY IDOCK:   10.05 KCAL/MOL
REMARK 924 INTRA-LIGAND FREE ENERGY PREDICTED BY IDOCK:   -1.11 KCAL/MOL
REMARK 927      BINDING AFFINITY PREDICTED BY RF-SCORE:    0.00 PKD
ROOT
HETATM    1  C   UNL     1      -7.025  10.581  70.463  1.00  0.00     0.225 C  
HETATM    2  C   UNL     1      -5.972  10.058  71.451  1.00  0.00     0.088 C  
HETATM    3  C   UNL     1      -6.563   8.692  71.936  1.00  0.00    -0.079 C  
HETATM    4  C   UNL     1      -7.966   8.601  71.347  1.00  0.00    -0.137 C  
HETATM    5  N   UNL     1      -8.251   9.944  70.879  1.00  0.00     0.458 N  
HETATM    6  C   UNL     1      -9.373  10.093  70.101  1.00  0.00     0.092 C  
HETATM    7  O   UNL     1     -10.404   9.476  70.356  1.00  0.00    -0.237 OA 
HETATM    8  C   UNL     1      -9.252  11.197  69.023  1.00  0.00    -0.031 C  
HETATM    9  N   UNL     1      -7.769  11.311  68.458  1.00  0.00    -0.123 N  
HETATM   10  C   UNL     1     -10.401  11.059  68.034  1.00  0.00    -0.209 C  
HETATM   11  C   UNL     1     -10.245   9.789  67.219  1.00  0.00    -0.289 C  
HETATM   12  C   UNL     1      -7.283  12.160  67.458  1.00  0.00    -0.133 C  
HETATM   13  C   UNL     1     -11.767  11.415  68.649  1.00  0.00    -0.394 C  
HETATM   14  O   UNL     1      -6.657  11.764  66.475  1.00  0.00    -0.051 OA 
HETATM   15  C   UNL     1     -11.161   9.799  66.018  1.00  0.00     0.993 C  
HETATM   16  C   UNL     1      -7.700  13.579  67.825  1.00  0.00    -0.163 C  
HETATM   17  H   UNL     1      -5.683  12.974  68.776  1.00  0.00     0.000 HD 
HETATM   18  C   UNL     1      -8.888  13.615  66.732  1.00  0.00    -0.150 C  
HETATM   19  O   UNL     1      -7.763  13.197  69.374  1.00  0.00     0.328 OA 
HETATM   20  O   UNL     1      -5.668  12.199  69.325  1.00  0.00    -0.065 OA 
HETATM   21  C   UNL     1      -7.051  11.918  69.517  1.00  0.00     0.129 C  
HETATM   22  C   UNL     1      -8.446  14.009  65.294  1.00  0.00     3.617 C  
HETATM   23  C   UNL     1     -10.203  14.309  67.059  1.00  0.00    -0.260 C  
ENDROOT
BRANCH  16  24
HETATM   24  N   UNL     1      -7.203  14.925  67.858  1.00  0.00    -0.136 N  
HETATM   25  H   UNL     1      -7.816  15.595  68.321  1.00  0.00     0.000 HD 
HETATM   26  O   UNL     1      -5.252  14.850  66.653  1.00  0.00     1.025 OA 
HETATM   27  C   UNL     1      -6.032  15.459  67.365  1.00  0.00     0.066 C  
BRANCH  27  28
HETATM   28  C   UNL     1      -5.857  16.904  67.847  1.00  0.00    -0.135 C  
HETATM   29  C   UNL     1      -5.426  17.783  66.645  1.00  0.00    -0.165 C  
HETATM   30  N   UNL     1      -6.549  18.398  65.918  1.00  0.00    -0.247 NA 
HETATM   31  C   UNL     1      -7.533  17.411  65.443  1.00  0.00     1.231 C  
HETATM   32  C   UNL     1      -7.159  19.454  66.780  1.00  0.00    -0.203 C  
HETATM   33  C   UNL     1      -8.553  19.982  66.254  1.00  0.00    -0.337 C  
HETATM   34  C   UNL     1      -9.616  19.959  67.292  1.00  0.00    -0.502 A  
HETATM   35  C   UNL     1     -10.991  19.971  67.243  1.00  0.00     0.016 A  
HETATM   36  N   UNL     1     -11.459  20.056  68.535  1.00  0.00     1.128 NA 
HETATM   37  C   UNL     1     -10.409  20.083  69.426  1.00  0.00     0.095 A  
HETATM   38  H   UNL     1     -12.445  20.094  68.796  1.00  0.00     0.000 HD 
HETATM   39  C   UNL     1     -10.323  20.155  70.820  1.00  0.00     1.726 A  
HETATM   40  C   UNL     1      -9.032  20.127  71.382  1.00  0.00     2.285 A  
HETATM   41  C   UNL     1      -7.895  19.917  70.597  1.00  0.00     1.344 A  
HETATM   42  C   UNL     1      -8.030  19.739  69.219  1.00  0.00    -0.008 A  
HETATM   43  C   UNL     1      -9.279  19.941  68.652  1.00  0.00    -0.215 A  
HETATM   44  C   UNL     1      -7.003  19.106  68.336  1.00  0.00    -0.303 C  
HETATM   45  C   UNL     1      -7.057  17.560  68.549  1.00  0.00    -0.226 C  
ENDBRANCH  27  28
ENDBRANCH  16  24
TORSDOF 2
ENDMDL
MODEL      108
REMARK 921   NORMALIZED FREE ENERGY PREDICTED BY IDOCK:    9.68 KCAL/MOL
REMARK 922        TOTAL FREE ENERGY PREDICTED BY IDOCK:    9.63 KCAL/MOL
REMARK 923 INTER-LIGAND FREE ENERGY PREDICTED BY IDOCK:    7.36 KCAL/MOL
REMARK 924 INTRA-LIGAND FREE ENERGY PREDICTED BY IDOCK:    2.27 KCAL/MOL
REMARK 927      BINDING AFFINITY PREDICTED BY RF-SCORE:    0.00 PKD
ROOT
HETATM    1  C   UNL     1      -6.815   8.310  69.978  1.00  0.00    -0.043 C  
HETATM    2  C   UNL     1      -5.399   7.779  69.708  1.00  0.00    -0.023 C  
HETATM    3  C   UNL     1      -5.375   6.395  70.440  1.00  0.00    -0.014 C  
HETATM    4  C   UNL     1      -6.684   6.299  71.215  1.00  0.00    -0.058 C  
HETATM    5  N   UNL     1      -7.216   7.648  71.196  1.00  0.00    -0.061 N  
HETATM    6  C   UNL     1      -8.508   7.801  71.637  1.00  0.00    -0.111 C  
HETATM    7  O   UNL     1      -8.923   7.166  72.603  1.00  0.00    -0.126 OA 
HETATM    8  C   UNL     1      -9.291   8.929  70.924  1.00  0.00    -0.238 C  
HETATM    9  N   UNL     1      -8.860   9.074  69.399  1.00  0.00    -0.140 N  
HETATM   10  C   UNL     1     -10.771   8.798  71.255  1.00  0.00    -0.339 C  
HETATM   11  C   UNL     1     -11.346   7.548  70.615  1.00  0.00    -0.301 C  
HETATM   12  C   UNL     1      -9.366   9.950  68.433  1.00  0.00    -0.133 C  
HETATM   13  C   UNL     1     -11.087   9.125  72.726  1.00  0.00     1.133 C  
HETATM   14  O   UNL     1      -9.786   9.583  67.336  1.00  0.00    -0.154 OA 
HETATM   15  C   UNL     1     -12.856   7.573  70.636  1.00  0.00     0.174 C  
HETATM   16  C   UNL     1      -9.305  11.355  69.018  1.00  0.00     0.053 C  
HETATM   17  H   UNL     1      -7.346  10.756  67.950  1.00  0.00     0.000 HD 
HETATM   18  C   UNL     1     -10.890  11.400  69.323  1.00  0.00    -0.242 C  
HETATM   19  O   UNL     1      -8.102  10.940  69.982  1.00  0.00     0.309 OA 
HETATM   20  O   UNL     1      -6.904   9.968  68.247  1.00  0.00    -0.062 OA 
HETATM   21  C   UNL     1      -7.576   9.666  69.466  1.00  0.00    -0.104 C  
HETATM   22  C   UNL     1     -11.778  11.831  68.121  1.00  0.00    -0.377 C  
HETATM   23  C   UNL     1     -11.404  12.071  70.589  1.00  0.00     0.898 C  
ENDROOT
BRANCH  16  24
HETATM   24  N   UNL     1      -8.969  12.706  68.669  1.00  0.00    -0.392 N  
HETATM   25  H   UNL     1      -8.262  13.137  69.264  1.00  0.00     0.000 HD 
HETATM   26  O   UNL     1     -10.395  13.231  66.951  1.00  0.00    -0.251 OA 
HETATM   27  C   UNL     1      -9.446  13.516  67.661  1.00  0.00    -0.222 C  
BRANCH  27  28
HETATM   28  C   UNL     1      -8.613  14.799  67.563  1.00  0.00    -0.198 C  
HETATM   29  C   UNL     1      -8.428  15.160  66.067  1.00  0.00     0.630 C  
HETATM   30  N   UNL     1      -9.465  16.059  65.533  1.00  0.00    -0.393 NA 
HETATM   31  C   UNL     1     -10.828  15.534  65.719  1.00  0.00    -0.331 C  
HETATM   32  C   UNL     1      -9.281  17.415  66.131  1.00  0.00    -0.142 C  
HETATM   33  C   UNL     1     -10.499  18.392  65.885  1.00  0.00    -0.346 C  
HETATM   34  C   UNL     1     -10.997  19.030  67.132  1.00  0.00    -0.338 A  
HETATM   35  C   UNL     1     -12.183  19.635  67.479  1.00  0.00     3.145 A  
HETATM   36  N   UNL     1     -12.037  20.154  68.746  1.00  0.00     3.430 NA 
HETATM   37  C   UNL     1     -10.778  19.882  69.235  1.00  0.00     0.699 A  
HETATM   38  H   UNL     1     -12.759  20.667  69.252  1.00  0.00     0.000 HD 
HETATM   39  C   UNL     1     -10.123  20.166  70.437  1.00  0.00     0.942 A  
HETATM   40  C   UNL     1      -8.809  19.680  70.579  1.00  0.00     1.763 A  
HETATM   41  C   UNL     1      -8.226  18.852  69.616  1.00  0.00     0.563 A  
HETATM   42  C   UNL     1      -8.952  18.500  68.477  1.00  0.00    -0.348 A  
HETATM   43  C   UNL     1     -10.173  19.119  68.261  1.00  0.00    -0.486 A  
HETATM   44  C   UNL     1      -8.645  17.328  67.599  1.00  0.00    -0.218 C  
HETATM   45  C   UNL     1      -9.132  16.032  68.320  1.00  0.00    -0.191 C  
ENDBRANCH  27  28
ENDBRANCH  16  24
TORSDOF 2
ENDMDL
MODEL      109
REMARK 921   NORMALIZED FREE ENERGY PREDICTED BY IDOCK:   10.58 KCAL/MOL
REMARK 922        TOTAL FREE ENERGY PREDICTED BY IDOCK:   10.64 KCAL/MOL
REMARK 923 INTER-LIGAND FREE ENERGY PREDICTED BY IDOCK:   11.49 KCAL/MOL
REMARK 924 INTRA-LIGAND FREE ENERGY PREDICTED BY IDOCK:   -0.85 KCAL/MOL
REMARK 927      BINDING AFFINITY PREDICTED BY RF-SCORE:    0.00 PKD
ROOT
HETATM    1  C   UNL     1     -10.453  13.663  69.306  1.00  0.00     0.101 C  
HETATM    2  C   UNL     1     -10.180  14.398  70.626  1.00  0.00     1.383 C  
HETATM    3  C   UNL     1     -10.482  15.896  70.287  1.00  0.00    -0.186 C  
HETATM    4  C   UNL     1     -10.731  15.952  68.785  1.00  0.00    -0.265 C  
HETATM    5  N   UNL     1     -10.262  14.671  68.292  1.00  0.00    -0.223 N  
HETATM    6  C   UNL     1     -10.575  14.368  66.989  1.00  0.00    -0.274 C  
HETATM    7  O   UNL     1     -10.536  15.229  66.114  1.00  0.00    -0.294 OA 
HETATM    8  C   UNL     1     -10.804  12.860  66.728  1.00  0.00    -0.267 C  
HETATM    9  N   UNL     1     -11.467  12.138  67.982  1.00  0.00    -0.296 N  
HETATM   10  C   UNL     1     -11.446  12.680  65.360  1.00  0.00    -0.373 C  
HETATM   11  C   UNL     1     -12.860  13.229  65.364  1.00  0.00    -0.340 C  
HETATM   12  C   UNL     1     -11.854  10.800  68.110  1.00  0.00     0.049 C  
HETATM   13  C   UNL     1     -10.491  13.023  64.201  1.00  0.00    -0.395 C  
HETATM   14  O   UNL     1     -12.981  10.449  68.459  1.00  0.00     1.728 OA 
HETATM   15  C   UNL     1     -13.627  12.762  64.149  1.00  0.00     1.426 C  
HETATM   16  C   UNL     1     -10.657   9.942  67.720  1.00  0.00    -0.261 C  
HETATM   17  H   UNL     1     -10.645  10.514  69.958  1.00  0.00     0.000 HD 
HETATM   18  C   UNL     1     -11.271   9.573  66.273  1.00  0.00     1.302 C  
HETATM   19  O   UNL     1      -9.645  11.110  68.120  1.00  0.00    -0.167 OA 
HETATM   20  O   UNL     1     -10.667  11.439  70.178  1.00  0.00     0.226 OA 
HETATM   21  C   UNL     1     -10.415  12.070  68.927  1.00  0.00    -0.125 C  
HETATM   22  C   UNL     1     -12.260   8.373  66.266  1.00  0.00     9.594 C  
HETATM   23  C   UNL     1     -10.357   9.474  65.060  1.00  0.00     0.961 C  
ENDROOT
BRANCH  16  24
HETATM   24  N   UNL     1      -9.940   8.763  68.116  1.00  0.00    -0.167 N  
HETATM   25  H   UNL     1      -9.545   8.225  67.345  1.00  0.00     0.000 HD 
HETATM   26  O   UNL     1     -10.215   8.657  70.391  1.00  0.00    -0.185 OA 
HETATM   27  C   UNL     1      -9.699   8.240  69.368  1.00  0.00    -0.177 C  
BRANCH  27  28
HETATM   28  C   UNL     1      -8.694   7.086  69.283  1.00  0.00    -0.136 C  
HETATM   29  C   UNL     1      -9.315   5.833  69.952  1.00  0.00    -0.148 C  
HETATM   30  N   UNL     1     -10.055   4.961  69.026  1.00  0.00    -0.173 NA 
HETATM   31  C   UNL     1     -11.118   5.672  68.296  1.00  0.00     0.253 C  
HETATM   32  C   UNL     1      -9.080   4.288  68.116  1.00  0.00    -0.131 C  
HETATM   33  C   UNL     1      -9.753   3.565  66.881  1.00  0.00    -0.049 C  
HETATM   34  C   UNL     1      -9.146   3.946  65.580  1.00  0.00    -0.143 A  
HETATM   35  C   UNL     1      -9.578   3.879  64.275  1.00  0.00    -0.168 A  
HETATM   36  N   UNL     1      -8.536   4.271  63.465  1.00  0.00    -0.104 NA 
HETATM   37  C   UNL     1      -7.437   4.607  64.223  1.00  0.00    -0.071 A  
HETATM   38  H   UNL     1      -8.573   4.307  62.445  1.00  0.00     0.000 HD 
HETATM   39  C   UNL     1      -6.151   5.063  63.917  1.00  0.00    -0.022 A  
HETATM   40  C   UNL     1      -5.294   5.334  65.001  1.00  0.00    -0.013 A  
HETATM   41  C   UNL     1      -5.741   5.265  66.323  1.00  0.00    -0.018 A  
HETATM   42  C   UNL     1      -7.065   4.912  66.587  1.00  0.00    -0.068 A  
HETATM   43  C   UNL     1      -7.851   4.479  65.530  1.00  0.00    -0.094 A  
HETATM   44  C   UNL     1      -7.785   5.196  67.867  1.00  0.00    -0.087 C  
HETATM   45  C   UNL     1      -8.177   6.708  67.885  1.00  0.00    -0.120 C  
ENDBRANCH  27  28
ENDBRANCH  16  24
TORSDOF 2
ENDMDL
MODEL      110
REMARK 921   NORMALIZED FREE ENERGY PREDICTED BY IDOCK:   11.19 KCAL/MOL
REMARK 922        TOTAL FREE ENERGY PREDICTED BY IDOCK:   11.31 KCAL/MOL
REMARK 923 INTER-LIGAND FREE ENERGY PREDICTED BY IDOCK:    9.37 KCAL/MOL
REMARK 924 INTRA-LIGAND FREE ENERGY PREDICTED BY IDOCK:    1.95 KCAL/MOL
REMARK 927      BINDING AFFINITY PREDICTED BY RF-SCORE:    0.00 PKD
ROOT
HETATM    1  C   UNL     1      -9.497  14.606  69.122  1.00  0.00    -0.066 C  
HETATM    2  C   UNL     1      -9.030  15.277  70.422  1.00  0.00     1.003 C  
HETATM    3  C   UNL     1      -9.141  16.807  70.111  1.00  0.00     1.812 C  
HETATM    4  C   UNL     1      -9.486  16.918  68.631  1.00  0.00    -0.268 C  
HETATM    5  N   UNL     1      -9.239  15.591  68.100  1.00  0.00    -0.187 N  
HETATM    6  C   UNL     1      -9.683  15.352  66.823  1.00  0.00    -0.240 C  
HETATM    7  O   UNL     1      -9.586  16.211  65.951  1.00  0.00    -0.320 OA 
HETATM    8  C   UNL     1     -10.140  13.895  66.574  1.00  0.00    -0.286 C  
HETATM    9  N   UNL     1     -10.807  13.256  67.870  1.00  0.00    -0.238 N  
HETATM   10  C   UNL     1     -10.896  13.825  65.255  1.00  0.00    -0.326 C  
HETATM   11  C   UNL     1     -12.216  14.567  65.364  1.00  0.00    -0.294 C  
HETATM   12  C   UNL     1     -11.369  11.984  68.021  1.00  0.00    -0.296 C  
HETATM   13  C   UNL     1      -9.988  14.046  64.032  1.00  0.00     1.827 C  
HETATM   14  O   UNL     1     -12.506  11.789  68.450  1.00  0.00    -0.207 OA 
HETATM   15  C   UNL     1     -13.125  14.229  64.206  1.00  0.00     0.867 C  
HETATM   16  C   UNL     1     -10.335  10.972  67.543  1.00  0.00    -0.198 C  
HETATM   17  H   UNL     1     -10.083  11.506  69.776  1.00  0.00     0.000 HD 
HETATM   18  C   UNL     1     -11.097  10.712  66.143  1.00  0.00     0.133 C  
HETATM   19  O   UNL     1      -9.143  11.981  67.873  1.00  0.00    -0.169 OA 
HETATM   20  O   UNL     1      -9.959  12.421  70.000  1.00  0.00     1.782 OA 
HETATM   21  C   UNL     1      -9.710  13.028  68.736  1.00  0.00     0.059 C  
HETATM   22  C   UNL     1     -12.243   9.663  66.203  1.00  0.00     7.844 C  
HETATM   23  C   UNL     1     -10.294  10.503  64.866  1.00  0.00    -0.307 C  
ENDROOT
BRANCH  16  24
HETATM   24  N   UNL     1      -9.765   9.699  67.881  1.00  0.00    -0.143 N  
HETATM   25  H   UNL     1      -9.667   9.528  68.882  1.00  0.00     0.000 HD 
HETATM   26  O   UNL     1      -9.227   8.751  65.863  1.00  0.00    -0.204 OA 
HETATM   27  C   UNL     1      -9.330   8.670  67.075  1.00  0.00    -0.159 C  
BRANCH  27  28
HETATM   28  C   UNL     1      -9.011   7.428  67.915  1.00  0.00    -0.131 C  
HETATM   29  C   UNL     1      -7.559   6.979  67.612  1.00  0.00    -0.110 C  
HETATM   30  N   UNL     1      -6.548   7.568  68.505  1.00  0.00    -0.048 NA 
HETATM   31  C   UNL     1      -6.586   9.039  68.521  1.00  0.00    -0.055 C  
HETATM   32  C   UNL     1      -6.703   6.971  69.866  1.00  0.00    -0.049 C  
HETATM   33  C   UNL     1      -5.892   7.729  70.992  1.00  0.00    -0.034 C  
HETATM   34  C   UNL     1      -6.724   8.086  72.170  1.00  0.00    -0.069 A  
HETATM   35  C   UNL     1      -6.586   9.006  73.185  1.00  0.00     0.278 A  
HETATM   36  N   UNL     1      -7.617   8.810  74.075  1.00  0.00    -0.418 NA 
HETATM   37  C   UNL     1      -8.434   7.786  73.648  1.00  0.00    -0.222 A  
HETATM   38  H   UNL     1      -7.758   9.347  74.931  1.00  0.00     0.000 HD 
HETATM   39  C   UNL     1      -9.594   7.195  74.157  1.00  0.00    -0.272 A  
HETATM   40  C   UNL     1     -10.173   6.163  73.394  1.00  0.00    -0.228 A  
HETATM   41  C   UNL     1      -9.682   5.822  72.130  1.00  0.00    -0.174 A  
HETATM   42  C   UNL     1      -8.586   6.510  71.607  1.00  0.00    -0.128 A  
HETATM   43  C   UNL     1      -7.917   7.401  72.431  1.00  0.00    -0.112 A  
HETATM   44  C   UNL     1      -8.223   6.557  70.156  1.00  0.00    -0.129 C  
HETATM   45  C   UNL     1      -9.196   7.543  69.437  1.00  0.00    -0.149 C  
ENDBRANCH  27  28
ENDBRANCH  16  24
TORSDOF 2
ENDMDL
MODEL      111
REMARK 921   NORMALIZED FREE ENERGY PREDICTED BY IDOCK:   16.15 KCAL/MOL
REMARK 922        TOTAL FREE ENERGY PREDICTED BY IDOCK:   16.86 KCAL/MOL
REMARK 923 INTER-LIGAND FREE ENERGY PREDICTED BY IDOCK:   16.08 KCAL/MOL
REMARK 924 INTRA-LIGAND FREE ENERGY PREDICTED BY IDOCK:    0.78 KCAL/MOL
REMARK 927      BINDING AFFINITY PREDICTED BY RF-SCORE:    0.00 PKD
ROOT
HETATM    1  C   UNL     1     -11.011  10.199  65.460  1.00  0.00     0.762 C  
HETATM    2  C   UNL     1     -12.502   9.999  65.149  1.00  0.00     9.112 C  
HETATM    3  C   UNL     1     -12.708  10.769  63.802  1.00  0.00     3.365 C  
HETATM    4  C   UNL     1     -11.398  11.496  63.521  1.00  0.00    -0.279 C  
HETATM    5  N   UNL     1     -10.666  11.419  64.771  1.00  0.00    -0.306 N  
HETATM    6  C   UNL     1      -9.348  11.806  64.731  1.00  0.00     0.090 C  
HETATM    7  O   UNL     1      -8.996  12.773  64.061  1.00  0.00     1.057 OA 
HETATM    8  C   UNL     1      -8.432  11.033  65.709  1.00  0.00    -0.119 C  
HETATM    9  N   UNL     1      -8.899   9.521  65.885  1.00  0.00    -0.155 N  
HETATM   10  C   UNL     1      -6.977  11.310  65.357  1.00  0.00     0.649 C  
HETATM   11  C   UNL     1      -6.629  10.685  64.020  1.00  0.00     0.198 C  
HETATM   12  C   UNL     1      -8.305   8.512  66.650  1.00  0.00    -0.112 C  
HETATM   13  C   UNL     1      -6.553  12.759  65.663  1.00  0.00     5.283 C  
HETATM   14  O   UNL     1      -7.992   7.411  66.199  1.00  0.00    -0.102 OA 
HETATM   15  C   UNL     1      -5.133  10.647  63.811  1.00  0.00    -0.168 C  
HETATM   16  C   UNL     1      -8.124   9.060  68.061  1.00  0.00    -0.105 C  
HETATM   17  H   UNL     1     -10.195   8.084  67.748  1.00  0.00     0.000 HD 
HETATM   18  C   UNL     1      -6.540   9.302  67.866  1.00  0.00    -0.063 C  
HETATM   19  O   UNL     1      -9.335  10.080  67.858  1.00  0.00    -0.140 OA 
HETATM   20  O   UNL     1     -10.740   8.420  67.046  1.00  0.00    -0.289 OA 
HETATM   21  C   UNL     1     -10.072   9.621  66.670  1.00  0.00    -0.239 C  
HETATM   22  C   UNL     1      -5.647   8.056  68.128  1.00  0.00    -0.033 C  
HETATM   23  C   UNL     1      -5.876  10.529  68.477  1.00  0.00    -0.040 C  
ENDROOT
BRANCH  16  24
HETATM   24  N   UNL     1      -8.262   8.686  69.439  1.00  0.00    -0.111 N  
HETATM   25  H   UNL     1      -8.662   7.761  69.593  1.00  0.00     0.000 HD 
HETATM   26  O   UNL     1      -7.600  10.544  70.611  1.00  0.00     0.097 OA 
HETATM   27  C   UNL     1      -7.943   9.374  70.590  1.00  0.00    -0.158 C  
BRANCH  27  28
HETATM   28  C   UNL     1      -8.070   8.461  71.815  1.00  0.00    -0.192 C  
HETATM   29  C   UNL     1      -9.550   8.447  72.276  1.00  0.00    -0.304 C  
HETATM   30  N   UNL     1     -10.359   7.375  71.671  1.00  0.00    -0.196 NA 
HETATM   31  C   UNL     1     -10.331   7.399  70.200  1.00  0.00    -0.214 C  
HETATM   32  C   UNL     1      -9.920   6.064  72.237  1.00  0.00    -0.167 C  
HETATM   33  C   UNL     1     -10.486   4.811  71.459  1.00  0.00    -0.142 C  
HETATM   34  C   UNL     1      -9.432   3.838  71.072  1.00  0.00    -0.239 A  
HETATM   35  C   UNL     1      -9.364   2.836  70.130  1.00  0.00    -0.129 A  
HETATM   36  N   UNL     1      -8.169   2.175  70.303  1.00  0.00    -0.041 NA 
HETATM   37  C   UNL     1      -7.450   2.741  71.333  1.00  0.00    -0.040 A  
HETATM   38  H   UNL     1      -7.859   1.378  69.747  1.00  0.00     0.000 HD 
HETATM   39  C   UNL     1      -6.204   2.472  71.908  1.00  0.00    -0.014 A  
HETATM   40  C   UNL     1      -5.788   3.317  72.954  1.00  0.00    -0.008 A  
HETATM   41  C   UNL     1      -6.527   4.444  73.324  1.00  0.00    -0.046 A  
HETATM   42  C   UNL     1      -7.713   4.743  72.653  1.00  0.00    -0.092 A  
HETATM   43  C   UNL     1      -8.204   3.816  71.746  1.00  0.00    -0.075 A  
HETATM   44  C   UNL     1      -8.370   6.087  72.639  1.00  0.00    -0.118 C  
HETATM   45  C   UNL     1      -7.575   7.013  71.665  1.00  0.00    -0.089 C  
ENDBRANCH  27  28
ENDBRANCH  16  24
TORSDOF 2
ENDMDL
MODEL      112
REMARK 921   NORMALIZED FREE ENERGY PREDICTED BY IDOCK:   17.98 KCAL/MOL
REMARK 922        TOTAL FREE ENERGY PREDICTED BY IDOCK:   18.90 KCAL/MOL
REMARK 923 INTER-LIGAND FREE ENERGY PREDICTED BY IDOCK:   19.85 KCAL/MOL
REMARK 924 INTRA-LIGAND FREE ENERGY PREDICTED BY IDOCK:   -0.95 KCAL/MOL
REMARK 927      BINDING AFFINITY PREDICTED BY RF-SCORE:    0.00 PKD
ROOT
HETATM    1  C   UNL     1     -10.692  16.296  65.947  1.00  0.00    -0.229 C  
HETATM    2  C   UNL     1     -11.663  16.816  64.877  1.00  0.00     0.885 C  
HETATM    3  C   UNL     1     -11.217  18.300  64.659  1.00  0.00     2.815 C  
HETATM    4  C   UNL     1     -10.159  18.587  65.718  1.00  0.00    -0.002 C  
HETATM    5  N   UNL     1     -10.270  17.482  66.651  1.00  0.00    -0.324 N  
HETATM    6  C   UNL     1      -9.275  17.376  67.592  1.00  0.00    -0.234 C  
HETATM    7  O   UNL     1      -8.807  18.375  68.131  1.00  0.00    -0.286 OA 
HETATM    8  C   UNL     1      -8.944  15.920  68.001  1.00  0.00    -0.182 C  
HETATM    9  N   UNL     1      -9.113  14.912  66.781  1.00  0.00    -0.254 N  
HETATM   10  C   UNL     1      -7.640  15.905  68.785  1.00  0.00    -0.178 C  
HETATM   11  C   UNL     1      -6.476  16.262  67.881  1.00  0.00    -0.156 C  
HETATM   12  C   UNL     1      -8.872  13.535  66.753  1.00  0.00    -0.131 C  
HETATM   13  C   UNL     1      -7.768  16.563  70.171  1.00  0.00     1.504 C  
HETATM   14  O   UNL     1      -8.144  12.988  65.925  1.00  0.00     1.323 OA 
HETATM   15  C   UNL     1      -5.157  15.923  68.535  1.00  0.00    -0.095 C  
HETATM   16  C   UNL     1      -9.640  12.916  67.914  1.00  0.00    -0.215 C  
HETATM   17  H   UNL     1     -10.918  13.083  65.997  1.00  0.00     0.000 HD 
HETATM   18  C   UNL     1      -8.315  12.732  68.819  1.00  0.00     0.139 C  
HETATM   19  O   UNL     1     -10.696  14.113  67.900  1.00  0.00    -0.236 OA 
HETATM   20  O   UNL     1     -11.020  13.944  65.608  1.00  0.00    -0.285 OA 
HETATM   21  C   UNL     1     -10.516  14.812  66.617  1.00  0.00    -0.286 C  
HETATM   22  C   UNL     1      -7.501  11.438  68.536  1.00  0.00    -0.113 C  
HETATM   23  C   UNL     1      -8.380  12.964  70.322  1.00  0.00     4.328 C  
ENDROOT
BRANCH  16  24
HETATM   24  N   UNL     1     -10.459  11.785  68.247  1.00  0.00    -0.199 N  
HETATM   25  H   UNL     1     -10.346  11.442  69.201  1.00  0.00     0.000 HD 
HETATM   26  O   UNL     1     -11.532  11.254  66.290  1.00  0.00    -0.265 OA 
HETATM   27  C   UNL     1     -11.374  11.088  67.488  1.00  0.00    -0.257 C  
BRANCH  27  28
HETATM   28  C   UNL     1     -12.156  10.101  68.362  1.00  0.00     1.131 C  
HETATM   29  C   UNL     1     -12.530   8.864  67.506  1.00  0.00     8.361 C  
HETATM   30  N   UNL     1     -11.539   7.777  67.554  1.00  0.00     1.222 NA 
HETATM   31  C   UNL     1     -10.188   8.217  67.169  1.00  0.00    -0.296 C  
HETATM   32  C   UNL     1     -11.579   7.150  68.910  1.00  0.00     0.534 C  
HETATM   33  C   UNL     1     -10.365   6.181  69.201  1.00  0.00    -0.271 C  
HETATM   34  C   UNL     1      -9.671   6.480  70.481  1.00  0.00    -0.186 A  
HETATM   35  C   UNL     1      -8.423   6.180  70.976  1.00  0.00    -0.128 A  
HETATM   36  N   UNL     1      -8.370   6.620  72.280  1.00  0.00    -0.108 NA 
HETATM   37  C   UNL     1      -9.559   7.216  72.635  1.00  0.00    -0.148 A  
HETATM   38  H   UNL     1      -7.563   6.519  72.896  1.00  0.00     0.000 HD 
HETATM   39  C   UNL     1     -10.029   7.821  73.805  1.00  0.00    -0.027 A  
HETATM   40  C   UNL     1     -11.330   8.357  73.769  1.00  0.00     3.016 A  
HETATM   41  C   UNL     1     -12.077   8.391  72.588  1.00  0.00    -0.324 A  
HETATM   42  C   UNL     1     -11.532   7.875  71.412  1.00  0.00    -0.293 A  
HETATM   43  C   UNL     1     -10.326   7.195  71.492  1.00  0.00    -0.218 A  
HETATM   44  C   UNL     1     -12.008   8.207  70.034  1.00  0.00     0.561 C  
HETATM   45  C   UNL     1     -11.484   9.630  69.662  1.00  0.00    -0.045 C  
ENDBRANCH  27  28
ENDBRANCH  16  24
TORSDOF 2
ENDMDL
MODEL      113
REMARK 921   NORMALIZED FREE ENERGY PREDICTED BY IDOCK:   18.53 KCAL/MOL
REMARK 922        TOTAL FREE ENERGY PREDICTED BY IDOCK:   19.52 KCAL/MOL
REMARK 923 INTER-LIGAND FREE ENERGY PREDICTED BY IDOCK:   14.31 KCAL/MOL
REMARK 924 INTRA-LIGAND FREE ENERGY PREDICTED BY IDOCK:    5.20 KCAL/MOL
REMARK 927      BINDING AFFINITY PREDICTED BY RF-SCORE:    0.00 PKD
ROOT
HETATM    1  C   UNL     1      -7.356  10.655  69.049  1.00  0.00    -0.108 C  
HETATM    2  C   UNL     1      -5.948  10.524  68.448  1.00  0.00    -0.043 C  
HETATM    3  C   UNL     1      -5.580   9.022  68.689  1.00  0.00    -0.041 C  
HETATM    4  C   UNL     1      -6.696   8.441  69.549  1.00  0.00    -0.041 C  
HETATM    5  N   UNL     1      -7.423   9.600  70.030  1.00  0.00    -0.122 N  
HETATM    6  C   UNL     1      -8.621   9.352  70.655  1.00  0.00    -0.198 C  
HETATM    7  O   UNL     1      -8.751   8.392  71.410  1.00  0.00    -0.141 OA 
HETATM    8  C   UNL     1      -9.684  10.457  70.445  1.00  0.00     0.593 C  
HETATM    9  N   UNL     1      -9.565  11.125  69.005  1.00  0.00    -0.138 N  
HETATM   10  C   UNL     1     -11.041   9.938  70.899  1.00  0.00    -0.418 C  
HETATM   11  C   UNL     1     -11.524   8.840  69.969  1.00  0.00     0.047 C  
HETATM   12  C   UNL     1     -10.366  12.123  68.442  1.00  0.00    -0.229 C  
HETATM   13  C   UNL     1     -11.131   9.749  72.424  1.00  0.00     1.760 C  
HETATM   14  O   UNL     1     -10.918  12.016  67.347  1.00  0.00    -0.236 OA 
HETATM   15  C   UNL     1     -12.991   8.552  70.186  1.00  0.00     1.615 C  
HETATM   16  C   UNL     1     -10.417  13.278  69.435  1.00  0.00     0.327 C  
HETATM   17  H   UNL     1      -8.616  13.426  67.995  1.00  0.00     0.000 HD 
HETATM   18  C   UNL     1     -11.908  12.911  69.934  1.00  0.00    -0.373 C  
HETATM   19  O   UNL     1      -9.009  12.852  70.056  1.00  0.00     2.694 OA 
HETATM   20  O   UNL     1      -8.012  12.693  67.967  1.00  0.00    -0.132 OA 
HETATM   21  C   UNL     1      -8.396  11.919  69.098  1.00  0.00     0.391 C  
HETATM   22  C   UNL     1     -13.055  13.485  69.054  1.00  0.00     2.001 C  
HETATM   23  C   UNL     1     -12.279  13.063  71.402  1.00  0.00     0.083 C  
ENDROOT
BRANCH  16  24
HETATM   24  N   UNL     1     -10.361  14.711  69.499  1.00  0.00    -0.408 N  
HETATM   25  H   UNL     1      -9.428  15.096  69.645  1.00  0.00     0.000 HD 
HETATM   26  O   UNL     1     -12.551  15.380  69.370  1.00  0.00    -0.096 OA 
HETATM   27  C   UNL     1     -11.363  15.652  69.394  1.00  0.00    -0.330 C  
BRANCH  27  28
HETATM   28  C   UNL     1     -10.769  17.061  69.303  1.00  0.00    -0.226 C  
HETATM   29  C   UNL     1     -10.005  17.368  70.616  1.00  0.00     2.504 C  
HETATM   30  N   UNL     1      -8.579  17.007  70.581  1.00  0.00     3.964 NA 
HETATM   31  C   UNL     1      -8.355  15.594  70.233  1.00  0.00     1.029 C  
HETATM   32  C   UNL     1      -7.866  17.948  69.666  1.00  0.00     0.762 C  
HETATM   33  C   UNL     1      -6.399  17.492  69.297  1.00  0.00    -0.244 C  
HETATM   34  C   UNL     1      -6.139  17.487  67.834  1.00  0.00    -0.152 A  
HETATM   35  C   UNL     1      -5.203  16.866  67.039  1.00  0.00    -0.148 A  
HETATM   36  N   UNL     1      -5.372  17.324  65.751  1.00  0.00    -0.206 NA 
HETATM   37  C   UNL     1      -6.415  18.222  65.694  1.00  0.00    -0.274 A  
HETATM   38  H   UNL     1      -4.805  17.039  64.952  1.00  0.00     0.000 HD 
HETATM   39  C   UNL     1      -7.000  18.963  64.662  1.00  0.00     1.145 A  
HETATM   40  C   UNL     1      -8.100  19.773  65.002  1.00  0.00     1.238 A  
HETATM   41  C   UNL     1      -8.659  19.750  66.283  1.00  0.00    -0.397 A  
HETATM   42  C   UNL     1      -8.115  18.914  67.259  1.00  0.00    -0.277 A  
HETATM   43  C   UNL     1      -6.931  18.253  66.970  1.00  0.00    -0.210 A  
HETATM   44  C   UNL     1      -8.828  18.472  68.497  1.00  0.00    -0.351 C  
HETATM   45  C   UNL     1      -9.852  17.360  68.105  1.00  0.00    -0.301 C  
ENDBRANCH  27  28
ENDBRANCH  16  24
TORSDOF 2
ENDMDL
MODEL      114
REMARK 921   NORMALIZED FREE ENERGY PREDICTED BY IDOCK:   19.65 KCAL/MOL
REMARK 922        TOTAL FREE ENERGY PREDICTED BY IDOCK:   20.77 KCAL/MOL
REMARK 923 INTER-LIGAND FREE ENERGY PREDICTED BY IDOCK:   21.44 KCAL/MOL
REMARK 924 INTRA-LIGAND FREE ENERGY PREDICTED BY IDOCK:   -0.67 KCAL/MOL
REMARK 927      BINDING AFFINITY PREDICTED BY RF-SCORE:    0.00 PKD
ROOT
HETATM    1  C   UNL     1     -11.596  10.788  69.201  1.00  0.00    -0.305 C  
HETATM    2  C   UNL     1     -12.780  11.423  69.945  1.00  0.00     0.026 C  
HETATM    3  C   UNL     1     -13.799  10.244  70.098  1.00  0.00     1.364 C  
HETATM    4  C   UNL     1     -13.228   9.080  69.297  1.00  0.00     5.101 C  
HETATM    5  N   UNL     1     -12.178   9.675  68.492  1.00  0.00     1.916 N  
HETATM    6  C   UNL     1     -11.347   8.802  67.832  1.00  0.00     0.907 C  
HETATM    7  O   UNL     1     -11.789   7.780  67.314  1.00  0.00     1.843 OA 
HETATM    8  C   UNL     1      -9.893   9.308  67.678  1.00  0.00    -0.176 C  
HETATM    9  N   UNL     1      -9.437  10.184  68.926  1.00  0.00    -0.172 N  
HETATM   10  C   UNL     1      -9.006   8.155  67.232  1.00  0.00    -0.149 C  
HETATM   11  C   UNL     1      -8.877   7.129  68.343  1.00  0.00    -0.127 C  
HETATM   12  C   UNL     1      -8.193  10.777  69.162  1.00  0.00    -0.120 C  
HETATM   13  C   UNL     1      -9.298   7.696  65.792  1.00  0.00     0.094 C  
HETATM   14  O   UNL     1      -7.545  10.611  70.195  1.00  0.00    -0.083 OA 
HETATM   15  C   UNL     1      -7.748   6.165  68.063  1.00  0.00    -0.102 C  
HETATM   16  C   UNL     1      -7.839  11.596  67.927  1.00  0.00    -0.129 C  
HETATM   17  H   UNL     1      -9.090  12.795  69.455  1.00  0.00     0.000 HD 
HETATM   18  C   UNL     1      -6.776  10.505  67.390  1.00  0.00    -0.071 C  
HETATM   19  O   UNL     1      -9.381  11.772  67.558  1.00  0.00    -0.169 OA 
HETATM   20  O   UNL     1      -9.933  12.440  69.711  1.00  0.00     1.116 OA 
HETATM   21  C   UNL     1     -10.143  11.400  68.761  1.00  0.00    -0.188 C  
HETATM   22  C   UNL     1      -5.350  10.621  68.000  1.00  0.00    -0.036 C  
HETATM   23  C   UNL     1      -6.661  10.223  65.898  1.00  0.00    -0.117 C  
ENDROOT
BRANCH  16  24
HETATM   24  N   UNL     1      -7.282  12.860  67.536  1.00  0.00    -0.147 N  
HETATM   25  H   UNL     1      -7.047  12.935  66.546  1.00  0.00     0.000 HD 
HETATM   26  O   UNL     1      -7.082  14.035  69.496  1.00  0.00    -0.071 OA 
HETATM   27  C   UNL     1      -7.012  13.988  68.279  1.00  0.00    -0.107 C  
BRANCH  27  28
HETATM   28  C   UNL     1      -6.629  15.156  67.364  1.00  0.00    -0.090 C  
HETATM   29  C   UNL     1      -6.883  14.742  65.892  1.00  0.00     6.146 C  
HETATM   30  N   UNL     1      -8.225  15.083  65.394  1.00  0.00     2.980 NA 
HETATM   31  C   UNL     1      -9.303  14.524  66.226  1.00  0.00    -0.247 C  
HETATM   32  C   UNL     1      -8.320  16.566  65.243  1.00  0.00     2.392 C  
HETATM   33  C   UNL     1      -9.792  17.092  65.012  1.00  0.00     1.461 C  
HETATM   34  C   UNL     1     -10.175  18.186  65.942  1.00  0.00    -0.239 A  
HETATM   35  C   UNL     1     -11.383  18.698  66.359  1.00  0.00     1.009 A  
HETATM   36  N   UNL     1     -11.125  19.798  67.146  1.00  0.00    -0.253 NA 
HETATM   37  C   UNL     1      -9.768  20.001  67.260  1.00  0.00    -0.412 A  
HETATM   38  H   UNL     1     -11.839  20.380  67.583  1.00  0.00     0.000 HD 
HETATM   39  C   UNL     1      -8.982  20.944  67.929  1.00  0.00     0.112 A  
HETATM   40  C   UNL     1      -7.585  20.799  67.828  1.00  0.00    -0.168 A  
HETATM   41  C   UNL     1      -7.007  19.698  67.191  1.00  0.00    -0.229 A  
HETATM   42  C   UNL     1      -7.825  18.717  66.629  1.00  0.00    -0.275 A  
HETATM   43  C   UNL     1      -9.191  18.953  66.578  1.00  0.00    -0.342 A  
HETATM   44  C   UNL     1      -7.387  17.325  66.302  1.00  0.00    -0.342 C  
HETATM   45  C   UNL     1      -7.309  16.509  67.631  1.00  0.00    -0.159 C  
ENDBRANCH  27  28
ENDBRANCH  16  24
TORSDOF 2
ENDMDL
MODEL      115
REMARK 921   NORMALIZED FREE ENERGY PREDICTED BY IDOCK:   19.81 KCAL/MOL
REMARK 922        TOTAL FREE ENERGY PREDICTED BY IDOCK:   20.95 KCAL/MOL
REMARK 923 INTER-LIGAND FREE ENERGY PREDICTED BY IDOCK:   19.56 KCAL/MOL
REMARK 924 INTRA-LIGAND FREE ENERGY PREDICTED BY IDOCK:    1.39 KCAL/MOL
REMARK 927      BINDING AFFINITY PREDICTED BY RF-SCORE:    0.00 PKD
ROOT
HETATM    1  C   UNL     1     -12.376  11.622  71.039  1.00  0.00    -0.301 C  
HETATM    2  C   UNL     1     -12.926  13.021  71.354  1.00  0.00    -0.373 C  
HETATM    3  C   UNL     1     -14.036  12.752  72.424  1.00  0.00    -0.092 C  
HETATM    4  C   UNL     1     -14.174  11.237  72.524  1.00  0.00     1.309 C  
HETATM    5  N   UNL     1     -13.462  10.731  71.367  1.00  0.00    -0.121 N  
HETATM    6  C   UNL     1     -13.241   9.375  71.331  1.00  0.00    -0.344 C  
HETATM    7  O   UNL     1     -14.102   8.586  71.712  1.00  0.00    -0.405 OA 
HETATM    8  C   UNL     1     -11.920   8.968  70.636  1.00  0.00    -0.099 C  
HETATM    9  N   UNL     1     -10.770  10.041  70.879  1.00  0.00    -0.243 N  
HETATM   10  C   UNL     1     -11.628   7.505  70.934  1.00  0.00    -0.309 C  
HETATM   11  C   UNL     1     -11.292   7.322  72.402  1.00  0.00    -0.324 C  
HETATM   12  C   UNL     1      -9.441  10.003  70.444  1.00  0.00     0.124 C  
HETATM   13  C   UNL     1     -12.615   6.545  70.245  1.00  0.00     0.720 C  
HETATM   14  O   UNL     1      -8.475  10.139  71.195  1.00  0.00     0.635 OA 
HETATM   15  C   UNL     1     -10.672   5.968  72.653  1.00  0.00    -0.266 C  
HETATM   16  C   UNL     1      -9.462   9.748  68.942  1.00  0.00    -0.161 C  
HETATM   17  H   UNL     1      -9.593  11.995  69.459  1.00  0.00     0.000 HD 
HETATM   18  C   UNL     1      -9.042   8.197  69.103  1.00  0.00    -0.148 C  
HETATM   19  O   UNL     1     -10.917  10.393  68.817  1.00  0.00    -0.218 OA 
HETATM   20  O   UNL     1     -10.303  12.278  70.024  1.00  0.00     1.139 OA 
HETATM   21  C   UNL     1     -11.152  11.135  70.066  1.00  0.00    -0.098 C  
HETATM   22  C   UNL     1      -7.513   7.940  69.226  1.00  0.00    -0.092 C  
HETATM   23  C   UNL     1      -9.654   7.143  68.190  1.00  0.00    -0.134 C  
ENDROOT
BRANCH  16  24
HETATM   24  N   UNL     1      -8.834  10.164  67.720  1.00  0.00    -0.125 N  
HETATM   25  H   UNL     1      -9.476  10.507  67.005  1.00  0.00     0.000 HD 
HETATM   26  O   UNL     1      -6.614   9.666  68.014  1.00  0.00    -0.061 OA 
HETATM   27  C   UNL     1      -7.505  10.176  67.356  1.00  0.00    -0.094 C  
BRANCH  27  28
HETATM   28  C   UNL     1      -7.319  10.922  66.029  1.00  0.00    -0.081 C  
HETATM   29  C   UNL     1      -6.755   9.935  64.976  1.00  0.00    -0.121 C  
HETATM   30  N   UNL     1      -7.786   9.244  64.185  1.00  0.00    -0.119 NA 
HETATM   31  C   UNL     1      -8.762   8.524  65.021  1.00  0.00    -0.088 C  
HETATM   32  C   UNL     1      -8.429  10.231  63.267  1.00  0.00    -0.181 C  
HETATM   33  C   UNL     1      -9.753   9.701  62.585  1.00  0.00     0.567 C  
HETATM   34  C   UNL     1     -10.901  10.632  62.735  1.00  0.00     1.142 A  
HETATM   35  C   UNL     1     -12.266  10.478  62.642  1.00  0.00     4.009 A  
HETATM   36  N   UNL     1     -12.840  11.724  62.762  1.00  0.00    -0.661 NA 
HETATM   37  C   UNL     1     -11.870  12.684  62.947  1.00  0.00     0.320 A  
HETATM   38  H   UNL     1     -13.842  11.909  62.720  1.00  0.00     0.000 HD 
HETATM   39  C   UNL     1     -11.901  14.071  63.125  1.00  0.00     0.820 A  
HETATM   40  C   UNL     1     -10.666  14.718  63.319  1.00  0.00     4.461 A  
HETATM   41  C   UNL     1      -9.474  13.999  63.446  1.00  0.00     7.060 A  
HETATM   42  C   UNL     1      -9.497  12.606  63.371  1.00  0.00     1.277 A  
HETATM   43  C   UNL     1     -10.684  11.988  63.008  1.00  0.00    -0.081 A  
HETATM   44  C   UNL     1      -8.421  11.706  63.891  1.00  0.00     0.976 C  
HETATM   45  C   UNL     1      -8.550  11.633  65.446  1.00  0.00     0.345 C  
ENDBRANCH  27  28
ENDBRANCH  16  24
TORSDOF 2
ENDMDL
MODEL      116
REMARK 921   NORMALIZED FREE ENERGY PREDICTED BY IDOCK:   20.44 KCAL/MOL
REMARK 922        TOTAL FREE ENERGY PREDICTED BY IDOCK:   21.65 KCAL/MOL
REMARK 923 INTER-LIGAND FREE ENERGY PREDICTED BY IDOCK:   22.22 KCAL/MOL
REMARK 924 INTRA-LIGAND FREE ENERGY PREDICTED BY IDOCK:   -0.56 KCAL/MOL
REMARK 927      BINDING AFFINITY PREDICTED BY RF-SCORE:    0.00 PKD
ROOT
HETATM    1  C   UNL     1      -8.717  16.025  69.500  1.00  0.00    -0.044 C  
HETATM    2  C   UNL     1      -7.386  16.792  69.486  1.00  0.00     0.078 C  
HETATM    3  C   UNL     1      -7.815  18.282  69.701  1.00  0.00     0.667 C  
HETATM    4  C   UNL     1      -9.338  18.301  69.648  1.00  0.00     0.730 C  
HETATM    5  N   UNL     1      -9.697  17.006  69.103  1.00  0.00    -0.212 N  
HETATM    6  C   UNL     1     -11.028  16.670  69.154  1.00  0.00    -0.276 C  
HETATM    7  O   UNL     1     -11.899  17.509  68.935  1.00  0.00     1.325 OA 
HETATM    8  C   UNL     1     -11.292  15.157  69.342  1.00  0.00    -0.294 C  
HETATM    9  N   UNL     1     -10.177  14.471  70.247  1.00  0.00     0.491 N  
HETATM   10  C   UNL     1     -12.756  14.945  69.702  1.00  0.00     0.012 C  
HETATM   11  C   UNL     1     -13.045  15.500  71.085  1.00  0.00    -0.573 C  
HETATM   12  C   UNL     1     -10.096  13.139  70.664  1.00  0.00     4.806 C  
HETATM   13  C   UNL     1     -13.710  15.253  68.534  1.00  0.00     5.596 C  
HETATM   14  O   UNL     1      -9.967  12.801  71.841  1.00  0.00    11.098 OA 
HETATM   15  C   UNL     1     -14.376  15.006  71.600  1.00  0.00    -0.680 C  
HETATM   16  C   UNL     1     -10.220  12.265  69.422  1.00  0.00     0.531 C  
HETATM   17  H   UNL     1      -8.038  12.895  69.847  1.00  0.00     0.000 HD 
HETATM   18  C   UNL     1     -11.750  11.862  69.741  1.00  0.00    -0.403 C  
HETATM   19  O   UNL     1      -9.656  13.439  68.498  1.00  0.00    -0.212 OA 
HETATM   20  O   UNL     1      -7.850  13.825  69.903  1.00  0.00     0.756 OA 
HETATM   21  C   UNL     1      -9.041  14.423  69.403  1.00  0.00     0.321 C  
HETATM   22  C   UNL     1     -11.924  10.667  70.721  1.00  0.00    -0.477 C  
HETATM   23  C   UNL     1     -12.756  11.728  68.606  1.00  0.00     1.418 C  
ENDROOT
BRANCH  16  24
HETATM   24  N   UNL     1      -9.662  11.094  68.809  1.00  0.00    -0.246 N  
HETATM   25  H   UNL     1      -9.792  10.232  69.338  1.00  0.00     0.000 HD 
HETATM   26  O   UNL     1      -8.595  11.875  66.934  1.00  0.00    -0.176 OA 
HETATM   27  C   UNL     1      -8.978  10.944  67.622  1.00  0.00    -0.140 C  
BRANCH  27  28
HETATM   28  C   UNL     1      -8.783   9.458  67.298  1.00  0.00    -0.133 C  
HETATM   29  C   UNL     1      -7.369   9.258  66.698  1.00  0.00    -0.086 C  
HETATM   30  N   UNL     1      -6.330   8.947  67.694  1.00  0.00    -0.056 NA 
HETATM   31  C   UNL     1      -6.243   9.956  68.763  1.00  0.00    -0.041 C  
HETATM   32  C   UNL     1      -6.564   7.568  68.218  1.00  0.00    -0.050 C  
HETATM   33  C   UNL     1      -5.716   7.221  69.505  1.00  0.00    -0.023 C  
HETATM   34  C   UNL     1      -6.538   6.682  70.619  1.00  0.00    -0.053 A  
HETATM   35  C   UNL     1      -6.344   6.578  71.978  1.00  0.00    -0.049 A  
HETATM   36  N   UNL     1      -7.407   5.878  72.503  1.00  0.00    -0.093 NA 
HETATM   37  C   UNL     1      -8.298   5.539  71.509  1.00  0.00    -0.123 A  
HETATM   38  H   UNL     1      -7.519   5.643  73.490  1.00  0.00     0.000 HD 
HETATM   39  C   UNL     1      -9.516   4.851  71.492  1.00  0.00    -0.208 A  
HETATM   40  C   UNL     1     -10.164   4.730  70.248  1.00  0.00    -0.262 A  
HETATM   41  C   UNL     1      -9.677   5.367  69.103  1.00  0.00    -0.217 A  
HETATM   42  C   UNL     1      -8.516   6.137  69.183  1.00  0.00    -0.119 A  
HETATM   43  C   UNL     1      -7.791   6.110  70.364  1.00  0.00    -0.106 A  
HETATM   44  C   UNL     1      -8.119   7.186  68.192  1.00  0.00    -0.124 C  
HETATM   45  C   UNL     1      -8.990   8.457  68.447  1.00  0.00    -0.136 C  
ENDBRANCH  27  28
ENDBRANCH  16  24
TORSDOF 2
ENDMDL
MODEL      117
REMARK 921   NORMALIZED FREE ENERGY PREDICTED BY IDOCK:   20.87 KCAL/MOL
REMARK 922        TOTAL FREE ENERGY PREDICTED BY IDOCK:   22.13 KCAL/MOL
REMARK 923 INTER-LIGAND FREE ENERGY PREDICTED BY IDOCK:   18.57 KCAL/MOL
REMARK 924 INTRA-LIGAND FREE ENERGY PREDICTED BY IDOCK:    3.56 KCAL/MOL
REMARK 927      BINDING AFFINITY PREDICTED BY RF-SCORE:    0.00 PKD
ROOT
HETATM    1  C   UNL     1      -7.161   8.951  70.188  1.00  0.00    -0.048 C  
HETATM    2  C   UNL     1      -5.777   8.427  69.775  1.00  0.00    -0.026 C  
HETATM    3  C   UNL     1      -5.640   7.081  70.562  1.00  0.00    -0.024 C  
HETATM    4  C   UNL     1      -6.845   7.004  71.491  1.00  0.00    -0.064 C  
HETATM    5  N   UNL     1      -7.401   8.344  71.474  1.00  0.00    -0.087 N  
HETATM    6  C   UNL     1      -8.634   8.500  72.060  1.00  0.00    -0.183 C  
HETATM    7  O   UNL     1      -8.919   7.907  73.097  1.00  0.00    -0.189 OA 
HETATM    8  C   UNL     1      -9.518   9.582  71.394  1.00  0.00     0.288 C  
HETATM    9  N   UNL     1      -9.275   9.659  69.823  1.00  0.00    -0.204 N  
HETATM   10  C   UNL     1     -10.945   9.447  71.906  1.00  0.00    -0.143 C  
HETATM   11  C   UNL     1     -11.568   8.160  71.398  1.00  0.00    -0.314 C  
HETATM   12  C   UNL     1      -9.909  10.481  68.886  1.00  0.00    -0.201 C  
HETATM   13  C   UNL     1     -11.090   9.840  73.388  1.00  0.00     6.814 C  
HETATM   14  O   UNL     1     -10.450  10.056  67.865  1.00  0.00    -0.199 OA 
HETATM   15  C   UNL     1     -13.065   8.166  71.598  1.00  0.00    -0.358 C  
HETATM   16  C   UNL     1      -9.805  11.913  69.394  1.00  0.00     0.647 C  
HETATM   17  H   UNL     1      -7.977  11.289  68.128  1.00  0.00     0.000 HD 
HETATM   18  C   UNL     1     -11.344  11.952  69.884  1.00  0.00    -0.175 C  
HETATM   19  O   UNL     1      -8.489  11.561  70.225  1.00  0.00     1.962 OA 
HETATM   20  O   UNL     1      -7.487  10.523  68.406  1.00  0.00    -0.086 OA 
HETATM   21  C   UNL     1      -8.003  10.271  69.709  1.00  0.00    -0.126 C  
HETATM   22  C   UNL     1     -12.376  12.312  68.779  1.00  0.00     0.256 C  
HETATM   23  C   UNL     1     -11.715  12.676  71.171  1.00  0.00     1.040 C  
ENDROOT
BRANCH  16  24
HETATM   24  N   UNL     1      -9.539  13.250  68.946  1.00  0.00    -0.404 N  
HETATM   25  H   UNL     1      -8.753  13.336  68.301  1.00  0.00     0.000 HD 
HETATM   26  O   UNL     1     -11.029  14.555  70.104  1.00  0.00    -0.151 OA 
HETATM   27  C   UNL     1     -10.173  14.437  69.243  1.00  0.00    -0.064 C  
BRANCH  27  28
HETATM   28  C   UNL     1      -9.658  15.563  68.338  1.00  0.00    -0.199 C  
HETATM   29  C   UNL     1     -10.833  16.087  67.475  1.00  0.00    -0.292 C  
HETATM   30  N   UNL     1     -11.568  17.211  68.077  1.00  0.00     0.399 NA 
HETATM   31  C   UNL     1     -12.081  16.903  69.422  1.00  0.00     1.755 C  
HETATM   32  C   UNL     1     -10.695  18.423  68.055  1.00  0.00    -0.249 C  
HETATM   33  C   UNL     1     -11.236  19.616  68.940  1.00  0.00     1.832 C  
HETATM   34  C   UNL     1     -10.219  20.154  69.879  1.00  0.00     0.319 A  
HETATM   35  C   UNL     1     -10.294  20.898  71.035  1.00  0.00     3.281 A  
HETATM   36  N   UNL     1      -9.009  21.209  71.421  1.00  0.00     1.482 NA 
HETATM   37  C   UNL     1      -8.098  20.666  70.542  1.00  0.00     2.394 A  
HETATM   38  H   UNL     1      -8.766  21.764  72.242  1.00  0.00     0.000 HD 
HETATM   39  C   UNL     1      -6.702  20.670  70.468  1.00  0.00     0.800 A  
HETATM   40  C   UNL     1      -6.117  19.954  69.406  1.00  0.00    -0.338 A  
HETATM   41  C   UNL     1      -6.885  19.178  68.534  1.00  0.00    -0.310 A  
HETATM   42  C   UNL     1      -8.268  19.110  68.706  1.00  0.00    -0.382 A  
HETATM   43  C   UNL     1      -8.854  19.950  69.641  1.00  0.00     0.588 A  
HETATM   44  C   UNL     1      -9.145  18.033  68.150  1.00  0.00    -0.279 C  
HETATM   45  C   UNL     1      -8.965  16.752  69.024  1.00  0.00    -0.188 C  
ENDBRANCH  27  28
ENDBRANCH  16  24
TORSDOF 2
ENDMDL
MODEL      118
REMARK 921   NORMALIZED FREE ENERGY PREDICTED BY IDOCK:   21.69 KCAL/MOL
REMARK 922        TOTAL FREE ENERGY PREDICTED BY IDOCK:   23.05 KCAL/MOL
REMARK 923 INTER-LIGAND FREE ENERGY PREDICTED BY IDOCK:   21.39 KCAL/MOL
REMARK 924 INTRA-LIGAND FREE ENERGY PREDICTED BY IDOCK:    1.66 KCAL/MOL
REMARK 927      BINDING AFFINITY PREDICTED BY RF-SCORE:    0.00 PKD
ROOT
HETATM    1  C   UNL     1      -9.612  15.842  70.129  1.00  0.00     0.310 C  
HETATM    2  C   UNL     1     -10.233  16.170  71.495  1.00  0.00     2.307 C  
HETATM    3  C   UNL     1     -10.629  17.679  71.370  1.00  0.00     2.716 C  
HETATM    4  C   UNL     1     -10.065  18.160  70.039  1.00  0.00     1.031 C  
HETATM    5  N   UNL     1      -9.144  17.114  69.637  1.00  0.00     0.507 N  
HETATM    6  C   UNL     1      -8.657  17.190  68.354  1.00  0.00    -0.246 C  
HETATM    7  O   UNL     1      -8.356  18.272  67.857  1.00  0.00    -0.241 OA 
HETATM    8  C   UNL     1      -8.385  15.814  67.699  1.00  0.00    -0.157 C  
HETATM    9  N   UNL     1      -9.430  14.714  68.180  1.00  0.00    -0.206 N  
HETATM   10  C   UNL     1      -8.164  16.007  66.205  1.00  0.00    -0.220 C  
HETATM   11  C   UNL     1      -9.453  16.439  65.532  1.00  0.00     0.136 C  
HETATM   12  C   UNL     1      -9.528  13.377  67.783  1.00  0.00    -0.210 C  
HETATM   13  C   UNL     1      -6.846  16.735  65.885  1.00  0.00     0.723 C  
HETATM   14  O   UNL     1     -10.564  12.867  67.358  1.00  0.00    -0.231 OA 
HETATM   15  C   UNL     1      -9.352  16.304  64.031  1.00  0.00     7.798 C  
HETATM   16  C   UNL     1      -8.150  12.750  67.961  1.00  0.00    -0.162 C  
HETATM   17  H   UNL     1      -9.430  12.635  69.881  1.00  0.00     0.000 HD 
HETATM   18  C   UNL     1      -7.824  12.786  66.380  1.00  0.00     0.814 C  
HETATM   19  O   UNL     1      -7.776  13.809  69.095  1.00  0.00    -0.010 OA 
HETATM   20  O   UNL     1      -9.763  13.450  70.240  1.00  0.00     2.590 OA 
HETATM   21  C   UNL     1      -9.039  14.437  69.512  1.00  0.00     0.454 C  
HETATM   22  C   UNL     1      -8.378  11.581  65.567  1.00  0.00     0.339 C  
HETATM   23  C   UNL     1      -6.415  13.107  65.900  1.00  0.00     5.374 C  
ENDROOT
BRANCH  16  24
HETATM   24  N   UNL     1      -7.510  11.554  68.431  1.00  0.00    -0.102 N  
HETATM   25  H   UNL     1      -8.128  10.898  68.908  1.00  0.00     0.000 HD 
HETATM   26  O   UNL     1      -5.289  11.859  67.946  1.00  0.00    -0.047 OA 
HETATM   27  C   UNL     1      -6.197  11.147  68.343  1.00  0.00    -0.045 C  
BRANCH  27  28
HETATM   28  C   UNL     1      -6.053   9.691  68.799  1.00  0.00    -0.042 C  
HETATM   29  C   UNL     1      -6.368   9.608  70.313  1.00  0.00    -0.076 C  
HETATM   30  N   UNL     1      -7.781   9.330  70.620  1.00  0.00    -0.141 NA 
HETATM   31  C   UNL     1      -8.701  10.302  70.006  1.00  0.00     0.156 C  
HETATM   32  C   UNL     1      -8.088   7.920  70.235  1.00  0.00    -0.115 C  
HETATM   33  C   UNL     1      -9.632   7.584  70.222  1.00  0.00    -0.165 C  
HETATM   34  C   UNL     1     -10.082   6.950  68.956  1.00  0.00    -0.175 A  
HETATM   35  C   UNL     1     -11.310   6.809  68.349  1.00  0.00     0.061 A  
HETATM   36  N   UNL     1     -11.140   6.021  67.233  1.00  0.00    -0.516 NA 
HETATM   37  C   UNL     1      -9.818   5.660  67.094  1.00  0.00    -0.149 A  
HETATM   38  H   UNL     1     -11.888   5.743  66.597  1.00  0.00     0.000 HD 
HETATM   39  C   UNL     1      -9.115   4.894  66.160  1.00  0.00    -0.135 A  
HETATM   40  C   UNL     1      -7.724   4.776  66.347  1.00  0.00    -0.091 A  
HETATM   41  C   UNL     1      -7.057   5.486  67.348  1.00  0.00    -0.074 A  
HETATM   42  C   UNL     1      -7.778   6.328  68.196  1.00  0.00    -0.104 A  
HETATM   43  C   UNL     1      -9.162   6.306  68.119  1.00  0.00    -0.110 A  
HETATM   44  C   UNL     1      -7.183   7.437  69.005  1.00  0.00    -0.085 C  
HETATM   45  C   UNL     1      -6.886   8.637  68.051  1.00  0.00    -0.070 C  
ENDBRANCH  27  28
ENDBRANCH  16  24
TORSDOF 2
ENDMDL
MODEL      119
REMARK 921   NORMALIZED FREE ENERGY PREDICTED BY IDOCK:   22.13 KCAL/MOL
REMARK 922        TOTAL FREE ENERGY PREDICTED BY IDOCK:   23.54 KCAL/MOL
REMARK 923 INTER-LIGAND FREE ENERGY PREDICTED BY IDOCK:   21.39 KCAL/MOL
REMARK 924 INTRA-LIGAND FREE ENERGY PREDICTED BY IDOCK:    2.15 KCAL/MOL
REMARK 927      BINDING AFFINITY PREDICTED BY RF-SCORE:    0.00 PKD
ROOT
HETATM    1  C   UNL     1      -7.606   3.897  71.407  1.00  0.00    -0.056 C  
HETATM    2  C   UNL     1      -6.415   2.966  71.677  1.00  0.00    -0.018 C  
HETATM    3  C   UNL     1      -7.053   1.757  72.439  1.00  0.00    -0.023 C  
HETATM    4  C   UNL     1      -8.503   2.141  72.709  1.00  0.00    -0.062 C  
HETATM    5  N   UNL     1      -8.559   3.564  72.438  1.00  0.00    -0.084 N  
HETATM    6  C   UNL     1      -9.811   4.128  72.390  1.00  0.00    -0.160 C  
HETATM    7  O   UNL     1     -10.687   3.785  73.180  1.00  0.00    -0.173 OA 
HETATM    8  C   UNL     1      -9.937   5.304  71.393  1.00  0.00    -0.185 C  
HETATM    9  N   UNL     1      -9.019   5.092  70.110  1.00  0.00    -0.108 N  
HETATM   10  C   UNL     1     -11.409   5.633  71.191  1.00  0.00    -0.032 C  
HETATM   11  C   UNL     1     -12.105   4.504  70.453  1.00  0.00     8.101 C  
HETATM   12  C   UNL     1      -8.894   5.914  68.986  1.00  0.00    -0.119 C  
HETATM   13  C   UNL     1     -12.061   6.253  72.439  1.00  0.00    -0.186 C  
HETATM   14  O   UNL     1      -9.034   5.513  67.831  1.00  0.00    -0.109 OA 
HETATM   15  C   UNL     1     -13.457   4.942  69.942  1.00  0.00    16.884 C  
HETATM   16  C   UNL     1      -8.594   7.322  69.485  1.00  0.00    -0.134 C  
HETATM   17  H   UNL     1      -6.682   6.056  69.202  1.00  0.00     0.000 HD 
HETATM   18  C   UNL     1     -10.098   7.843  69.212  1.00  0.00    -0.197 C  
HETATM   19  O   UNL     1      -7.951   6.747  70.828  1.00  0.00    -0.106 OA 
HETATM   20  O   UNL     1      -6.623   5.234  69.674  1.00  0.00    -0.039 OA 
HETATM   21  C   UNL     1      -7.707   5.315  70.594  1.00  0.00    -0.084 C  
HETATM   22  C   UNL     1     -10.377   8.310  67.755  1.00  0.00    -0.296 C  
HETATM   23  C   UNL     1     -10.756   8.813  70.183  1.00  0.00    -0.239 C  
ENDROOT
BRANCH  16  24
HETATM   24  N   UNL     1      -7.765   8.461  69.209  1.00  0.00    -0.096 N  
HETATM   25  H   UNL     1      -7.499   8.568  68.230  1.00  0.00     0.000 HD 
HETATM   26  O   UNL     1      -7.355   9.389  71.266  1.00  0.00    -0.310 OA 
HETATM   27  C   UNL     1      -7.271   9.434  70.050  1.00  0.00    -0.092 C  
BRANCH  27  28
HETATM   28  C   UNL     1      -6.622  10.564  69.243  1.00  0.00    -0.060 C  
HETATM   29  C   UNL     1      -6.796  10.263  67.733  1.00  0.00    -0.075 C  
HETATM   30  N   UNL     1      -8.013  10.840  67.140  1.00  0.00    -0.120 NA 
HETATM   31  C   UNL     1      -9.241  10.428  67.840  1.00  0.00    -0.139 C  
HETATM   32  C   UNL     1      -7.857  12.324  67.071  1.00  0.00    -0.108 C  
HETATM   33  C   UNL     1      -9.198  13.093  66.744  1.00  0.00    -0.232 C  
HETATM   34  C   UNL     1      -9.490  14.192  67.700  1.00  0.00    -0.213 A  
HETATM   35  C   UNL     1     -10.636  14.875  68.040  1.00  0.00    -0.248 A  
HETATM   36  N   UNL     1     -10.285  15.882  68.911  1.00  0.00    -0.215 NA 
HETATM   37  C   UNL     1      -8.929  15.855  69.156  1.00  0.00    -0.256 A  
HETATM   38  H   UNL     1     -10.936  16.553  69.319  1.00  0.00     0.000 HD 
HETATM   39  C   UNL     1      -8.072  16.627  69.945  1.00  0.00     1.125 A  
HETATM   40  C   UNL     1      -6.712  16.260  69.958  1.00  0.00     0.185 A  
HETATM   41  C   UNL     1      -6.257  15.109  69.309  1.00  0.00    -0.112 A  
HETATM   42  C   UNL     1      -7.163  14.301  68.620  1.00  0.00    -0.125 A  
HETATM   43  C   UNL     1      -8.463  14.759  68.465  1.00  0.00    -0.159 A  
HETATM   44  C   UNL     1      -6.922  12.872  68.250  1.00  0.00    -0.099 C  
HETATM   45  C   UNL     1      -7.102  11.996  69.531  1.00  0.00     0.162 C  
ENDBRANCH  27  28
ENDBRANCH  16  24
TORSDOF 2
ENDMDL
MODEL      120
REMARK 921   NORMALIZED FREE ENERGY PREDICTED BY IDOCK:   24.00 KCAL/MOL
REMARK 922        TOTAL FREE ENERGY PREDICTED BY IDOCK:   25.63 KCAL/MOL
REMARK 923 INTER-LIGAND FREE ENERGY PREDICTED BY IDOCK:   25.64 KCAL/MOL
REMARK 924 INTRA-LIGAND FREE ENERGY PREDICTED BY IDOCK:   -0.01 KCAL/MOL
REMARK 927      BINDING AFFINITY PREDICTED BY RF-SCORE:    0.00 PKD
ROOT
HETATM    1  C   UNL     1      -9.111  13.207  66.301  1.00  0.00     0.025 C  
HETATM    2  C   UNL     1      -8.142  13.183  65.109  1.00  0.00     4.570 C  
HETATM    3  C   UNL     1      -8.255  14.624  64.510  1.00  0.00     9.719 C  
HETATM    4  C   UNL     1      -9.384  15.314  65.267  1.00  0.00     0.414 C  
HETATM    5  N   UNL     1     -10.060  14.240  65.967  1.00  0.00    -0.305 N  
HETATM    6  C   UNL     1     -10.990  14.614  66.906  1.00  0.00    -0.324 C  
HETATM    7  O   UNL     1     -11.741  15.565  66.706  1.00  0.00     0.013 OA 
HETATM    8  C   UNL     1     -11.095  13.649  68.112  1.00  0.00    -0.256 C  
HETATM    9  N   UNL     1      -9.686  13.004  68.477  1.00  0.00    -0.178 N  
HETATM   10  C   UNL     1     -11.901  14.315  69.217  1.00  0.00    -0.372 C  
HETATM   11  C   UNL     1     -11.130  15.483  69.802  1.00  0.00    -0.300 C  
HETATM   12  C   UNL     1      -9.378  12.121  69.516  1.00  0.00     1.389 C  
HETATM   13  C   UNL     1     -13.389  14.478  68.859  1.00  0.00     2.922 C  
HETATM   14  O   UNL     1      -8.478  12.318  70.332  1.00  0.00     3.684 OA 
HETATM   15  C   UNL     1     -11.741  15.939  71.106  1.00  0.00    -0.490 C  
HETATM   16  C   UNL     1     -10.359  10.958  69.429  1.00  0.00    -0.145 C  
HETATM   17  H   UNL     1      -8.478  10.630  68.128  1.00  0.00     0.000 HD 
HETATM   18  C   UNL     1     -11.247  11.489  70.669  1.00  0.00     0.762 C  
HETATM   19  O   UNL     1     -10.561  11.200  67.865  1.00  0.00    -0.180 OA 
HETATM   20  O   UNL     1      -8.275  11.286  67.472  1.00  0.00    -0.119 OA 
HETATM   21  C   UNL     1      -9.460  12.075  67.432  1.00  0.00    -0.177 C  
HETATM   22  C   UNL     1     -10.726  11.076  72.075  1.00  0.00     6.381 C  
HETATM   23  C   UNL     1     -12.763  11.348  70.636  1.00  0.00    -0.282 C  
ENDROOT
BRANCH  16  24
HETATM   24  N   UNL     1     -10.421   9.528  69.532  1.00  0.00    -0.210 N  
HETATM   25  H   UNL     1     -11.220   9.101  69.065  1.00  0.00     0.000 HD 
HETATM   26  O   UNL     1      -8.659   8.970  70.891  1.00  0.00    -0.183 OA 
HETATM   27  C   UNL     1      -9.576   8.638  70.158  1.00  0.00    -0.172 C  
BRANCH  27  28
HETATM   28  C   UNL     1      -9.947   7.196  69.793  1.00  0.00    -0.180 C  
HETATM   29  C   UNL     1      -9.039   6.725  68.630  1.00  0.00    -0.127 C  
HETATM   30  N   UNL     1      -7.800   6.058  69.066  1.00  0.00    -0.095 NA 
HETATM   31  C   UNL     1      -6.995   6.887  69.978  1.00  0.00    -0.062 C  
HETATM   32  C   UNL     1      -8.150   4.729  69.650  1.00  0.00    -0.065 C  
HETATM   33  C   UNL     1      -6.960   4.042  70.432  1.00  0.00    -0.034 C  
HETATM   34  C   UNL     1      -7.338   3.599  71.799  1.00  0.00    -0.051 A  
HETATM   35  C   UNL     1      -6.617   3.298  72.932  1.00  0.00    -0.025 A  
HETATM   36  N   UNL     1      -7.497   2.825  73.879  1.00  0.00    -0.045 NA 
HETATM   37  C   UNL     1      -8.783   2.829  73.385  1.00  0.00    -0.079 A  
HETATM   38  H   UNL     1      -7.234   2.516  74.815  1.00  0.00     0.000 HD 
HETATM   39  C   UNL     1     -10.026   2.467  73.914  1.00  0.00    -0.151 A  
HETATM   40  C   UNL     1     -11.150   2.649  73.087  1.00  0.00    -0.182 A  
HETATM   41  C   UNL     1     -11.049   3.273  71.840  1.00  0.00     1.368 A  
HETATM   42  C   UNL     1      -9.806   3.721  71.391  1.00  0.00    -0.226 A  
HETATM   43  C   UNL     1      -8.682   3.384  72.129  1.00  0.00    -0.110 A  
HETATM   44  C   UNL     1      -9.605   4.745  70.319  1.00  0.00    -0.269 C  
HETATM   45  C   UNL     1      -9.904   6.154  70.923  1.00  0.00    -0.215 C  
ENDBRANCH  27  28
ENDBRANCH  16  24
TORSDOF 2
ENDMDL
MODEL      121
REMARK 921   NORMALIZED FREE ENERGY PREDICTED BY IDOCK:   25.12 KCAL/MOL
REMARK 922        TOTAL FREE ENERGY PREDICTED BY IDOCK:   26.87 KCAL/MOL
REMARK 923 INTER-LIGAND FREE ENERGY PREDICTED BY IDOCK:   23.11 KCAL/MOL
REMARK 924 INTRA-LIGAND FREE ENERGY PREDICTED BY IDOCK:    3.77 KCAL/MOL
REMARK 927      BINDING AFFINITY PREDICTED BY RF-SCORE:    0.00 PKD
ROOT
HETATM    1  C   UNL     1     -10.230  16.015  69.289  1.00  0.00    -0.249 C  
HETATM    2  C   UNL     1      -9.652  17.219  70.046  1.00  0.00     1.292 C  
HETATM    3  C   UNL     1      -9.686  18.373  68.989  1.00  0.00    -0.249 C  
HETATM    4  C   UNL     1     -10.104  17.733  67.671  1.00  0.00    -0.342 C  
HETATM    5  N   UNL     1      -9.968  16.308  67.901  1.00  0.00    -0.238 N  
HETATM    6  C   UNL     1     -10.495  15.481  66.938  1.00  0.00    -0.301 C  
HETATM    7  O   UNL     1     -10.393  15.758  65.746  1.00  0.00    -0.322 OA 
HETATM    8  C   UNL     1     -11.054  14.147  67.487  1.00  0.00    -0.291 C  
HETATM    9  N   UNL     1     -11.687  14.324  68.937  1.00  0.00    -0.308 N  
HETATM   10  C   UNL     1     -11.884  13.470  66.406  1.00  0.00    -0.435 C  
HETATM   11  C   UNL     1     -13.147  14.265  66.135  1.00  0.00     0.491 C  
HETATM   12  C   UNL     1     -12.317  13.362  69.733  1.00  0.00    -0.159 C  
HETATM   13  C   UNL     1     -11.032  12.954  65.232  1.00  0.00    -0.310 C  
HETATM   14  O   UNL     1     -13.439  13.508  70.217  1.00  0.00     0.504 OA 
HETATM   15  C   UNL     1     -14.137  13.453  65.333  1.00  0.00     3.998 C  
HETATM   16  C   UNL     1     -11.375  12.168  69.832  1.00  0.00    -0.031 C  
HETATM   17  H   UNL     1     -10.969  13.754  71.462  1.00  0.00     0.000 HD 
HETATM   18  C   UNL     1     -12.226  11.287  68.781  1.00  0.00    -0.101 C  
HETATM   19  O   UNL     1     -10.107  13.103  69.574  1.00  0.00     0.510 OA 
HETATM   20  O   UNL     1     -10.777  14.641  71.178  1.00  0.00     0.283 OA 
HETATM   21  C   UNL     1     -10.561  14.487  69.779  1.00  0.00     0.014 C  
HETATM   22  C   UNL     1     -13.430  10.516  69.393  1.00  0.00     2.360 C  
HETATM   23  C   UNL     1     -11.509  10.385  67.785  1.00  0.00    -0.055 C  
ENDROOT
BRANCH  16  24
HETATM   24  N   UNL     1     -10.867  11.211  70.773  1.00  0.00     0.442 N  
HETATM   25  H   UNL     1     -11.573  10.789  71.376  1.00  0.00     0.000 HD 
HETATM   26  O   UNL     1      -8.593  11.262  70.479  1.00  0.00     2.272 OA 
HETATM   27  C   UNL     1      -9.581  10.767  70.993  1.00  0.00     3.777 C  
BRANCH  27  28
HETATM   28  C   UNL     1      -9.582   9.574  71.955  1.00  0.00     1.215 C  
HETATM   29  C   UNL     1     -10.952   9.514  72.677  1.00  0.00     2.015 C  
HETATM   30  N   UNL     1     -11.955   8.680  71.996  1.00  0.00    -0.346 NA 
HETATM   31  C   UNL     1     -12.183   9.085  70.599  1.00  0.00     0.021 C  
HETATM   32  C   UNL     1     -11.555   7.246  72.124  1.00  0.00    -0.286 C  
HETATM   33  C   UNL     1     -12.369   6.270  71.186  1.00  0.00     0.132 C  
HETATM   34  C   UNL     1     -11.500   5.380  70.374  1.00  0.00     0.897 A  
HETATM   35  C   UNL     1     -11.696   4.656  69.219  1.00  0.00     6.756 A  
HETATM   36  N   UNL     1     -10.560   3.913  68.988  1.00  0.00     1.476 NA 
HETATM   37  C   UNL     1      -9.620   4.155  69.966  1.00  0.00    -0.203 A  
HETATM   38  H   UNL     1     -10.432   3.275  68.203  1.00  0.00     0.000 HD 
HETATM   39  C   UNL     1      -8.326   3.683  70.203  1.00  0.00    -0.085 A  
HETATM   40  C   UNL     1      -7.652   4.203  71.325  1.00  0.00    -0.059 A  
HETATM   41  C   UNL     1      -8.200   5.230  72.098  1.00  0.00    -0.114 A  
HETATM   42  C   UNL     1      -9.450   5.753  71.764  1.00  0.00    -0.167 A  
HETATM   43  C   UNL     1     -10.181   5.121  70.770  1.00  0.00    -0.308 A  
HETATM   44  C   UNL     1      -9.964   7.086  72.211  1.00  0.00    -0.188 C  
HETATM   45  C   UNL     1      -9.265   8.192  71.359  1.00  0.00    -0.195 C  
ENDBRANCH  27  28
ENDBRANCH  16  24
TORSDOF 2
ENDMDL
MODEL      122
REMARK 921   NORMALIZED FREE ENERGY PREDICTED BY IDOCK:   26.76 KCAL/MOL
REMARK 922        TOTAL FREE ENERGY PREDICTED BY IDOCK:   28.70 KCAL/MOL
REMARK 923 INTER-LIGAND FREE ENERGY PREDICTED BY IDOCK:   26.03 KCAL/MOL
REMARK 924 INTRA-LIGAND FREE ENERGY PREDICTED BY IDOCK:    2.67 KCAL/MOL
REMARK 927      BINDING AFFINITY PREDICTED BY RF-SCORE:    0.00 PKD
ROOT
HETATM    1  C   UNL     1     -10.251  16.005  69.287  1.00  0.00    -0.249 C  
HETATM    2  C   UNL     1      -9.703  16.956  70.361  1.00  0.00     1.909 C  
HETATM    3  C   UNL     1      -9.488  18.302  69.592  1.00  0.00     0.626 C  
HETATM    4  C   UNL     1      -9.751  18.000  68.122  1.00  0.00    -0.322 C  
HETATM    5  N   UNL     1      -9.761  16.552  68.045  1.00  0.00    -0.233 N  
HETATM    6  C   UNL     1     -10.199  16.007  66.862  1.00  0.00    -0.280 C  
HETATM    7  O   UNL     1      -9.898  16.513  65.785  1.00  0.00    -0.457 OA 
HETATM    8  C   UNL     1     -10.936  14.655  67.023  1.00  0.00    -0.317 C  
HETATM    9  N   UNL     1     -11.764  14.593  68.381  1.00  0.00    -0.318 N  
HETATM   10  C   UNL     1     -11.643  14.312  65.720  1.00  0.00    -0.346 C  
HETATM   11  C   UNL     1     -12.786  15.278  65.470  1.00  0.00     0.952 C  
HETATM   12  C   UNL     1     -12.579  13.559  68.855  1.00  0.00     0.537 C  
HETATM   13  C   UNL     1     -10.666  13.965  64.582  1.00  0.00    -0.422 C  
HETATM   14  O   UNL     1     -13.746  13.722  69.210  1.00  0.00     2.936 OA 
HETATM   15  C   UNL     1     -13.704  14.764  64.386  1.00  0.00     3.072 C  
HETATM   16  C   UNL     1     -11.757  12.277  68.808  1.00  0.00    -0.340 C  
HETATM   17  H   UNL     1     -11.481  13.434  70.788  1.00  0.00     0.000 HD 
HETATM   18  C   UNL     1     -12.506  11.732  67.485  1.00  0.00     1.402 C  
HETATM   19  O   UNL     1     -10.397  13.102  68.932  1.00  0.00    -0.170 OA 
HETATM   20  O   UNL     1     -11.180  14.334  70.736  1.00  0.00    -0.026 OA 
HETATM   21  C   UNL     1     -10.768  14.454  69.378  1.00  0.00    -0.162 C  
HETATM   22  C   UNL     1     -13.844  10.984  67.749  1.00  0.00    13.023 C  
HETATM   23  C   UNL     1     -11.719  10.986  66.417  1.00  0.00     0.790 C  
ENDROOT
BRANCH  16  24
HETATM   24  N   UNL     1     -11.472  11.095  69.571  1.00  0.00    -0.274 N  
HETATM   25  H   UNL     1     -11.928  10.248  69.231  1.00  0.00     0.000 HD 
HETATM   26  O   UNL     1     -10.184  11.832  71.320  1.00  0.00     5.303 OA 
HETATM   27  C   UNL     1     -10.683  10.917  70.686  1.00  0.00     0.879 C  
BRANCH  27  28
HETATM   28  C   UNL     1     -10.520   9.425  70.997  1.00  0.00    -0.392 C  
HETATM   29  C   UNL     1     -11.618   8.634  70.243  1.00  0.00     0.003 C  
HETATM   30  N   UNL     1     -11.214   8.171  68.905  1.00  0.00     0.325 NA 
HETATM   31  C   UNL     1     -10.750   9.265  68.036  1.00  0.00    -0.174 C  
HETATM   32  C   UNL     1     -10.200   7.084  69.058  1.00  0.00    -0.187 C  
HETATM   33  C   UNL     1      -9.458   6.709  67.714  1.00  0.00    -0.121 C  
HETATM   34  C   UNL     1      -7.978   6.710  67.844  1.00  0.00    -0.113 A  
HETATM   35  C   UNL     1      -6.946   6.800  66.937  1.00  0.00    -0.070 A  
HETATM   36  N   UNL     1      -5.765   6.628  67.625  1.00  0.00    -0.015 NA 
HETATM   37  C   UNL     1      -6.012   6.444  68.967  1.00  0.00    -0.021 A  
HETATM   38  H   UNL     1      -4.838   6.636  67.199  1.00  0.00     0.000 HD 
HETATM   39  C   UNL     1      -5.196   6.235  70.083  1.00  0.00    -0.013 A  
HETATM   40  C   UNL     1      -5.837   6.119  71.331  1.00  0.00    -0.027 A  
HETATM   41  C   UNL     1      -7.213   6.320  71.469  1.00  0.00    -0.083 A  
HETATM   42  C   UNL     1      -7.981   6.635  70.347  1.00  0.00    -0.115 A  
HETATM   43  C   UNL     1      -7.376   6.577  69.101  1.00  0.00    -0.093 A  
HETATM   44  C   UNL     1      -9.333   7.274  70.391  1.00  0.00    -0.158 C  
HETATM   45  C   UNL     1      -9.149   8.793  70.702  1.00  0.00    -0.221 C  
ENDBRANCH  27  28
ENDBRANCH  16  24
TORSDOF 2
ENDMDL
MODEL      123
REMARK 921   NORMALIZED FREE ENERGY PREDICTED BY IDOCK:   27.29 KCAL/MOL
REMARK 922        TOTAL FREE ENERGY PREDICTED BY IDOCK:   29.30 KCAL/MOL
REMARK 923 INTER-LIGAND FREE ENERGY PREDICTED BY IDOCK:   27.14 KCAL/MOL
REMARK 924 INTRA-LIGAND FREE ENERGY PREDICTED BY IDOCK:    2.16 KCAL/MOL
REMARK 927      BINDING AFFINITY PREDICTED BY RF-SCORE:    0.00 PKD
ROOT
HETATM    1  C   UNL     1      -9.828  16.019  69.438  1.00  0.00    -0.254 C  
HETATM    2  C   UNL     1      -9.978  16.408  70.917  1.00  0.00     2.042 C  
HETATM    3  C   UNL     1     -10.046  17.971  70.885  1.00  0.00     3.083 C  
HETATM    4  C   UNL     1      -9.760  18.382  69.445  1.00  0.00     0.138 C  
HETATM    5  N   UNL     1      -9.235  17.181  68.823  1.00  0.00    -0.268 N  
HETATM    6  C   UNL     1      -9.101  17.211  67.457  1.00  0.00    -0.225 C  
HETATM    7  O   UNL     1      -8.708  18.224  66.884  1.00  0.00    -0.253 OA 
HETATM    8  C   UNL     1      -9.325  15.843  66.769  1.00  0.00    -0.240 C  
HETATM    9  N   UNL     1     -10.424  14.975  67.525  1.00  0.00    -0.252 N  
HETATM   10  C   UNL     1      -9.468  16.055  65.268  1.00  0.00     0.395 C  
HETATM   11  C   UNL     1     -10.759  16.790  64.960  1.00  0.00    -0.118 C  
HETATM   12  C   UNL     1     -10.918  13.712  67.185  1.00  0.00    -0.288 C  
HETATM   13  C   UNL     1      -8.153  16.493  64.598  1.00  0.00     7.155 C  
HETATM   14  O   UNL     1     -12.117  13.462  67.059  1.00  0.00    -0.381 OA 
HETATM   15  C   UNL     1     -11.091  16.710  63.489  1.00  0.00     3.816 C  
HETATM   16  C   UNL     1      -9.719  12.792  66.994  1.00  0.00    -0.224 C  
HETATM   17  H   UNL     1     -10.438  12.866  69.189  1.00  0.00     0.000 HD 
HETATM   18  C   UNL     1      -9.822  12.833  65.384  1.00  0.00    -0.143 C  
HETATM   19  O   UNL     1      -8.832  13.687  67.974  1.00  0.00    -0.171 OA 
HETATM   20  O   UNL     1     -10.474  13.715  69.613  1.00  0.00     0.210 OA 
HETATM   21  C   UNL     1      -9.767  14.555  68.707  1.00  0.00    -0.210 C  
HETATM   22  C   UNL     1     -10.825  11.819  64.763  1.00  0.00    -0.358 C  
HETATM   23  C   UNL     1      -8.555  12.863  64.540  1.00  0.00     3.337 C  
ENDROOT
BRANCH  16  24
HETATM   24  N   UNL     1      -9.261  11.464  67.290  1.00  0.00    -0.163 N  
HETATM   25  H   UNL     1      -8.297  11.408  67.618  1.00  0.00     0.000 HD 
HETATM   26  O   UNL     1     -11.008  10.104  66.691  1.00  0.00    -0.083 OA 
HETATM   27  C   UNL     1      -9.911  10.252  67.203  1.00  0.00    -0.185 C  
BRANCH  27  28
HETATM   28  C   UNL     1      -9.069   9.143  67.844  1.00  0.00    -0.134 C  
HETATM   29  C   UNL     1      -7.609   9.643  67.987  1.00  0.00    -0.083 C  
HETATM   30  N   UNL     1      -7.321  10.298  69.274  1.00  0.00    -0.086 NA 
HETATM   31  C   UNL     1      -8.228  11.423  69.559  1.00  0.00     0.570 C  
HETATM   32  C   UNL     1      -7.326   9.264  70.352  1.00  0.00    -0.111 C  
HETATM   33  C   UNL     1      -7.336   9.865  71.814  1.00  0.00     1.533 C  
HETATM   34  C   UNL     1      -8.407   9.295  72.672  1.00  0.00     1.361 A  
HETATM   35  C   UNL     1      -9.022   9.720  73.828  1.00  0.00     6.467 A  
HETATM   36  N   UNL     1      -9.870   8.719  74.246  1.00  0.00     2.923 NA 
HETATM   37  C   UNL     1      -9.829   7.656  73.370  1.00  0.00    -0.303 A  
HETATM   38  H   UNL     1     -10.449   8.759  75.085  1.00  0.00     0.000 HD 
HETATM   39  C   UNL     1     -10.478   6.419  73.316  1.00  0.00    -0.275 A  
HETATM   40  C   UNL     1     -10.186   5.592  72.215  1.00  0.00    -0.244 A  
HETATM   41  C   UNL     1      -9.378   6.031  71.162  1.00  0.00    -0.174 A  
HETATM   42  C   UNL     1      -8.835   7.316  71.199  1.00  0.00    -0.140 A  
HETATM   43  C   UNL     1      -8.982   8.057  72.361  1.00  0.00    -0.236 A  
HETATM   44  C   UNL     1      -8.324   8.060  70.006  1.00  0.00    -0.123 C  
HETATM   45  C   UNL     1      -9.549   8.592  69.197  1.00  0.00    -0.167 C  
ENDBRANCH  27  28
ENDBRANCH  16  24
TORSDOF 2
ENDMDL
MODEL      124
REMARK 921   NORMALIZED FREE ENERGY PREDICTED BY IDOCK:   27.68 KCAL/MOL
REMARK 922        TOTAL FREE ENERGY PREDICTED BY IDOCK:   29.74 KCAL/MOL
REMARK 923 INTER-LIGAND FREE ENERGY PREDICTED BY IDOCK:   24.96 KCAL/MOL
REMARK 924 INTRA-LIGAND FREE ENERGY PREDICTED BY IDOCK:    4.78 KCAL/MOL
REMARK 927      BINDING AFFINITY PREDICTED BY RF-SCORE:    0.00 PKD
ROOT
HETATM    1  C   UNL     1      -9.638  15.226  65.969  1.00  0.00    -0.338 C  
HETATM    2  C   UNL     1      -8.881  16.099  64.958  1.00  0.00     2.711 C  
HETATM    3  C   UNL     1      -9.973  17.086  64.428  1.00  0.00     3.848 C  
HETATM    4  C   UNL     1     -11.297  16.616  65.019  1.00  0.00     0.102 C  
HETATM    5  N   UNL     1     -11.013  15.291  65.536  1.00  0.00    -0.350 N  
HETATM    6  C   UNL     1     -11.984  14.723  66.324  1.00  0.00    -0.159 C  
HETATM    7  O   UNL     1     -13.174  14.855  66.052  1.00  0.00     0.662 OA 
HETATM    8  C   UNL     1     -11.434  13.803  67.440  1.00  0.00    -0.345 C  
HETATM    9  N   UNL     1     -10.039  14.325  68.002  1.00  0.00    -0.223 N  
HETATM   10  C   UNL     1     -12.549  13.494  68.429  1.00  0.00     0.639 C  
HETATM   11  C   UNL     1     -12.934  14.743  69.198  1.00  0.00     0.916 C  
HETATM   12  C   UNL     1      -9.259  13.784  69.029  1.00  0.00     0.259 C  
HETATM   13  C   UNL     1     -13.642  12.589  67.834  1.00  0.00     7.865 C  
HETATM   14  O   UNL     1      -8.860  14.435  69.995  1.00  0.00     0.746 OA 
HETATM   15  C   UNL     1     -13.777  14.401  70.403  1.00  0.00     0.641 C  
HETATM   16  C   UNL     1      -9.056  12.307  68.715  1.00  0.00     0.138 C  
HETATM   17  H   UNL     1      -7.452  13.650  67.734  1.00  0.00     0.000 HD 
HETATM   18  C   UNL     1     -10.136  11.826  69.815  1.00  0.00     1.064 C  
HETATM   19  O   UNL     1      -9.253  12.576  67.154  1.00  0.00    -0.191 OA 
HETATM   20  O   UNL     1      -7.750  14.345  67.158  1.00  0.00    -0.171 OA 
HETATM   21  C   UNL     1      -9.125  14.029  66.962  1.00  0.00    -0.246 C  
HETATM   22  C   UNL     1      -9.586  11.697  71.264  1.00  0.00     9.576 C  
HETATM   23  C   UNL     1     -11.049  10.644  69.519  1.00  0.00    -0.328 C  
ENDROOT
BRANCH  16  24
HETATM   24  N   UNL     1      -8.051  11.282  68.728  1.00  0.00    -0.202 N  
HETATM   25  H   UNL     1      -8.018  10.728  69.584  1.00  0.00     0.000 HD 
HETATM   26  O   UNL     1      -6.915  11.561  66.755  1.00  0.00    -0.137 OA 
HETATM   27  C   UNL     1      -7.126  10.923  67.773  1.00  0.00    -0.082 C  
BRANCH  27  28
HETATM   28  C   UNL     1      -6.423   9.619  68.168  1.00  0.00    -0.057 C  
HETATM   29  C   UNL     1      -6.096   9.667  69.682  1.00  0.00    -0.043 C  
HETATM   30  N   UNL     1      -7.147   9.100  70.543  1.00  0.00    -0.075 NA 
HETATM   31  C   UNL     1      -8.461   9.729  70.332  1.00  0.00    -0.058 C  
HETATM   32  C   UNL     1      -7.178   7.619  70.352  1.00  0.00    -0.063 C  
HETATM   33  C   UNL     1      -8.451   6.920  70.977  1.00  0.00    -0.131 C  
HETATM   34  C   UNL     1      -9.159   6.033  70.019  1.00  0.00    -0.152 A  
HETATM   35  C   UNL     1     -10.435   5.519  69.967  1.00  0.00    -0.303 A  
HETATM   36  N   UNL     1     -10.498   4.652  68.899  1.00  0.00     0.181 NA 
HETATM   37  C   UNL     1      -9.287   4.607  68.245  1.00  0.00    -0.136 A  
HETATM   38  H   UNL     1     -11.325   4.119  68.629  1.00  0.00     0.000 HD 
HETATM   39  C   UNL     1      -8.815   3.914  67.125  1.00  0.00    -0.133 A  
HETATM   40  C   UNL     1      -7.485   4.162  66.734  1.00  0.00    -0.080 A  
HETATM   41  C   UNL     1      -6.708   5.140  67.359  1.00  0.00    -0.055 A  
HETATM   42  C   UNL     1      -7.250   5.889  68.405  1.00  0.00    -0.083 A  
HETATM   43  C   UNL     1      -8.493   5.523  68.897  1.00  0.00    -0.101 A  
HETATM   44  C   UNL     1      -6.719   7.207  68.874  1.00  0.00    -0.060 C  
HETATM   45  C   UNL     1      -7.154   8.304  67.851  1.00  0.00    -0.083 C  
ENDBRANCH  27  28
ENDBRANCH  16  24
TORSDOF 2
ENDMDL
MODEL      125
REMARK 921   NORMALIZED FREE ENERGY PREDICTED BY IDOCK:   28.71 KCAL/MOL
REMARK 922        TOTAL FREE ENERGY PREDICTED BY IDOCK:   30.89 KCAL/MOL
REMARK 923 INTER-LIGAND FREE ENERGY PREDICTED BY IDOCK:   28.02 KCAL/MOL
REMARK 924 INTRA-LIGAND FREE ENERGY PREDICTED BY IDOCK:    2.87 KCAL/MOL
REMARK 927      BINDING AFFINITY PREDICTED BY RF-SCORE:    0.00 PKD
ROOT
HETATM    1  C   UNL     1      -8.157  10.240  70.972  1.00  0.00     1.964 C  
HETATM    2  C   UNL     1      -6.640  10.007  70.982  1.00  0.00     0.104 C  
HETATM    3  C   UNL     1      -6.456   8.796  71.957  1.00  0.00    -0.061 C  
HETATM    4  C   UNL     1      -7.826   8.529  72.569  1.00  0.00    -0.034 C  
HETATM    5  N   UNL     1      -8.608   9.704  72.233  1.00  0.00     2.037 N  
HETATM    6  C   UNL     1      -9.958   9.628  72.477  1.00  0.00     2.963 C  
HETATM    7  O   UNL     1     -10.386   9.074  73.486  1.00  0.00     2.084 OA 
HETATM    8  C   UNL     1     -10.827  10.425  71.475  1.00  0.00     1.432 C  
HETATM    9  N   UNL     1     -10.195  10.423  70.014  1.00  0.00    -0.167 N  
HETATM   10  C   UNL     1     -12.283  10.017  71.640  1.00  0.00    -0.456 C  
HETATM   11  C   UNL     1     -12.486   8.585  71.180  1.00  0.00    -0.195 C  
HETATM   12  C   UNL     1     -10.705  11.001  68.847  1.00  0.00    -0.211 C  
HETATM   13  C   UNL     1     -12.890  10.489  72.974  1.00  0.00     2.953 C  
HETATM   14  O   UNL     1     -10.862  10.382  67.794  1.00  0.00    -0.254 OA 
HETATM   15  C   UNL     1     -13.954   8.272  71.010  1.00  0.00     0.005 C  
HETATM   16  C   UNL     1     -11.022  12.457  69.162  1.00  0.00    -0.152 C  
HETATM   17  H   UNL     1      -8.838  12.156  68.473  1.00  0.00     0.000 HD 
HETATM   18  C   UNL     1     -12.612  12.191  69.256  1.00  0.00     0.513 C  
HETATM   19  O   UNL     1      -9.931  12.480  70.326  1.00  0.00     2.682 OA 
HETATM   20  O   UNL     1      -8.300  11.545  68.964  1.00  0.00    -0.052 OA 
HETATM   21  C   UNL     1      -9.084  11.293  70.126  1.00  0.00     2.271 C  
HETATM   22  C   UNL     1     -13.364  12.217  67.895  1.00  0.00     6.059 C  
HETATM   23  C   UNL     1     -13.446  12.917  70.303  1.00  0.00     1.489 C  
ENDROOT
BRANCH  16  24
HETATM   24  N   UNL     1     -10.913  13.778  68.611  1.00  0.00    -0.257 N  
HETATM   25  H   UNL     1      -9.987  14.017  68.256  1.00  0.00     0.000 HD 
HETATM   26  O   UNL     1     -12.967  14.730  68.981  1.00  0.00     0.504 OA 
HETATM   27  C   UNL     1     -11.855  14.775  68.482  1.00  0.00    -0.306 C  
BRANCH  27  28
HETATM   28  C   UNL     1     -11.310  15.922  67.624  1.00  0.00    -0.151 C  
HETATM   29  C   UNL     1     -12.029  17.234  68.027  1.00  0.00     1.621 C  
HETATM   30  N   UNL     1     -11.344  17.996  69.084  1.00  0.00     1.644 NA 
HETATM   31  C   UNL     1     -11.109  17.202  70.301  1.00  0.00     0.744 C  
HETATM   32  C   UNL     1     -10.088  18.576  68.520  1.00  0.00    -0.378 C  
HETATM   33  C   UNL     1      -9.106  19.157  69.614  1.00  0.00     0.434 C  
HETATM   34  C   UNL     1      -7.717  18.643  69.484  1.00  0.00     0.288 A  
HETATM   35  C   UNL     1      -6.649  18.567  70.349  1.00  0.00     0.646 A  
HETATM   36  N   UNL     1      -5.565  18.099  69.640  1.00  0.00    -0.207 NA 
HETATM   37  C   UNL     1      -5.916  17.855  68.330  1.00  0.00    -0.174 A  
HETATM   38  H   UNL     1      -4.634  17.953  70.029  1.00  0.00     0.000 HD 
HETATM   39  C   UNL     1      -5.222  17.379  67.214  1.00  0.00    -0.149 A  
HETATM   40  C   UNL     1      -5.955  17.233  66.020  1.00  0.00     0.031 A  
HETATM   41  C   UNL     1      -7.336  17.439  65.979  1.00  0.00    -0.265 A  
HETATM   42  C   UNL     1      -8.014  17.809  67.141  1.00  0.00    -0.229 A  
HETATM   43  C   UNL     1      -7.266  18.119  68.267  1.00  0.00    -0.257 A  
HETATM   44  C   UNL     1      -9.487  17.657  67.354  1.00  0.00    -0.256 C  
HETATM   45  C   UNL     1      -9.790  16.153  67.645  1.00  0.00    -0.236 C  
ENDBRANCH  27  28
ENDBRANCH  16  24
TORSDOF 2
ENDMDL
MODEL      126
REMARK 921   NORMALIZED FREE ENERGY PREDICTED BY IDOCK:   29.00 KCAL/MOL
REMARK 922        TOTAL FREE ENERGY PREDICTED BY IDOCK:   31.21 KCAL/MOL
REMARK 923 INTER-LIGAND FREE ENERGY PREDICTED BY IDOCK:   30.77 KCAL/MOL
REMARK 924 INTRA-LIGAND FREE ENERGY PREDICTED BY IDOCK:    0.44 KCAL/MOL
REMARK 927      BINDING AFFINITY PREDICTED BY RF-SCORE:    0.00 PKD
ROOT
HETATM    1  C   UNL     1     -10.888   9.344  70.794  1.00  0.00    -0.305 C  
HETATM    2  C   UNL     1     -12.318   8.786  70.837  1.00  0.00    -0.102 C  
HETATM    3  C   UNL     1     -12.171   7.447  71.634  1.00  0.00    -0.361 C  
HETATM    4  C   UNL     1     -10.676   7.235  71.840  1.00  0.00    -0.215 C  
HETATM    5  N   UNL     1     -10.048   8.180  70.937  1.00  0.00    -0.187 N  
HETATM    6  C   UNL     1      -8.693   8.355  71.083  1.00  0.00    -0.159 C  
HETATM    7  O   UNL     1      -7.956   7.402  71.321  1.00  0.00    -0.094 OA 
HETATM    8  C   UNL     1      -8.202   9.787  70.761  1.00  0.00     0.298 C  
HETATM    9  N   UNL     1      -9.279  10.886  71.167  1.00  0.00     4.699 N  
HETATM   10  C   UNL     1      -6.772   9.949  71.256  1.00  0.00     0.276 C  
HETATM   11  C   UNL     1      -6.733   9.925  72.772  1.00  0.00     1.745 C  
HETATM   12  C   UNL     1      -9.182  12.277  71.064  1.00  0.00    10.849 C  
HETATM   13  C   UNL     1      -5.760   9.118  70.446  1.00  0.00    -0.035 C  
HETATM   14  O   UNL     1      -9.380  13.044  72.006  1.00  0.00    14.419 OA 
HETATM   15  C   UNL     1      -5.403  10.421  73.289  1.00  0.00     0.431 C  
HETATM   16  C   UNL     1      -8.779  12.599  69.631  1.00  0.00     2.035 C  
HETATM   17  H   UNL     1     -11.068  12.430  69.889  1.00  0.00     0.000 HD 
HETATM   18  C   UNL     1      -7.247  12.915  70.031  1.00  0.00     1.107 C  
HETATM   19  O   UNL     1      -9.426  11.238  69.105  1.00  0.00    -0.074 OA 
HETATM   20  O   UNL     1     -11.414  11.618  70.241  1.00  0.00    -0.216 OA 
HETATM   21  C   UNL     1     -10.292  10.744  70.187  1.00  0.00     0.332 C  
HETATM   22  C   UNL     1      -6.985  14.362  70.536  1.00  0.00     0.390 C  
HETATM   23  C   UNL     1      -6.114  12.497  69.103  1.00  0.00    -0.088 C  
ENDROOT
BRANCH  16  24
HETATM   24  N   UNL     1      -9.063  13.511  68.559  1.00  0.00    -0.334 N  
HETATM   25  H   UNL     1      -9.292  14.459  68.855  1.00  0.00     0.000 HD 
HETATM   26  O   UNL     1      -8.980  12.219  66.665  1.00  0.00    -0.204 OA 
HETATM   27  C   UNL     1      -9.077  13.313  67.195  1.00  0.00    -0.231 C  
BRANCH  27  28
HETATM   28  C   UNL     1      -9.220  14.650  66.460  1.00  0.00    -0.294 C  
HETATM   29  C   UNL     1     -10.667  15.172  66.647  1.00  0.00    -0.310 C  
HETATM   30  N   UNL     1     -10.844  16.050  67.815  1.00  0.00    -0.326 NA 
HETATM   31  C   UNL     1     -10.409  15.423  69.074  1.00  0.00    -0.243 C  
HETATM   32  C   UNL     1     -10.155  17.349  67.548  1.00  0.00    -0.322 C  
HETATM   33  C   UNL     1     -10.001  18.265  68.827  1.00  0.00    -0.391 C  
HETATM   34  C   UNL     1      -8.610  18.741  69.042  1.00  0.00    -0.133 A  
HETATM   35  C   UNL     1      -7.933  19.230  70.135  1.00  0.00     1.132 A  
HETATM   36  N   UNL     1      -6.684  19.628  69.714  1.00  0.00    -0.306 NA 
HETATM   37  C   UNL     1      -6.532  19.390  68.366  1.00  0.00    -0.245 A  
HETATM   38  H   UNL     1      -5.970  20.040  70.316  1.00  0.00     0.000 HD 
HETATM   39  C   UNL     1      -5.488  19.593  67.458  1.00  0.00    -0.173 A  
HETATM   40  C   UNL     1      -5.709  19.181  66.130  1.00  0.00    -0.177 A  
HETATM   41  C   UNL     1      -6.867  18.493  65.758  1.00  0.00    -0.310 A  
HETATM   42  C   UNL     1      -7.840  18.211  66.718  1.00  0.00    -0.257 A  
HETATM   43  C   UNL     1      -7.698  18.769  67.979  1.00  0.00    -0.286 A  
HETATM   44  C   UNL     1      -8.892  17.156  66.581  1.00  0.00    -0.279 C  
HETATM   45  C   UNL     1      -8.229  15.765  66.833  1.00  0.00    -0.288 C  
ENDBRANCH  27  28
ENDBRANCH  16  24
TORSDOF 2
ENDMDL
MODEL      127
REMARK 921   NORMALIZED FREE ENERGY PREDICTED BY IDOCK:   31.01 KCAL/MOL
REMARK 922        TOTAL FREE ENERGY PREDICTED BY IDOCK:   33.46 KCAL/MOL
REMARK 923 INTER-LIGAND FREE ENERGY PREDICTED BY IDOCK:   32.12 KCAL/MOL
REMARK 924 INTRA-LIGAND FREE ENERGY PREDICTED BY IDOCK:    1.34 KCAL/MOL
REMARK 927      BINDING AFFINITY PREDICTED BY RF-SCORE:    0.00 PKD
ROOT
HETATM    1  C   UNL     1     -11.246  12.700  64.095  1.00  0.00    -0.386 C  
HETATM    2  C   UNL     1     -12.233  13.036  62.968  1.00  0.00    -0.058 C  
HETATM    3  C   UNL     1     -11.915  14.530  62.628  1.00  0.00     3.273 C  
HETATM    4  C   UNL     1     -10.913  15.002  63.674  1.00  0.00     2.049 C  
HETATM    5  N   UNL     1     -10.948  13.976  64.699  1.00  0.00    -0.397 N  
HETATM    6  C   UNL     1      -9.971  14.041  65.662  1.00  0.00    -0.286 C  
HETATM    7  O   UNL     1      -9.607  15.122  66.119  1.00  0.00    -0.272 OA 
HETATM    8  C   UNL     1      -9.522  12.662  66.202  1.00  0.00    -0.175 C  
HETATM    9  N   UNL     1      -9.570  11.542  65.073  1.00  0.00    -0.224 N  
HETATM   10  C   UNL     1      -8.242  12.832  67.007  1.00  0.00    -0.099 C  
HETATM   11  C   UNL     1      -7.092  13.214  66.094  1.00  0.00     3.199 C  
HETATM   12  C   UNL     1      -9.208  10.194  65.170  1.00  0.00    -0.213 C  
HETATM   13  C   UNL     1      -8.461  13.593  68.328  1.00  0.00    -0.170 C  
HETATM   14  O   UNL     1      -8.414   9.647  64.405  1.00  0.00    -0.155 OA 
HETATM   15  C   UNL     1      -5.764  13.054  66.797  1.00  0.00     1.222 C  
HETATM   16  C   UNL     1      -9.946   9.611  66.369  1.00  0.00    -0.255 C  
HETATM   17  H   UNL     1     -11.186   9.496  64.423  1.00  0.00     0.000 HD 
HETATM   18  C   UNL     1      -8.632   9.627  67.307  1.00  0.00    -0.132 C  
HETATM   19  O   UNL     1     -11.103  10.702  66.231  1.00  0.00    -0.038 OA 
HETATM   20  O   UNL     1     -11.355  10.307  63.958  1.00  0.00     1.849 OA 
HETATM   21  C   UNL     1     -10.955  11.301  64.896  1.00  0.00    -0.173 C  
HETATM   22  C   UNL     1      -7.700   8.392  67.153  1.00  0.00    -0.097 C  
HETATM   23  C   UNL     1      -8.755   9.980  68.783  1.00  0.00    -0.136 C  
ENDROOT
BRANCH  16  24
HETATM   24  N   UNL     1     -10.670   8.444  66.786  1.00  0.00    -0.283 N  
HETATM   25  H   UNL     1     -10.746   7.714  66.078  1.00  0.00     0.000 HD 
HETATM   26  O   UNL     1     -11.421   8.951  68.893  1.00  0.00     0.388 OA 
HETATM   27  C   UNL     1     -11.277   8.148  67.986  1.00  0.00     0.630 C  
BRANCH  27  28
HETATM   28  C   UNL     1     -11.726   6.683  68.015  1.00  0.00     0.863 C  
HETATM   29  C   UNL     1     -12.662   6.423  66.807  1.00  0.00     8.137 C  
HETATM   30  N   UNL     1     -11.966   5.953  65.598  1.00  0.00     2.940 NA 
HETATM   31  C   UNL     1     -10.892   6.862  65.166  1.00  0.00     5.559 C  
HETATM   32  C   UNL     1     -11.485   4.558  65.831  1.00  0.00     1.750 C  
HETATM   33  C   UNL     1     -10.463   4.045  64.740  1.00  0.00    -0.194 C  
HETATM   34  C   UNL     1      -9.218   3.483  65.324  1.00  0.00    -0.153 A  
HETATM   35  C   UNL     1      -7.955   3.255  64.827  1.00  0.00    -0.086 A  
HETATM   36  N   UNL     1      -7.231   2.599  65.797  1.00  0.00    -0.064 NA 
HETATM   37  C   UNL     1      -7.998   2.412  66.925  1.00  0.00    -0.072 A  
HETATM   38  H   UNL     1      -6.263   2.295  65.695  1.00  0.00     0.000 HD 
HETATM   39  C   UNL     1      -7.762   1.823  68.172  1.00  0.00    -0.053 A  
HETATM   40  C   UNL     1      -8.818   1.854  69.103  1.00  0.00    -0.131 A  
HETATM   41  C   UNL     1     -10.006   2.541  68.842  1.00  0.00     0.574 A  
HETATM   42  C   UNL     1     -10.164   3.210  67.628  1.00  0.00     1.421 A  
HETATM   43  C   UNL     1      -9.197   3.032  66.650  1.00  0.00    -0.152 A  
HETATM   44  C   UNL     1     -11.157   4.301  67.378  1.00  0.00     2.978 C  
HETATM   45  C   UNL     1     -10.624   5.612  68.039  1.00  0.00    -0.260 C  
ENDBRANCH  27  28
ENDBRANCH  16  24
TORSDOF 2
ENDMDL
MODEL      128
REMARK 921   NORMALIZED FREE ENERGY PREDICTED BY IDOCK:   31.39 KCAL/MOL
REMARK 922        TOTAL FREE ENERGY PREDICTED BY IDOCK:   33.89 KCAL/MOL
REMARK 923 INTER-LIGAND FREE ENERGY PREDICTED BY IDOCK:   32.23 KCAL/MOL
REMARK 924 INTRA-LIGAND FREE ENERGY PREDICTED BY IDOCK:    1.65 KCAL/MOL
REMARK 927      BINDING AFFINITY PREDICTED BY RF-SCORE:    0.00 PKD
ROOT
HETATM    1  C   UNL     1     -12.496  12.521  71.705  1.00  0.00     0.171 C  
HETATM    2  C   UNL     1     -13.048  13.851  72.240  1.00  0.00    -0.512 C  
HETATM    3  C   UNL     1     -14.056  13.413  73.354  1.00  0.00     3.020 C  
HETATM    4  C   UNL     1     -14.151  11.894  73.271  1.00  0.00     4.032 C  
HETATM    5  N   UNL     1     -13.530  11.561  72.004  1.00  0.00    -0.335 N  
HETATM    6  C   UNL     1     -13.282  10.229  71.778  1.00  0.00    -0.430 C  
HETATM    7  O   UNL     1     -14.089   9.370  72.124  1.00  0.00    -0.337 OA 
HETATM    8  C   UNL     1     -12.017   9.956  70.930  1.00  0.00    -0.345 C  
HETATM    9  N   UNL     1     -10.874  11.027  71.213  1.00  0.00     1.961 N  
HETATM   10  C   UNL     1     -11.667   8.477  71.014  1.00  0.00    -0.310 C  
HETATM   11  C   UNL     1     -11.203   8.123  72.414  1.00  0.00    -0.452 C  
HETATM   12  C   UNL     1      -9.587  11.088  70.669  1.00  0.00     3.142 C  
HETATM   13  C   UNL     1     -12.688   7.579  70.291  1.00  0.00     0.657 C  
HETATM   14  O   UNL     1      -8.564  11.161  71.349  1.00  0.00     5.946 OA 
HETATM   15  C   UNL     1     -10.534   6.769  72.438  1.00  0.00    -0.230 C  
HETATM   16  C   UNL     1      -9.731  11.023  69.153  1.00  0.00    -0.076 C  
HETATM   17  H   UNL     1      -9.868  13.182  69.963  1.00  0.00     0.000 HD 
HETATM   18  C   UNL     1      -9.264   9.479  69.080  1.00  0.00    -0.155 C  
HETATM   19  O   UNL     1     -11.205  11.630  69.232  1.00  0.00    -0.244 OA 
HETATM   20  O   UNL     1     -10.533  13.368  70.616  1.00  0.00     2.200 OA 
HETATM   21  C   UNL     1     -11.349  12.201  70.580  1.00  0.00     1.064 C  
HETATM   22  C   UNL     1      -7.725   9.259  69.043  1.00  0.00    -0.075 C  
HETATM   23  C   UNL     1      -9.928   8.528  68.093  1.00  0.00    -0.214 C  
ENDROOT
BRANCH  16  24
HETATM   24  N   UNL     1      -9.219  11.609  67.948  1.00  0.00    -0.165 N  
HETATM   25  H   UNL     1      -9.928  12.011  67.334  1.00  0.00     0.000 HD 
HETATM   26  O   UNL     1      -6.969  11.169  68.001  1.00  0.00    -0.066 OA 
HETATM   27  C   UNL     1      -7.926  11.719  67.484  1.00  0.00    -0.148 C  
BRANCH  27  28
HETATM   28  C   UNL     1      -7.873  12.627  66.251  1.00  0.00     0.959 C  
HETATM   29  C   UNL     1      -7.844  11.742  64.979  1.00  0.00     1.737 C  
HETATM   30  N   UNL     1      -9.174  11.443  64.424  1.00  0.00    -0.053 NA 
HETATM   31  C   UNL     1     -10.076  10.817  65.405  1.00  0.00    -0.285 C  
HETATM   32  C   UNL     1      -9.741  12.692  63.832  1.00  0.00     0.234 C  
HETATM   33  C   UNL     1     -11.278  12.591  63.478  1.00  0.00    -0.525 C  
HETATM   34  C   UNL     1     -12.082  13.708  64.039  1.00  0.00    -0.474 A  
HETATM   35  C   UNL     1     -13.423  13.873  64.303  1.00  0.00     2.131 A  
HETATM   36  N   UNL     1     -13.614  15.173  64.714  1.00  0.00     1.121 NA 
HETATM   37  C   UNL     1     -12.416  15.852  64.738  1.00  0.00     0.784 A  
HETATM   38  H   UNL     1     -14.517  15.576  64.967  1.00  0.00     0.000 HD 
HETATM   39  C   UNL     1     -12.049  17.158  65.074  1.00  0.00     3.206 A  
HETATM   40  C   UNL     1     -10.680  17.477  64.998  1.00  0.00     0.414 A  
HETATM   41  C   UNL     1      -9.716  16.505  64.715  1.00  0.00     1.938 A  
HETATM   42  C   UNL     1     -10.111  15.186  64.491  1.00  0.00     0.680 A  
HETATM   43  C   UNL     1     -11.467  14.915  64.396  1.00  0.00    -0.255 A  
HETATM   44  C   UNL     1      -9.209  13.997  64.594  1.00  0.00     2.293 C  
HETATM   45  C   UNL     1      -8.983  13.681  66.107  1.00  0.00     0.228 C  
ENDBRANCH  27  28
ENDBRANCH  16  24
TORSDOF 2
ENDMDL
MODEL      129
REMARK 921   NORMALIZED FREE ENERGY PREDICTED BY IDOCK:   31.75 KCAL/MOL
REMARK 922        TOTAL FREE ENERGY PREDICTED BY IDOCK:   34.29 KCAL/MOL
REMARK 923 INTER-LIGAND FREE ENERGY PREDICTED BY IDOCK:   34.43 KCAL/MOL
REMARK 924 INTRA-LIGAND FREE ENERGY PREDICTED BY IDOCK:   -0.15 KCAL/MOL
REMARK 927      BINDING AFFINITY PREDICTED BY RF-SCORE:    0.00 PKD
ROOT
HETATM    1  C   UNL     1      -8.618  10.457  70.005  1.00  0.00     0.293 C  
HETATM    2  C   UNL     1      -7.139  10.350  70.405  1.00  0.00     0.049 C  
HETATM    3  C   UNL     1      -7.156   9.388  71.640  1.00  0.00     0.279 C  
HETATM    4  C   UNL     1      -8.624   9.149  71.974  1.00  0.00     0.464 C  
HETATM    5  N   UNL     1      -9.337  10.162  71.221  1.00  0.00     1.684 N  
HETATM    6  C   UNL     1     -10.704  10.033  71.167  1.00  0.00     0.090 C  
HETATM    7  O   UNL     1     -11.342   9.671  72.152  1.00  0.00     0.016 OA 
HETATM    8  C   UNL     1     -11.335  10.533  69.845  1.00  0.00    -0.309 C  
HETATM    9  N   UNL     1     -10.377  10.275  68.600  1.00  0.00    -0.174 N  
HETATM   10  C   UNL     1     -12.777  10.055  69.768  1.00  0.00     0.458 C  
HETATM   11  C   UNL     1     -12.826   8.548  69.602  1.00  0.00     2.972 C  
HETATM   12  C   UNL     1     -10.614  10.554  67.250  1.00  0.00    -0.264 C  
HETATM   13  C   UNL     1     -13.693  10.747  70.794  1.00  0.00     0.856 C  
HETATM   14  O   UNL     1     -10.503   9.718  66.353  1.00  0.00    -0.204 OA 
HETATM   15  C   UNL     1     -14.204   8.092  69.183  1.00  0.00    10.525 C  
HETATM   16  C   UNL     1     -11.037  12.015  67.156  1.00  0.00    -0.290 C  
HETATM   17  H   UNL     1      -8.744  11.748  67.057  1.00  0.00     0.000 HD 
HETATM   18  C   UNL     1     -12.596  11.650  66.949  1.00  0.00     2.603 C  
HETATM   19  O   UNL     1     -10.250  12.365  68.500  1.00  0.00    -0.226 OA 
HETATM   20  O   UNL     1      -8.320  11.297  67.778  1.00  0.00    -0.119 OA 
HETATM   21  C   UNL     1      -9.348  11.233  68.762  1.00  0.00    -0.128 C  
HETATM   22  C   UNL     1     -13.008  11.332  65.483  1.00  0.00     4.878 C  
HETATM   23  C   UNL     1     -13.672  12.512  67.595  1.00  0.00     9.298 C  
ENDROOT
BRANCH  16  24
HETATM   24  N   UNL     1     -10.837  13.195  66.364  1.00  0.00    -0.285 N  
HETATM   25  H   UNL     1     -11.693  13.689  66.111  1.00  0.00     0.000 HD 
HETATM   26  O   UNL     1      -8.580  13.247  65.962  1.00  0.00     0.498 OA 
HETATM   27  C   UNL     1      -9.678  13.771  65.891  1.00  0.00    -0.196 C  
BRANCH  27  28
HETATM   28  C   UNL     1      -9.971  15.148  65.284  1.00  0.00    -0.325 C  
HETATM   29  C   UNL     1     -11.478  15.461  65.460  1.00  0.00    -0.078 C  
HETATM   30  N   UNL     1     -11.802  16.187  66.699  1.00  0.00     0.895 NA 
HETATM   31  C   UNL     1     -11.327  15.494  67.908  1.00  0.00    -0.308 C  
HETATM   32  C   UNL     1     -11.279  17.582  66.589  1.00  0.00     0.679 C  
HETATM   33  C   UNL     1     -11.283  18.375  67.956  1.00  0.00     0.449 C  
HETATM   34  C   UNL     1      -9.972  18.998  68.275  1.00  0.00    -0.459 A  
HETATM   35  C   UNL     1      -9.396  19.455  69.438  1.00  0.00     0.014 A  
HETATM   36  N   UNL     1      -8.197  20.047  69.111  1.00  0.00     0.094 NA 
HETATM   37  C   UNL     1      -7.976  19.969  67.754  1.00  0.00    -0.289 A  
HETATM   38  H   UNL     1      -7.561  20.482  69.780  1.00  0.00     0.000 HD 
HETATM   39  C   UNL     1      -6.942  20.393  66.914  1.00  0.00    -0.318 A  
HETATM   40  C   UNL     1      -7.068  20.094  65.544  1.00  0.00    -0.315 A  
HETATM   41  C   UNL     1      -8.116  19.307  65.059  1.00  0.00     1.778 A  
HETATM   42  C   UNL     1      -9.072  18.809  65.945  1.00  0.00     0.191 A  
HETATM   43  C   UNL     1      -9.041  19.249  67.259  1.00  0.00    -0.346 A  
HETATM   44  C   UNL     1      -9.974  17.649  65.662  1.00  0.00     0.114 C  
HETATM   45  C   UNL     1      -9.144  16.334  65.805  1.00  0.00    -0.110 C  
ENDBRANCH  27  28
ENDBRANCH  16  24
TORSDOF 2
ENDMDL
MODEL      130
REMARK 921   NORMALIZED FREE ENERGY PREDICTED BY IDOCK:   32.14 KCAL/MOL
REMARK 922        TOTAL FREE ENERGY PREDICTED BY IDOCK:   34.72 KCAL/MOL
REMARK 923 INTER-LIGAND FREE ENERGY PREDICTED BY IDOCK:   35.43 KCAL/MOL
REMARK 924 INTRA-LIGAND FREE ENERGY PREDICTED BY IDOCK:   -0.71 KCAL/MOL
REMARK 927      BINDING AFFINITY PREDICTED BY RF-SCORE:    0.00 PKD
ROOT
HETATM    1  C   UNL     1     -11.495   4.483  66.117  1.00  0.00     2.291 C  
HETATM    2  C   UNL     1     -12.792   3.694  65.890  1.00  0.00    14.829 C  
HETATM    3  C   UNL     1     -12.307   2.367  65.215  1.00  0.00    11.724 C  
HETATM    4  C   UNL     1     -10.819   2.548  64.941  1.00  0.00     1.583 C  
HETATM    5  N   UNL     1     -10.586   3.968  65.122  1.00  0.00    -0.126 N  
HETATM    6  C   UNL     1      -9.273   4.372  65.152  1.00  0.00    -0.156 C  
HETATM    7  O   UNL     1      -8.443   3.872  64.398  1.00  0.00    -0.096 OA 
HETATM    8  C   UNL     1      -9.006   5.585  66.074  1.00  0.00    -0.152 C  
HETATM    9  N   UNL     1      -9.951   5.573  67.355  1.00  0.00    -0.148 N  
HETATM   10  C   UNL     1      -7.505   5.739  66.276  1.00  0.00    -0.083 C  
HETATM   11  C   UNL     1      -6.961   4.583  67.094  1.00  0.00    -0.060 C  
HETATM   12  C   UNL     1      -9.978   6.475  68.423  1.00  0.00    -0.141 C  
HETATM   13  C   UNL     1      -6.773   6.191  65.000  1.00  0.00    -0.043 C  
HETATM   14  O   UNL     1      -9.897   6.135  69.603  1.00  0.00    -0.155 OA 
HETATM   15  C   UNL     1      -5.568   4.880  67.595  1.00  0.00    -0.017 C  
HETATM   16  C   UNL     1     -10.096   7.875  67.832  1.00  0.00    -0.191 C  
HETATM   17  H   UNL     1     -12.153   6.879  68.167  1.00  0.00     0.000 HD 
HETATM   18  C   UNL     1      -8.540   8.220  68.092  1.00  0.00    -0.132 C  
HETATM   19  O   UNL     1     -10.797   7.299  66.519  1.00  0.00    -0.066 OA 
HETATM   20  O   UNL     1     -12.313   6.042  67.748  1.00  0.00     3.481 OA 
HETATM   21  C   UNL     1     -11.221   5.927  66.840  1.00  0.00     0.107 C  
HETATM   22  C   UNL     1      -8.213   8.742  69.520  1.00  0.00    -0.111 C  
HETATM   23  C   UNL     1      -7.759   9.035  67.070  1.00  0.00    -0.098 C  
ENDROOT
BRANCH  16  24
HETATM   24  N   UNL     1     -10.776   9.124  68.023  1.00  0.00    -0.425 N  
HETATM   25  H   UNL     1     -10.893   9.680  67.177  1.00  0.00     0.000 HD 
HETATM   26  O   UNL     1     -11.120   9.253  70.287  1.00  0.00    -0.243 OA 
HETATM   27  C   UNL     1     -11.297   9.694  69.164  1.00  0.00     0.071 C  
BRANCH  27  28
HETATM   28  C   UNL     1     -12.125  10.936  68.815  1.00  0.00    -0.124 C  
HETATM   29  C   UNL     1     -11.827  12.045  69.856  1.00  0.00    -0.331 C  
HETATM   30  N   UNL     1     -10.727  12.946  69.476  1.00  0.00     0.198 NA 
HETATM   31  C   UNL     1      -9.473  12.230  69.188  1.00  0.00     0.551 C  
HETATM   32  C   UNL     1     -11.178  13.802  68.338  1.00  0.00    -0.272 C  
HETATM   33  C   UNL     1     -10.007  14.596  67.633  1.00  0.00    -0.227 C  
HETATM   34  C   UNL     1      -9.987  14.420  66.157  1.00  0.00    -0.328 A  
HETATM   35  C   UNL     1      -9.020  14.595  65.194  1.00  0.00     2.034 A  
HETATM   36  N   UNL     1      -9.607  14.392  63.965  1.00  0.00     1.213 NA 
HETATM   37  C   UNL     1     -10.938  14.071  64.115  1.00  0.00     0.013 A  
HETATM   38  H   UNL     1      -9.124  14.467  63.069  1.00  0.00     0.000 HD 
HETATM   39  C   UNL     1     -11.969  13.769  63.220  1.00  0.00     0.098 A  
HETATM   40  C   UNL     1     -13.225  13.455  63.775  1.00  0.00     1.318 A  
HETATM   41  C   UNL     1     -13.407  13.334  65.155  1.00  0.00     0.516 A  
HETATM   42  C   UNL     1     -12.327  13.537  66.014  1.00  0.00    -0.486 A  
HETATM   43  C   UNL     1     -11.141  14.014  65.476  1.00  0.00    -0.309 A  
HETATM   44  C   UNL     1     -12.256  13.047  67.426  1.00  0.00    -0.155 C  
HETATM   45  C   UNL     1     -11.959  11.514  67.400  1.00  0.00     0.075 C  
ENDBRANCH  27  28
ENDBRANCH  16  24
TORSDOF 2
ENDMDL
MODEL      131
REMARK 921   NORMALIZED FREE ENERGY PREDICTED BY IDOCK:   33.12 KCAL/MOL
REMARK 922        TOTAL FREE ENERGY PREDICTED BY IDOCK:   35.81 KCAL/MOL
REMARK 923 INTER-LIGAND FREE ENERGY PREDICTED BY IDOCK:   30.03 KCAL/MOL
REMARK 924 INTRA-LIGAND FREE ENERGY PREDICTED BY IDOCK:    5.78 KCAL/MOL
REMARK 927      BINDING AFFINITY PREDICTED BY RF-SCORE:    0.00 PKD
ROOT
HETATM    1  C   UNL     1      -7.272   9.188  65.958  1.00  0.00    -0.094 C  
HETATM    2  C   UNL     1      -6.354   9.750  64.862  1.00  0.00    -0.098 C  
HETATM    3  C   UNL     1      -5.948   8.487  64.033  1.00  0.00    -0.067 C  
HETATM    4  C   UNL     1      -6.499   7.284  64.789  1.00  0.00    -0.037 C  
HETATM    5  N   UNL     1      -6.864   7.810  66.091  1.00  0.00    -0.060 N  
HETATM    6  C   UNL     1      -7.596   6.978  66.902  1.00  0.00    -0.094 C  
HETATM    7  O   UNL     1      -7.354   5.775  66.954  1.00  0.00    -0.077 OA 
HETATM    8  C   UNL     1      -8.598   7.714  67.824  1.00  0.00    -0.121 C  
HETATM    9  N   UNL     1      -9.198   9.013  67.126  1.00  0.00    -0.132 N  
HETATM   10  C   UNL     1      -9.559   6.701  68.428  1.00  0.00    -0.123 C  
HETATM   11  C   UNL     1     -10.466   6.127  67.355  1.00  0.00    -0.309 C  
HETATM   12  C   UNL     1     -10.151   9.906  67.626  1.00  0.00    -0.197 C  
HETATM   13  C   UNL     1      -8.881   5.764  69.444  1.00  0.00    -0.117 C  
HETATM   14  O   UNL     1     -11.177  10.215  67.021  1.00  0.00    -0.125 OA 
HETATM   15  C   UNL     1     -11.635   5.394  67.967  1.00  0.00     2.451 C  
HETATM   16  C   UNL     1      -9.674  10.354  69.003  1.00  0.00    -0.206 C  
HETATM   17  H   UNL     1      -8.828  11.668  67.301  1.00  0.00     0.000 HD 
HETATM   18  C   UNL     1     -10.726   9.408  69.781  1.00  0.00    -0.250 C  
HETATM   19  O   UNL     1      -8.154  10.066  68.609  1.00  0.00    -0.096 OA 
HETATM   20  O   UNL     1      -8.335  11.237  66.613  1.00  0.00    -0.154 OA 
HETATM   21  C   UNL     1      -8.121   9.932  67.144  1.00  0.00    -0.117 C  
HETATM   22  C   UNL     1     -12.146  10.016  69.964  1.00  0.00    -0.090 C  
HETATM   23  C   UNL     1     -10.313   8.707  71.067  1.00  0.00    -0.275 C  
ENDROOT
BRANCH  16  24
HETATM   24  N   UNL     1      -9.563  11.522  69.830  1.00  0.00     0.436 N  
HETATM   25  H   UNL     1      -8.694  12.044  69.716  1.00  0.00     0.000 HD 
HETATM   26  O   UNL     1     -11.450  11.488  71.133  1.00  0.00     0.615 OA 
HETATM   27  C   UNL     1     -10.438  12.052  70.753  1.00  0.00     4.151 C  
BRANCH  27  28
HETATM   28  C   UNL     1      -9.961  13.434  71.213  1.00  0.00     7.833 C  
HETATM   29  C   UNL     1      -8.452  13.355  71.555  1.00  0.00    11.404 C  
HETATM   30  N   UNL     1      -7.561  13.670  70.426  1.00  0.00     1.686 NA 
HETATM   31  C   UNL     1      -7.815  12.829  69.245  1.00  0.00     0.547 C  
HETATM   32  C   UNL     1      -7.662  15.130  70.128  1.00  0.00     0.344 C  
HETATM   33  C   UNL     1      -7.000  15.549  68.755  1.00  0.00    -0.118 C  
HETATM   34  C   UNL     1      -7.904  16.351  67.891  1.00  0.00    -0.161 A  
HETATM   35  C   UNL     1      -7.929  16.629  66.543  1.00  0.00    -0.307 A  
HETATM   36  N   UNL     1      -8.942  17.533  66.317  1.00  0.00    -0.435 NA 
HETATM   37  C   UNL     1      -9.589  17.835  67.495  1.00  0.00    -0.268 A  
HETATM   38  H   UNL     1      -9.182  17.923  65.405  1.00  0.00     0.000 HD 
HETATM   39  C   UNL     1     -10.663  18.668  67.825  1.00  0.00    -0.394 A  
HETATM   40  C   UNL     1     -11.064  18.688  69.175  1.00  0.00     1.791 A  
HETATM   41  C   UNL     1     -10.497  17.829  70.121  1.00  0.00     1.055 A  
HETATM   42  C   UNL     1      -9.501  16.933  69.730  1.00  0.00     0.630 A  
HETATM   43  C   UNL     1      -8.991  17.039  68.446  1.00  0.00    -0.247 A  
HETATM   44  C   UNL     1      -9.111  15.706  70.493  1.00  0.00     1.394 C  
HETATM   45  C   UNL     1     -10.200  14.613  70.254  1.00  0.00     0.459 C  
ENDBRANCH  27  28
ENDBRANCH  16  24
TORSDOF 2
ENDMDL
MODEL      132
REMARK 921   NORMALIZED FREE ENERGY PREDICTED BY IDOCK:   35.45 KCAL/MOL
REMARK 922        TOTAL FREE ENERGY PREDICTED BY IDOCK:   38.42 KCAL/MOL
REMARK 923 INTER-LIGAND FREE ENERGY PREDICTED BY IDOCK:   37.96 KCAL/MOL
REMARK 924 INTRA-LIGAND FREE ENERGY PREDICTED BY IDOCK:    0.46 KCAL/MOL
REMARK 927      BINDING AFFINITY PREDICTED BY RF-SCORE:    0.00 PKD
ROOT
HETATM    1  C   UNL     1     -10.015   8.401  71.297  1.00  0.00    -0.204 C  
HETATM    2  C   UNL     1     -11.141   7.391  71.564  1.00  0.00    -0.266 C  
HETATM    3  C   UNL     1     -10.473   6.325  72.494  1.00  0.00    -0.228 C  
HETATM    4  C   UNL     1      -8.993   6.683  72.558  1.00  0.00    -0.131 C  
HETATM    5  N   UNL     1      -8.804   7.639  71.485  1.00  0.00    -0.123 N  
HETATM    6  C   UNL     1      -7.598   8.296  71.458  1.00  0.00    -0.092 C  
HETATM    7  O   UNL     1      -6.554   7.708  71.727  1.00  0.00    -0.042 OA 
HETATM    8  C   UNL     1      -7.678   9.743  70.915  1.00  0.00     0.298 C  
HETATM    9  N   UNL     1      -9.053  10.445  71.304  1.00  0.00     2.897 N  
HETATM   10  C   UNL     1      -6.376  10.467  71.227  1.00  0.00     0.515 C  
HETATM   11  C   UNL     1      -6.239  10.688  72.722  1.00  0.00     2.274 C  
HETATM   12  C   UNL     1      -9.471  11.750  71.025  1.00  0.00     8.621 C  
HETATM   13  C   UNL     1      -5.183   9.930  70.416  1.00  0.00    -0.042 C  
HETATM   14  O   UNL     1      -9.876  12.532  71.885  1.00  0.00    12.450 OA 
HETATM   15  C   UNL     1      -5.149  11.689  73.026  1.00  0.00     0.491 C  
HETATM   16  C   UNL     1      -9.298  11.972  69.528  1.00  0.00     1.300 C  
HETATM   17  H   UNL     1     -11.352  11.055  70.056  1.00  0.00     0.000 HD 
HETATM   18  C   UNL     1      -7.962  12.860  69.717  1.00  0.00     1.713 C  
HETATM   19  O   UNL     1      -9.441  10.408  69.244  1.00  0.00    -0.201 OA 
HETATM   20  O   UNL     1     -11.360  10.237  70.538  1.00  0.00    -0.300 OA 
HETATM   21  C   UNL     1     -10.002   9.812  70.466  1.00  0.00    -0.193 C  
HETATM   22  C   UNL     1      -8.211  14.366  70.013  1.00  0.00     0.921 C  
HETATM   23  C   UNL     1      -6.814  12.728  68.726  1.00  0.00    -0.096 C  
ENDROOT
BRANCH  16  24
HETATM   24  N   UNL     1      -9.957  12.554  68.393  1.00  0.00    -0.258 N  
HETATM   25  H   UNL     1     -10.492  13.397  68.596  1.00  0.00     0.000 HD 
HETATM   26  O   UNL     1      -9.533  11.098  66.671  1.00  0.00    -0.177 OA 
HETATM   27  C   UNL     1      -9.983  12.158  67.073  1.00  0.00    -0.202 C  
BRANCH  27  28
HETATM   28  C   UNL     1     -10.642  13.234  66.203  1.00  0.00    -0.293 C  
HETATM   29  C   UNL     1     -12.163  13.251  66.495  1.00  0.00    -0.327 C  
HETATM   30  N   UNL     1     -12.562  14.186  67.560  1.00  0.00     0.158 NA 
HETATM   31  C   UNL     1     -11.848  13.949  68.826  1.00  0.00    -0.361 C  
HETATM   32  C   UNL     1     -12.399  15.584  67.058  1.00  0.00     1.173 C  
HETATM   33  C   UNL     1     -12.496  16.684  68.189  1.00  0.00     2.101 C  
HETATM   34  C   UNL     1     -11.354  17.634  68.178  1.00  0.00     0.518 A  
HETATM   35  C   UNL     1     -10.822  18.489  69.117  1.00  0.00     1.053 A  
HETATM   36  N   UNL     1      -9.828  19.220  68.507  1.00  0.00    -0.398 NA 
HETATM   37  C   UNL     1      -9.693  18.843  67.189  1.00  0.00    -0.303 A  
HETATM   38  H   UNL     1      -9.269  19.940  68.966  1.00  0.00     0.000 HD 
HETATM   39  C   UNL     1      -8.854  19.247  66.146  1.00  0.00    -0.260 A  
HETATM   40  C   UNL     1      -9.003  18.583  64.913  1.00  0.00     3.837 A  
HETATM   41  C   UNL     1      -9.863  17.492  64.767  1.00  0.00     2.969 A  
HETATM   42  C   UNL     1     -10.605  17.046  65.862  1.00  0.00    -0.221 A  
HETATM   43  C   UNL     1     -10.586  17.808  67.020  1.00  0.00    -0.266 A  
HETATM   44  C   UNL     1     -11.220  15.687  65.980  1.00  0.00    -0.045 C  
HETATM   45  C   UNL     1     -10.089  14.664  66.318  1.00  0.00    -0.307 C  
ENDBRANCH  27  28
ENDBRANCH  16  24
TORSDOF 2
ENDMDL
MODEL      133
REMARK 921   NORMALIZED FREE ENERGY PREDICTED BY IDOCK:   36.26 KCAL/MOL
REMARK 922        TOTAL FREE ENERGY PREDICTED BY IDOCK:   39.32 KCAL/MOL
REMARK 923 INTER-LIGAND FREE ENERGY PREDICTED BY IDOCK:   35.64 KCAL/MOL
REMARK 924 INTRA-LIGAND FREE ENERGY PREDICTED BY IDOCK:    3.68 KCAL/MOL
REMARK 927      BINDING AFFINITY PREDICTED BY RF-SCORE:    0.00 PKD
ROOT
HETATM    1  C   UNL     1      -9.423   9.613  64.674  1.00  0.00    -0.152 C  
HETATM    2  C   UNL     1      -9.019   9.738  63.197  1.00  0.00    -0.270 C  
HETATM    3  C   UNL     1      -9.722   8.518  62.515  1.00  0.00     2.510 C  
HETATM    4  C   UNL     1     -10.324   7.687  63.641  1.00  0.00     9.114 C  
HETATM    5  N   UNL     1      -9.708   8.209  64.846  1.00  0.00     1.465 N  
HETATM    6  C   UNL     1     -10.242   7.783  66.038  1.00  0.00     0.712 C  
HETATM    7  O   UNL     1     -10.606   6.619  66.186  1.00  0.00     0.222 OA 
HETATM    8  C   UNL     1     -10.180   8.836  67.171  1.00  0.00    -0.276 C  
HETATM    9  N   UNL     1     -10.349  10.316  66.611  1.00  0.00    -0.230 N  
HETATM   10  C   UNL     1     -11.068   8.386  68.322  1.00  0.00     0.327 C  
HETATM   11  C   UNL     1     -12.528   8.434  67.912  1.00  0.00     7.344 C  
HETATM   12  C   UNL     1     -10.383  11.517  67.327  1.00  0.00    -0.206 C  
HETATM   13  C   UNL     1     -10.516   7.151  69.057  1.00  0.00    -0.221 C  
HETATM   14  O   UNL     1     -11.286  12.346  67.221  1.00  0.00    -0.282 OA 
HETATM   15  C   UNL     1     -13.434   8.328  69.116  1.00  0.00     8.203 C  
HETATM   16  C   UNL     1      -9.149  11.547  68.221  1.00  0.00    -0.185 C  
HETATM   17  H   UNL     1      -8.740  12.411  66.117  1.00  0.00     0.000 HD 
HETATM   18  C   UNL     1      -9.988  11.185  69.552  1.00  0.00     0.166 C  
HETATM   19  O   UNL     1      -8.362  10.578  67.227  1.00  0.00    -0.121 OA 
HETATM   20  O   UNL     1      -8.918  11.853  65.368  1.00  0.00     0.031 OA 
HETATM   21  C   UNL     1      -9.116  10.574  65.964  1.00  0.00    -0.168 C  
HETATM   22  C   UNL     1     -10.654  12.399  70.260  1.00  0.00     2.024 C  
HETATM   23  C   UNL     1      -9.386  10.262  70.603  1.00  0.00     0.936 C  
ENDROOT
BRANCH  16  24
HETATM   24  N   UNL     1      -8.113  12.428  68.679  1.00  0.00    -0.310 N  
HETATM   25  H   UNL     1      -7.282  12.454  68.088  1.00  0.00     0.000 HD 
HETATM   26  O   UNL     1      -8.885  13.235  70.683  1.00  0.00     5.016 OA 
HETATM   27  C   UNL     1      -8.057  13.246  69.787  1.00  0.00     1.692 C  
BRANCH  27  28
HETATM   28  C   UNL     1      -6.829  14.160  69.719  1.00  0.00    -0.019 C  
HETATM   29  C   UNL     1      -6.126  13.952  68.354  1.00  0.00    -0.099 C  
HETATM   30  N   UNL     1      -6.586  14.865  67.295  1.00  0.00    -0.282 NA 
HETATM   31  C   UNL     1      -8.042  14.807  67.082  1.00  0.00    -0.197 C  
HETATM   32  C   UNL     1      -6.103  16.244  67.605  1.00  0.00    -0.149 C  
HETATM   33  C   UNL     1      -6.776  17.371  66.724  1.00  0.00    -0.248 C  
HETATM   34  C   UNL     1      -7.334  18.487  67.530  1.00  0.00    -0.223 A  
HETATM   35  C   UNL     1      -8.274  19.461  67.279  1.00  0.00    -0.281 A  
HETATM   36  N   UNL     1      -8.305  20.307  68.365  1.00  0.00     0.025 NA 
HETATM   37  C   UNL     1      -7.410  19.890  69.326  1.00  0.00    -0.156 A  
HETATM   38  H   UNL     1      -8.905  21.128  68.446  1.00  0.00     0.000 HD 
HETATM   39  C   UNL     1      -7.053  20.369  70.590  1.00  0.00     0.820 A  
HETATM   40  C   UNL     1      -6.090  19.629  71.304  1.00  0.00    -0.042 A  
HETATM   41  C   UNL     1      -5.601  18.410  70.827  1.00  0.00    -0.131 A  
HETATM   42  C   UNL     1      -6.064  17.909  69.610  1.00  0.00    -0.237 A  
HETATM   43  C   UNL     1      -6.875  18.721  68.833  1.00  0.00    -0.316 A  
HETATM   44  C   UNL     1      -5.967  16.478  69.184  1.00  0.00    -0.155 C  
HETATM   45  C   UNL     1      -7.061  15.663  69.945  1.00  0.00    -0.016 C  
ENDBRANCH  27  28
ENDBRANCH  16  24
TORSDOF 2
ENDMDL
MODEL      134
REMARK 921   NORMALIZED FREE ENERGY PREDICTED BY IDOCK:   37.64 KCAL/MOL
REMARK 922        TOTAL FREE ENERGY PREDICTED BY IDOCK:   40.86 KCAL/MOL
REMARK 923 INTER-LIGAND FREE ENERGY PREDICTED BY IDOCK:   36.75 KCAL/MOL
REMARK 924 INTRA-LIGAND FREE ENERGY PREDICTED BY IDOCK:    4.11 KCAL/MOL
REMARK 927      BINDING AFFINITY PREDICTED BY RF-SCORE:    0.00 PKD
ROOT
HETATM    1  C   UNL     1      -8.222  10.332  66.378  1.00  0.00    -0.129 C  
HETATM    2  C   UNL     1      -8.214  10.299  64.843  1.00  0.00    -0.157 C  
HETATM    3  C   UNL     1      -8.567  11.769  64.438  1.00  0.00     1.014 C  
HETATM    4  C   UNL     1      -8.921  12.495  65.730  1.00  0.00     0.358 C  
HETATM    5  N   UNL     1      -9.091  11.435  66.706  1.00  0.00    -0.171 N  
HETATM    6  C   UNL     1      -9.199  11.826  68.018  1.00  0.00    -0.181 C  
HETATM    7  O   UNL     1      -9.837  12.830  68.327  1.00  0.00    -0.221 OA 
HETATM    8  C   UNL     1      -8.601  10.819  69.030  1.00  0.00    -0.138 C  
HETATM    9  N   UNL     1      -7.326  10.074  68.436  1.00  0.00    -0.077 N  
HETATM   10  C   UNL     1      -8.488  11.486  70.393  1.00  0.00     3.804 C  
HETATM   11  C   UNL     1      -7.435  12.578  70.360  1.00  0.00     2.938 C  
HETATM   12  C   UNL     1      -6.504   9.130  69.060  1.00  0.00    -0.047 C  
HETATM   13  C   UNL     1      -9.857  11.757  71.043  1.00  0.00     7.353 C  
HETATM   14  O   UNL     1      -5.280   9.235  69.131  1.00  0.00    -0.036 OA 
HETATM   15  C   UNL     1      -7.062  13.015  71.757  1.00  0.00     5.925 C  
HETATM   16  C   UNL     1      -7.408   8.034  69.612  1.00  0.00    -0.085 C  
HETATM   17  H   UNL     1      -6.783   7.646  67.422  1.00  0.00     0.000 HD 
HETATM   18  C   UNL     1      -7.285   8.566  71.132  1.00  0.00    -0.076 C  
HETATM   19  O   UNL     1      -8.524   8.355  68.517  1.00  0.00    -0.129 OA 
HETATM   20  O   UNL     1      -6.985   8.316  66.779  1.00  0.00    -0.068 OA 
HETATM   21  C   UNL     1      -7.872   9.177  67.486  1.00  0.00    -0.100 C  
HETATM   22  C   UNL     1      -6.034   8.062  71.905  1.00  0.00    -0.037 C  
HETATM   23  C   UNL     1      -8.495   8.521  72.055  1.00  0.00    -0.231 C  
ENDROOT
BRANCH  16  24
HETATM   24  N   UNL     1      -7.500   6.608  69.739  1.00  0.00    -0.089 N  
HETATM   25  H   UNL     1      -7.475   6.262  70.697  1.00  0.00     0.000 HD 
HETATM   26  O   UNL     1      -7.509   5.836  67.578  1.00  0.00    -0.076 OA 
HETATM   27  C   UNL     1      -7.616   5.629  68.776  1.00  0.00    -0.088 C  
BRANCH  27  28
HETATM   28  C   UNL     1      -7.904   4.270  69.423  1.00  0.00    -0.057 C  
HETATM   29  C   UNL     1      -6.763   3.937  70.417  1.00  0.00    -0.033 C  
HETATM   30  N   UNL     1      -7.013   4.395  71.794  1.00  0.00    -0.038 NA 
HETATM   31  C   UNL     1      -7.294   5.837  71.875  1.00  0.00    -0.093 C  
HETATM   32  C   UNL     1      -8.099   3.559  72.389  1.00  0.00    -0.069 C  
HETATM   33  C   UNL     1      -8.677   4.134  73.743  1.00  0.00    -0.094 C  
HETATM   34  C   UNL     1     -10.159   4.243  73.746  1.00  0.00    -0.193 A  
HETATM   35  C   UNL     1     -11.055   4.972  74.495  1.00  0.00     0.931 A  
HETATM   36  N   UNL     1     -12.324   4.580  74.132  1.00  0.00     1.645 NA 
HETATM   37  C   UNL     1     -12.268   3.620  73.146  1.00  0.00     0.718 A  
HETATM   38  H   UNL     1     -13.185   4.950  74.535  1.00  0.00     0.000 HD 
HETATM   39  C   UNL     1     -13.235   2.904  72.434  1.00  0.00     4.199 A  
HETATM   40  C   UNL     1     -12.772   2.004  71.456  1.00  0.00     6.957 A  
HETATM   41  C   UNL     1     -11.417   1.913  71.126  1.00  0.00     3.732 A  
HETATM   42  C   UNL     1     -10.491   2.724  71.783  1.00  0.00     0.353 A  
HETATM   43  C   UNL     1     -10.928   3.478  72.861  1.00  0.00    -0.076 A  
HETATM   44  C   UNL     1      -9.122   3.043  71.271  1.00  0.00    -0.179 C  
HETATM   45  C   UNL     1      -9.258   4.105  70.134  1.00  0.00    -0.210 C  
ENDBRANCH  27  28
ENDBRANCH  16  24
TORSDOF 2
ENDMDL
MODEL      135
REMARK 921   NORMALIZED FREE ENERGY PREDICTED BY IDOCK:   39.29 KCAL/MOL
REMARK 922        TOTAL FREE ENERGY PREDICTED BY IDOCK:   42.70 KCAL/MOL
REMARK 923 INTER-LIGAND FREE ENERGY PREDICTED BY IDOCK:   38.21 KCAL/MOL
REMARK 924 INTRA-LIGAND FREE ENERGY PREDICTED BY IDOCK:    4.49 KCAL/MOL
REMARK 927      BINDING AFFINITY PREDICTED BY RF-SCORE:    0.00 PKD
ROOT
HETATM    1  C   UNL     1     -11.372   5.843  66.957  1.00  0.00     0.372 C  
HETATM    2  C   UNL     1     -12.847   5.431  66.843  1.00  0.00    11.178 C  
HETATM    3  C   UNL     1     -12.783   3.981  66.256  1.00  0.00    13.654 C  
HETATM    4  C   UNL     1     -11.321   3.724  65.911  1.00  0.00     3.223 C  
HETATM    5  N   UNL     1     -10.699   5.033  65.972  1.00  0.00    -0.265 N  
HETATM    6  C   UNL     1      -9.326   5.059  65.918  1.00  0.00    -0.159 C  
HETATM    7  O   UNL     1      -8.710   4.301  65.174  1.00  0.00    -0.119 OA 
HETATM    8  C   UNL     1      -8.683   6.208  66.732  1.00  0.00    -0.116 C  
HETATM    9  N   UNL     1      -9.518   6.539  68.046  1.00  0.00    -0.121 N  
HETATM   10  C   UNL     1      -7.189   5.953  66.863  1.00  0.00    -0.071 C  
HETATM   11  C   UNL     1      -6.934   4.745  67.746  1.00  0.00    -0.061 C  
HETATM   12  C   UNL     1      -9.235   7.481  69.040  1.00  0.00    -0.146 C  
HETATM   13  C   UNL     1      -6.437   6.101  65.528  1.00  0.00    -0.043 C  
HETATM   14  O   UNL     1      -9.181   7.208  70.239  1.00  0.00    -0.155 OA 
HETATM   15  C   UNL     1      -5.486   4.677  68.168  1.00  0.00    -0.016 C  
HETATM   16  C   UNL     1      -9.000   8.817  68.347  1.00  0.00    -0.141 C  
HETATM   17  H   UNL     1     -11.228   8.454  68.839  1.00  0.00     0.000 HD 
HETATM   18  C   UNL     1      -7.397   8.734  68.519  1.00  0.00    -0.085 C  
HETATM   19  O   UNL     1      -9.908   8.375  67.111  1.00  0.00    -0.177 OA 
HETATM   20  O   UNL     1     -11.635   7.668  68.492  1.00  0.00     0.751 OA 
HETATM   21  C   UNL     1     -10.672   7.198  67.554  1.00  0.00    -0.274 C  
HETATM   22  C   UNL     1      -6.856   9.235  69.888  1.00  0.00    -0.055 C  
HETATM   23  C   UNL     1      -6.484   9.233  67.407  1.00  0.00    -0.063 C  
ENDROOT
BRANCH  16  24
HETATM   24  N   UNL     1      -9.300  10.216  68.467  1.00  0.00    -0.147 N  
HETATM   25  H   UNL     1     -10.203  10.493  68.081  1.00  0.00     0.000 HD 
HETATM   26  O   UNL     1      -7.412  11.135  69.388  1.00  0.00    -0.106 OA 
HETATM   27  C   UNL     1      -8.569  11.245  69.018  1.00  0.00     0.025 C  
BRANCH  27  28
HETATM   28  C   UNL     1      -9.415  12.519  69.106  1.00  0.00     0.584 C  
HETATM   29  C   UNL     1      -9.311  13.091  70.542  1.00  0.00     6.148 C  
HETATM   30  N   UNL     1      -8.224  14.068  70.724  1.00  0.00     3.107 NA 
HETATM   31  C   UNL     1      -6.907  13.536  70.339  1.00  0.00     0.707 C  
HETATM   32  C   UNL     1      -8.578  15.322  69.993  1.00  0.00     0.372 C  
HETATM   33  C   UNL     1      -7.374  16.336  69.847  1.00  0.00     0.432 C  
HETATM   34  C   UNL     1      -7.162  16.793  68.449  1.00  0.00    -0.191 A  
HETATM   35  C   UNL     1      -6.094  17.354  67.787  1.00  0.00    -0.141 A  
HETATM   36  N   UNL     1      -6.511  17.684  66.517  1.00  0.00    -0.198 NA 
HETATM   37  C   UNL     1      -7.831  17.331  66.337  1.00  0.00    -0.310 A  
HETATM   38  H   UNL     1      -5.926  18.126  65.808  1.00  0.00     0.000 HD 
HETATM   39  C   UNL     1      -8.724  17.432  65.266  1.00  0.00     1.930 A  
HETATM   40  C   UNL     1     -10.020  16.917  65.464  1.00  0.00    -0.011 A  
HETATM   41  C   UNL     1     -10.365  16.230  66.631  1.00  0.00    -0.302 A  
HETATM   42  C   UNL     1      -9.412  16.053  67.636  1.00  0.00    -0.216 A  
HETATM   43  C   UNL     1      -8.198  16.710  67.510  1.00  0.00    -0.180 A  
HETATM   44  C   UNL     1      -9.490  15.018  68.713  1.00  0.00    -0.210 C  
HETATM   45  C   UNL     1      -9.107  13.636  68.094  1.00  0.00    -0.195 C  
ENDBRANCH  27  28
ENDBRANCH  16  24
TORSDOF 2
ENDMDL
MODEL      136
REMARK 921   NORMALIZED FREE ENERGY PREDICTED BY IDOCK:   41.59 KCAL/MOL
REMARK 922        TOTAL FREE ENERGY PREDICTED BY IDOCK:   45.27 KCAL/MOL
REMARK 923 INTER-LIGAND FREE ENERGY PREDICTED BY IDOCK:   44.33 KCAL/MOL
REMARK 924 INTRA-LIGAND FREE ENERGY PREDICTED BY IDOCK:    0.94 KCAL/MOL
REMARK 927      BINDING AFFINITY PREDICTED BY RF-SCORE:    0.00 PKD
ROOT
HETATM    1  C   UNL     1      -7.944   7.871  72.554  1.00  0.00    -0.120 C  
HETATM    2  C   UNL     1      -6.483   7.806  73.023  1.00  0.00    -0.067 C  
HETATM    3  C   UNL     1      -6.337   9.053  73.958  1.00  0.00     0.051 C  
HETATM    4  C   UNL     1      -7.638   9.836  73.831  1.00  0.00     2.999 C  
HETATM    5  N   UNL     1      -8.293   9.266  72.670  1.00  0.00     1.060 N  
HETATM    6  C   UNL     1      -9.598   9.642  72.459  1.00  0.00     3.189 C  
HETATM    7  O   UNL     1      -9.960  10.798  72.658  1.00  0.00     8.537 OA 
HETATM    8  C   UNL     1     -10.476   8.544  71.812  1.00  0.00    -0.300 C  
HETATM    9  N   UNL     1     -10.047   7.087  72.290  1.00  0.00    -0.176 N  
HETATM   10  C   UNL     1     -11.940   8.945  71.920  1.00  0.00    -0.441 C  
HETATM   11  C   UNL     1     -12.391   8.912  73.369  1.00  0.00     2.105 C  
HETATM   12  C   UNL     1     -10.623   5.858  71.954  1.00  0.00    -0.231 C  
HETATM   13  C   UNL     1     -12.297  10.150  71.030  1.00  0.00    -0.474 C  
HETATM   14  O   UNL     1     -10.998   5.033  72.786  1.00  0.00    -0.234 OA 
HETATM   15  C   UNL     1     -13.897   8.968  73.470  1.00  0.00     1.718 C  
HETATM   16  C   UNL     1     -10.698   5.793  70.433  1.00  0.00    -0.302 C  
HETATM   17  H   UNL     1      -8.683   5.017  71.254  1.00  0.00     0.000 HD 
HETATM   18  C   UNL     1     -12.284   6.099  70.403  1.00  0.00     0.613 C  
HETATM   19  O   UNL     1      -9.471   6.803  70.294  1.00  0.00    -0.162 OA 
HETATM   20  O   UNL     1      -8.172   5.605  71.799  1.00  0.00    -0.116 OA 
HETATM   21  C   UNL     1      -8.824   6.858  71.615  1.00  0.00    -0.128 C  
HETATM   22  C   UNL     1     -13.197   4.857  70.602  1.00  0.00    10.958 C  
HETATM   23  C   UNL     1     -12.868   6.980  69.307  1.00  0.00     3.949 C  
ENDROOT
BRANCH  16  24
HETATM   24  N   UNL     1     -10.486   4.895  69.334  1.00  0.00    -0.074 N  
HETATM   25  H   UNL     1     -10.513   5.334  68.413  1.00  0.00     0.000 HD 
HETATM   26  O   UNL     1     -10.336   2.821  70.301  1.00  0.00     0.816 OA 
HETATM   27  C   UNL     1     -10.252   3.538  69.318  1.00  0.00     1.049 C  
BRANCH  27  28
HETATM   28  C   UNL     1      -9.868   3.075  67.908  1.00  0.00     0.294 C  
HETATM   29  C   UNL     1     -11.117   3.162  66.995  1.00  0.00     6.097 C  
HETATM   30  N   UNL     1     -11.259   4.448  66.292  1.00  0.00     1.325 NA 
HETATM   31  C   UNL     1     -11.270   5.602  67.206  1.00  0.00     0.523 C  
HETATM   32  C   UNL     1     -10.194   4.546  65.250  1.00  0.00    -0.163 C  
HETATM   33  C   UNL     1     -10.037   5.992  64.631  1.00  0.00     2.473 C  
HETATM   34  C   UNL     1      -8.637   6.488  64.651  1.00  0.00     0.201 A  
HETATM   35  C   UNL     1      -8.072   7.741  64.569  1.00  0.00    -0.108 A  
HETATM   36  N   UNL     1      -6.705   7.585  64.523  1.00  0.00    -0.046 NA 
HETATM   37  C   UNL     1      -6.370   6.251  64.590  1.00  0.00    -0.034 A  
HETATM   38  H   UNL     1      -6.034   8.350  64.450  1.00  0.00     0.000 HD 
HETATM   39  C   UNL     1      -5.157   5.554  64.589  1.00  0.00    -0.009 A  
HETATM   40  C   UNL     1      -5.225   4.153  64.706  1.00  0.00    -0.009 A  
HETATM   41  C   UNL     1      -6.437   3.494  64.934  1.00  0.00    -0.031 A  
HETATM   42  C   UNL     1      -7.616   4.234  65.039  1.00  0.00    -0.077 A  
HETATM   43  C   UNL     1      -7.567   5.589  64.750  1.00  0.00    -0.079 A  
HETATM   44  C   UNL     1      -8.876   3.744  65.679  1.00  0.00    -0.123 C  
HETATM   45  C   UNL     1      -8.694   3.798  67.229  1.00  0.00    -0.123 C  
ENDBRANCH  27  28
ENDBRANCH  16  24
TORSDOF 2
ENDMDL
MODEL      137
REMARK 921   NORMALIZED FREE ENERGY PREDICTED BY IDOCK:   43.92 KCAL/MOL
REMARK 922        TOTAL FREE ENERGY PREDICTED BY IDOCK:   47.87 KCAL/MOL
REMARK 923 INTER-LIGAND FREE ENERGY PREDICTED BY IDOCK:   48.40 KCAL/MOL
REMARK 924 INTRA-LIGAND FREE ENERGY PREDICTED BY IDOCK:   -0.52 KCAL/MOL
REMARK 927      BINDING AFFINITY PREDICTED BY RF-SCORE:    0.00 PKD
ROOT
HETATM    1  C   UNL     1      -9.562  15.189  71.657  1.00  0.00     3.339 C  
HETATM    2  C   UNL     1      -9.806  14.889  73.144  1.00  0.00     6.340 C  
HETATM    3  C   UNL     1     -10.039  16.302  73.775  1.00  0.00     9.379 C  
HETATM    4  C   UNL     1      -9.747  17.315  72.675  1.00  0.00    10.518 C  
HETATM    5  N   UNL     1      -9.074  16.547  71.644  1.00  0.00     7.114 N  
HETATM    6  C   UNL     1      -8.894  17.174  70.436  1.00  0.00     3.351 C  
HETATM    7  O   UNL     1      -8.591  18.363  70.381  1.00  0.00     2.487 OA 
HETATM    8  C   UNL     1      -8.946  16.223  69.215  1.00  0.00    -0.170 C  
HETATM    9  N   UNL     1      -9.973  15.029  69.441  1.00  0.00    -0.210 N  
HETATM   10  C   UNL     1      -9.056  17.049  67.942  1.00  0.00    -0.232 C  
HETATM   11  C   UNL     1     -10.406  17.739  67.875  1.00  0.00    -0.388 C  
HETATM   12  C   UNL     1     -10.317  14.000  68.558  1.00  0.00    -0.247 C  
HETATM   13  C   UNL     1      -7.772  17.838  67.627  1.00  0.00    -0.212 C  
HETATM   14  O   UNL     1     -11.477  13.733  68.244  1.00  0.00    -0.274 OA 
HETATM   15  C   UNL     1     -10.673  18.275  66.488  1.00  0.00    -0.199 C  
HETATM   16  C   UNL     1      -9.020  13.352  68.089  1.00  0.00    -0.188 C  
HETATM   17  H   UNL     1      -9.823  12.414  70.042  1.00  0.00     0.000 HD 
HETATM   18  C   UNL     1      -9.068  14.075  66.646  1.00  0.00    -0.221 C  
HETATM   19  O   UNL     1      -8.270  13.806  69.423  1.00  0.00     0.355 OA 
HETATM   20  O   UNL     1      -9.965  12.991  70.784  1.00  0.00     4.749 OA 
HETATM   21  C   UNL     1      -9.318  14.194  70.380  1.00  0.00     2.556 C  
HETATM   22  C   UNL     1      -9.934  13.351  65.577  1.00  0.00    -0.226 C  
HETATM   23  C   UNL     1      -7.782  14.568  65.998  1.00  0.00     2.978 C  
ENDROOT
BRANCH  16  24
HETATM   24  N   UNL     1      -8.434  12.068  67.827  1.00  0.00    -0.148 N  
HETATM   25  H   UNL     1      -9.106  11.316  67.675  1.00  0.00     0.000 HD 
HETATM   26  O   UNL     1      -6.176  12.408  68.045  1.00  0.00    -0.066 OA 
HETATM   27  C   UNL     1      -7.113  11.687  67.745  1.00  0.00    -0.092 C  
BRANCH  27  28
HETATM   28  C   UNL     1      -6.999  10.251  67.221  1.00  0.00    -0.086 C  
HETATM   29  C   UNL     1      -5.538   9.768  67.401  1.00  0.00    -0.039 C  
HETATM   30  N   UNL     1      -5.283   9.083  68.679  1.00  0.00    -0.034 NA 
HETATM   31  C   UNL     1      -5.650   9.900  69.848  1.00  0.00    -0.038 C  
HETATM   32  C   UNL     1      -5.973   7.758  68.660  1.00  0.00    -0.035 C  
HETATM   33  C   UNL     1      -6.040   7.053  70.074  1.00  0.00    -0.024 C  
HETATM   34  C   UNL     1      -7.411   6.615  70.443  1.00  0.00    -0.090 A  
HETATM   35  C   UNL     1      -8.018   6.302  71.638  1.00  0.00    -0.102 A  
HETATM   36  N   UNL     1      -9.285   5.841  71.360  1.00  0.00    -0.143 NA 
HETATM   37  C   UNL     1      -9.519   5.865  70.003  1.00  0.00    -0.159 A  
HETATM   38  H   UNL     1      -9.957   5.527  72.060  1.00  0.00     0.000 HD 
HETATM   39  C   UNL     1     -10.611   5.520  69.201  1.00  0.00    -0.300 A  
HETATM   40  C   UNL     1     -10.474   5.719  67.814  1.00  0.00    -0.289 A  
HETATM   41  C   UNL     1      -9.347   6.342  67.271  1.00  0.00    -0.125 A  
HETATM   42  C   UNL     1      -8.322   6.773  68.115  1.00  0.00    -0.118 A  
HETATM   43  C   UNL     1      -8.384   6.419  69.454  1.00  0.00    -0.122 A  
HETATM   44  C   UNL     1      -7.292   7.795  67.752  1.00  0.00    -0.095 C  
HETATM   45  C   UNL     1      -7.954   9.207  67.823  1.00  0.00    -0.101 C  
ENDBRANCH  27  28
ENDBRANCH  16  24
TORSDOF 2
ENDMDL
MODEL      138
REMARK 921   NORMALIZED FREE ENERGY PREDICTED BY IDOCK:   47.16 KCAL/MOL
REMARK 922        TOTAL FREE ENERGY PREDICTED BY IDOCK:   51.49 KCAL/MOL
REMARK 923 INTER-LIGAND FREE ENERGY PREDICTED BY IDOCK:   50.91 KCAL/MOL
REMARK 924 INTRA-LIGAND FREE ENERGY PREDICTED BY IDOCK:    0.58 KCAL/MOL
REMARK 927      BINDING AFFINITY PREDICTED BY RF-SCORE:    0.00 PKD
ROOT
HETATM    1  C   UNL     1     -11.136  10.291  67.403  1.00  0.00    -0.189 C  
HETATM    2  C   UNL     1     -12.212  10.336  68.498  1.00  0.00     1.061 C  
HETATM    3  C   UNL     1     -13.144   9.127  68.154  1.00  0.00    10.833 C  
HETATM    4  C   UNL     1     -12.661   8.583  66.815  1.00  0.00    11.816 C  
HETATM    5  N   UNL     1     -11.777   9.612  66.303  1.00  0.00     2.962 N  
HETATM    6  C   UNL     1     -11.025   9.279  65.202  1.00  0.00     3.924 C  
HETATM    7  O   UNL     1     -11.502   8.602  64.295  1.00  0.00    11.126 OA 
HETATM    8  C   UNL     1      -9.636   9.960  65.155  1.00  0.00    -0.300 C  
HETATM    9  N   UNL     1      -9.024  10.153  66.612  1.00  0.00    -0.139 N  
HETATM   10  C   UNL     1      -8.784   9.285  64.090  1.00  0.00    -0.201 C  
HETATM   11  C   UNL     1      -8.439   7.869  64.509  1.00  0.00     0.064 C  
HETATM   12  C   UNL     1      -7.784  10.693  66.968  1.00  0.00    -0.117 C  
HETATM   13  C   UNL     1      -9.281   9.565  62.660  1.00  0.00    -0.119 C  
HETATM   14  O   UNL     1      -6.974  10.115  67.693  1.00  0.00    -0.083 OA 
HETATM   15  C   UNL     1      -7.330   7.304  63.653  1.00  0.00    -0.086 C  
HETATM   16  C   UNL     1      -7.664  12.048  66.282  1.00  0.00     0.427 C  
HETATM   17  H   UNL     1      -8.706  12.186  68.340  1.00  0.00     0.000 HD 
HETATM   18  C   UNL     1      -6.656  11.492  65.149  1.00  0.00     1.629 C  
HETATM   19  O   UNL     1      -9.252  12.203  66.234  1.00  0.00    -0.220 OA 
HETATM   20  O   UNL     1      -9.483  11.657  68.478  1.00  0.00    -0.195 OA 
HETATM   21  C   UNL     1      -9.797  11.203  67.165  1.00  0.00    -0.187 C  
HETATM   22  C   UNL     1      -5.158  11.457  65.563  1.00  0.00     0.290 C  
HETATM   23  C   UNL     1      -6.768  11.997  63.717  1.00  0.00     5.016 C  
ENDROOT
BRANCH  16  24
HETATM   24  N   UNL     1      -7.229  13.395  66.519  1.00  0.00     0.826 N  
HETATM   25  H   UNL     1      -6.218  13.525  66.502  1.00  0.00     0.000 HD 
HETATM   26  O   UNL     1      -9.156  14.554  66.971  1.00  0.00    -0.216 OA 
HETATM   27  C   UNL     1      -7.954  14.540  66.764  1.00  0.00     0.260 C  
BRANCH  27  28
HETATM   28  C   UNL     1      -7.042  15.772  66.729  1.00  0.00     0.075 C  
HETATM   29  C   UNL     1      -7.396  16.619  65.480  1.00  0.00     2.003 C  
HETATM   30  N   UNL     1      -8.412  17.656  65.725  1.00  0.00    -0.473 NA 
HETATM   31  C   UNL     1      -9.660  17.112  66.286  1.00  0.00    -0.252 C  
HETATM   32  C   UNL     1      -7.812  18.726  66.577  1.00  0.00    -0.269 C  
HETATM   33  C   UNL     1      -8.871  19.740  67.168  1.00  0.00    -0.392 C  
HETATM   34  C   UNL     1      -8.750  19.920  68.638  1.00  0.00    -0.137 A  
HETATM   35  C   UNL     1      -9.606  20.382  69.612  1.00  0.00     0.732 A  
HETATM   36  N   UNL     1      -8.908  20.438  70.797  1.00  0.00     1.504 NA 
HETATM   37  C   UNL     1      -7.614  20.004  70.613  1.00  0.00     1.087 A  
HETATM   38  H   UNL     1      -9.294  20.756  71.686  1.00  0.00     0.000 HD 
HETATM   39  C   UNL     1      -6.512  19.855  71.461  1.00  0.00     0.149 A  
HETATM   40  C   UNL     1      -5.333  19.337  70.892  1.00  0.00    -0.253 A  
HETATM   41  C   UNL     1      -5.296  18.880  69.571  1.00  0.00    -0.206 A  
HETATM   42  C   UNL     1      -6.448  18.944  68.786  1.00  0.00    -0.274 A  
HETATM   43  C   UNL     1      -7.551  19.612  69.295  1.00  0.00    -0.210 A  
HETATM   44  C   UNL     1      -6.681  18.139  67.547  1.00  0.00    -0.198 C  
HETATM   45  C   UNL     1      -7.040  16.679  67.970  1.00  0.00    -0.156 C  
ENDBRANCH  27  28
ENDBRANCH  16  24
TORSDOF 2
ENDMDL
MODEL      139
REMARK 921   NORMALIZED FREE ENERGY PREDICTED BY IDOCK:   47.71 KCAL/MOL
REMARK 922        TOTAL FREE ENERGY PREDICTED BY IDOCK:   52.11 KCAL/MOL
REMARK 923 INTER-LIGAND FREE ENERGY PREDICTED BY IDOCK:   48.52 KCAL/MOL
REMARK 924 INTRA-LIGAND FREE ENERGY PREDICTED BY IDOCK:    3.59 KCAL/MOL
REMARK 927      BINDING AFFINITY PREDICTED BY RF-SCORE:    0.00 PKD
ROOT
HETATM    1  C   UNL     1      -8.686  15.418  65.827  1.00  0.00     0.566 C  
HETATM    2  C   UNL     1      -7.477  15.705  64.923  1.00  0.00     9.445 C  
HETATM    3  C   UNL     1      -7.969  16.872  64.003  1.00  0.00    12.763 C  
HETATM    4  C   UNL     1      -9.451  17.059  64.306  1.00  0.00     6.490 C  
HETATM    5  N   UNL     1      -9.819  15.875  65.060  1.00  0.00     0.172 N  
HETATM    6  C   UNL     1     -11.058  15.890  65.653  1.00  0.00    -0.108 C  
HETATM    7  O   UNL     1     -12.027  16.377  65.077  1.00  0.00     0.458 OA 
HETATM    8  C   UNL     1     -11.128  15.113  66.990  1.00  0.00    -0.328 C  
HETATM    9  N   UNL     1      -9.763  15.210  67.802  1.00  0.00    -0.211 N  
HETATM   10  C   UNL     1     -12.427  15.460  67.703  1.00  0.00     1.067 C  
HETATM   11  C   UNL     1     -12.405  16.904  68.167  1.00  0.00     2.112 C  
HETATM   12  C   UNL     1      -9.459  14.673  69.057  1.00  0.00    -0.127 C  
HETATM   13  C   UNL     1     -13.671  14.901  66.988  1.00  0.00     6.080 C  
HETATM   14  O   UNL     1      -9.006  15.337  69.989  1.00  0.00    -0.035 OA 
HETATM   15  C   UNL     1     -13.511  17.173  69.160  1.00  0.00     8.220 C  
HETATM   16  C   UNL     1      -9.815  13.192  69.015  1.00  0.00     0.276 C  
HETATM   17  H   UNL     1      -7.662  13.606  68.285  1.00  0.00     0.000 HD 
HETATM   18  C   UNL     1     -11.171  13.397  69.867  1.00  0.00     0.032 C  
HETATM   19  O   UNL     1      -9.612  13.151  67.433  1.00  0.00    -0.208 OA 
HETATM   20  O   UNL     1      -7.550  14.210  67.561  1.00  0.00    -0.166 OA 
HETATM   21  C   UNL     1      -8.879  14.376  67.075  1.00  0.00    -0.237 C  
HETATM   22  C   UNL     1     -10.982  13.411  71.411  1.00  0.00     3.723 C  
HETATM   23  C   UNL     1     -12.416  12.589  69.523  1.00  0.00     0.192 C  
ENDROOT
BRANCH  16  24
HETATM   24  N   UNL     1      -9.327  11.905  69.423  1.00  0.00     0.093 N  
HETATM   25  H   UNL     1      -8.347  11.732  69.203  1.00  0.00     0.000 HD 
HETATM   26  O   UNL     1     -11.169  10.830  70.267  1.00  0.00    -0.298 OA 
HETATM   27  C   UNL     1      -9.967  10.867  70.063  1.00  0.00     0.643 C  
BRANCH  27  28
HETATM   28  C   UNL     1      -8.960   9.790  70.481  1.00  0.00    -0.052 C  
HETATM   29  C   UNL     1      -9.586   8.928  71.606  1.00  0.00    -0.293 C  
HETATM   30  N   UNL     1     -10.314   7.743  71.123  1.00  0.00    -0.200 NA 
HETATM   31  C   UNL     1     -11.368   8.076  70.151  1.00  0.00    -0.078 C  
HETATM   32  C   UNL     1      -9.326   6.758  70.589  1.00  0.00    -0.162 C  
HETATM   33  C   UNL     1      -9.981   5.580  69.764  1.00  0.00    -0.279 C  
HETATM   34  C   UNL     1      -9.358   5.385  68.429  1.00  0.00    -0.138 A  
HETATM   35  C   UNL     1      -9.774   4.774  67.268  1.00  0.00    -0.182 A  
HETATM   36  N   UNL     1      -8.723   4.798  66.379  1.00  0.00    -0.112 NA 
HETATM   37  C   UNL     1      -7.633   5.429  66.938  1.00  0.00    -0.089 A  
HETATM   38  H   UNL     1      -8.747   4.404  65.438  1.00  0.00     0.000 HD 
HETATM   39  C   UNL     1      -6.345   5.723  66.483  1.00  0.00    -0.038 A  
HETATM   40  C   UNL     1      -5.502   6.429  67.363  1.00  0.00    -0.005 A  
HETATM   41  C   UNL     1      -5.966   6.918  68.588  1.00  0.00    -0.026 A  
HETATM   42  C   UNL     1      -7.292   6.698  68.961  1.00  0.00    -0.094 A  
HETATM   43  C   UNL     1      -8.064   5.857  68.174  1.00  0.00    -0.109 A  
HETATM   44  C   UNL     1      -8.029   7.487  69.997  1.00  0.00    -0.112 C  
HETATM   45  C   UNL     1      -8.423   8.865  69.376  1.00  0.00    -0.124 C  
ENDBRANCH  27  28
ENDBRANCH  16  24
TORSDOF 2
ENDMDL
MODEL      140
REMARK 921   NORMALIZED FREE ENERGY PREDICTED BY IDOCK:   48.35 KCAL/MOL
REMARK 922        TOTAL FREE ENERGY PREDICTED BY IDOCK:   52.83 KCAL/MOL
REMARK 923 INTER-LIGAND FREE ENERGY PREDICTED BY IDOCK:   52.33 KCAL/MOL
REMARK 924 INTRA-LIGAND FREE ENERGY PREDICTED BY IDOCK:    0.50 KCAL/MOL
REMARK 927      BINDING AFFINITY PREDICTED BY RF-SCORE:    0.00 PKD
ROOT
HETATM    1  C   UNL     1      -8.762  12.954  65.977  1.00  0.00     0.569 C  
HETATM    2  C   UNL     1      -7.734  12.804  64.846  1.00  0.00     5.876 C  
HETATM    3  C   UNL     1      -7.675  14.231  64.206  1.00  0.00    15.463 C  
HETATM    4  C   UNL     1      -8.774  15.046  64.877  1.00  0.00     4.106 C  
HETATM    5  N   UNL     1      -9.589  14.061  65.561  1.00  0.00    -0.087 N  
HETATM    6  C   UNL     1     -10.531  14.548  66.435  1.00  0.00    -0.295 C  
HETATM    7  O   UNL     1     -11.176  15.558  66.167  1.00  0.00    -0.245 OA 
HETATM    8  C   UNL     1     -10.796  13.633  67.654  1.00  0.00    -0.256 C  
HETATM    9  N   UNL     1      -9.478  12.871  68.118  1.00  0.00    -0.216 N  
HETATM   10  C   UNL     1     -11.597  14.404  68.694  1.00  0.00    -0.347 C  
HETATM   11  C   UNL     1     -10.752  15.512  69.295  1.00  0.00    -0.245 C  
HETATM   12  C   UNL     1      -9.315  11.995  69.196  1.00  0.00     0.494 C  
HETATM   13  C   UNL     1     -13.040  14.695  68.243  1.00  0.00     2.442 C  
HETATM   14  O   UNL     1      -8.448  12.131  70.058  1.00  0.00     2.153 OA 
HETATM   15  C   UNL     1     -11.391  16.062  70.549  1.00  0.00    -0.420 C  
HETATM   16  C   UNL     1     -10.395  10.926  69.079  1.00  0.00    -0.211 C  
HETATM   17  H   UNL     1      -8.483  10.385  67.900  1.00  0.00     0.000 HD 
HETATM   18  C   UNL     1     -11.298  11.574  70.250  1.00  0.00    -0.045 C  
HETATM   19  O   UNL     1     -10.484  11.139  67.499  1.00  0.00    -0.188 OA 
HETATM   20  O   UNL     1      -8.181  11.000  67.241  1.00  0.00    -0.120 OA 
HETATM   21  C   UNL     1      -9.282  11.894  67.112  1.00  0.00    -0.183 C  
HETATM   22  C   UNL     1     -10.900  11.157  71.694  1.00  0.00     4.325 C  
HETATM   23  C   UNL     1     -12.816  11.575  70.130  1.00  0.00     0.107 C  
ENDROOT
BRANCH  16  24
HETATM   24  N   UNL     1     -10.598   9.512  69.212  1.00  0.00    -0.216 N  
HETATM   25  H   UNL     1     -11.016   9.222  70.096  1.00  0.00     0.000 HD 
HETATM   26  O   UNL     1      -9.687   8.615  67.307  1.00  0.00    -0.162 OA 
HETATM   27  C   UNL     1     -10.321   8.481  68.340  1.00  0.00    -0.202 C  
BRANCH  27  28
HETATM   28  C   UNL     1     -10.928   7.169  68.849  1.00  0.00    -0.109 C  
HETATM   29  C   UNL     1     -12.274   6.925  68.122  1.00  0.00     3.366 C  
HETATM   30  N   UNL     1     -12.156   6.132  66.887  1.00  0.00     2.260 NA 
HETATM   31  C   UNL     1     -11.205   6.711  65.924  1.00  0.00     2.581 C  
HETATM   32  C   UNL     1     -11.823   4.722  67.252  1.00  0.00     6.245 C  
HETATM   33  C   UNL     1     -11.368   3.836  66.025  1.00  0.00     3.473 C  
HETATM   34  C   UNL     1     -10.087   3.122  66.263  1.00  0.00     0.805 A  
HETATM   35  C   UNL     1      -9.148   2.554  65.431  1.00  0.00    -0.123 A  
HETATM   36  N   UNL     1      -8.213   1.923  66.221  1.00  0.00    -0.081 NA 
HETATM   37  C   UNL     1      -8.520   2.084  67.553  1.00  0.00    -0.080 A  
HETATM   38  H   UNL     1      -7.406   1.407  65.868  1.00  0.00     0.000 HD 
HETATM   39  C   UNL     1      -7.919   1.665  68.744  1.00  0.00    -0.057 A  
HETATM   40  C   UNL     1      -8.533   2.067  69.946  1.00  0.00    -0.085 A  
HETATM   41  C   UNL     1      -9.623   2.942  69.955  1.00  0.00    -0.121 A  
HETATM   42  C   UNL     1     -10.129   3.427  68.749  1.00  0.00     0.673 A  
HETATM   43  C   UNL     1      -9.634   2.894  67.568  1.00  0.00    -0.032 A  
HETATM   44  C   UNL     1     -10.979   4.650  68.611  1.00  0.00     1.736 C  
HETATM   45  C   UNL     1     -10.059   5.905  68.739  1.00  0.00    -0.220 C  
ENDBRANCH  27  28
ENDBRANCH  16  24
TORSDOF 2
ENDMDL
MODEL      141
REMARK 921   NORMALIZED FREE ENERGY PREDICTED BY IDOCK:   50.87 KCAL/MOL
REMARK 922        TOTAL FREE ENERGY PREDICTED BY IDOCK:   55.64 KCAL/MOL
REMARK 923 INTER-LIGAND FREE ENERGY PREDICTED BY IDOCK:   50.71 KCAL/MOL
REMARK 924 INTRA-LIGAND FREE ENERGY PREDICTED BY IDOCK:    4.93 KCAL/MOL
REMARK 927      BINDING AFFINITY PREDICTED BY RF-SCORE:    0.00 PKD
ROOT
HETATM    1  C   UNL     1      -7.857   9.224  66.032  1.00  0.00    -0.102 C  
HETATM    2  C   UNL     1      -6.553   9.028  65.244  1.00  0.00    -0.068 C  
HETATM    3  C   UNL     1      -6.587   7.516  64.840  1.00  0.00    -0.047 C  
HETATM    4  C   UNL     1      -7.790   6.910  65.553  1.00  0.00    -0.112 C  
HETATM    5  N   UNL     1      -8.170   7.908  66.534  1.00  0.00    -0.110 N  
HETATM    6  C   UNL     1      -9.371   7.710  67.171  1.00  0.00    -0.146 C  
HETATM    7  O   UNL     1      -9.726   6.585  67.512  1.00  0.00    -0.119 OA 
HETATM    8  C   UNL     1     -10.111   9.017  67.545  1.00  0.00    -0.228 C  
HETATM    9  N   UNL     1      -9.865  10.164  66.469  1.00  0.00    -0.202 N  
HETATM   10  C   UNL     1     -11.542   8.685  67.943  1.00  0.00     1.752 C  
HETATM   11  C   UNL     1     -12.326   8.201  66.738  1.00  0.00     8.598 C  
HETATM   12  C   UNL     1     -10.391  11.459  66.445  1.00  0.00    -0.242 C  
HETATM   13  C   UNL     1     -11.631   7.922  69.277  1.00  0.00     0.756 C  
HETATM   14  O   UNL     1     -10.985  11.934  65.477  1.00  0.00    -0.284 OA 
HETATM   15  C   UNL     1     -13.810   8.195  67.023  1.00  0.00    24.645 C  
HETATM   16  C   UNL     1     -10.104  12.091  67.801  1.00  0.00    -0.193 C  
HETATM   17  H   UNL     1      -8.373  12.392  66.300  1.00  0.00     0.000 HD 
HETATM   18  C   UNL     1     -11.623  11.907  68.316  1.00  0.00    -0.390 C  
HETATM   19  O   UNL     1      -8.840  11.140  68.016  1.00  0.00    -0.132 OA 
HETATM   20  O   UNL     1      -7.985  11.616  65.912  1.00  0.00     0.150 OA 
HETATM   21  C   UNL     1      -8.525  10.561  66.701  1.00  0.00    -0.129 C  
HETATM   22  C   UNL     1     -12.604  13.034  67.886  1.00  0.00     0.813 C  
HETATM   23  C   UNL     1     -11.895  11.533  69.767  1.00  0.00    -0.429 C  
ENDROOT
BRANCH  16  24
HETATM   24  N   UNL     1      -9.670  13.321  68.400  1.00  0.00    -0.286 N  
HETATM   25  H   UNL     1      -8.811  13.707  68.009  1.00  0.00     0.000 HD 
HETATM   26  O   UNL     1     -11.160  13.690  70.104  1.00  0.00     0.083 OA 
HETATM   27  C   UNL     1     -10.225  14.067  69.418  1.00  0.00     0.199 C  
BRANCH  27  28
HETATM   28  C   UNL     1      -9.512  15.417  69.546  1.00  0.00    -0.250 C  
HETATM   29  C   UNL     1      -7.984  15.188  69.429  1.00  0.00    -0.205 C  
HETATM   30  N   UNL     1      -7.462  15.296  68.057  1.00  0.00    -0.112 NA 
HETATM   31  C   UNL     1      -8.141  14.391  67.114  1.00  0.00    -0.145 C  
HETATM   32  C   UNL     1      -7.523  16.726  67.630  1.00  0.00    -0.153 C  
HETATM   33  C   UNL     1      -7.285  16.942  66.083  1.00  0.00    -0.109 C  
HETATM   34  C   UNL     1      -8.339  17.768  65.439  1.00  0.00     1.366 A  
HETATM   35  C   UNL     1      -8.755  17.928  64.136  1.00  0.00    10.614 A  
HETATM   36  N   UNL     1      -9.706  18.923  64.117  1.00  0.00     6.536 NA 
HETATM   37  C   UNL     1      -9.927  19.402  65.390  1.00  0.00     0.609 A  
HETATM   38  H   UNL     1     -10.181  19.259  63.279  1.00  0.00     0.000 HD 
HETATM   39  C   UNL     1     -10.770  20.382  65.924  1.00  0.00     0.044 A  
HETATM   40  C   UNL     1     -10.730  20.567  67.319  1.00  0.00     0.354 A  
HETATM   41  C   UNL     1      -9.975  19.733  68.148  1.00  0.00    -0.557 A  
HETATM   42  C   UNL     1      -9.231  18.694  67.588  1.00  0.00    -0.300 A  
HETATM   43  C   UNL     1      -9.136  18.626  66.207  1.00  0.00    -0.236 A  
HETATM   44  C   UNL     1      -8.732  17.500  68.340  1.00  0.00    -0.276 C  
HETATM   45  C   UNL     1      -9.932  16.528  68.570  1.00  0.00    -0.251 C  
ENDBRANCH  27  28
ENDBRANCH  16  24
TORSDOF 2
ENDMDL
MODEL      142
REMARK 921   NORMALIZED FREE ENERGY PREDICTED BY IDOCK:   53.59 KCAL/MOL
REMARK 922        TOTAL FREE ENERGY PREDICTED BY IDOCK:   58.68 KCAL/MOL
REMARK 923 INTER-LIGAND FREE ENERGY PREDICTED BY IDOCK:   54.38 KCAL/MOL
REMARK 924 INTRA-LIGAND FREE ENERGY PREDICTED BY IDOCK:    4.30 KCAL/MOL
REMARK 927      BINDING AFFINITY PREDICTED BY RF-SCORE:    0.00 PKD
ROOT
HETATM    1  C   UNL     1     -10.923  14.089  67.933  1.00  0.00    -0.247 C  
HETATM    2  C   UNL     1     -11.424  15.128  66.919  1.00  0.00    -0.215 C  
HETATM    3  C   UNL     1     -12.342  16.066  67.771  1.00  0.00     1.300 C  
HETATM    4  C   UNL     1     -12.452  15.420  69.147  1.00  0.00     0.076 C  
HETATM    5  N   UNL     1     -11.935  14.078  68.961  1.00  0.00    -0.350 N  
HETATM    6  C   UNL     1     -11.713  13.346  70.101  1.00  0.00    -0.196 C  
HETATM    7  O   UNL     1     -12.495  13.400  71.047  1.00  0.00    -0.362 OA 
HETATM    8  C   UNL     1     -10.521  12.364  70.001  1.00  0.00     1.592 C  
HETATM    9  N   UNL     1      -9.354  12.945  69.088  1.00  0.00     0.512 N  
HETATM   10  C   UNL     1     -10.174  11.854  71.392  1.00  0.00     8.578 C  
HETATM   11  C   UNL     1      -9.602  12.976  72.238  1.00  0.00    17.469 C  
HETATM   12  C   UNL     1      -8.114  12.369  68.793  1.00  0.00     0.074 C  
HETATM   13  C   UNL     1     -11.254  10.924  71.975  1.00  0.00     3.687 C  
HETATM   14  O   UNL     1      -7.039  12.947  68.958  1.00  0.00    -0.093 OA 
HETATM   15  C   UNL     1      -8.940  12.434  73.483  1.00  0.00    22.882 C  
HETATM   16  C   UNL     1      -8.379  10.958  68.284  1.00  0.00    -0.129 C  
HETATM   17  H   UNL     1      -8.438  12.534  66.596  1.00  0.00     0.000 HD 
HETATM   18  C   UNL     1      -7.927  10.269  69.672  1.00  0.00    -0.164 C  
HETATM   19  O   UNL     1      -9.838  11.372  67.789  1.00  0.00    -0.170 OA 
HETATM   20  O   UNL     1      -9.049  13.257  66.688  1.00  0.00    -0.234 OA 
HETATM   21  C   UNL     1      -9.871  12.843  67.774  1.00  0.00    -0.221 C  
HETATM   22  C   UNL     1      -6.397  10.036  69.823  1.00  0.00    -0.058 C  
HETATM   23  C   UNL     1      -8.673   9.049  70.195  1.00  0.00    -0.184 C  
ENDROOT
BRANCH  16  24
HETATM   24  N   UNL     1      -7.961  10.030  67.271  1.00  0.00    -0.106 N  
HETATM   25  H   UNL     1      -7.412   9.242  67.615  1.00  0.00     0.000 HD 
HETATM   26  O   UNL     1      -8.682  10.960  65.302  1.00  0.00    -0.189 OA 
HETATM   27  C   UNL     1      -8.181  10.029  65.911  1.00  0.00    -0.128 C  
BRANCH  27  28
HETATM   28  C   UNL     1      -7.722   8.704  65.293  1.00  0.00    -0.092 C  
HETATM   29  C   UNL     1      -6.235   8.470  65.661  1.00  0.00    -0.048 C  
HETATM   30  N   UNL     1      -6.035   7.703  66.901  1.00  0.00    -0.045 NA 
HETATM   31  C   UNL     1      -6.711   8.306  68.062  1.00  0.00    -0.065 C  
HETATM   32  C   UNL     1      -6.448   6.287  66.663  1.00  0.00    -0.046 C  
HETATM   33  C   UNL     1      -6.576   5.428  67.983  1.00  0.00    -0.049 C  
HETATM   34  C   UNL     1      -7.875   4.715  68.093  1.00  0.00    -0.081 A  
HETATM   35  C   UNL     1      -8.572   4.168  69.146  1.00  0.00    -0.082 A  
HETATM   36  N   UNL     1      -9.675   3.525  68.633  1.00  0.00    -0.063 NA 
HETATM   37  C   UNL     1      -9.717   3.658  67.263  1.00  0.00    -0.056 A  
HETATM   38  H   UNL     1     -10.366   3.020  69.190  1.00  0.00     0.000 HD 
HETATM   39  C   UNL     1     -10.599   3.216  66.273  1.00  0.00     2.424 A  
HETATM   40  C   UNL     1     -10.310   3.591  64.946  1.00  0.00     0.068 A  
HETATM   41  C   UNL     1      -9.259   4.460  64.643  1.00  0.00    -0.156 A  
HETATM   42  C   UNL     1      -8.465   4.968  65.671  1.00  0.00    -0.127 A  
HETATM   43  C   UNL     1      -8.644   4.462  66.949  1.00  0.00    -0.104 A  
HETATM   44  C   UNL     1      -7.609   6.191  65.564  1.00  0.00    -0.086 C  
HETATM   45  C   UNL     1      -8.533   7.447  65.646  1.00  0.00    -0.137 C  
ENDBRANCH  27  28
ENDBRANCH  16  24
TORSDOF 2
ENDMDL
MODEL      143
REMARK 921   NORMALIZED FREE ENERGY PREDICTED BY IDOCK:   54.67 KCAL/MOL
REMARK 922        TOTAL FREE ENERGY PREDICTED BY IDOCK:   59.89 KCAL/MOL
REMARK 923 INTER-LIGAND FREE ENERGY PREDICTED BY IDOCK:   60.30 KCAL/MOL
REMARK 924 INTRA-LIGAND FREE ENERGY PREDICTED BY IDOCK:   -0.42 KCAL/MOL
REMARK 927      BINDING AFFINITY PREDICTED BY RF-SCORE:    0.00 PKD
ROOT
HETATM    1  C   UNL     1     -11.574  18.743  70.033  1.00  0.00     6.115 C  
HETATM    2  C   UNL     1     -12.886  18.920  70.811  1.00  0.00    22.405 C  
HETATM    3  C   UNL     1     -12.968  20.464  71.054  1.00  0.00    19.308 C  
HETATM    4  C   UNL     1     -11.645  21.043  70.570  1.00  0.00     6.433 C  
HETATM    5  N   UNL     1     -10.782  19.890  70.406  1.00  0.00     1.328 N  
HETATM    6  C   UNL     1      -9.588  20.107  69.762  1.00  0.00     0.538 C  
HETATM    7  O   UNL     1      -8.939  21.130  69.967  1.00  0.00     2.817 OA 
HETATM    8  C   UNL     1      -9.093  18.905  68.923  1.00  0.00    -0.240 C  
HETATM    9  N   UNL     1     -10.304  18.096  68.280  1.00  0.00    -0.373 N  
HETATM   10  C   UNL     1      -7.957  19.360  68.018  1.00  0.00    -0.340 C  
HETATM   11  C   UNL     1      -8.477  20.308  66.954  1.00  0.00    -0.354 C  
HETATM   12  C   UNL     1     -10.252  16.981  67.437  1.00  0.00    -0.314 C  
HETATM   13  C   UNL     1      -6.674  19.706  68.796  1.00  0.00    -0.344 C  
HETATM   14  O   UNL     1     -10.825  16.925  66.349  1.00  0.00    -0.141 OA 
HETATM   15  C   UNL     1      -7.460  20.500  65.854  1.00  0.00    -0.067 C  
HETATM   16  C   UNL     1      -9.368  15.941  68.113  1.00  0.00    -0.198 C  
HETATM   17  H   UNL     1     -11.579  15.782  68.764  1.00  0.00     0.000 HD 
HETATM   18  C   UNL     1      -8.111  16.240  67.144  1.00  0.00    -0.219 C  
HETATM   19  O   UNL     1      -9.701  16.543  69.553  1.00  0.00    -0.179 OA 
HETATM   20  O   UNL     1     -11.985  16.553  69.142  1.00  0.00     0.017 OA 
HETATM   21  C   UNL     1     -10.875  17.413  69.380  1.00  0.00     0.281 C  
HETATM   22  C   UNL     1      -8.134  15.484  65.786  1.00  0.00     1.763 C  
HETATM   23  C   UNL     1      -6.696  16.219  67.705  1.00  0.00    -0.162 C  
ENDROOT
BRANCH  16  24
HETATM   24  N   UNL     1      -9.288  14.533  68.378  1.00  0.00    -0.202 N  
HETATM   25  H   UNL     1      -9.070  13.957  67.565  1.00  0.00     0.000 HD 
HETATM   26  O   UNL     1      -9.871  14.327  70.587  1.00  0.00     1.600 OA 
HETATM   27  C   UNL     1      -9.459  13.831  69.551  1.00  0.00     0.940 C  
BRANCH  27  28
HETATM   28  C   UNL     1      -9.050  12.366  69.366  1.00  0.00     1.209 C  
HETATM   29  C   UNL     1     -10.258  11.461  69.718  1.00  0.00     0.608 C  
HETATM   30  N   UNL     1     -11.119  11.133  68.569  1.00  0.00    -0.222 NA 
HETATM   31  C   UNL     1     -11.621  12.328  67.871  1.00  0.00    -0.354 C  
HETATM   32  C   UNL     1     -10.379  10.203  67.664  1.00  0.00    -0.219 C  
HETATM   33  C   UNL     1     -11.059  10.013  66.250  1.00  0.00     0.443 C  
HETATM   34  C   UNL     1     -10.121  10.227  65.118  1.00  0.00    -0.355 A  
HETATM   35  C   UNL     1     -10.295  10.515  63.783  1.00  0.00     0.038 A  
HETATM   36  N   UNL     1      -9.058  10.485  63.180  1.00  0.00    -0.227 NA 
HETATM   37  C   UNL     1      -8.079  10.196  64.105  1.00  0.00    -0.158 A  
HETATM   38  H   UNL     1      -8.889  10.653  62.188  1.00  0.00     0.000 HD 
HETATM   39  C   UNL     1      -6.689  10.053  64.034  1.00  0.00    -0.128 A  
HETATM   40  C   UNL     1      -6.013   9.778  65.238  1.00  0.00    -0.074 A  
HETATM   41  C   UNL     1      -6.679   9.765  66.466  1.00  0.00    -0.079 A  
HETATM   42  C   UNL     1      -8.050  10.021  66.511  1.00  0.00    -0.119 A  
HETATM   43  C   UNL     1      -8.738  10.118  65.311  1.00  0.00    -0.180 A  
HETATM   44  C   UNL     1      -8.798  10.449  67.734  1.00  0.00    -0.128 C  
HETATM   45  C   UNL     1      -8.499  11.960  67.989  1.00  0.00    -0.162 C  
ENDBRANCH  27  28
ENDBRANCH  16  24
TORSDOF 2
ENDMDL
MODEL      144
REMARK 921   NORMALIZED FREE ENERGY PREDICTED BY IDOCK:   56.93 KCAL/MOL
REMARK 922        TOTAL FREE ENERGY PREDICTED BY IDOCK:   62.41 KCAL/MOL
REMARK 923 INTER-LIGAND FREE ENERGY PREDICTED BY IDOCK:   63.23 KCAL/MOL
REMARK 924 INTRA-LIGAND FREE ENERGY PREDICTED BY IDOCK:   -0.82 KCAL/MOL
REMARK 927      BINDING AFFINITY PREDICTED BY RF-SCORE:    0.00 PKD
ROOT
HETATM    1  C   UNL     1      -9.411  16.134  69.072  1.00  0.00    -0.248 C  
HETATM    2  C   UNL     1      -9.999  17.047  67.986  1.00  0.00    -0.283 C  
HETATM    3  C   UNL     1      -9.924  18.475  68.621  1.00  0.00    -0.419 C  
HETATM    4  C   UNL     1      -9.474  18.279  70.063  1.00  0.00     1.472 C  
HETATM    5  N   UNL     1      -9.630  16.856  70.301  1.00  0.00     1.417 N  
HETATM    6  C   UNL     1      -9.083  16.368  71.463  1.00  0.00     6.837 C  
HETATM    7  O   UNL     1      -9.148  17.010  72.508  1.00  0.00    11.747 OA 
HETATM    8  C   UNL     1      -8.553  14.919  71.352  1.00  0.00     4.037 C  
HETATM    9  N   UNL     1      -7.960  14.616  69.906  1.00  0.00     0.219 N  
HETATM   10  C   UNL     1      -7.699  14.604  72.571  1.00  0.00     5.678 C  
HETATM   11  C   UNL     1      -6.420  15.421  72.545  1.00  0.00     2.458 C  
HETATM   12  C   UNL     1      -7.363  13.440  69.441  1.00  0.00     0.288 C  
HETATM   13  C   UNL     1      -8.521  14.503  73.869  1.00  0.00     9.622 C  
HETATM   14  O   UNL     1      -6.255  13.404  68.907  1.00  0.00    -0.080 OA 
HETATM   15  C   UNL     1      -5.415  14.887  73.538  1.00  0.00     0.259 C  
HETATM   16  C   UNL     1      -8.319  12.293  69.749  1.00  0.00     2.079 C  
HETATM   17  H   UNL     1      -8.757  13.288  67.710  1.00  0.00     0.000 HD 
HETATM   18  C   UNL     1      -7.446  11.775  71.004  1.00  0.00     5.150 C  
HETATM   19  O   UNL     1      -9.570  13.284  69.728  1.00  0.00     1.345 OA 
HETATM   20  O   UNL     1      -8.932  14.222  67.703  1.00  0.00    -0.178 OA 
HETATM   21  C   UNL     1      -9.109  14.524  69.083  1.00  0.00     0.029 C  
HETATM   22  C   UNL     1      -6.268  10.828  70.639  1.00  0.00    -0.030 C  
HETATM   23  C   UNL     1      -8.143  11.249  72.251  1.00  0.00    13.476 C  
ENDROOT
BRANCH  16  24
HETATM   24  N   UNL     1      -8.863  11.096  69.173  1.00  0.00    -0.384 N  
HETATM   25  H   UNL     1      -9.578  10.638  69.738  1.00  0.00     0.000 HD 
HETATM   26  O   UNL     1      -7.652  10.777  67.252  1.00  0.00    -0.097 OA 
HETATM   27  C   UNL     1      -8.577  10.465  67.982  1.00  0.00    -0.123 C  
BRANCH  27  28
HETATM   28  C   UNL     1      -9.585   9.342  67.713  1.00  0.00    -0.158 C  
HETATM   29  C   UNL     1      -9.179   8.607  66.411  1.00  0.00    -0.193 C  
HETATM   30  N   UNL     1      -8.288   7.454  66.623  1.00  0.00    -0.120 NA 
HETATM   31  C   UNL     1      -7.063   7.805  67.360  1.00  0.00    -0.086 C  
HETATM   32  C   UNL     1      -9.066   6.361  67.281  1.00  0.00    -0.117 C  
HETATM   33  C   UNL     1      -8.168   5.188  67.843  1.00  0.00    -0.098 C  
HETATM   34  C   UNL     1      -8.458   4.858  69.263  1.00  0.00    -0.092 A  
HETATM   35  C   UNL     1      -7.751   4.209  70.249  1.00  0.00    -0.048 A  
HETATM   36  N   UNL     1      -8.572   4.092  71.348  1.00  0.00    -0.094 NA 
HETATM   37  C   UNL     1      -9.797   4.670  71.098  1.00  0.00    -0.191 A  
HETATM   38  H   UNL     1      -8.310   3.641  72.225  1.00  0.00     0.000 HD 
HETATM   39  C   UNL     1     -10.964   4.833  71.851  1.00  0.00     0.096 A  
HETATM   40  C   UNL     1     -12.027   5.526  71.240  1.00  0.00     0.989 A  
HETATM   41  C   UNL     1     -11.885   6.127  69.986  1.00  0.00     0.128 A  
HETATM   42  C   UNL     1     -10.668   6.037  69.311  1.00  0.00    -0.401 A  
HETATM   43  C   UNL     1      -9.686   5.210  69.836  1.00  0.00    -0.269 A  
HETATM   44  C   UNL     1     -10.236   6.947  68.205  1.00  0.00    -0.203 C  
HETATM   45  C   UNL     1      -9.797   8.308  68.831  1.00  0.00    -0.183 C  
ENDBRANCH  27  28
ENDBRANCH  16  24
TORSDOF 2
ENDMDL
MODEL      145
REMARK 921   NORMALIZED FREE ENERGY PREDICTED BY IDOCK:   57.06 KCAL/MOL
REMARK 922        TOTAL FREE ENERGY PREDICTED BY IDOCK:   62.55 KCAL/MOL
REMARK 923 INTER-LIGAND FREE ENERGY PREDICTED BY IDOCK:   60.81 KCAL/MOL
REMARK 924 INTRA-LIGAND FREE ENERGY PREDICTED BY IDOCK:    1.74 KCAL/MOL
REMARK 927      BINDING AFFINITY PREDICTED BY RF-SCORE:    0.00 PKD
ROOT
HETATM    1  C   UNL     1      -8.755  14.858  65.585  1.00  0.00     1.251 C  
HETATM    2  C   UNL     1      -7.659  14.943  64.513  1.00  0.00    14.353 C  
HETATM    3  C   UNL     1      -7.985  16.272  63.753  1.00  0.00    17.151 C  
HETATM    4  C   UNL     1      -9.317  16.764  64.306  1.00  0.00     6.472 C  
HETATM    5  N   UNL     1      -9.845  15.632  65.042  1.00  0.00     0.002 N  
HETATM    6  C   UNL     1     -10.942  15.875  65.832  1.00  0.00    -0.151 C  
HETATM    7  O   UNL     1     -11.839  16.623  65.452  1.00  0.00     0.899 OA 
HETATM    8  C   UNL     1     -11.001  15.013  67.116  1.00  0.00    -0.329 C  
HETATM    9  N   UNL     1      -9.548  14.718  67.696  1.00  0.00    -0.207 N  
HETATM   10  C   UNL     1     -12.059  15.581  68.052  1.00  0.00     0.231 C  
HETATM   11  C   UNL     1     -11.620  16.932  68.586  1.00  0.00     0.381 C  
HETATM   12  C   UNL     1      -9.202  14.011  68.852  1.00  0.00     0.043 C  
HETATM   13  C   UNL     1     -13.491  15.391  67.522  1.00  0.00     5.313 C  
HETATM   14  O   UNL     1      -8.471  14.464  69.733  1.00  0.00     0.389 OA 
HETATM   15  C   UNL     1     -12.471  17.353  69.761  1.00  0.00     6.196 C  
HETATM   16  C   UNL     1      -9.907  12.662  68.787  1.00  0.00     0.029 C  
HETATM   17  H   UNL     1      -7.850  12.637  67.736  1.00  0.00     0.000 HD 
HETATM   18  C   UNL     1     -11.034  13.091  69.861  1.00  0.00     0.393 C  
HETATM   19  O   UNL     1      -9.955  12.724  67.193  1.00  0.00    -0.214 OA 
HETATM   20  O   UNL     1      -7.703  13.265  67.038  1.00  0.00    -0.059 OA 
HETATM   21  C   UNL     1      -9.008  13.775  66.788  1.00  0.00    -0.185 C  
HETATM   22  C   UNL     1     -10.622  12.918  71.351  1.00  0.00     6.650 C  
HETATM   23  C   UNL     1     -12.473  12.627  69.682  1.00  0.00     0.120 C  
ENDROOT
BRANCH  16  24
HETATM   24  N   UNL     1      -9.690  11.265  69.036  1.00  0.00    -0.391 N  
HETATM   25  H   UNL     1     -10.257  10.637  68.467  1.00  0.00     0.000 HD 
HETATM   26  O   UNL     1      -8.200  11.214  70.779  1.00  0.00     2.465 OA 
HETATM   27  C   UNL     1      -8.839  10.634  69.918  1.00  0.00     0.485 C  
BRANCH  27  28
HETATM   28  C   UNL     1      -8.811   9.125  69.651  1.00  0.00    -0.152 C  
HETATM   29  C   UNL     1     -10.256   8.639  69.377  1.00  0.00    -0.210 C  
HETATM   30  N   UNL     1     -10.638   8.657  67.955  1.00  0.00    -0.187 NA 
HETATM   31  C   UNL     1     -10.468   9.981  67.334  1.00  0.00    -0.260 C  
HETATM   32  C   UNL     1      -9.885   7.583  67.241  1.00  0.00    -0.179 C  
HETATM   33  C   UNL     1      -9.965   7.686  65.666  1.00  0.00     1.061 C  
HETATM   34  C   UNL     1      -8.633   7.642  65.009  1.00  0.00     0.045 A  
HETATM   35  C   UNL     1      -8.170   8.033  63.773  1.00  0.00    -0.037 A  
HETATM   36  N   UNL     1      -6.856   7.637  63.670  1.00  0.00    -0.057 NA 
HETATM   37  C   UNL     1      -6.450   7.008  64.826  1.00  0.00    -0.040 A  
HETATM   38  H   UNL     1      -6.265   7.789  62.852  1.00  0.00     0.000 HD 
HETATM   39  C   UNL     1      -5.247   6.433  65.246  1.00  0.00    -0.014 A  
HETATM   40  C   UNL     1      -5.214   5.900  66.549  1.00  0.00    -0.009 A  
HETATM   41  C   UNL     1      -6.292   6.043  67.427  1.00  0.00    -0.038 A  
HETATM   42  C   UNL     1      -7.437   6.721  67.008  1.00  0.00    -0.087 A  
HETATM   43  C   UNL     1      -7.531   7.088  65.675  1.00  0.00    -0.085 A  
HETATM   44  C   UNL     1      -8.464   7.307  67.925  1.00  0.00    -0.118 C  
HETATM   45  C   UNL     1      -7.889   8.630  68.524  1.00  0.00    -0.108 C  
ENDBRANCH  27  28
ENDBRANCH  16  24
TORSDOF 2
ENDMDL
MODEL      146
REMARK 921   NORMALIZED FREE ENERGY PREDICTED BY IDOCK:   65.41 KCAL/MOL
REMARK 922        TOTAL FREE ENERGY PREDICTED BY IDOCK:   71.88 KCAL/MOL
REMARK 923 INTER-LIGAND FREE ENERGY PREDICTED BY IDOCK:   70.87 KCAL/MOL
REMARK 924 INTRA-LIGAND FREE ENERGY PREDICTED BY IDOCK:    1.01 KCAL/MOL
REMARK 927      BINDING AFFINITY PREDICTED BY RF-SCORE:    0.00 PKD
ROOT
HETATM    1  C   UNL     1      -8.381   8.014  72.361  1.00  0.00    -0.153 C  
HETATM    2  C   UNL     1      -6.875   7.836  72.605  1.00  0.00    -0.077 C  
HETATM    3  C   UNL     1      -6.626   8.582  73.958  1.00  0.00    -0.141 C  
HETATM    4  C   UNL     1      -7.936   9.277  74.310  1.00  0.00     1.382 C  
HETATM    5  N   UNL     1      -8.719   9.212  73.091  1.00  0.00     1.152 N  
HETATM    6  C   UNL     1     -10.041   9.573  73.195  1.00  0.00     4.474 C  
HETATM    7  O   UNL     1     -10.382  10.519  73.900  1.00  0.00    12.258 OA 
HETATM    8  C   UNL     1     -10.984   8.803  72.240  1.00  0.00    -0.266 C  
HETATM    9  N   UNL     1     -10.497   7.304  72.011  1.00  0.00    -0.199 N  
HETATM   10  C   UNL     1     -12.427   9.045  72.659  1.00  0.00    -0.207 C  
HETATM   11  C   UNL     1     -12.706   8.384  73.996  1.00  0.00     5.736 C  
HETATM   12  C   UNL     1     -11.104   6.301  71.249  1.00  0.00    -0.289 C  
HETATM   13  C   UNL     1     -12.890  10.490  72.403  1.00  0.00     0.180 C  
HETATM   14  O   UNL     1     -11.377   5.184  71.689  1.00  0.00     0.082 OA 
HETATM   15  C   UNL     1     -14.191   8.313  74.267  1.00  0.00     5.532 C  
HETATM   16  C   UNL     1     -11.355   6.874  69.860  1.00  0.00    -0.271 C  
HETATM   17  H   UNL     1      -9.255   5.933  70.063  1.00  0.00     0.000 HD 
HETATM   18  C   UNL     1     -12.934   7.082  70.127  1.00  0.00     1.162 C  
HETATM   19  O   UNL     1     -10.155   7.913  70.034  1.00  0.00    -0.193 OA 
HETATM   20  O   UNL     1      -8.687   6.264  70.749  1.00  0.00    -0.134 OA 
HETATM   21  C   UNL     1      -9.360   7.443  71.179  1.00  0.00    -0.155 C  
HETATM   22  C   UNL     1     -13.813   5.824  69.876  1.00  0.00     9.939 C  
HETATM   23  C   UNL     1     -13.645   8.309  69.572  1.00  0.00     5.679 C  
ENDROOT
BRANCH  16  24
HETATM   24  N   UNL     1     -11.269   6.533  68.469  1.00  0.00    -0.555 N  
HETATM   25  H   UNL     1     -11.379   7.319  67.829  1.00  0.00     0.000 HD 
HETATM   26  O   UNL     1     -11.058   4.249  68.447  1.00  0.00     2.118 OA 
HETATM   27  C   UNL     1     -11.060   5.316  67.857  1.00  0.00     0.845 C  
BRANCH  27  28
HETATM   28  C   UNL     1     -10.826   5.503  66.354  1.00  0.00    -0.195 C  
HETATM   29  C   UNL     1     -12.000   6.323  65.763  1.00  0.00     4.396 C  
HETATM   30  N   UNL     1     -11.774   7.778  65.753  1.00  0.00     6.391 NA 
HETATM   31  C   UNL     1     -11.455   8.316  67.085  1.00  0.00     1.848 C  
HETATM   32  C   UNL     1     -10.726   8.094  64.736  1.00  0.00     7.429 C  
HETATM   33  C   UNL     1     -10.167   9.569  64.832  1.00  0.00     0.788 C  
HETATM   34  C   UNL     1      -8.683   9.629  64.885  1.00  0.00    -0.207 A  
HETATM   35  C   UNL     1      -7.787  10.584  65.308  1.00  0.00    -0.100 A  
HETATM   36  N   UNL     1      -6.520  10.135  65.009  1.00  0.00    -0.121 NA 
HETATM   37  C   UNL     1      -6.577   8.895  64.411  1.00  0.00    -0.071 A  
HETATM   38  H   UNL     1      -5.660  10.648  65.202  1.00  0.00     0.000 HD 
HETATM   39  C   UNL     1      -5.612   8.008  63.925  1.00  0.00    -0.053 A  
HETATM   40  C   UNL     1      -6.075   6.787  63.397  1.00  0.00    -0.042 A  
HETATM   41  C   UNL     1      -7.423   6.425  63.461  1.00  0.00    -0.081 A  
HETATM   42  C   UNL     1      -8.343   7.291  64.054  1.00  0.00     0.165 A  
HETATM   43  C   UNL     1      -7.913   8.559  64.413  1.00  0.00    -0.147 A  
HETATM   44  C   UNL     1      -9.690   6.885  64.565  1.00  0.00     2.942 C  
HETATM   45  C   UNL     1      -9.496   6.146  65.927  1.00  0.00     0.025 C  
ENDBRANCH  27  28
ENDBRANCH  16  24
TORSDOF 2
ENDMDL
MODEL      147
REMARK 921   NORMALIZED FREE ENERGY PREDICTED BY IDOCK:   67.59 KCAL/MOL
REMARK 922        TOTAL FREE ENERGY PREDICTED BY IDOCK:   74.31 KCAL/MOL
REMARK 923 INTER-LIGAND FREE ENERGY PREDICTED BY IDOCK:   69.35 KCAL/MOL
REMARK 924 INTRA-LIGAND FREE ENERGY PREDICTED BY IDOCK:    4.96 KCAL/MOL
REMARK 927      BINDING AFFINITY PREDICTED BY RF-SCORE:    0.00 PKD
ROOT
HETATM    1  C   UNL     1      -8.278   7.491  71.475  1.00  0.00    -0.103 C  
HETATM    2  C   UNL     1      -6.766   7.319  71.685  1.00  0.00    -0.051 C  
HETATM    3  C   UNL     1      -6.504   7.998  73.071  1.00  0.00    -0.084 C  
HETATM    4  C   UNL     1      -7.816   8.658  73.478  1.00  0.00     0.118 C  
HETATM    5  N   UNL     1      -8.618   8.646  72.269  1.00  0.00    -0.160 N  
HETATM    6  C   UNL     1      -9.942   8.985  72.412  1.00  0.00     0.250 C  
HETATM    7  O   UNL     1     -10.282   9.889  73.170  1.00  0.00     4.460 OA 
HETATM    8  C   UNL     1     -10.891   8.253  71.434  1.00  0.00    -0.239 C  
HETATM    9  N   UNL     1     -10.391   6.774  71.122  1.00  0.00    -0.204 N  
HETATM   10  C   UNL     1     -12.330   8.456  71.887  1.00  0.00    -0.395 C  
HETATM   11  C   UNL     1     -12.580   7.725  73.193  1.00  0.00     1.068 C  
HETATM   12  C   UNL     1     -10.999   5.804  70.319  1.00  0.00    -0.276 C  
HETATM   13  C   UNL     1     -12.813   9.907  71.713  1.00  0.00    -0.540 C  
HETATM   14  O   UNL     1     -11.252   4.663  70.705  1.00  0.00     0.929 OA 
HETATM   15  C   UNL     1     -14.059   7.622  73.483  1.00  0.00     2.788 C  
HETATM   16  C   UNL     1     -11.279   6.444  68.965  1.00  0.00    -0.331 C  
HETATM   17  H   UNL     1      -9.165   5.519  69.087  1.00  0.00     0.000 HD 
HETATM   18  C   UNL     1     -12.856   6.619  69.266  1.00  0.00     4.252 C  
HETATM   19  O   UNL     1     -10.088   7.487  69.173  1.00  0.00    -0.181 OA 
HETATM   20  O   UNL     1      -8.590   5.822  69.780  1.00  0.00    -0.123 OA 
HETATM   21  C   UNL     1      -9.269   6.969  70.280  1.00  0.00    -0.156 C  
HETATM   22  C   UNL     1     -13.725   5.365  68.965  1.00  0.00    18.701 C  
HETATM   23  C   UNL     1     -13.590   7.863  68.786  1.00  0.00    12.379 C  
ENDROOT
BRANCH  16  24
HETATM   24  N   UNL     1     -11.211   6.175  67.557  1.00  0.00    -0.533 N  
HETATM   25  H   UNL     1     -10.420   6.604  67.078  1.00  0.00     0.000 HD 
HETATM   26  O   UNL     1     -13.112   4.972  67.107  1.00  0.00    12.590 OA 
HETATM   27  C   UNL     1     -12.041   5.431  66.747  1.00  0.00     4.521 C  
BRANCH  27  28
HETATM   28  C   UNL     1     -11.421   5.260  65.355  1.00  0.00     1.291 C  
HETATM   29  C   UNL     1     -11.121   6.661  64.766  1.00  0.00     7.887 C  
HETATM   30  N   UNL     1      -9.768   7.161  65.062  1.00  0.00     1.708 NA 
HETATM   31  C   UNL     1      -9.471   7.190  66.504  1.00  0.00    -0.156 C  
HETATM   32  C   UNL     1      -8.778   6.358  64.283  1.00  0.00     0.455 C  
HETATM   33  C   UNL     1      -7.280   6.580  64.734  1.00  0.00    -0.067 C  
HETATM   34  C   UNL     1      -6.558   5.311  65.010  1.00  0.00    -0.040 A  
HETATM   35  C   UNL     1      -5.427   5.000  65.729  1.00  0.00    -0.013 A  
HETATM   36  N   UNL     1      -5.159   3.663  65.536  1.00  0.00    -0.008 NA 
HETATM   37  C   UNL     1      -6.108   3.096  64.715  1.00  0.00    -0.023 A  
HETATM   38  H   UNL     1      -4.369   3.163  65.945  1.00  0.00     0.000 HD 
HETATM   39  C   UNL     1      -6.310   1.806  64.215  1.00  0.00    -0.018 A  
HETATM   40  C   UNL     1      -7.445   1.605  63.406  1.00  0.00    -0.052 A  
HETATM   41  C   UNL     1      -8.391   2.615  63.207  1.00  0.00    -0.085 A  
HETATM   42  C   UNL     1      -8.211   3.859  63.813  1.00  0.00    -0.091 A  
HETATM   43  C   UNL     1      -7.010   4.104  64.462  1.00  0.00    -0.050 A  
HETATM   44  C   UNL     1      -9.297   4.862  64.039  1.00  0.00     0.150 C  
HETATM   45  C   UNL     1     -10.159   4.388  65.252  1.00  0.00    -0.218 C  
ENDBRANCH  27  28
ENDBRANCH  16  24
TORSDOF 2
ENDMDL
MODEL      148
REMARK 921   NORMALIZED FREE ENERGY PREDICTED BY IDOCK:   73.75 KCAL/MOL
REMARK 922        TOTAL FREE ENERGY PREDICTED BY IDOCK:   81.20 KCAL/MOL
REMARK 923 INTER-LIGAND FREE ENERGY PREDICTED BY IDOCK:   80.68 KCAL/MOL
REMARK 924 INTRA-LIGAND FREE ENERGY PREDICTED BY IDOCK:    0.52 KCAL/MOL
REMARK 927      BINDING AFFINITY PREDICTED BY RF-SCORE:    0.00 PKD
ROOT
HETATM    1  C   UNL     1     -11.097  11.059  68.280  1.00  0.00    -0.257 C  
HETATM    2  C   UNL     1     -12.181  10.755  69.324  1.00  0.00    -0.185 C  
HETATM    3  C   UNL     1     -12.979   9.564  68.696  1.00  0.00     5.834 C  
HETATM    4  C   UNL     1     -12.429   9.378  67.287  1.00  0.00     8.174 C  
HETATM    5  N   UNL     1     -11.654  10.578  67.039  1.00  0.00     0.431 N  
HETATM    6  C   UNL     1     -10.862  10.572  65.916  1.00  0.00     0.095 C  
HETATM    7  O   UNL     1     -11.257  10.067  64.869  1.00  0.00     1.554 OA 
HETATM    8  C   UNL     1      -9.551  11.382  66.062  1.00  0.00    -0.221 C  
HETATM    9  N   UNL     1      -8.976  11.311  67.544  1.00  0.00    -0.139 N  
HETATM   10  C   UNL     1      -8.624  11.047  64.902  1.00  0.00     0.055 C  
HETATM   11  C   UNL     1      -8.136   9.615  65.014  1.00  0.00    -0.127 C  
HETATM   12  C   UNL     1      -7.802  11.881  68.048  1.00  0.00    -0.140 C  
HETATM   13  C   UNL     1      -9.136  11.583  63.553  1.00  0.00     0.041 C  
HETATM   14  O   UNL     1      -6.942  11.242  68.654  1.00  0.00    -0.071 OA 
HETATM   15  C   UNL     1      -6.967   9.367  64.090  1.00  0.00    -0.099 C  
HETATM   16  C   UNL     1      -7.818  13.358  67.677  1.00  0.00    -0.173 C  
HETATM   17  H   UNL     1      -8.886  12.937  69.682  1.00  0.00     0.000 HD 
HETATM   18  C   UNL     1      -6.748  13.169  66.483  1.00  0.00     2.029 C  
HETATM   19  O   UNL     1      -9.413  13.361  67.614  1.00  0.00    -0.203 OA 
HETATM   20  O   UNL     1      -9.605  12.315  69.677  1.00  0.00     1.106 OA 
HETATM   21  C   UNL     1      -9.859  12.131  68.288  1.00  0.00    -0.212 C  
HETATM   22  C   UNL     1      -5.258  13.194  66.926  1.00  0.00     0.903 C  
HETATM   23  C   UNL     1      -6.900  13.962  65.192  1.00  0.00    13.040 C  
ENDROOT
BRANCH  16  24
HETATM   24  N   UNL     1      -7.528  14.657  68.215  1.00  0.00    -0.109 N  
HETATM   25  H   UNL     1      -6.535  14.874  68.294  1.00  0.00     0.000 HD 
HETATM   26  O   UNL     1      -9.579  15.526  68.764  1.00  0.00    -0.190 OA 
HETATM   27  C   UNL     1      -8.373  15.659  68.641  1.00  0.00    -0.177 C  
BRANCH  27  28
HETATM   28  C   UNL     1      -7.585  16.943  68.921  1.00  0.00    -0.234 C  
HETATM   29  C   UNL     1      -7.868  17.961  67.787  1.00  0.00    -0.221 C  
HETATM   30  N   UNL     1      -9.000  18.863  68.057  1.00  0.00    -0.297 NA 
HETATM   31  C   UNL     1     -10.248  18.141  68.355  1.00  0.00    -0.387 C  
HETATM   32  C   UNL     1      -8.610  19.815  69.140  1.00  0.00     0.064 C  
HETATM   33  C   UNL     1      -9.822  20.632  69.739  1.00  0.00     0.832 C  
HETATM   34  C   UNL     1      -9.893  20.570  71.222  1.00  0.00     2.336 A  
HETATM   35  C   UNL     1     -10.898  20.796  72.134  1.00  0.00     8.614 A  
HETATM   36  N   UNL     1     -10.353  20.702  73.395  1.00  0.00     4.628 NA 
HETATM   37  C   UNL     1      -9.011  20.403  73.317  1.00  0.00     4.949 A  
HETATM   38  H   UNL     1     -10.870  20.835  74.264  1.00  0.00     0.000 HD 
HETATM   39  C   UNL     1      -8.007  20.196  74.269  1.00  0.00    11.196 A  
HETATM   40  C   UNL     1      -6.725  19.871  73.785  1.00  0.00     9.012 A  
HETATM   41  C   UNL     1      -6.490  19.648  72.426  1.00  0.00     1.112 A  
HETATM   42  C   UNL     1      -7.542  19.757  71.516  1.00  0.00     2.055 A  
HETATM   43  C   UNL     1      -8.756  20.246  71.973  1.00  0.00     2.444 A  
HETATM   44  C   UNL     1      -7.550  19.158  70.145  1.00  0.00     0.890 C  
HETATM   45  C   UNL     1      -7.815  17.625  70.280  1.00  0.00     2.728 C  
ENDBRANCH  27  28
ENDBRANCH  16  24
TORSDOF 2
ENDMDL
MODEL      149
REMARK 921   NORMALIZED FREE ENERGY PREDICTED BY IDOCK:   74.66 KCAL/MOL
REMARK 922        TOTAL FREE ENERGY PREDICTED BY IDOCK:   82.21 KCAL/MOL
REMARK 923 INTER-LIGAND FREE ENERGY PREDICTED BY IDOCK:   81.27 KCAL/MOL
REMARK 924 INTRA-LIGAND FREE ENERGY PREDICTED BY IDOCK:    0.93 KCAL/MOL
REMARK 927      BINDING AFFINITY PREDICTED BY RF-SCORE:    0.00 PKD
ROOT
HETATM    1  C   UNL     1     -11.346  10.324  72.290  1.00  0.00     2.441 C  
HETATM    2  C   UNL     1     -12.501  10.712  73.225  1.00  0.00     6.035 C  
HETATM    3  C   UNL     1     -13.386   9.422  73.280  1.00  0.00     1.356 C  
HETATM    4  C   UNL     1     -12.796   8.456  72.260  1.00  0.00    -0.317 C  
HETATM    5  N   UNL     1     -11.893   9.271  71.469  1.00  0.00    -0.347 N  
HETATM    6  C   UNL     1     -11.057   8.598  70.611  1.00  0.00    -0.249 C  
HETATM    7  O   UNL     1     -11.454   7.623  69.979  1.00  0.00    -0.149 OA 
HETATM    8  C   UNL     1      -9.679   9.274  70.411  1.00  0.00    -0.244 C  
HETATM    9  N   UNL     1      -9.180  10.001  71.736  1.00  0.00     2.622 N  
HETATM   10  C   UNL     1      -8.740   8.300  69.715  1.00  0.00    -0.134 C  
HETATM   11  C   UNL     1      -8.404   7.142  70.636  1.00  0.00    -0.126 C  
HETATM   12  C   UNL     1      -7.978  10.682  71.953  1.00  0.00     6.637 C  
HETATM   13  C   UNL     1      -9.135   8.030  68.252  1.00  0.00    -0.135 C  
HETATM   14  O   UNL     1      -7.215  10.436  72.886  1.00  0.00     3.252 OA 
HETATM   15  C   UNL     1      -7.226   6.355  70.111  1.00  0.00    -0.084 C  
HETATM   16  C   UNL     1      -7.830  11.707  70.835  1.00  0.00     5.642 C  
HETATM   17  H   UNL     1      -9.023  12.528  72.635  1.00  0.00     0.000 HD 
HETATM   18  C   UNL     1      -6.732  10.826  70.043  1.00  0.00    -0.149 C  
HETATM   19  O   UNL     1      -9.412  11.769  70.634  1.00  0.00     4.107 OA 
HETATM   20  O   UNL     1      -9.799  12.051  72.905  1.00  0.00    18.028 OA 
HETATM   21  C   UNL     1     -10.008  11.146  71.826  1.00  0.00     9.046 C  
HETATM   22  C   UNL     1      -5.268  11.003  70.536  1.00  0.00    -0.094 C  
HETATM   23  C   UNL     1      -6.745  10.780  68.521  1.00  0.00    -0.057 C  
ENDROOT
BRANCH  16  24
HETATM   24  N   UNL     1      -7.435  13.066  70.599  1.00  0.00     2.507 N  
HETATM   25  H   UNL     1      -7.998  13.561  69.907  1.00  0.00     0.000 HD 
HETATM   26  O   UNL     1      -5.554  13.352  71.881  1.00  0.00    -0.382 OA 
HETATM   27  C   UNL     1      -6.419  13.813  71.155  1.00  0.00     0.677 C  
BRANCH  27  28
HETATM   28  C   UNL     1      -6.544  15.283  70.741  1.00  0.00     0.431 C  
HETATM   29  C   UNL     1      -5.846  15.478  69.371  1.00  0.00    -0.115 C  
HETATM   30  N   UNL     1      -6.737  15.308  68.212  1.00  0.00    -0.113 NA 
HETATM   31  C   UNL     1      -7.421  14.005  68.203  1.00  0.00    -0.131 C  
HETATM   32  C   UNL     1      -7.686  16.460  68.162  1.00  0.00    -0.160 C  
HETATM   33  C   UNL     1      -8.889  16.254  67.157  1.00  0.00    -0.212 C  
HETATM   34  C   UNL     1     -10.216  16.506  67.776  1.00  0.00    -0.278 A  
HETATM   35  C   UNL     1     -11.501  16.136  67.448  1.00  0.00     0.178 A  
HETATM   36  N   UNL     1     -12.356  16.762  68.327  1.00  0.00     0.914 NA 
HETATM   37  C   UNL     1     -11.647  17.520  69.231  1.00  0.00     1.974 A  
HETATM   38  H   UNL     1     -13.373  16.676  68.310  1.00  0.00     0.000 HD 
HETATM   39  C   UNL     1     -12.010  18.332  70.311  1.00  0.00     8.310 A  
HETATM   40  C   UNL     1     -10.964  18.935  71.036  1.00  0.00     3.713 A  
HETATM   41  C   UNL     1      -9.624  18.646  70.767  1.00  0.00     3.219 A  
HETATM   42  C   UNL     1      -9.302  17.745  69.751  1.00  0.00     1.029 A  
HETATM   43  C   UNL     1     -10.323  17.291  68.931  1.00  0.00    -0.352 A  
HETATM   44  C   UNL     1      -7.993  17.033  69.626  1.00  0.00     0.691 C  
HETATM   45  C   UNL     1      -7.961  15.875  70.674  1.00  0.00     2.291 C  
ENDBRANCH  27  28
ENDBRANCH  16  24
TORSDOF 2
ENDMDL
MODEL      150
REMARK 921   NORMALIZED FREE ENERGY PREDICTED BY IDOCK:   93.30 KCAL/MOL
REMARK 922        TOTAL FREE ENERGY PREDICTED BY IDOCK:  103.03 KCAL/MOL
REMARK 923 INTER-LIGAND FREE ENERGY PREDICTED BY IDOCK:  103.26 KCAL/MOL
REMARK 924 INTRA-LIGAND FREE ENERGY PREDICTED BY IDOCK:   -0.23 KCAL/MOL
REMARK 927      BINDING AFFINITY PREDICTED BY RF-SCORE:    0.00 PKD
ROOT
HETATM    1  C   UNL     1     -12.389   4.128  66.042  1.00  0.00     8.726 C  
HETATM    2  C   UNL     1     -13.656   3.437  65.518  1.00  0.00    19.669 C  
HETATM    3  C   UNL     1     -13.110   2.385  64.496  1.00  0.00    15.102 C  
HETATM    4  C   UNL     1     -11.615   2.651  64.367  1.00  0.00     2.586 C  
HETATM    5  N   UNL     1     -11.423   3.949  64.985  1.00  0.00     0.984 N  
HETATM    6  C   UNL     1     -10.123   4.334  65.204  1.00  0.00    -0.207 C  
HETATM    7  O   UNL     1      -9.247   4.095  64.377  1.00  0.00    -0.139 OA 
HETATM    8  C   UNL     1      -9.926   5.209  66.466  1.00  0.00    -0.212 C  
HETATM    9  N   UNL     1     -10.929   4.797  67.631  1.00  0.00     0.810 N  
HETATM   10  C   UNL     1      -8.440   5.304  66.781  1.00  0.00    -0.107 C  
HETATM   11  C   UNL     1      -7.909   3.957  67.233  1.00  0.00    -0.087 C  
HETATM   12  C   UNL     1     -11.026   5.329  68.921  1.00  0.00     0.444 C  
HETATM   13  C   UNL     1      -7.659   6.131  65.744  1.00  0.00    -0.084 C  
HETATM   14  O   UNL     1     -10.993   4.644  69.943  1.00  0.00     0.785 OA 
HETATM   15  C   UNL     1      -6.547   4.096  67.872  1.00  0.00    -0.042 C  
HETATM   16  C   UNL     1     -11.148   6.841  68.780  1.00  0.00    -0.168 C  
HETATM   17  H   UNL     1     -13.196   5.776  68.690  1.00  0.00     0.000 HD 
HETATM   18  C   UNL     1      -9.614   7.101  69.213  1.00  0.00    -0.155 C  
HETATM   19  O   UNL     1     -11.774   6.691  67.320  1.00  0.00     0.250 OA 
HETATM   20  O   UNL     1     -13.316   5.106  68.026  1.00  0.00    15.910 OA 
HETATM   21  C   UNL     1     -12.182   5.283  67.184  1.00  0.00     6.640 C  
HETATM   22  C   UNL     1      -9.366   7.163  70.747  1.00  0.00    -0.160 C  
HETATM   23  C   UNL     1      -8.805   8.196  68.531  1.00  0.00    -0.134 C  
ENDROOT
BRANCH  16  24
HETATM   24  N   UNL     1     -11.864   7.967  69.309  1.00  0.00     0.462 N  
HETATM   25  H   UNL     1     -12.323   7.798  70.204  1.00  0.00     0.000 HD 
HETATM   26  O   UNL     1     -11.690   9.578  67.686  1.00  0.00     0.722 OA 
HETATM   27  C   UNL     1     -12.033   9.238  68.806  1.00  0.00     1.693 C  
BRANCH  27  28
HETATM   28  C   UNL     1     -12.694  10.146  69.849  1.00  0.00     0.191 C  
HETATM   29  C   UNL     1     -12.180   9.748  71.255  1.00  0.00    -0.374 C  
HETATM   30  N   UNL     1     -10.986  10.491  71.692  1.00  0.00     1.361 NA 
HETATM   31  C   UNL     1      -9.867  10.385  70.742  1.00  0.00     1.206 C  
HETATM   32  C   UNL     1     -11.375  11.906  71.972  1.00  0.00     5.291 C  
HETATM   33  C   UNL     1     -10.146  12.883  72.152  1.00  0.00    14.168 C  
HETATM   34  C   UNL     1     -10.238  14.099  71.303  1.00  0.00     3.615 A  
HETATM   35  C   UNL     1      -9.313  15.015  70.855  1.00  0.00     2.034 A  
HETATM   36  N   UNL     1      -9.994  16.011  70.192  1.00  0.00     0.033 NA 
HETATM   37  C   UNL     1     -11.346  15.750  70.188  1.00  0.00    -0.355 A  
HETATM   38  H   UNL     1      -9.559  16.828  69.763  1.00  0.00     0.000 HD 
HETATM   39  C   UNL     1     -12.460  16.413  69.664  1.00  0.00     1.120 A  
HETATM   40  C   UNL     1     -13.714  15.797  69.844  1.00  0.00     1.890 A  
HETATM   41  C   UNL     1     -13.831  14.526  70.414  1.00  0.00     0.758 A  
HETATM   42  C   UNL     1     -12.684  13.847  70.827  1.00  0.00    -0.383 A  
HETATM   43  C   UNL     1     -11.476  14.527  70.807  1.00  0.00    -0.188 A  
HETATM   44  C   UNL     1     -12.602  12.370  71.053  1.00  0.00    -0.349 C  
HETATM   45  C   UNL     1     -12.530  11.664  69.662  1.00  0.00    -0.047 C  
ENDBRANCH  27  28
ENDBRANCH  16  24
TORSDOF 2
ENDMDL
MODEL      151
REMARK 921   NORMALIZED FREE ENERGY PREDICTED BY IDOCK:  106.16 KCAL/MOL
REMARK 922        TOTAL FREE ENERGY PREDICTED BY IDOCK:  117.39 KCAL/MOL
REMARK 923 INTER-LIGAND FREE ENERGY PREDICTED BY IDOCK:  117.43 KCAL/MOL
REMARK 924 INTRA-LIGAND FREE ENERGY PREDICTED BY IDOCK:   -0.03 KCAL/MOL
REMARK 927      BINDING AFFINITY PREDICTED BY RF-SCORE:    0.00 PKD
ROOT
HETATM    1  C   UNL     1      -7.904  12.236  65.725  1.00  0.00     1.544 C  
HETATM    2  C   UNL     1      -6.900  12.275  64.563  1.00  0.00     6.454 C  
HETATM    3  C   UNL     1      -6.375  13.749  64.575  1.00  0.00    19.501 C  
HETATM    4  C   UNL     1      -7.218  14.495  65.602  1.00  0.00     7.263 C  
HETATM    5  N   UNL     1      -8.332  13.606  65.870  1.00  0.00     1.489 N  
HETATM    6  C   UNL     1      -9.137  13.939  66.933  1.00  0.00    -0.245 C  
HETATM    7  O   UNL     1      -9.429  15.110  67.159  1.00  0.00    -0.208 OA 
HETATM    8  C   UNL     1      -9.740  12.723  67.675  1.00  0.00    -0.205 C  
HETATM    9  N   UNL     1      -8.744  11.481  67.682  1.00  0.00    -0.138 N  
HETATM   10  C   UNL     1     -10.335  13.188  68.997  1.00  0.00     0.025 C  
HETATM   11  C   UNL     1      -9.236  13.633  69.943  1.00  0.00     2.123 C  
HETATM   12  C   UNL     1      -8.920  10.230  68.280  1.00  0.00    -0.132 C  
HETATM   13  C   UNL     1     -11.593  14.056  68.814  1.00  0.00    -0.366 C  
HETATM   14  O   UNL     1      -8.107   9.726  69.056  1.00  0.00    -0.091 OA 
HETATM   15  C   UNL     1      -9.756  13.770  71.354  1.00  0.00     7.450 C  
HETATM   16  C   UNL     1     -10.262   9.685  67.807  1.00  0.00    -0.205 C  
HETATM   17  H   UNL     1      -8.531   9.144  66.375  1.00  0.00     0.000 HD 
HETATM   18  C   UNL     1     -10.999  10.019  69.204  1.00  0.00    -0.256 C  
HETATM   19  O   UNL     1     -10.184  10.556  66.471  1.00  0.00    -0.217 OA 
HETATM   20  O   UNL     1      -8.018   9.857  66.012  1.00  0.00    -0.109 OA 
HETATM   21  C   UNL     1      -8.788  11.007  66.349  1.00  0.00    -0.177 C  
HETATM   22  C   UNL     1     -10.836   8.937  70.308  1.00  0.00    -0.265 C  
HETATM   23  C   UNL     1     -12.436  10.523  69.205  1.00  0.00     0.275 C  
ENDROOT
BRANCH  16  24
HETATM   24  N   UNL     1     -10.889   8.477  67.352  1.00  0.00    -0.472 N  
HETATM   25  H   UNL     1     -10.253   7.691  67.217  1.00  0.00     0.000 HD 
HETATM   26  O   UNL     1     -13.084   9.054  67.023  1.00  0.00    11.869 OA 
HETATM   27  C   UNL     1     -12.209   8.205  67.067  1.00  0.00     6.879 C  
BRANCH  27  28
HETATM   28  C   UNL     1     -12.411   6.704  66.831  1.00  0.00     4.994 C  
HETATM   29  C   UNL     1     -13.380   6.512  65.637  1.00  0.00    11.740 C  
HETATM   30  N   UNL     1     -12.710   6.400  64.331  1.00  0.00    10.211 NA 
HETATM   31  C   UNL     1     -11.833   7.546  64.038  1.00  0.00    21.132 C  
HETATM   32  C   UNL     1     -11.992   5.092  64.269  1.00  0.00     3.984 C  
HETATM   33  C   UNL     1     -10.985   4.973  63.056  1.00  0.00     1.759 C  
HETATM   34  C   UNL     1      -9.625   4.539  63.466  1.00  0.00     0.048 A  
HETATM   35  C   UNL     1      -8.383   4.629  62.880  1.00  0.00    -0.101 A  
HETATM   36  N   UNL     1      -7.491   3.943  63.673  1.00  0.00    -0.054 NA 
HETATM   37  C   UNL     1      -8.130   3.421  64.776  1.00  0.00    -0.090 A  
HETATM   38  H   UNL     1      -6.496   3.836  63.473  1.00  0.00     0.000 HD 
HETATM   39  C   UNL     1      -7.708   2.664  65.873  1.00  0.00    -0.080 A  
HETATM   40  C   UNL     1      -8.682   2.338  66.837  1.00  0.00    -0.135 A  
HETATM   41  C   UNL     1      -9.982   2.845  66.765  1.00  0.00     0.831 A  
HETATM   42  C   UNL     1     -10.338   3.688  65.711  1.00  0.00     0.450 A  
HETATM   43  C   UNL     1      -9.431   3.863  64.678  1.00  0.00    -0.167 A  
HETATM   44  C   UNL     1     -11.511   4.616  65.720  1.00  0.00     1.225 C  
HETATM   45  C   UNL     1     -11.150   5.855  66.600  1.00  0.00    -0.104 C  
ENDBRANCH  27  28
ENDBRANCH  16  24
TORSDOF 2
ENDMDL
MODEL      152
REMARK 921   NORMALIZED FREE ENERGY PREDICTED BY IDOCK:  106.53 KCAL/MOL
REMARK 922        TOTAL FREE ENERGY PREDICTED BY IDOCK:  117.81 KCAL/MOL
REMARK 923 INTER-LIGAND FREE ENERGY PREDICTED BY IDOCK:  114.53 KCAL/MOL
REMARK 924 INTRA-LIGAND FREE ENERGY PREDICTED BY IDOCK:    3.28 KCAL/MOL
REMARK 927      BINDING AFFINITY PREDICTED BY RF-SCORE:    0.00 PKD
ROOT
HETATM    1  C   UNL     1      -7.481  13.961  66.704  1.00  0.00     1.257 C  
HETATM    2  C   UNL     1      -6.225  14.182  65.848  1.00  0.00     7.677 C  
HETATM    3  C   UNL     1      -5.609  15.500  66.425  1.00  0.00     2.550 C  
HETATM    4  C   UNL     1      -6.618  16.038  67.433  1.00  0.00    -0.190 C  
HETATM    5  N   UNL     1      -7.828  15.281  67.173  1.00  0.00    -0.209 N  
HETATM    6  C   UNL     1      -8.839  15.412  68.094  1.00  0.00    -0.170 C  
HETATM    7  O   UNL     1      -9.089  16.500  68.605  1.00  0.00    -0.221 OA 
HETATM    8  C   UNL     1      -9.694  14.136  68.281  1.00  0.00    -0.227 C  
HETATM    9  N   UNL     1      -8.825  12.813  68.111  1.00  0.00    -0.192 N  
HETATM   10  C   UNL     1     -10.555  14.288  69.526  1.00  0.00    -0.037 C  
HETATM   11  C   UNL     1      -9.689  14.283  70.771  1.00  0.00     2.831 C  
HETATM   12  C   UNL     1      -9.235  11.482  68.242  1.00  0.00    -0.186 C  
HETATM   13  C   UNL     1     -11.662  15.345  69.363  1.00  0.00    -0.369 C  
HETATM   14  O   UNL     1      -8.675  10.667  68.975  1.00  0.00    -0.153 OA 
HETATM   15  C   UNL     1     -10.524  14.088  72.014  1.00  0.00     5.052 C  
HETATM   16  C   UNL     1     -10.458  11.294  67.354  1.00  0.00    -0.212 C  
HETATM   17  H   UNL     1      -8.478  10.936  66.219  1.00  0.00     0.000 HD 
HETATM   18  C   UNL     1     -11.486  11.322  68.599  1.00  0.00    -0.362 C  
HETATM   19  O   UNL     1      -9.993  12.487  66.400  1.00  0.00    -0.240 OA 
HETATM   20  O   UNL     1      -7.840  11.641  66.211  1.00  0.00    -0.039 OA 
HETATM   21  C   UNL     1      -8.580  12.747  66.718  1.00  0.00    -0.078 C  
HETATM   22  C   UNL     1     -11.677   9.959  69.323  1.00  0.00     0.123 C  
HETATM   23  C   UNL     1     -12.838  12.007  68.456  1.00  0.00     2.127 C  
ENDROOT
BRANCH  16  24
HETATM   24  N   UNL     1     -11.045  10.368  66.427  1.00  0.00     0.104 N  
HETATM   25  H   UNL     1     -10.375   9.804  65.905  1.00  0.00     0.000 HD 
HETATM   26  O   UNL     1     -13.297  10.793  66.534  1.00  0.00     8.652 OA 
HETATM   27  C   UNL     1     -12.366  10.117  66.127  1.00  0.00     6.794 C  
BRANCH  27  28
HETATM   28  C   UNL     1     -12.488   8.879  65.232  1.00  0.00    15.998 C  
HETATM   29  C   UNL     1     -11.785   9.167  63.882  1.00  0.00    13.379 C  
HETATM   30  N   UNL     1     -10.366   8.776  63.847  1.00  0.00     4.751 NA 
HETATM   31  C   UNL     1      -9.576   9.396  64.923  1.00  0.00     0.018 C  
HETATM   32  C   UNL     1     -10.278   7.285  63.849  1.00  0.00     7.654 C  
HETATM   33  C   UNL     1      -8.822   6.732  64.122  1.00  0.00     0.796 C  
HETATM   34  C   UNL     1      -8.776   5.718  65.207  1.00  0.00    -0.100 A  
HETATM   35  C   UNL     1      -7.770   5.236  66.013  1.00  0.00    -0.091 A  
HETATM   36  N   UNL     1      -8.290   4.207  66.767  1.00  0.00    -0.101 NA 
HETATM   37  C   UNL     1      -9.624   4.023  66.475  1.00  0.00    -0.205 A  
HETATM   38  H   UNL     1      -7.763   3.659  67.446  1.00  0.00     0.000 HD 
HETATM   39  C   UNL     1     -10.606   3.144  66.942  1.00  0.00     2.940 A  
HETATM   40  C   UNL     1     -11.900   3.290  66.406  1.00  0.00    10.157 A  
HETATM   41  C   UNL     1     -12.221   4.337  65.538  1.00  0.00     5.206 A  
HETATM   42  C   UNL     1     -11.239   5.261  65.180  1.00  0.00     1.288 A  
HETATM   43  C   UNL     1      -9.932   5.014  65.569  1.00  0.00    -0.039 A  
HETATM   44  C   UNL     1     -11.512   6.624  64.627  1.00  0.00    10.135 C  
HETATM   45  C   UNL     1     -11.966   7.549  65.800  1.00  0.00     8.460 C  
ENDBRANCH  27  28
ENDBRANCH  16  24
TORSDOF 2
ENDMDL
MODEL      153
REMARK 921   NORMALIZED FREE ENERGY PREDICTED BY IDOCK:  113.37 KCAL/MOL
REMARK 922        TOTAL FREE ENERGY PREDICTED BY IDOCK:  125.45 KCAL/MOL
REMARK 923 INTER-LIGAND FREE ENERGY PREDICTED BY IDOCK:  125.21 KCAL/MOL
REMARK 924 INTRA-LIGAND FREE ENERGY PREDICTED BY IDOCK:    0.24 KCAL/MOL
REMARK 927      BINDING AFFINITY PREDICTED BY RF-SCORE:    0.00 PKD
ROOT
HETATM    1  C   UNL     1     -11.219   9.115  68.430  1.00  0.00     0.322 C  
HETATM    2  C   UNL     1     -12.712   9.359  68.695  1.00  0.00     4.936 C  
HETATM    3  C   UNL     1     -13.429   8.524  67.583  1.00  0.00    19.249 C  
HETATM    4  C   UNL     1     -12.330   8.008  66.662  1.00  0.00     8.770 C  
HETATM    5  N   UNL     1     -11.157   8.779  67.028  1.00  0.00     0.276 N  
HETATM    6  C   UNL     1      -9.961   8.358  66.500  1.00  0.00    -0.265 C  
HETATM    7  O   UNL     1      -9.891   7.954  65.342  1.00  0.00     0.746 OA 
HETATM    8  C   UNL     1      -8.743   8.598  67.423  1.00  0.00    -0.134 C  
HETATM    9  N   UNL     1      -9.127   8.445  68.960  1.00  0.00    -0.147 N  
HETATM   10  C   UNL     1      -7.549   7.820  66.888  1.00  0.00    -0.099 C  
HETATM   11  C   UNL     1      -7.781   6.328  67.038  1.00  0.00    -0.100 C  
HETATM   12  C   UNL     1      -8.294   8.552  70.078  1.00  0.00    -0.123 C  
HETATM   13  C   UNL     1      -7.011   8.386  65.562  1.00  0.00    -0.070 C  
HETATM   14  O   UNL     1      -8.211   7.686  70.949  1.00  0.00    -0.105 OA 
HETATM   15  C   UNL     1      -6.498   5.556  66.840  1.00  0.00    -0.044 C  
HETATM   16  C   UNL     1      -7.549   9.876  69.965  1.00  0.00    -0.172 C  
HETATM   17  H   UNL     1      -9.588  10.095  71.029  1.00  0.00     0.000 HD 
HETATM   18  C   UNL     1      -6.174   9.172  69.496  1.00  0.00    -0.040 C  
HETATM   19  O   UNL     1      -8.720  10.499  69.076  1.00  0.00    -0.146 OA 
HETATM   20  O   UNL     1     -10.364   9.808  70.561  1.00  0.00    -0.278 OA 
HETATM   21  C   UNL     1      -9.882   9.611  69.236  1.00  0.00    -0.189 C  
HETATM   22  C   UNL     1      -5.275   8.651  70.654  1.00  0.00    -0.021 C  
HETATM   23  C   UNL     1      -5.297   9.837  68.444  1.00  0.00    -0.032 C  
ENDROOT
BRANCH  16  24
HETATM   24  N   UNL     1      -7.127  11.001  70.750  1.00  0.00     0.661 N  
HETATM   25  H   UNL     1      -6.329  11.510  70.371  1.00  0.00     0.000 HD 
HETATM   26  O   UNL     1      -8.469  10.944  72.609  1.00  0.00    10.360 OA 
HETATM   27  C   UNL     1      -7.623  11.504  71.933  1.00  0.00     9.796 C  
BRANCH  27  28
HETATM   28  C   UNL     1      -6.972  12.853  72.258  1.00  0.00     6.704 C  
HETATM   29  C   UNL     1      -5.725  13.037  71.356  1.00  0.00     0.127 C  
HETATM   30  N   UNL     1      -5.998  13.728  70.085  1.00  0.00    -0.143 NA 
HETATM   31  C   UNL     1      -7.052  13.073  69.293  1.00  0.00     0.097 C  
HETATM   32  C   UNL     1      -6.298  15.163  70.372  1.00  0.00    -0.033 C  
HETATM   33  C   UNL     1      -6.906  15.947  69.142  1.00  0.00    -0.170 C  
HETATM   34  C   UNL     1      -8.156  16.678  69.474  1.00  0.00     0.295 A  
HETATM   35  C   UNL     1      -9.193  17.177  68.719  1.00  0.00    -0.249 A  
HETATM   36  N   UNL     1     -10.032  17.870  69.562  1.00  0.00     0.022 NA 
HETATM   37  C   UNL     1      -9.566  17.817  70.857  1.00  0.00     4.562 A  
HETATM   38  H   UNL     1     -10.881  18.356  69.268  1.00  0.00     0.000 HD 
HETATM   39  C   UNL     1     -10.024  18.331  72.074  1.00  0.00     6.258 A  
HETATM   40  C   UNL     1      -9.266  18.028  73.221  1.00  0.00    12.133 A  
HETATM   41  C   UNL     1      -8.175  17.157  73.169  1.00  0.00    18.130 A  
HETATM   42  C   UNL     1      -7.813  16.575  71.953  1.00  0.00     9.892 A  
HETATM   43  C   UNL     1      -8.451  17.011  70.802  1.00  0.00     5.142 A  
HETATM   44  C   UNL     1      -6.974  15.344  71.813  1.00  0.00     2.774 C  
HETATM   45  C   UNL     1      -7.860  14.104  72.152  1.00  0.00     6.522 C  
ENDBRANCH  27  28
ENDBRANCH  16  24
TORSDOF 2
ENDMDL
MODEL      154
REMARK 921   NORMALIZED FREE ENERGY PREDICTED BY IDOCK:  116.51 KCAL/MOL
REMARK 922        TOTAL FREE ENERGY PREDICTED BY IDOCK:  128.95 KCAL/MOL
REMARK 923 INTER-LIGAND FREE ENERGY PREDICTED BY IDOCK:  129.49 KCAL/MOL
REMARK 924 INTRA-LIGAND FREE ENERGY PREDICTED BY IDOCK:   -0.54 KCAL/MOL
REMARK 927      BINDING AFFINITY PREDICTED BY RF-SCORE:    0.00 PKD
ROOT
HETATM    1  C   UNL     1      -8.907  15.381  71.800  1.00  0.00     5.414 C  
HETATM    2  C   UNL     1      -8.778  14.407  72.980  1.00  0.00     9.390 C  
HETATM    3  C   UNL     1      -8.686  15.345  74.229  1.00  0.00    14.628 C  
HETATM    4  C   UNL     1      -8.591  16.767  73.689  1.00  0.00    19.027 C  
HETATM    5  N   UNL     1      -8.301  16.600  72.278  1.00  0.00    12.838 N  
HETATM    6  C   UNL     1      -8.383  17.730  71.500  1.00  0.00    10.577 C  
HETATM    7  O   UNL     1      -7.981  18.813  71.918  1.00  0.00     6.528 OA 
HETATM    8  C   UNL     1      -8.856  17.466  70.050  1.00  0.00     2.038 C  
HETATM    9  N   UNL     1      -9.906  16.272  69.980  1.00  0.00     0.160 N  
HETATM   10  C   UNL     1      -9.212  18.791  69.392  1.00  0.00     0.205 C  
HETATM   11  C   UNL     1     -10.452  19.384  70.036  1.00  0.00     0.992 C  
HETATM   12  C   UNL     1     -10.577  15.772  68.860  1.00  0.00    -0.233 C  
HETATM   13  C   UNL     1      -7.982  19.679  69.128  1.00  0.00    -0.164 C  
HETATM   14  O   UNL     1     -11.800  15.645  68.801  1.00  0.00    -0.370 OA 
HETATM   15  C   UNL     1     -11.020  20.502  69.194  1.00  0.00     1.070 C  
HETATM   16  C   UNL     1      -9.527  15.467  67.799  1.00  0.00    -0.204 C  
HETATM   17  H   UNL     1      -9.877  13.691  69.235  1.00  0.00     0.000 HD 
HETATM   18  C   UNL     1      -9.880  16.783  66.934  1.00  0.00    -0.269 C  
HETATM   19  O   UNL     1      -8.406  15.262  68.917  1.00  0.00    -0.167 OA 
HETATM   20  O   UNL     1      -9.755  13.844  70.165  1.00  0.00     1.451 OA 
HETATM   21  C   UNL     1      -9.117  15.117  70.198  1.00  0.00     0.514 C  
HETATM   22  C   UNL     1     -11.069  16.621  65.946  1.00  0.00     0.210 C  
HETATM   23  C   UNL     1      -8.767  17.568  66.252  1.00  0.00    -0.226 C  
ENDROOT
BRANCH  16  24
HETATM   24  N   UNL     1      -9.169  14.480  66.820  1.00  0.00    -0.255 N  
HETATM   25  H   UNL     1      -9.938  13.884  66.514  1.00  0.00     0.000 HD 
HETATM   26  O   UNL     1      -6.901  14.708  66.571  1.00  0.00     0.897 OA 
HETATM   27  C   UNL     1      -7.957  14.207  66.225  1.00  0.00     1.550 C  
BRANCH  27  28
HETATM   28  C   UNL     1      -8.135  13.206  65.077  1.00  0.00     5.043 C  
HETATM   29  C   UNL     1      -6.738  12.711  64.625  1.00  0.00     9.205 C  
HETATM   30  N   UNL     1      -6.277  11.495  65.317  1.00  0.00     0.745 NA 
HETATM   31  C   UNL     1      -6.268  11.640  66.782  1.00  0.00    -0.123 C  
HETATM   32  C   UNL     1      -7.102  10.338  64.855  1.00  0.00    -0.099 C  
HETATM   33  C   UNL     1      -6.924   9.037  65.734  1.00  0.00    -0.080 C  
HETATM   34  C   UNL     1      -8.215   8.460  66.192  1.00  0.00    -0.113 A  
HETATM   35  C   UNL     1      -8.563   7.602  67.210  1.00  0.00    -0.121 A  
HETATM   36  N   UNL     1      -9.905   7.321  67.085  1.00  0.00    -0.170 NA 
HETATM   37  C   UNL     1     -10.440   7.996  66.010  1.00  0.00     1.194 A  
HETATM   38  H   UNL     1     -10.430   6.700  67.701  1.00  0.00     0.000 HD 
HETATM   39  C   UNL     1     -11.720   8.072  65.453  1.00  0.00    10.218 A  
HETATM   40  C   UNL     1     -11.883   8.920  64.340  1.00  0.00    14.633 A  
HETATM   41  C   UNL     1     -10.846   9.739  63.885  1.00  0.00     3.770 A  
HETATM   42  C   UNL     1      -9.612   9.717  64.536  1.00  0.00    -0.201 A  
HETATM   43  C   UNL     1      -9.405   8.758  65.516  1.00  0.00    -0.165 A  
HETATM   44  C   UNL     1      -8.581  10.797  64.446  1.00  0.00    -0.042 C  
HETATM   45  C   UNL     1      -9.040  11.992  65.340  1.00  0.00     0.201 C  
ENDBRANCH  27  28
ENDBRANCH  16  24
TORSDOF 2
ENDMDL
