MODEL        1
REMARK 921   NORMALIZED FREE ENERGY PREDICTED BY IDOCK:   -8.89 KCAL/MOL
REMARK 922        TOTAL FREE ENERGY PREDICTED BY IDOCK:  -12.54 KCAL/MOL
REMARK 923 INTER-LIGAND FREE ENERGY PREDICTED BY IDOCK:  -11.49 KCAL/MOL
REMARK 924 INTRA-LIGAND FREE ENERGY PREDICTED BY IDOCK:   -1.05 KCAL/MOL
REMARK 927      BINDING AFFINITY PREDICTED BY RF-SCORE:    0.00 PKD
ROOT
HETATM    1  C   UNL     1      -9.073   3.340  69.239  1.00  0.00    -0.136 C  
HETATM    2  O   UNL     1      -8.862   4.596  69.878  1.00  0.00    -0.086 OA 
ENDROOT
BRANCH   2   3
HETATM    3  C   UNL     1      -9.754   4.953  70.855  1.00  0.00    -0.195 A  
HETATM    4  C   UNL     1     -10.159   4.049  71.851  1.00  0.00    -0.214 A  
HETATM    5  C   UNL     1     -11.058   4.432  72.840  1.00  0.00    -0.193 A  
HETATM    6  C   UNL     1     -11.562   5.724  72.844  1.00  0.00    -0.210 A  
HETATM    7  C   UNL     1     -11.187   6.636  71.847  1.00  0.00    -0.302 A  
HETATM    8  C   UNL     1     -10.299   6.259  70.836  1.00  0.00    -0.253 A  
HETATM    9  C   UNL     1      -9.963   7.256  69.784  1.00  0.00    -0.183 C  
HETATM   10  O   UNL     1      -9.284   6.969  68.803  1.00  0.00    -0.134 OA 
HETATM   11  C   UNL     1     -10.461   8.653  69.889  1.00  0.00    -0.221 A  
HETATM   12  C   UNL     1     -10.050   9.625  68.951  1.00  0.00    -0.187 A  
HETATM   13  O   UNL     1      -9.159   9.320  67.946  1.00  0.00    -0.128 OA 
HETATM   14  C   UNL     1     -10.509  10.958  69.004  1.00  0.00    -0.244 A  
HETATM   15  H   UNL     1      -8.883   9.975  67.315  1.00  0.00     0.000 HD 
HETATM   16  C   UNL     1     -11.415  11.323  70.030  1.00  0.00    -0.359 A  
HETATM   17  C   UNL     1     -11.777  10.358  70.995  1.00  0.00    -0.337 A  
HETATM   18  C   UNL     1     -11.953  12.745  70.127  1.00  0.00    -0.371 C  
HETATM   19  C   UNL     1     -11.706  13.593  68.876  1.00  0.00    -0.338 C  
HETATM   20  C   UNL     1     -11.324   9.023  70.917  1.00  0.00    -0.351 A  
HETATM   21  O   UNL     1     -12.546  10.716  72.069  1.00  0.00    -0.301 OA 
HETATM   22  C   UNL     1     -10.007  11.967  67.973  1.00  0.00    -0.197 C  
HETATM   23  C   UNL     1     -11.765   7.994  71.896  1.00  0.00    -0.303 C  
HETATM   24  C   UNL     1     -10.248  13.403  68.446  1.00  0.00    -0.251 C  
HETATM   25  O   UNL     1     -12.631  13.220  67.853  1.00  0.00     0.064 OA 
HETATM   26  H   UNL     1     -12.790  10.067  72.718  1.00  0.00     0.000 HD 
HETATM   27  O   UNL     1     -12.609   8.224  72.755  1.00  0.00    -0.229 OA 
HETATM   28  H   UNL     1     -12.477  13.746  67.077  1.00  0.00     0.000 HD 
BRANCH  19  29
HETATM   29  C   UNL     1     -11.955  15.077  69.194  1.00  0.00    -0.275 C  
HETATM   30  O   UNL     1     -11.664  15.980  68.401  1.00  0.00    -0.346 OA 
BRANCH  29  31
HETATM   31  C   UNL     1     -12.505  15.418  70.578  1.00  0.00    -0.422 C  
HETATM   32  O   UNL     1     -13.897  15.711  70.539  1.00  0.00    -0.818 OA 
HETATM   33  H   UNL     1     -14.238  15.923  71.400  1.00  0.00     0.000 HD 
ENDBRANCH  29  31
ENDBRANCH  19  29
BRANCH  22  34
HETATM   34  O   UNL     1     -10.683  11.703  66.731  1.00  0.00    -0.237 OA 
BRANCH  34  35
HETATM   35  C   UNL     1      -9.926  11.942  65.537  1.00  0.00    -0.238 C  
HETATM   36  C   UNL     1     -10.507  11.316  64.266  1.00  0.00    -0.419 C  
HETATM   37  C   UNL     1     -11.822  12.002  63.910  1.00  0.00    -0.448 C  
HETATM   38  C   UNL     1     -11.562  13.514  63.725  1.00  0.00    -0.243 C  
HETATM   39  N   UNL     1     -12.433  11.396  62.717  1.00  0.00    -0.741 NA 
HETATM   40  C   UNL     1     -10.897  14.076  64.996  1.00  0.00    -0.392 C  
HETATM   41  H2  UNL     1     -12.553  10.389  62.828  1.00  0.00     0.000 HD 
HETATM   42  O   UNL     1     -12.767  14.229  63.446  1.00  0.00    -0.947 OA 
HETATM   43  H1  UNL     1     -13.313  11.854  62.480  1.00  0.00     0.000 HD 
HETATM   44  C   UNL     1     -10.474  15.528  64.784  1.00  0.00    -0.155 C  
HETATM   45  H   UNL     1     -12.608  15.159  63.333  1.00  0.00     0.000 HD 
HETATM   46  O   UNL     1      -9.719  13.344  65.351  1.00  0.00    -0.152 OA 
ENDBRANCH  34  35
ENDBRANCH  22  34
ENDBRANCH   2   3
TORSDOF 5
ENDMDL
MODEL        2
REMARK 921   NORMALIZED FREE ENERGY PREDICTED BY IDOCK:   -8.86 KCAL/MOL
REMARK 922        TOTAL FREE ENERGY PREDICTED BY IDOCK:  -12.49 KCAL/MOL
REMARK 923 INTER-LIGAND FREE ENERGY PREDICTED BY IDOCK:  -11.30 KCAL/MOL
REMARK 924 INTRA-LIGAND FREE ENERGY PREDICTED BY IDOCK:   -1.19 KCAL/MOL
REMARK 927      BINDING AFFINITY PREDICTED BY RF-SCORE:    0.00 PKD
ROOT
HETATM    1  C   UNL     1      -8.458   3.256  70.083  1.00  0.00    -0.056 C  
HETATM    2  O   UNL     1      -8.661   4.640  70.353  1.00  0.00    -0.083 OA 
ENDROOT
BRANCH   2   3
HETATM    3  C   UNL     1      -9.687   4.965  71.200  1.00  0.00    -0.179 A  
HETATM    4  C   UNL     1     -10.196   4.043  72.130  1.00  0.00    -0.210 A  
HETATM    5  C   UNL     1     -11.232   4.392  72.989  1.00  0.00    -0.240 A  
HETATM    6  C   UNL     1     -11.772   5.667  72.927  1.00  0.00    -0.186 A  
HETATM    7  C   UNL     1     -11.294   6.597  71.991  1.00  0.00    -0.317 A  
HETATM    8  C   UNL     1     -10.265   6.253  71.111  1.00  0.00    -0.238 A  
HETATM    9  C   UNL     1      -9.821   7.266  70.116  1.00  0.00    -0.179 C  
HETATM   10  O   UNL     1      -9.007   7.007  69.235  1.00  0.00    -0.138 OA 
HETATM   11  C   UNL     1     -10.372   8.647  70.155  1.00  0.00    -0.219 A  
HETATM   12  C   UNL     1      -9.867   9.637  69.283  1.00  0.00    -0.189 A  
HETATM   13  O   UNL     1      -8.839   9.366  68.408  1.00  0.00    -0.127 OA 
HETATM   14  C   UNL     1     -10.371  10.955  69.276  1.00  0.00    -0.211 A  
HETATM   15  H   UNL     1      -8.501  10.032  67.821  1.00  0.00     0.000 HD 
HETATM   16  C   UNL     1     -11.418  11.286  70.170  1.00  0.00    -0.336 A  
HETATM   17  C   UNL     1     -11.878  10.304  71.075  1.00  0.00    -0.377 A  
HETATM   18  C   UNL     1     -12.008  12.690  70.196  1.00  0.00    -0.375 C  
HETATM   19  C   UNL     1     -11.620  13.553  68.991  1.00  0.00    -0.311 C  
HETATM   20  C   UNL     1     -11.377   8.984  71.056  1.00  0.00    -0.362 A  
HETATM   21  O   UNL     1     -12.797  10.632  72.035  1.00  0.00    -0.422 OA 
HETATM   22  C   UNL     1      -9.765  11.985  68.325  1.00  0.00    -0.205 C  
HETATM   23  C   UNL     1     -11.915   7.936  71.965  1.00  0.00    -0.319 C  
HETATM   24  C   UNL     1     -10.113  13.410  68.764  1.00  0.00    -0.094 C  
HETATM   25  O   UNL     1     -12.385  13.158  67.852  1.00  0.00    -0.152 OA 
HETATM   26  H   UNL     1     -13.106   9.972  72.644  1.00  0.00     0.000 HD 
HETATM   27  O   UNL     1     -12.875   8.135  72.701  1.00  0.00    -0.150 OA 
HETATM   28  H   UNL     1     -12.144  13.694  67.105  1.00  0.00     0.000 HD 
BRANCH  19  29
HETATM   29  C   UNL     1     -11.956  15.027  69.276  1.00  0.00    -0.289 C  
HETATM   30  O   UNL     1     -11.705  15.928  68.468  1.00  0.00    -0.383 OA 
BRANCH  29  31
HETATM   31  C   UNL     1     -12.544  15.363  70.645  1.00  0.00    -0.439 C  
HETATM   32  O   UNL     1     -13.949  15.575  70.583  1.00  0.00    -0.868 OA 
HETATM   33  H   UNL     1     -14.314  15.784  71.435  1.00  0.00     0.000 HD 
ENDBRANCH  29  31
ENDBRANCH  19  29
BRANCH  22  34
HETATM   34  O   UNL     1     -10.258  11.708  67.002  1.00  0.00    -0.206 OA 
BRANCH  34  35
HETATM   35  C   UNL     1      -9.584  12.375  65.925  1.00  0.00    -0.187 C  
HETATM   36  C   UNL     1      -9.080  11.455  64.810  1.00  0.00     0.036 C  
HETATM   37  C   UNL     1     -10.266  10.846  64.069  1.00  0.00    -0.357 C  
HETATM   38  C   UNL     1     -11.142  11.988  63.505  1.00  0.00    -0.443 C  
HETATM   39  N   UNL     1      -9.820   9.921  63.017  1.00  0.00    -0.477 NA 
HETATM   40  C   UNL     1     -11.549  12.932  64.652  1.00  0.00    -0.346 C  
HETATM   41  H2  UNL     1      -9.201   9.201  63.389  1.00  0.00     0.000 HD 
HETATM   42  O   UNL     1     -12.307  11.487  62.847  1.00  0.00    -0.958 OA 
HETATM   43  H1  UNL     1     -10.613   9.513  62.522  1.00  0.00     0.000 HD 
HETATM   44  C   UNL     1     -12.272  14.161  64.106  1.00  0.00    -0.423 C  
HETATM   45  H   UNL     1     -12.846  12.189  62.501  1.00  0.00     0.000 HD 
HETATM   46  O   UNL     1     -10.413  13.406  65.383  1.00  0.00    -0.286 OA 
ENDBRANCH  34  35
ENDBRANCH  22  34
ENDBRANCH   2   3
TORSDOF 5
ENDMDL
MODEL        3
REMARK 921   NORMALIZED FREE ENERGY PREDICTED BY IDOCK:   -8.56 KCAL/MOL
REMARK 922        TOTAL FREE ENERGY PREDICTED BY IDOCK:  -12.10 KCAL/MOL
REMARK 923 INTER-LIGAND FREE ENERGY PREDICTED BY IDOCK:  -11.30 KCAL/MOL
REMARK 924 INTRA-LIGAND FREE ENERGY PREDICTED BY IDOCK:   -0.81 KCAL/MOL
REMARK 927      BINDING AFFINITY PREDICTED BY RF-SCORE:    0.00 PKD
ROOT
HETATM    1  C   UNL     1      -9.963   6.842  74.554  1.00  0.00    -0.213 C  
HETATM    2  O   UNL     1     -10.803   6.870  73.404  1.00  0.00    -0.306 OA 
ENDROOT
BRANCH   2   3
HETATM    3  C   UNL     1     -10.425   6.094  72.339  1.00  0.00    -0.199 A  
HETATM    4  C   UNL     1     -10.123   4.731  72.491  1.00  0.00    -0.234 A  
HETATM    5  C   UNL     1      -9.750   3.956  71.398  1.00  0.00    -0.246 A  
HETATM    6  C   UNL     1      -9.675   4.536  70.141  1.00  0.00    -0.287 A  
HETATM    7  C   UNL     1      -9.953   5.901  69.971  1.00  0.00    -0.239 A  
HETATM    8  C   UNL     1     -10.311   6.694  71.063  1.00  0.00    -0.234 A  
HETATM    9  C   UNL     1     -10.560   8.143  70.831  1.00  0.00    -0.209 C  
HETATM   10  O   UNL     1     -10.765   8.928  71.751  1.00  0.00    -0.314 OA 
HETATM   11  C   UNL     1     -10.555   8.692  69.449  1.00  0.00    -0.207 A  
HETATM   12  C   UNL     1     -10.902  10.042  69.220  1.00  0.00    -0.230 A  
HETATM   13  O   UNL     1     -11.285  10.869  70.253  1.00  0.00    -0.406 OA 
HETATM   14  C   UNL     1     -10.896  10.607  67.928  1.00  0.00    -0.328 A  
HETATM   15  H   UNL     1     -11.517  11.777  70.099  1.00  0.00     0.000 HD 
HETATM   16  C   UNL     1     -10.524   9.792  66.832  1.00  0.00    -0.281 A  
HETATM   17  C   UNL     1     -10.232   8.430  67.064  1.00  0.00    -0.307 A  
HETATM   18  C   UNL     1     -10.487  10.354  65.417  1.00  0.00    -0.187 C  
HETATM   19  C   UNL     1     -10.548  11.884  65.351  1.00  0.00    -0.271 C  
HETATM   20  C   UNL     1     -10.223   7.883  68.366  1.00  0.00    -0.232 A  
HETATM   21  O   UNL     1      -9.996   7.589  66.010  1.00  0.00    -0.429 OA 
HETATM   22  C   UNL     1     -11.305  12.068  67.746  1.00  0.00    -0.303 C  
HETATM   23  C   UNL     1      -9.846   6.465  68.611  1.00  0.00    -0.142 C  
HETATM   24  C   UNL     1     -11.662  12.361  66.287  1.00  0.00    -0.457 C  
HETATM   25  O   UNL     1      -9.274  12.430  65.694  1.00  0.00    -0.438 OA 
HETATM   26  H   UNL     1      -9.800   6.673  66.166  1.00  0.00     0.000 HD 
HETATM   27  O   UNL     1      -9.435   5.732  67.719  1.00  0.00    -0.111 OA 
HETATM   28  H   UNL     1      -9.312  13.378  65.653  1.00  0.00     0.000 HD 
BRANCH  19  29
HETATM   29  C   UNL     1     -10.862  12.332  63.913  1.00  0.00    -0.412 C  
HETATM   30  O   UNL     1     -10.010  12.324  63.019  1.00  0.00    -0.320 OA 
BRANCH  29  31
HETATM   31  C   UNL     1     -12.263  12.876  63.636  1.00  0.00    -0.499 C  
HETATM   32  O   UNL     1     -12.244  14.268  63.343  1.00  0.00    -1.038 OA 
HETATM   33  H   UNL     1     -13.115  14.606  63.170  1.00  0.00     0.000 HD 
ENDBRANCH  29  31
ENDBRANCH  19  29
BRANCH  22  34
HETATM   34  O   UNL     1     -10.214  12.891  68.195  1.00  0.00    -0.226 OA 
BRANCH  34  35
HETATM   35  C   UNL     1     -10.560  14.210  68.641  1.00  0.00    -0.249 C  
HETATM   36  C   UNL     1      -9.482  14.919  69.464  1.00  0.00    -0.004 C  
HETATM   37  C   UNL     1      -8.277  15.225  68.580  1.00  0.00    -0.159 C  
HETATM   38  C   UNL     1      -8.741  16.096  67.390  1.00  0.00    -0.180 C  
HETATM   39  N   UNL     1      -7.201  15.867  69.349  1.00  0.00    -0.215 NA 
HETATM   40  C   UNL     1      -9.885  15.380  66.649  1.00  0.00    -0.255 C  
HETATM   41  H2  UNL     1      -6.937  15.310  70.162  1.00  0.00     0.000 HD 
HETATM   42  O   UNL     1      -7.669  16.373  66.486  1.00  0.00    -0.257 OA 
HETATM   43  H1  UNL     1      -6.395  16.072  68.758  1.00  0.00     0.000 HD 
HETATM   44  C   UNL     1     -10.479  16.286  65.573  1.00  0.00    -0.383 C  
HETATM   45  H   UNL     1      -7.954  16.908  65.755  1.00  0.00     0.000 HD 
HETATM   46  O   UNL     1     -10.953  15.023  67.532  1.00  0.00    -0.289 OA 
ENDBRANCH  34  35
ENDBRANCH  22  34
ENDBRANCH   2   3
TORSDOF 5
ENDMDL
MODEL        4
REMARK 921   NORMALIZED FREE ENERGY PREDICTED BY IDOCK:   -8.28 KCAL/MOL
REMARK 922        TOTAL FREE ENERGY PREDICTED BY IDOCK:  -11.74 KCAL/MOL
REMARK 923 INTER-LIGAND FREE ENERGY PREDICTED BY IDOCK:  -10.52 KCAL/MOL
REMARK 924 INTRA-LIGAND FREE ENERGY PREDICTED BY IDOCK:   -1.22 KCAL/MOL
REMARK 927      BINDING AFFINITY PREDICTED BY RF-SCORE:    0.00 PKD
ROOT
HETATM    1  C   UNL     1     -10.142  17.902  68.673  1.00  0.00    -0.394 C  
HETATM    2  O   UNL     1     -10.131  16.523  68.313  1.00  0.00    -0.242 OA 
ENDROOT
BRANCH   2   3
HETATM    3  C   UNL     1     -10.414  16.219  67.008  1.00  0.00    -0.306 A  
HETATM    4  C   UNL     1     -10.708  17.218  66.065  1.00  0.00    -0.110 A  
HETATM    5  C   UNL     1     -10.983  16.892  64.741  1.00  0.00     0.079 A  
HETATM    6  C   UNL     1     -10.968  15.563  64.346  1.00  0.00    -0.064 A  
HETATM    7  C   UNL     1     -10.698  14.548  65.276  1.00  0.00    -0.390 A  
HETATM    8  C   UNL     1     -10.437  14.861  66.613  1.00  0.00    -0.292 A  
HETATM    9  C   UNL     1     -10.191  13.743  67.563  1.00  0.00    -0.241 C  
HETATM   10  O   UNL     1     -10.069  13.924  68.770  1.00  0.00    -0.221 OA 
HETATM   11  C   UNL     1     -10.096  12.344  67.067  1.00  0.00    -0.223 A  
HETATM   12  C   UNL     1      -9.752  11.299  67.952  1.00  0.00    -0.177 A  
HETATM   13  O   UNL     1      -9.462  11.546  69.275  1.00  0.00    -0.396 OA 
HETATM   14  C   UNL     1      -9.665   9.957  67.527  1.00  0.00    -0.193 A  
HETATM   15  H   UNL     1      -9.231  10.843  69.870  1.00  0.00     0.000 HD 
HETATM   16  C   UNL     1      -9.939   9.655  66.171  1.00  0.00    -0.346 A  
HETATM   17  C   UNL     1     -10.229  10.714  65.282  1.00  0.00    -0.282 A  
HETATM   18  C   UNL     1      -9.874   8.221  65.661  1.00  0.00     0.478 C  
HETATM   19  C   UNL     1      -9.829   7.165  66.769  1.00  0.00    -0.205 C  
HETATM   20  C   UNL     1     -10.332  12.050  65.727  1.00  0.00    -0.289 A  
HETATM   21  O   UNL     1     -10.371  10.467  63.943  1.00  0.00    -0.421 OA 
HETATM   22  C   UNL     1      -9.264   8.876  68.529  1.00  0.00    -0.137 C  
HETATM   23  C   UNL     1     -10.706  13.151  64.799  1.00  0.00    -0.364 C  
HETATM   24  C   UNL     1      -8.798   7.607  67.812  1.00  0.00    -0.125 C  
HETATM   25  O   UNL     1     -11.134   7.000  67.327  1.00  0.00    -0.537 OA 
HETATM   26  H   UNL     1     -10.566  11.179  63.345  1.00  0.00     0.000 HD 
HETATM   27  O   UNL     1     -11.036  12.946  63.637  1.00  0.00    -0.419 OA 
HETATM   28  H   UNL     1     -11.106   6.345  68.014  1.00  0.00     0.000 HD 
BRANCH  19  29
HETATM   29  C   UNL     1      -9.411   5.807  66.180  1.00  0.00    -0.144 C  
HETATM   30  O   UNL     1      -8.371   5.664  65.528  1.00  0.00    -0.126 OA 
BRANCH  29  31
HETATM   31  C   UNL     1     -10.376   4.636  66.356  1.00  0.00    -0.226 C  
HETATM   32  O   UNL     1     -11.416   4.653  65.385  1.00  0.00    -1.018 OA 
HETATM   33  H   UNL     1     -12.015   3.925  65.495  1.00  0.00     0.000 HD 
ENDBRANCH  29  31
ENDBRANCH  19  29
BRANCH  22  34
HETATM   34  O   UNL     1     -10.398   8.615  69.375  1.00  0.00    -0.210 OA 
BRANCH  34  35
HETATM   35  C   UNL     1     -10.165   8.703  70.788  1.00  0.00    -0.204 C  
HETATM   36  C   UNL     1     -11.155   9.584  71.554  1.00  0.00    -0.406 C  
HETATM   37  C   UNL     1     -12.538   8.943  71.533  1.00  0.00    -0.331 C  
HETATM   38  C   UNL     1     -12.442   7.531  72.156  1.00  0.00    -0.194 C  
HETATM   39  N   UNL     1     -13.527   9.785  72.222  1.00  0.00    -0.586 NA 
HETATM   40  C   UNL     1     -11.372   6.715  71.407  1.00  0.00    -0.289 C  
HETATM   41  H2  UNL     1     -13.546  10.730  71.839  1.00  0.00     0.000 HD 
HETATM   42  O   UNL     1     -13.696   6.848  72.115  1.00  0.00    -0.550 OA 
HETATM   43  H1  UNL     1     -14.452   9.356  72.208  1.00  0.00     0.000 HD 
HETATM   44  C   UNL     1     -11.133   5.377  72.102  1.00  0.00    -0.234 C  
HETATM   45  H   UNL     1     -13.637   5.980  72.497  1.00  0.00     0.000 HD 
HETATM   46  O   UNL     1     -10.114   7.396  71.365  1.00  0.00    -0.187 OA 
ENDBRANCH  34  35
ENDBRANCH  22  34
ENDBRANCH   2   3
TORSDOF 5
ENDMDL
MODEL        5
REMARK 921   NORMALIZED FREE ENERGY PREDICTED BY IDOCK:   -8.03 KCAL/MOL
REMARK 922        TOTAL FREE ENERGY PREDICTED BY IDOCK:  -11.43 KCAL/MOL
REMARK 923 INTER-LIGAND FREE ENERGY PREDICTED BY IDOCK:  -10.03 KCAL/MOL
REMARK 924 INTRA-LIGAND FREE ENERGY PREDICTED BY IDOCK:   -1.40 KCAL/MOL
REMARK 927      BINDING AFFINITY PREDICTED BY RF-SCORE:    0.00 PKD
ROOT
HETATM    1  C   UNL     1      -7.879   6.018  72.022  1.00  0.00    -0.106 C  
HETATM    2  O   UNL     1      -7.697   7.015  71.021  1.00  0.00    -0.089 OA 
ENDROOT
BRANCH   2   3
HETATM    3  C   UNL     1      -7.677   6.591  69.718  1.00  0.00    -0.113 A  
HETATM    4  C   UNL     1      -7.175   5.328  69.361  1.00  0.00    -0.061 A  
HETATM    5  C   UNL     1      -7.171   4.910  68.035  1.00  0.00    -0.066 A  
HETATM    6  C   UNL     1      -7.669   5.751  67.051  1.00  0.00    -0.101 A  
HETATM    7  C   UNL     1      -8.155   7.024  67.383  1.00  0.00    -0.116 A  
HETATM    8  C   UNL     1      -8.148   7.463  68.709  1.00  0.00    -0.128 A  
HETATM    9  C   UNL     1      -8.644   8.836  69.000  1.00  0.00    -0.132 C  
HETATM   10  O   UNL     1      -8.565   9.338  70.117  1.00  0.00    -0.158 OA 
HETATM   11  C   UNL     1      -9.250   9.658  67.919  1.00  0.00    -0.134 A  
HETATM   12  C   UNL     1      -9.821  10.915  68.220  1.00  0.00    -0.170 A  
HETATM   13  O   UNL     1      -9.864  11.393  69.511  1.00  0.00    -0.386 OA 
HETATM   14  C   UNL     1     -10.393  11.734  67.224  1.00  0.00    -0.231 A  
HETATM   15  H   UNL     1     -10.248  12.238  69.712  1.00  0.00     0.000 HD 
HETATM   16  C   UNL     1     -10.386  11.278  65.883  1.00  0.00    -0.304 A  
HETATM   17  C   UNL     1      -9.863   9.996  65.602  1.00  0.00    -0.295 A  
HETATM   18  C   UNL     1     -10.979  12.127  64.766  1.00  0.00    -0.356 C  
HETATM   19  C   UNL     1     -11.247  13.582  65.163  1.00  0.00    -0.309 C  
HETATM   20  C   UNL     1      -9.275   9.197  66.607  1.00  0.00    -0.207 A  
HETATM   21  O   UNL     1      -9.960   9.478  64.339  1.00  0.00    -0.332 OA 
HETATM   22  C   UNL     1     -11.016  13.072  67.618  1.00  0.00    -0.254 C  
HETATM   23  C   UNL     1      -8.662   7.879  66.291  1.00  0.00    -0.154 C  
HETATM   24  C   UNL     1     -11.952  13.587  66.523  1.00  0.00    -0.460 C  
HETATM   25  O   UNL     1     -10.018  14.309  65.182  1.00  0.00    -0.519 OA 
HETATM   26  H   UNL     1      -9.608   8.616  64.149  1.00  0.00     0.000 HD 
HETATM   27  O   UNL     1      -8.549   7.465  65.143  1.00  0.00    -0.075 OA 
HETATM   28  H   UNL     1     -10.185  15.211  65.428  1.00  0.00     0.000 HD 
BRANCH  19  29
HETATM   29  C   UNL     1     -12.154  14.250  64.115  1.00  0.00    -0.393 C  
HETATM   30  O   UNL     1     -12.519  13.665  63.090  1.00  0.00    -0.786 OA 
BRANCH  29  31
HETATM   31  C   UNL     1     -12.531  15.713  64.341  1.00  0.00     0.212 C  
HETATM   32  O   UNL     1     -11.499  16.599  63.923  1.00  0.00    -1.604 OA 
HETATM   33  H   UNL     1     -11.734  17.508  64.063  1.00  0.00     0.000 HD 
ENDBRANCH  29  31
ENDBRANCH  19  29
BRANCH  22  34
HETATM   34  O   UNL     1      -9.946  13.999  67.874  1.00  0.00    -0.227 OA 
BRANCH  34  35
HETATM   35  C   UNL     1     -10.151  14.916  68.958  1.00  0.00    -0.237 C  
HETATM   36  C   UNL     1      -8.897  15.245  69.772  1.00  0.00     0.004 C  
HETATM   37  C   UNL     1      -7.918  16.037  68.911  1.00  0.00    -0.212 C  
HETATM   38  C   UNL     1      -8.619  17.321  68.411  1.00  0.00    -0.251 C  
HETATM   39  N   UNL     1      -6.680  16.334  69.647  1.00  0.00    -0.194 NA 
HETATM   40  C   UNL     1      -9.918  16.940  67.678  1.00  0.00    -0.271 C  
HETATM   41  H2  UNL     1      -6.252  15.486  70.018  1.00  0.00     0.000 HD 
HETATM   42  O   UNL     1      -7.775  18.084  67.548  1.00  0.00    -0.209 OA 
HETATM   43  H1  UNL     1      -6.026  16.863  69.071  1.00  0.00     0.000 HD 
HETATM   44  C   UNL     1     -10.720  18.189  67.319  1.00  0.00    -0.336 C  
HETATM   45  H   UNL     1      -8.206  18.873  67.240  1.00  0.00     0.000 HD 
HETATM   46  O   UNL     1     -10.766  16.116  68.485  1.00  0.00    -0.268 OA 
ENDBRANCH  34  35
ENDBRANCH  22  34
ENDBRANCH   2   3
TORSDOF 5
ENDMDL
MODEL        6
REMARK 921   NORMALIZED FREE ENERGY PREDICTED BY IDOCK:   -8.00 KCAL/MOL
REMARK 922        TOTAL FREE ENERGY PREDICTED BY IDOCK:  -11.39 KCAL/MOL
REMARK 923 INTER-LIGAND FREE ENERGY PREDICTED BY IDOCK:  -10.59 KCAL/MOL
REMARK 924 INTRA-LIGAND FREE ENERGY PREDICTED BY IDOCK:   -0.80 KCAL/MOL
REMARK 927      BINDING AFFINITY PREDICTED BY RF-SCORE:    0.00 PKD
ROOT
HETATM    1  C   UNL     1      -6.468   5.693  67.354  1.00  0.00    -0.047 C  
HETATM    2  O   UNL     1      -7.691   6.414  67.239  1.00  0.00    -0.097 OA 
ENDROOT
BRANCH   2   3
HETATM    3  C   UNL     1      -8.657   6.152  68.176  1.00  0.00    -0.115 A  
HETATM    4  C   UNL     1      -8.899   4.848  68.641  1.00  0.00    -0.116 A  
HETATM    5  C   UNL     1      -9.876   4.602  69.599  1.00  0.00    -0.293 A  
HETATM    6  C   UNL     1     -10.623   5.656  70.102  1.00  0.00    -0.380 A  
HETATM    7  C   UNL     1     -10.412   6.962  69.636  1.00  0.00    -0.240 A  
HETATM    8  C   UNL     1      -9.445   7.221  68.661  1.00  0.00    -0.137 A  
HETATM    9  C   UNL     1      -9.288   8.620  68.178  1.00  0.00    -0.137 C  
HETATM   10  O   UNL     1      -8.546   8.911  67.246  1.00  0.00    -0.117 OA 
HETATM   11  C   UNL     1     -10.051   9.724  68.818  1.00  0.00    -0.187 A  
HETATM   12  C   UNL     1      -9.818  11.063  68.435  1.00  0.00    -0.182 A  
HETATM   13  O   UNL     1      -8.863  11.384  67.495  1.00  0.00    -0.142 OA 
HETATM   14  C   UNL     1     -10.529  12.139  69.005  1.00  0.00    -0.072 A  
HETATM   15  H   UNL     1      -8.707  12.285  67.238  1.00  0.00     0.000 HD 
HETATM   16  C   UNL     1     -11.510  11.861  69.987  1.00  0.00    -0.213 A  
HETATM   17  C   UNL     1     -11.698  10.523  70.403  1.00  0.00    -0.344 A  
HETATM   18  C   UNL     1     -12.317  12.983  70.626  1.00  0.00    -0.391 C  
HETATM   19  C   UNL     1     -12.214  14.323  69.892  1.00  0.00    -0.352 C  
HETATM   20  C   UNL     1     -10.992   9.455  69.808  1.00  0.00    -0.234 A  
HETATM   21  O   UNL     1     -12.545  10.240  71.439  1.00  0.00    -0.361 OA 
HETATM   22  C   UNL     1     -10.212  13.567  68.564  1.00  0.00    -0.229 C  
HETATM   23  C   UNL     1     -11.245   8.043  70.201  1.00  0.00    -0.144 C  
HETATM   24  C   UNL     1     -10.738  14.586  69.577  1.00  0.00    -0.168 C  
HETATM   25  O   UNL     1     -13.026  14.291  68.717  1.00  0.00     0.176 OA 
HETATM   26  H   UNL     1     -12.672   9.341  71.719  1.00  0.00     0.000 HD 
HETATM   27  O   UNL     1     -12.136   7.728  70.982  1.00  0.00    -0.302 OA 
HETATM   28  H   UNL     1     -12.961  15.122  68.262  1.00  0.00     0.000 HD 
BRANCH  19  29
HETATM   29  C   UNL     1     -12.754  15.452  70.786  1.00  0.00    -0.459 C  
HETATM   30  O   UNL     1     -13.942  15.792  70.774  1.00  0.00    -0.302 OA 
BRANCH  29  31
HETATM   31  C   UNL     1     -11.746  16.212  71.647  1.00  0.00    -0.484 C  
HETATM   32  O   UNL     1     -11.829  15.840  73.017  1.00  0.00    -0.452 OA 
HETATM   33  H   UNL     1     -11.202  16.313  73.551  1.00  0.00     0.000 HD 
ENDBRANCH  29  31
ENDBRANCH  19  29
BRANCH  22  34
HETATM   34  O   UNL     1     -10.796  13.769  67.265  1.00  0.00    -0.280 OA 
BRANCH  34  35
HETATM   35  C   UNL     1      -9.879  14.025  66.192  1.00  0.00    -0.303 C  
HETATM   36  C   UNL     1     -10.531  14.390  64.857  1.00  0.00    -0.448 C  
HETATM   37  C   UNL     1     -11.218  15.747  64.973  1.00  0.00    -0.308 C  
HETATM   38  C   UNL     1     -10.170  16.802  65.395  1.00  0.00    -0.073 C  
HETATM   39  N   UNL     1     -11.895  16.112  63.719  1.00  0.00    -1.368 NA 
HETATM   40  C   UNL     1      -9.482  16.344  66.695  1.00  0.00    -0.256 C  
HETATM   41  H2  UNL     1     -12.546  15.386  63.420  1.00  0.00     0.000 HD 
HETATM   42  O   UNL     1     -10.759  18.090  65.581  1.00  0.00    -0.533 OA 
HETATM   43  H1  UNL     1     -12.354  17.019  63.798  1.00  0.00     0.000 HD 
HETATM   44  C   UNL     1      -8.326  17.278  67.048  1.00  0.00    -0.231 C  
HETATM   45  H   UNL     1     -10.115  18.738  65.841  1.00  0.00     0.000 HD 
HETATM   46  O   UNL     1      -8.934  15.027  66.575  1.00  0.00    -0.269 OA 
ENDBRANCH  34  35
ENDBRANCH  22  34
ENDBRANCH   2   3
TORSDOF 5
ENDMDL
MODEL        7
REMARK 921   NORMALIZED FREE ENERGY PREDICTED BY IDOCK:   -7.86 KCAL/MOL
REMARK 922        TOTAL FREE ENERGY PREDICTED BY IDOCK:  -11.20 KCAL/MOL
REMARK 923 INTER-LIGAND FREE ENERGY PREDICTED BY IDOCK:   -9.98 KCAL/MOL
REMARK 924 INTRA-LIGAND FREE ENERGY PREDICTED BY IDOCK:   -1.22 KCAL/MOL
REMARK 927      BINDING AFFINITY PREDICTED BY RF-SCORE:    0.00 PKD
ROOT
HETATM    1  C   UNL     1     -10.221   6.710  74.081  1.00  0.00    -0.363 C  
HETATM    2  O   UNL     1      -9.321   7.648  73.496  1.00  0.00    -0.237 OA 
ENDROOT
BRANCH   2   3
HETATM    3  C   UNL     1      -8.462   7.172  72.541  1.00  0.00    -0.111 A  
HETATM    4  C   UNL     1      -7.542   6.148  72.820  1.00  0.00    -0.101 A  
HETATM    5  C   UNL     1      -6.683   5.671  71.835  1.00  0.00    -0.059 A  
HETATM    6  C   UNL     1      -6.736   6.213  70.560  1.00  0.00    -0.053 A  
HETATM    7  C   UNL     1      -7.633   7.251  70.266  1.00  0.00    -0.089 A  
HETATM    8  C   UNL     1      -8.488   7.752  71.251  1.00  0.00    -0.125 A  
HETATM    9  C   UNL     1      -9.394   8.876  70.892  1.00  0.00    -0.238 C  
HETATM   10  O   UNL     1     -10.091   9.447  71.725  1.00  0.00    -0.200 OA 
HETATM   11  C   UNL     1      -9.473   9.357  69.487  1.00  0.00    -0.187 A  
HETATM   12  C   UNL     1     -10.414  10.346  69.127  1.00  0.00    -0.227 A  
HETATM   13  O   UNL     1     -11.298  10.863  70.047  1.00  0.00    -0.288 OA 
HETATM   14  C   UNL     1     -10.512  10.841  67.810  1.00  0.00    -0.243 A  
HETATM   15  H   UNL     1     -11.931  11.529  69.805  1.00  0.00     0.000 HD 
HETATM   16  C   UNL     1      -9.634  10.329  66.824  1.00  0.00    -0.214 A  
HETATM   17  C   UNL     1      -8.734   9.300  67.182  1.00  0.00    -0.127 A  
HETATM   18  C   UNL     1      -9.688  10.837  65.390  1.00  0.00    -0.297 C  
HETATM   19  C   UNL     1     -10.497  12.126  65.213  1.00  0.00    -0.276 C  
HETATM   20  C   UNL     1      -8.634   8.830  68.509  1.00  0.00    -0.134 A  
HETATM   21  O   UNL     1      -7.965   8.698  66.223  1.00  0.00    -0.099 OA 
HETATM   22  C   UNL     1     -11.568  11.896  67.480  1.00  0.00    -0.304 C  
HETATM   23  C   UNL     1      -7.635   7.796  68.894  1.00  0.00    -0.101 C  
HETATM   24  C   UNL     1     -11.818  11.972  65.973  1.00  0.00    -0.223 C  
HETATM   25  O   UNL     1      -9.730  13.240  65.671  1.00  0.00    -0.442 OA 
HETATM   26  H   UNL     1      -7.360   8.006  66.464  1.00  0.00     0.000 HD 
HETATM   27  O   UNL     1      -6.793   7.374  68.110  1.00  0.00    -0.059 OA 
HETATM   28  H   UNL     1     -10.232  14.039  65.561  1.00  0.00     0.000 HD 
BRANCH  19  29
HETATM   29  C   UNL     1     -10.790  12.358  63.721  1.00  0.00    -0.454 C  
HETATM   30  O   UNL     1      -9.934  12.185  62.846  1.00  0.00    -0.247 OA 
BRANCH  29  31
HETATM   31  C   UNL     1     -12.170  12.898  63.350  1.00  0.00    -0.490 C  
HETATM   32  O   UNL     1     -12.259  14.305  63.543  1.00  0.00    -1.015 OA 
HETATM   33  H   UNL     1     -13.118  14.640  63.312  1.00  0.00     0.000 HD 
ENDBRANCH  29  31
ENDBRANCH  19  29
BRANCH  22  34
HETATM   34  O   UNL     1     -11.111  13.156  68.002  1.00  0.00    -0.243 OA 
BRANCH  34  35
HETATM   35  C   UNL     1     -12.028  14.254  67.893  1.00  0.00    -0.329 C  
HETATM   36  C   UNL     1     -12.378  14.939  69.216  1.00  0.00    -0.138 C  
HETATM   37  C   UNL     1     -11.147  15.650  69.769  1.00  0.00    -0.313 C  
HETATM   38  C   UNL     1     -10.648  16.671  68.720  1.00  0.00    -0.340 C  
HETATM   39  N   UNL     1     -11.433  16.284  71.065  1.00  0.00    -0.527 NA 
HETATM   40  C   UNL     1     -10.396  15.948  67.385  1.00  0.00    -0.288 C  
HETATM   41  H2  UNL     1     -11.811  15.613  71.734  1.00  0.00     0.000 HD 
HETATM   42  O   UNL     1      -9.458  17.334  69.151  1.00  0.00    -0.180 OA 
HETATM   43  H1  UNL     1     -10.610  16.759  71.434  1.00  0.00     0.000 HD 
HETATM   44  C   UNL     1     -10.065  16.953  66.283  1.00  0.00    -0.335 C  
HETATM   45  H   UNL     1      -9.152  17.961  68.506  1.00  0.00     0.000 HD 
HETATM   46  O   UNL     1     -11.545  15.213  66.949  1.00  0.00    -0.285 OA 
ENDBRANCH  34  35
ENDBRANCH  22  34
ENDBRANCH   2   3
TORSDOF 5
ENDMDL
MODEL        8
REMARK 921   NORMALIZED FREE ENERGY PREDICTED BY IDOCK:   -7.81 KCAL/MOL
REMARK 922        TOTAL FREE ENERGY PREDICTED BY IDOCK:  -11.14 KCAL/MOL
REMARK 923 INTER-LIGAND FREE ENERGY PREDICTED BY IDOCK:   -9.83 KCAL/MOL
REMARK 924 INTRA-LIGAND FREE ENERGY PREDICTED BY IDOCK:   -1.31 KCAL/MOL
REMARK 927      BINDING AFFINITY PREDICTED BY RF-SCORE:    0.00 PKD
ROOT
HETATM    1  C   UNL     1      -7.809   3.016  65.830  1.00  0.00    -0.081 C  
HETATM    2  O   UNL     1      -7.434   3.820  66.946  1.00  0.00    -0.077 OA 
ENDROOT
BRANCH   2   3
HETATM    3  C   UNL     1      -8.185   3.691  68.084  1.00  0.00    -0.083 A  
HETATM    4  C   UNL     1      -8.292   2.465  68.763  1.00  0.00    -0.080 A  
HETATM    5  C   UNL     1      -9.051   2.354  69.923  1.00  0.00    -0.176 A  
HETATM    6  C   UNL     1      -9.713   3.468  70.417  1.00  0.00    -0.176 A  
HETATM    7  C   UNL     1      -9.637   4.697  69.743  1.00  0.00    -0.258 A  
HETATM    8  C   UNL     1      -8.893   4.817  68.567  1.00  0.00    -0.119 A  
HETATM    9  C   UNL     1      -8.876   6.134  67.875  1.00  0.00    -0.111 C  
HETATM   10  O   UNL     1      -8.343   6.292  66.781  1.00  0.00    -0.109 OA 
HETATM   11  C   UNL     1      -9.528   7.317  68.498  1.00  0.00    -0.140 A  
HETATM   12  C   UNL     1      -9.415   8.589  67.895  1.00  0.00    -0.139 A  
HETATM   13  O   UNL     1      -8.677   8.775  66.747  1.00  0.00    -0.119 OA 
HETATM   14  C   UNL     1     -10.030   9.733  68.443  1.00  0.00    -0.176 A  
HETATM   15  H   UNL     1      -8.601   9.631  66.342  1.00  0.00     0.000 HD 
HETATM   16  C   UNL     1     -10.787   9.594  69.631  1.00  0.00    -0.266 A  
HETATM   17  C   UNL     1     -10.849   8.329  70.256  1.00  0.00    -0.240 A  
HETATM   18  C   UNL     1     -11.483  10.794  70.259  1.00  0.00    -0.406 C  
HETATM   19  C   UNL     1     -11.567  12.018  69.342  1.00  0.00    -0.330 C  
HETATM   20  C   UNL     1     -10.244   7.188  69.684  1.00  0.00    -0.215 A  
HETATM   21  O   UNL     1     -11.464   8.192  71.471  1.00  0.00    -0.252 OA 
HETATM   22  C   UNL     1      -9.849  11.086  67.755  1.00  0.00    -0.173 C  
HETATM   23  C   UNL     1     -10.372   5.844  70.310  1.00  0.00    -0.235 C  
HETATM   24  C   UNL     1     -10.192  12.236  68.704  1.00  0.00    -0.177 C  
HETATM   25  O   UNL     1     -12.596  11.820  68.371  1.00  0.00     0.023 OA 
HETATM   26  H   UNL     1     -11.506   7.341  71.891  1.00  0.00     0.000 HD 
HETATM   27  O   UNL     1     -11.080   5.642  71.290  1.00  0.00    -0.229 OA 
HETATM   28  H   UNL     1     -12.648  12.579  67.803  1.00  0.00     0.000 HD 
BRANCH  19  29
HETATM   29  C   UNL     1     -11.951  13.261  70.164  1.00  0.00    -0.318 C  
HETATM   30  O   UNL     1     -12.535  13.179  71.250  1.00  0.00    -0.332 OA 
BRANCH  29  31
HETATM   31  C   UNL     1     -11.661  14.629  69.549  1.00  0.00    -0.310 C  
HETATM   32  O   UNL     1     -12.441  14.864  68.383  1.00  0.00    -0.559 OA 
HETATM   33  H   UNL     1     -12.260  15.715  68.001  1.00  0.00     0.000 HD 
ENDBRANCH  29  31
ENDBRANCH  19  29
BRANCH  22  34
HETATM   34  O   UNL     1     -10.686  11.102  66.586  1.00  0.00    -0.258 OA 
BRANCH  34  35
HETATM   35  C   UNL     1     -10.057  11.515  65.364  1.00  0.00    -0.260 C  
HETATM   36  C   UNL     1     -10.850  11.207  64.092  1.00  0.00    -0.355 C  
HETATM   37  C   UNL     1     -12.119  12.051  64.058  1.00  0.00    -0.406 C  
HETATM   38  C   UNL     1     -11.726  13.545  64.128  1.00  0.00    -0.411 C  
HETATM   39  N   UNL     1     -12.930  11.749  62.869  1.00  0.00    -0.784 NA 
HETATM   40  C   UNL     1     -10.858  13.785  65.377  1.00  0.00    -0.312 C  
HETATM   41  H2  UNL     1     -13.140  10.753  62.802  1.00  0.00     0.000 HD 
HETATM   42  O   UNL     1     -12.875  14.394  64.160  1.00  0.00    -0.606 OA 
HETATM   43  H1  UNL     1     -13.778  12.313  62.847  1.00  0.00     0.000 HD 
HETATM   44  C   UNL     1     -10.313  15.211  65.387  1.00  0.00    -0.415 C  
HETATM   45  H   UNL     1     -12.633  15.312  64.204  1.00  0.00     0.000 HD 
HETATM   46  O   UNL     1      -9.729  12.906  65.420  1.00  0.00    -0.165 OA 
ENDBRANCH  34  35
ENDBRANCH  22  34
ENDBRANCH   2   3
TORSDOF 5
ENDMDL
MODEL        9
REMARK 921   NORMALIZED FREE ENERGY PREDICTED BY IDOCK:   -7.76 KCAL/MOL
REMARK 922        TOTAL FREE ENERGY PREDICTED BY IDOCK:  -11.07 KCAL/MOL
REMARK 923 INTER-LIGAND FREE ENERGY PREDICTED BY IDOCK:  -10.49 KCAL/MOL
REMARK 924 INTRA-LIGAND FREE ENERGY PREDICTED BY IDOCK:   -0.59 KCAL/MOL
REMARK 927      BINDING AFFINITY PREDICTED BY RF-SCORE:    0.00 PKD
ROOT
HETATM    1  C   UNL     1     -10.361  17.028  69.136  1.00  0.00    -0.313 C  
HETATM    2  O   UNL     1     -11.089  15.881  68.708  1.00  0.00    -0.286 OA 
ENDROOT
BRANCH   2   3
HETATM    3  C   UNL     1     -10.968  15.524  67.391  1.00  0.00    -0.306 A  
HETATM    4  C   UNL     1     -10.995  16.480  66.362  1.00  0.00     0.082 A  
HETATM    5  C   UNL     1     -10.861  16.101  65.030  1.00  0.00    -0.380 A  
HETATM    6  C   UNL     1     -10.699  14.761  64.713  1.00  0.00    -0.380 A  
HETATM    7  C   UNL     1     -10.690  13.788  65.724  1.00  0.00    -0.281 A  
HETATM    8  C   UNL     1     -10.842  14.154  67.064  1.00  0.00    -0.295 A  
HETATM    9  C   UNL     1     -10.861  13.077  68.091  1.00  0.00    -0.247 C  
HETATM   10  O   UNL     1     -11.104  13.303  69.272  1.00  0.00    -0.231 OA 
HETATM   11  C   UNL     1     -10.591  11.667  67.703  1.00  0.00    -0.237 A  
HETATM   12  C   UNL     1     -10.498  10.664  68.693  1.00  0.00    -0.191 A  
HETATM   13  O   UNL     1     -10.617  10.965  70.032  1.00  0.00    -0.454 OA 
HETATM   14  C   UNL     1     -10.259   9.312  68.369  1.00  0.00    -0.231 A  
HETATM   15  H   UNL     1     -10.554  10.290  70.698  1.00  0.00     0.000 HD 
HETATM   16  C   UNL     1     -10.114   8.956  67.007  1.00  0.00    -0.331 A  
HETATM   17  C   UNL     1     -10.154   9.974  66.028  1.00  0.00    -0.248 A  
HETATM   18  C   UNL     1      -9.868   7.510  66.599  1.00  0.00    -0.274 C  
HETATM   19  C   UNL     1     -10.127   6.493  67.715  1.00  0.00    -0.148 C  
HETATM   20  C   UNL     1     -10.415  11.320  66.367  1.00  0.00    -0.306 A  
HETATM   21  O   UNL     1      -9.890   9.678  64.718  1.00  0.00    -0.424 OA 
HETATM   22  C   UNL     1     -10.145   8.280  69.490  1.00  0.00    -0.197 C  
HETATM   23  C   UNL     1     -10.525  12.376  65.325  1.00  0.00    -0.286 C  
HETATM   24  C   UNL     1      -9.459   7.005  68.995  1.00  0.00    -0.138 C  
HETATM   25  O   UNL     1     -11.534   6.301  67.872  1.00  0.00    -0.573 OA 
HETATM   26  H   UNL     1      -9.917  10.362  64.060  1.00  0.00     0.000 HD 
HETATM   27  O   UNL     1     -10.493  12.121  64.126  1.00  0.00    -0.307 OA 
HETATM   28  H   UNL     1     -11.694   5.671  68.564  1.00  0.00     0.000 HD 
BRANCH  19  29
HETATM   29  C   UNL     1      -9.522   5.132  67.333  1.00  0.00    -0.132 C  
HETATM   30  O   UNL     1      -8.815   4.482  68.111  1.00  0.00    -0.102 OA 
BRANCH  29  31
HETATM   31  C   UNL     1      -9.754   4.634  65.907  1.00  0.00    -0.200 C  
HETATM   32  O   UNL     1     -11.140   4.533  65.599  1.00  0.00    -0.763 OA 
HETATM   33  H   UNL     1     -11.283   4.223  64.712  1.00  0.00     0.000 HD 
ENDBRANCH  29  31
ENDBRANCH  19  29
BRANCH  22  34
HETATM   34  O   UNL     1     -11.471   8.009  69.976  1.00  0.00    -0.108 OA 
BRANCH  34  35
HETATM   35  C   UNL     1     -11.742   8.407  71.328  1.00  0.00    -0.285 C  
HETATM   36  C   UNL     1     -12.469   7.362  72.177  1.00  0.00    -0.211 C  
HETATM   37  C   UNL     1     -11.556   6.163  72.413  1.00  0.00    -0.292 C  
HETATM   38  C   UNL     1     -10.262   6.651  73.104  1.00  0.00    -0.219 C  
HETATM   39  N   UNL     1     -12.237   5.117  73.189  1.00  0.00    -0.350 NA 
HETATM   40  C   UNL     1      -9.617   7.762  72.255  1.00  0.00    -0.176 C  
HETATM   41  H2  UNL     1     -13.116   4.839  72.753  1.00  0.00     0.000 HD 
HETATM   42  O   UNL     1      -9.332   5.584  73.303  1.00  0.00    -0.132 OA 
HETATM   43  H1  UNL     1     -11.626   4.316  73.346  1.00  0.00     0.000 HD 
HETATM   44  C   UNL     1      -8.432   8.382  72.991  1.00  0.00    -0.209 C  
HETATM   45  H   UNL     1      -8.537   5.884  73.727  1.00  0.00     0.000 HD 
HETATM   46  O   UNL     1     -10.537   8.822  71.975  1.00  0.00    -0.324 OA 
ENDBRANCH  34  35
ENDBRANCH  22  34
ENDBRANCH   2   3
TORSDOF 5
ENDMDL
MODEL       10
REMARK 921   NORMALIZED FREE ENERGY PREDICTED BY IDOCK:   -7.67 KCAL/MOL
REMARK 922        TOTAL FREE ENERGY PREDICTED BY IDOCK:  -10.95 KCAL/MOL
REMARK 923 INTER-LIGAND FREE ENERGY PREDICTED BY IDOCK:  -10.13 KCAL/MOL
REMARK 924 INTRA-LIGAND FREE ENERGY PREDICTED BY IDOCK:   -0.83 KCAL/MOL
REMARK 927      BINDING AFFINITY PREDICTED BY RF-SCORE:    0.00 PKD
ROOT
HETATM    1  C   UNL     1     -12.107  12.182  63.107  1.00  0.00    -0.247 C  
HETATM    2  O   UNL     1     -10.969  12.473  63.913  1.00  0.00    -0.360 OA 
ENDROOT
BRANCH   2   3
HETATM    3  C   UNL     1     -11.194  13.148  65.084  1.00  0.00    -0.294 A  
HETATM    4  C   UNL     1     -11.469  14.525  65.102  1.00  0.00    -0.368 A  
HETATM    5  C   UNL     1     -11.704  15.192  66.299  1.00  0.00    -0.002 A  
HETATM    6  C   UNL     1     -11.667  14.488  67.493  1.00  0.00    -0.413 A  
HETATM    7  C   UNL     1     -11.373  13.116  67.501  1.00  0.00    -0.336 A  
HETATM    8  C   UNL     1     -11.118  12.438  66.306  1.00  0.00    -0.344 A  
HETATM    9  C   UNL     1     -10.778  10.991  66.376  1.00  0.00    -0.227 C  
HETATM   10  O   UNL     1     -10.428  10.352  65.388  1.00  0.00    -0.237 OA 
HETATM   11  C   UNL     1     -10.842  10.268  67.673  1.00  0.00    -0.363 A  
HETATM   12  C   UNL     1     -10.629   8.872  67.719  1.00  0.00    -0.202 A  
HETATM   13  O   UNL     1     -10.394   8.145  66.573  1.00  0.00    -0.427 OA 
HETATM   14  C   UNL     1     -10.666   8.149  68.929  1.00  0.00    -0.090 A  
HETATM   15  H   UNL     1     -10.250   7.206  66.604  1.00  0.00     0.000 HD 
HETATM   16  C   UNL     1     -10.919   8.851  70.132  1.00  0.00    -0.245 A  
HETATM   17  C   UNL     1     -11.185  10.237  70.069  1.00  0.00    -0.311 A  
HETATM   18  C   UNL     1     -10.957   8.123  71.469  1.00  0.00    -0.294 C  
HETATM   19  C   UNL     1     -10.382   6.704  71.424  1.00  0.00    -0.200 C  
HETATM   20  C   UNL     1     -11.125  10.951  68.852  1.00  0.00    -0.307 A  
HETATM   21  O   UNL     1     -11.560  10.916  71.197  1.00  0.00    -0.246 OA 
HETATM   22  C   UNL     1     -10.450   6.637  68.907  1.00  0.00    -0.212 C  
HETATM   23  C   UNL     1     -11.337  12.422  68.803  1.00  0.00    -0.293 C  
HETATM   24  C   UNL     1     -10.959   5.990  70.198  1.00  0.00    -0.429 C  
HETATM   25  O   UNL     1      -8.955   6.766  71.399  1.00  0.00    -0.142 OA 
HETATM   26  H   UNL     1     -11.739  11.848  71.155  1.00  0.00     0.000 HD 
HETATM   27  O   UNL     1     -11.477  13.099  69.815  1.00  0.00    -0.236 OA 
HETATM   28  H   UNL     1      -8.598   5.886  71.371  1.00  0.00     0.000 HD 
BRANCH  19  29
HETATM   29  C   UNL     1     -10.781   5.938  72.696  1.00  0.00    -0.234 C  
HETATM   30  O   UNL     1     -11.872   5.368  72.808  1.00  0.00    -0.268 OA 
BRANCH  29  31
HETATM   31  C   UNL     1      -9.807   5.970  73.873  1.00  0.00    -0.197 C  
HETATM   32  O   UNL     1      -9.475   7.301  74.251  1.00  0.00    -0.372 OA 
HETATM   33  H   UNL     1      -8.870   7.320  74.983  1.00  0.00     0.000 HD 
ENDBRANCH  29  31
ENDBRANCH  19  29
BRANCH  22  34
HETATM   34  O   UNL     1      -9.046   6.393  68.715  1.00  0.00    -0.126 OA 
BRANCH  34  35
HETATM   35  C   UNL     1      -8.690   5.084  68.251  1.00  0.00    -0.102 C  
HETATM   36  C   UNL     1      -9.772   4.369  67.438  1.00  0.00    -0.217 C  
HETATM   37  C   UNL     1      -9.983   5.093  66.112  1.00  0.00    -0.194 C  
HETATM   38  C   UNL     1      -8.640   5.135  65.348  1.00  0.00    -0.146 C  
HETATM   39  N   UNL     1     -11.049   4.459  65.322  1.00  0.00    -0.899 NA 
HETATM   40  C   UNL     1      -7.565   5.783  66.241  1.00  0.00    -0.091 C  
HETATM   41  H2  UNL     1     -11.917   4.388  65.852  1.00  0.00     0.000 HD 
HETATM   42  O   UNL     1      -8.752   5.854  64.118  1.00  0.00    -0.349 OA 
HETATM   43  H1  UNL     1     -11.190   4.943  64.436  1.00  0.00     0.000 HD 
HETATM   44  C   UNL     1      -6.191   5.688  65.583  1.00  0.00    -0.034 C  
HETATM   45  H   UNL     1      -7.926   5.880  63.649  1.00  0.00     0.000 HD 
HETATM   46  O   UNL     1      -7.466   5.134  67.513  1.00  0.00    -0.081 OA 
ENDBRANCH  34  35
ENDBRANCH  22  34
ENDBRANCH   2   3
TORSDOF 5
ENDMDL
MODEL       11
REMARK 921   NORMALIZED FREE ENERGY PREDICTED BY IDOCK:   -7.55 KCAL/MOL
REMARK 922        TOTAL FREE ENERGY PREDICTED BY IDOCK:  -10.80 KCAL/MOL
REMARK 923 INTER-LIGAND FREE ENERGY PREDICTED BY IDOCK:   -9.49 KCAL/MOL
REMARK 924 INTRA-LIGAND FREE ENERGY PREDICTED BY IDOCK:   -1.32 KCAL/MOL
REMARK 927      BINDING AFFINITY PREDICTED BY RF-SCORE:    0.00 PKD
ROOT
HETATM    1  C   UNL     1     -11.179   6.177  71.357  1.00  0.00    -0.287 C  
HETATM    2  O   UNL     1     -11.149   7.098  70.271  1.00  0.00    -0.259 OA 
ENDROOT
BRANCH   2   3
HETATM    3  C   UNL     1      -9.946   7.276  69.640  1.00  0.00    -0.176 A  
HETATM    4  C   UNL     1      -9.057   6.208  69.431  1.00  0.00    -0.135 A  
HETATM    5  C   UNL     1      -7.844   6.404  68.780  1.00  0.00    -0.109 A  
HETATM    6  C   UNL     1      -7.505   7.672  68.332  1.00  0.00    -0.104 A  
HETATM    7  C   UNL     1      -8.368   8.757  68.549  1.00  0.00    -0.129 A  
HETATM    8  C   UNL     1      -9.582   8.576  69.217  1.00  0.00    -0.170 A  
HETATM    9  C   UNL     1     -10.443   9.767  69.450  1.00  0.00    -0.223 C  
HETATM   10  O   UNL     1     -11.465   9.714  70.127  1.00  0.00    -0.242 OA 
HETATM   11  C   UNL     1     -10.073  11.085  68.867  1.00  0.00    -0.212 A  
HETATM   12  C   UNL     1     -10.946  12.187  68.995  1.00  0.00    -0.205 A  
HETATM   13  O   UNL     1     -12.166  12.067  69.623  1.00  0.00    -0.235 OA 
HETATM   14  C   UNL     1     -10.629  13.458  68.471  1.00  0.00    -0.264 A  
HETATM   15  H   UNL     1     -12.753  12.809  69.709  1.00  0.00     0.000 HD 
HETATM   16  C   UNL     1      -9.392  13.627  67.803  1.00  0.00    -0.218 A  
HETATM   17  C   UNL     1      -8.550  12.505  67.633  1.00  0.00    -0.178 A  
HETATM   18  C   UNL     1      -8.992  14.980  67.229  1.00  0.00    -0.212 C  
HETATM   19  C   UNL     1      -9.852  16.147  67.725  1.00  0.00    -0.232 C  
HETATM   20  C   UNL     1      -8.873  11.244  68.181  1.00  0.00    -0.159 A  
HETATM   21  O   UNL     1      -7.412  12.610  66.881  1.00  0.00    -0.376 OA 
HETATM   22  C   UNL     1     -11.628  14.603  68.622  1.00  0.00    -0.314 C  
HETATM   23  C   UNL     1      -7.949  10.084  68.058  1.00  0.00    -0.101 C  
HETATM   24  C   UNL     1     -11.323  15.732  67.635  1.00  0.00    -0.194 C  
HETATM   25  O   UNL     1      -9.463  16.498  69.054  1.00  0.00    -0.254 OA 
HETATM   26  H   UNL     1      -6.845  11.855  66.766  1.00  0.00     0.000 HD 
HETATM   27  O   UNL     1      -6.831  10.185  67.567  1.00  0.00    -0.075 OA 
HETATM   28  H   UNL     1      -9.996  17.221  69.361  1.00  0.00     0.000 HD 
BRANCH  19  29
HETATM   29  C   UNL     1      -9.614  17.383  66.841  1.00  0.00    -0.277 C  
HETATM   30  O   UNL     1      -8.733  17.414  65.974  1.00  0.00    -0.499 OA 
BRANCH  29  31
HETATM   31  C   UNL     1     -10.458  18.624  67.125  1.00  0.00    -0.415 C  
HETATM   32  O   UNL     1     -10.272  19.101  68.453  1.00  0.00    -0.387 OA 
HETATM   33  H   UNL     1     -10.797  19.873  68.629  1.00  0.00     0.000 HD 
ENDBRANCH  29  31
ENDBRANCH  19  29
BRANCH  22  34
HETATM   34  O   UNL     1     -11.569  15.065  69.983  1.00  0.00    -0.253 OA 
BRANCH  34  35
HETATM   35  C   UNL     1     -12.797  15.556  70.538  1.00  0.00    -0.353 C  
HETATM   36  C   UNL     1     -13.741  14.478  71.075  1.00  0.00    -0.241 C  
HETATM   37  C   UNL     1     -13.121  13.815  72.301  1.00  0.00    -0.405 C  
HETATM   38  C   UNL     1     -12.840  14.900  73.366  1.00  0.00    -0.515 C  
HETATM   39  N   UNL     1     -13.982  12.742  72.820  1.00  0.00    -0.579 NA 
HETATM   40  C   UNL     1     -11.961  16.004  72.749  1.00  0.00    -0.518 C  
HETATM   41  H2  UNL     1     -14.205  12.058  72.096  1.00  0.00     0.000 HD 
HETATM   42  O   UNL     1     -12.203  14.355  74.523  1.00  0.00    -0.245 OA 
HETATM   43  H1  UNL     1     -13.567  12.299  73.639  1.00  0.00     0.000 HD 
HETATM   44  C   UNL     1     -11.804  17.172  73.720  1.00  0.00     0.155 C  
HETATM   45  H   UNL     1     -12.030  15.022  75.177  1.00  0.00     0.000 HD 
HETATM   46  O   UNL     1     -12.531  16.532  71.548  1.00  0.00     0.109 OA 
ENDBRANCH  34  35
ENDBRANCH  22  34
ENDBRANCH   2   3
TORSDOF 5
ENDMDL
MODEL       12
REMARK 921   NORMALIZED FREE ENERGY PREDICTED BY IDOCK:   -7.45 KCAL/MOL
REMARK 922        TOTAL FREE ENERGY PREDICTED BY IDOCK:  -10.67 KCAL/MOL
REMARK 923 INTER-LIGAND FREE ENERGY PREDICTED BY IDOCK:   -9.33 KCAL/MOL
REMARK 924 INTRA-LIGAND FREE ENERGY PREDICTED BY IDOCK:   -1.34 KCAL/MOL
REMARK 927      BINDING AFFINITY PREDICTED BY RF-SCORE:    0.00 PKD
ROOT
HETATM    1  C   UNL     1      -5.931   7.734  72.338  1.00  0.00    -0.040 C  
HETATM    2  O   UNL     1      -5.584   8.237  71.051  1.00  0.00    -0.032 OA 
ENDROOT
BRANCH   2   3
HETATM    3  C   UNL     1      -5.989   7.503  69.967  1.00  0.00    -0.024 A  
HETATM    4  C   UNL     1      -5.629   6.154  69.813  1.00  0.00    -0.013 A  
HETATM    5  C   UNL     1      -6.057   5.422  68.711  1.00  0.00    -0.022 A  
HETATM    6  C   UNL     1      -6.851   6.031  67.751  1.00  0.00    -0.060 A  
HETATM    7  C   UNL     1      -7.206   7.383  67.875  1.00  0.00    -0.091 A  
HETATM    8  C   UNL     1      -6.767   8.135  68.968  1.00  0.00    -0.048 A  
HETATM    9  C   UNL     1      -7.143   9.573  69.032  1.00  0.00    -0.066 C  
HETATM   10  O   UNL     1      -6.705  10.327  69.894  1.00  0.00    -0.090 OA 
HETATM   11  C   UNL     1      -8.072  10.150  68.023  1.00  0.00    -0.112 A  
HETATM   12  C   UNL     1      -8.516  11.484  68.150  1.00  0.00    -0.154 A  
HETATM   13  O   UNL     1      -8.136  12.269  69.216  1.00  0.00    -0.262 OA 
HETATM   14  C   UNL     1      -9.384  12.076  67.208  1.00  0.00    -0.180 A  
HETATM   15  H   UNL     1      -8.435  13.166  69.300  1.00  0.00     0.000 HD 
HETATM   16  C   UNL     1      -9.815  11.304  66.102  1.00  0.00    -0.262 A  
HETATM   17  C   UNL     1      -9.409   9.953  66.015  1.00  0.00    -0.188 A  
HETATM   18  C   UNL     1     -10.742  11.896  65.049  1.00  0.00    -0.341 C  
HETATM   19  C   UNL     1     -10.870  13.421  65.116  1.00  0.00    -0.313 C  
HETATM   20  C   UNL     1      -8.523   9.381  66.954  1.00  0.00    -0.128 A  
HETATM   21  O   UNL     1      -9.912   9.148  65.029  1.00  0.00    -0.292 OA 
HETATM   22  C   UNL     1      -9.848  13.517  67.416  1.00  0.00    -0.227 C  
HETATM   23  C   UNL     1      -8.044   7.980  66.817  1.00  0.00    -0.107 C  
HETATM   24  C   UNL     1     -11.091  13.821  66.578  1.00  0.00    -0.309 C  
HETATM   25  O   UNL     1      -9.703  14.025  64.555  1.00  0.00    -0.575 OA 
HETATM   26  H   UNL     1      -9.639   8.240  64.970  1.00  0.00     0.000 HD 
HETATM   27  O   UNL     1      -8.312   7.287  65.842  1.00  0.00    -0.130 OA 
HETATM   28  H   UNL     1      -9.783  14.970  64.596  1.00  0.00     0.000 HD 
BRANCH  19  29
HETATM   29  C   UNL     1     -12.071  13.882  64.273  1.00  0.00    -0.440 C  
HETATM   30  O   UNL     1     -12.613  13.146  63.441  1.00  0.00    -0.722 OA 
BRANCH  29  31
HETATM   31  C   UNL     1     -12.531  15.330  64.435  1.00  0.00    -0.029 C  
HETATM   32  O   UNL     1     -11.704  16.234  63.713  1.00  0.00    -1.511 OA 
HETATM   33  H   UNL     1     -11.991  17.134  63.814  1.00  0.00     0.000 HD 
ENDBRANCH  29  31
ENDBRANCH  19  29
BRANCH  22  34
HETATM   34  O   UNL     1      -8.755  14.386  67.069  1.00  0.00    -0.217 OA 
BRANCH  34  35
HETATM   35  C   UNL     1      -8.451  15.425  68.010  1.00  0.00    -0.146 C  
HETATM   36  C   UNL     1      -6.986  15.867  68.036  1.00  0.00    -0.141 C  
HETATM   37  C   UNL     1      -6.634  16.561  66.724  1.00  0.00    -0.132 C  
HETATM   38  C   UNL     1      -7.583  17.765  66.527  1.00  0.00    -0.256 C  
HETATM   39  N   UNL     1      -5.219  16.960  66.694  1.00  0.00    -0.328 NA 
HETATM   40  C   UNL     1      -9.043  17.281  66.597  1.00  0.00    -0.265 C  
HETATM   41  H2  UNL     1      -4.602  16.169  66.877  1.00  0.00     0.000 HD 
HETATM   42  O   UNL     1      -7.346  18.428  65.283  1.00  0.00    -0.468 OA 
HETATM   43  H1  UNL     1      -4.984  17.424  65.817  1.00  0.00     0.000 HD 
HETATM   44  C   UNL     1     -10.004  18.468  66.575  1.00  0.00    -0.401 C  
HETATM   45  H   UNL     1      -7.929  19.168  65.162  1.00  0.00     0.000 HD 
HETATM   46  O   UNL     1      -9.307  16.552  67.800  1.00  0.00    -0.209 OA 
ENDBRANCH  34  35
ENDBRANCH  22  34
ENDBRANCH   2   3
TORSDOF 5
ENDMDL
MODEL       13
REMARK 921   NORMALIZED FREE ENERGY PREDICTED BY IDOCK:   -7.43 KCAL/MOL
REMARK 922        TOTAL FREE ENERGY PREDICTED BY IDOCK:  -10.65 KCAL/MOL
REMARK 923 INTER-LIGAND FREE ENERGY PREDICTED BY IDOCK:   -9.28 KCAL/MOL
REMARK 924 INTRA-LIGAND FREE ENERGY PREDICTED BY IDOCK:   -1.37 KCAL/MOL
REMARK 927      BINDING AFFINITY PREDICTED BY RF-SCORE:    0.00 PKD
ROOT
HETATM    1  C   UNL     1     -11.162  15.744  68.031  1.00  0.00    -0.338 C  
HETATM    2  O   UNL     1     -12.014  14.650  67.703  1.00  0.00    -0.362 OA 
ENDROOT
BRANCH   2   3
HETATM    3  C   UNL     1     -11.864  14.097  66.458  1.00  0.00    -0.419 A  
HETATM    4  C   UNL     1     -12.320  14.750  65.301  1.00  0.00    -0.120 A  
HETATM    5  C   UNL     1     -12.152  14.178  64.045  1.00  0.00    -0.382 A  
HETATM    6  C   UNL     1     -11.525  12.946  63.932  1.00  0.00    -0.504 A  
HETATM    7  C   UNL     1     -11.081  12.267  65.076  1.00  0.00    -0.359 A  
HETATM    8  C   UNL     1     -11.261  12.823  66.346  1.00  0.00    -0.339 A  
HETATM    9  C   UNL     1     -10.802  12.043  67.527  1.00  0.00    -0.241 C  
HETATM   10  O   UNL     1     -11.025  12.406  68.678  1.00  0.00    -0.227 OA 
HETATM   11  C   UNL     1     -10.055  10.771  67.342  1.00  0.00    -0.227 A  
HETATM   12  C   UNL     1      -9.523  10.091  68.459  1.00  0.00    -0.148 A  
HETATM   13  O   UNL     1      -9.648  10.598  69.734  1.00  0.00    -0.427 OA 
HETATM   14  C   UNL     1      -8.821   8.874  68.331  1.00  0.00    -0.134 A  
HETATM   15  H   UNL     1      -9.290  10.140  70.485  1.00  0.00     0.000 HD 
HETATM   16  C   UNL     1      -8.654   8.320  67.038  1.00  0.00    -0.124 A  
HETATM   17  C   UNL     1      -9.141   9.036  65.922  1.00  0.00    -0.212 A  
HETATM   18  C   UNL     1      -7.916   7.002  66.842  1.00  0.00    -0.115 C  
HETATM   19  C   UNL     1      -7.696   6.212  68.135  1.00  0.00    -0.103 C  
HETATM   20  C   UNL     1      -9.859  10.243  66.069  1.00  0.00    -0.292 A  
HETATM   21  O   UNL     1      -8.881   8.590  64.654  1.00  0.00    -0.405 OA 
HETATM   22  C   UNL     1      -8.250   8.200  69.577  1.00  0.00    -0.121 C  
HETATM   23  C   UNL     1     -10.431  10.954  64.894  1.00  0.00    -0.282 C  
HETATM   24  C   UNL     1      -7.176   7.176  69.206  1.00  0.00    -0.085 C  
HETATM   25  O   UNL     1      -8.914   5.573  68.520  1.00  0.00    -0.110 OA 
HETATM   26  H   UNL     1      -9.209   9.071  63.904  1.00  0.00     0.000 HD 
HETATM   27  O   UNL     1     -10.394  10.488  63.762  1.00  0.00    -0.224 OA 
HETATM   28  H   UNL     1      -8.777   5.082  69.322  1.00  0.00     0.000 HD 
BRANCH  19  29
HETATM   29  C   UNL     1      -6.656   5.103  67.899  1.00  0.00    -0.050 C  
HETATM   30  O   UNL     1      -5.453   5.346  67.759  1.00  0.00    -0.011 OA 
BRANCH  29  31
HETATM   31  C   UNL     1      -7.173   3.672  67.754  1.00  0.00    -0.059 C  
HETATM   32  O   UNL     1      -7.986   3.515  66.597  1.00  0.00    -0.087 OA 
HETATM   33  H   UNL     1      -8.307   2.625  66.508  1.00  0.00     0.000 HD 
ENDBRANCH  29  31
ENDBRANCH  19  29
BRANCH  22  34
HETATM   34  O   UNL     1      -9.340   7.585  70.286  1.00  0.00    -0.161 OA 
BRANCH  34  35
HETATM   35  C   UNL     1      -9.252   7.601  71.718  1.00  0.00    -0.137 C  
HETATM   36  C   UNL     1     -10.336   8.419  72.424  1.00  0.00    -0.399 C  
HETATM   37  C   UNL     1     -11.694   7.751  72.230  1.00  0.00    -0.340 C  
HETATM   38  C   UNL     1     -11.623   6.310  72.786  1.00  0.00    -0.105 C  
HETATM   39  N   UNL     1     -12.768   8.533  72.858  1.00  0.00    -0.658 NA 
HETATM   40  C   UNL     1     -10.463   5.558  72.108  1.00  0.00    -0.220 C  
HETATM   41  H2  UNL     1     -12.774   9.498  72.525  1.00  0.00     0.000 HD 
HETATM   42  O   UNL     1     -12.849   5.603  72.583  1.00  0.00    -0.382 OA 
HETATM   43  H1  UNL     1     -13.675   8.087  72.729  1.00  0.00     0.000 HD 
HETATM   44  C   UNL     1     -10.259   4.189  72.753  1.00  0.00    -0.228 C  
HETATM   45  H   UNL     1     -12.805   4.718  72.924  1.00  0.00     0.000 HD 
HETATM   46  O   UNL     1      -9.225   6.266  72.229  1.00  0.00    -0.141 OA 
ENDBRANCH  34  35
ENDBRANCH  22  34
ENDBRANCH   2   3
TORSDOF 5
ENDMDL
MODEL       14
REMARK 921   NORMALIZED FREE ENERGY PREDICTED BY IDOCK:   -7.32 KCAL/MOL
REMARK 922        TOTAL FREE ENERGY PREDICTED BY IDOCK:  -10.51 KCAL/MOL
REMARK 923 INTER-LIGAND FREE ENERGY PREDICTED BY IDOCK:   -9.34 KCAL/MOL
REMARK 924 INTRA-LIGAND FREE ENERGY PREDICTED BY IDOCK:   -1.17 KCAL/MOL
REMARK 927      BINDING AFFINITY PREDICTED BY RF-SCORE:    0.00 PKD
ROOT
HETATM    1  C   UNL     1      -9.880  16.013  69.756  1.00  0.00    -0.126 C  
HETATM    2  O   UNL     1     -10.903  15.301  69.066  1.00  0.00    -0.225 OA 
ENDROOT
BRANCH   2   3
HETATM    3  C   UNL     1     -10.763  15.173  67.709  1.00  0.00    -0.279 A  
HETATM    4  C   UNL     1     -10.804  16.287  66.854  1.00  0.00    -0.151 A  
HETATM    5  C   UNL     1     -10.650  16.139  65.480  1.00  0.00    -0.394 A  
HETATM    6  C   UNL     1     -10.454  14.875  64.945  1.00  0.00    -0.389 A  
HETATM    7  C   UNL     1     -10.431  13.747  65.778  1.00  0.00    -0.303 A  
HETATM    8  C   UNL     1     -10.602  13.879  67.158  1.00  0.00    -0.277 A  
HETATM    9  C   UNL     1     -10.603  12.646  67.990  1.00  0.00    -0.221 C  
HETATM   10  O   UNL     1     -10.861  12.665  69.190  1.00  0.00    -0.186 OA 
HETATM   11  C   UNL     1     -10.297  11.327  67.375  1.00  0.00    -0.233 A  
HETATM   12  C   UNL     1     -10.188  10.175  68.185  1.00  0.00    -0.171 A  
HETATM   13  O   UNL     1     -10.325  10.244  69.553  1.00  0.00    -0.217 OA 
HETATM   14  C   UNL     1      -9.915   8.902  67.642  1.00  0.00    -0.248 A  
HETATM   15  H   UNL     1     -10.252   9.469  70.097  1.00  0.00     0.000 HD 
HETATM   16  C   UNL     1      -9.751   8.782  66.240  1.00  0.00    -0.342 A  
HETATM   17  C   UNL     1      -9.807   9.949  65.446  1.00  0.00    -0.313 A  
HETATM   18  C   UNL     1      -9.467   7.430  65.599  1.00  0.00     0.383 C  
HETATM   19  C   UNL     1      -9.711   6.236  66.526  1.00  0.00    -0.137 C  
HETATM   20  C   UNL     1     -10.102  11.213  66.002  1.00  0.00    -0.292 A  
HETATM   21  O   UNL     1      -9.525   9.882  64.108  1.00  0.00    -0.327 OA 
HETATM   22  C   UNL     1      -9.786   7.699  68.575  1.00  0.00    -0.158 C  
HETATM   23  C   UNL     1     -10.230  12.426  65.150  1.00  0.00    -0.281 C  
HETATM   24  C   UNL     1      -9.066   6.540  67.882  1.00  0.00    -0.113 C  
HETATM   25  O   UNL     1     -11.114   5.989  66.632  1.00  0.00    -0.656 OA 
HETATM   26  H   UNL     1      -9.563  10.667  63.574  1.00  0.00     0.000 HD 
HETATM   27  O   UNL     1     -10.182  12.377  63.926  1.00  0.00    -0.387 OA 
HETATM   28  H   UNL     1     -11.265   5.248  67.207  1.00  0.00     0.000 HD 
BRANCH  19  29
HETATM   29  C   UNL     1      -9.071   4.972  65.928  1.00  0.00    -0.150 C  
HETATM   30  O   UNL     1      -8.167   4.355  66.502  1.00  0.00    -0.102 OA 
BRANCH  29  31
HETATM   31  C   UNL     1      -9.536   4.537  64.539  1.00  0.00    -0.084 C  
HETATM   32  O   UNL     1     -10.653   3.659  64.603  1.00  0.00    -0.440 OA 
HETATM   33  H   UNL     1     -10.942   3.390  63.738  1.00  0.00     0.000 HD 
ENDBRANCH  29  31
ENDBRANCH  19  29
BRANCH  22  34
HETATM   34  O   UNL     1     -11.109   7.321  68.993  1.00  0.00    -0.099 OA 
BRANCH  34  35
HETATM   35  C   UNL     1     -11.185   6.365  70.061  1.00  0.00    -0.411 C  
HETATM   36  C   UNL     1     -10.223   6.617  71.224  1.00  0.00    -0.222 C  
HETATM   37  C   UNL     1     -10.623   7.894  71.957  1.00  0.00    -0.238 C  
HETATM   38  C   UNL     1     -12.080   7.748  72.452  1.00  0.00    -0.250 C  
HETATM   39  N   UNL     1      -9.693   8.192  73.056  1.00  0.00    -0.276 NA 
HETATM   40  C   UNL     1     -12.993   7.409  71.259  1.00  0.00    -0.310 C  
HETATM   41  H2  UNL     1      -8.728   8.235  72.729  1.00  0.00     0.000 HD 
HETATM   42  O   UNL     1     -12.542   8.936  73.098  1.00  0.00    -0.343 OA 
HETATM   43  H1  UNL     1      -9.961   9.046  73.545  1.00  0.00     0.000 HD 
HETATM   44  C   UNL     1     -14.408   7.092  71.737  1.00  0.00    -0.515 C  
HETATM   45  H   UNL     1     -13.437   8.847  73.402  1.00  0.00     0.000 HD 
HETATM   46  O   UNL     1     -12.528   6.261  70.540  1.00  0.00     0.145 OA 
ENDBRANCH  34  35
ENDBRANCH  22  34
ENDBRANCH   2   3
TORSDOF 5
ENDMDL
MODEL       15
REMARK 921   NORMALIZED FREE ENERGY PREDICTED BY IDOCK:   -7.15 KCAL/MOL
REMARK 922        TOTAL FREE ENERGY PREDICTED BY IDOCK:  -10.29 KCAL/MOL
REMARK 923 INTER-LIGAND FREE ENERGY PREDICTED BY IDOCK:   -9.69 KCAL/MOL
REMARK 924 INTRA-LIGAND FREE ENERGY PREDICTED BY IDOCK:   -0.60 KCAL/MOL
REMARK 927      BINDING AFFINITY PREDICTED BY RF-SCORE:    0.00 PKD
ROOT
HETATM    1  C   UNL     1      -7.475   6.149  66.810  1.00  0.00    -0.087 C  
HETATM    2  O   UNL     1      -8.760   6.724  67.029  1.00  0.00    -0.112 OA 
ENDROOT
BRANCH   2   3
HETATM    3  C   UNL     1      -9.441   6.315  68.145  1.00  0.00    -0.113 A  
HETATM    4  C   UNL     1      -9.450   4.971  68.554  1.00  0.00    -0.185 A  
HETATM    5  C   UNL     1     -10.139   4.576  69.695  1.00  0.00    -0.161 A  
HETATM    6  C   UNL     1     -10.827   5.521  70.441  1.00  0.00    -0.274 A  
HETATM    7  C   UNL     1     -10.849   6.865  70.039  1.00  0.00    -0.299 A  
HETATM    8  C   UNL     1     -10.176   7.272  68.884  1.00  0.00    -0.196 A  
HETATM    9  C   UNL     1     -10.261   8.703  68.486  1.00  0.00    -0.195 C  
HETATM   10  O   UNL     1      -9.796   9.118  67.429  1.00  0.00    -0.163 OA 
HETATM   11  C   UNL     1     -10.936   9.689  69.372  1.00  0.00    -0.215 A  
HETATM   12  C   UNL     1     -10.918  11.063  69.048  1.00  0.00    -0.233 A  
HETATM   13  O   UNL     1     -10.253  11.529  67.935  1.00  0.00    -0.177 OA 
HETATM   14  C   UNL     1     -11.558  12.030  69.851  1.00  0.00    -0.315 A  
HETATM   15  H   UNL     1     -10.241  12.454  67.717  1.00  0.00     0.000 HD 
HETATM   16  C   UNL     1     -12.242  11.601  71.014  1.00  0.00    -0.336 A  
HETATM   17  C   UNL     1     -12.207  10.232  71.359  1.00  0.00    -0.383 A  
HETATM   18  C   UNL     1     -12.961  12.600  71.911  1.00  0.00    -0.402 C  
HETATM   19  C   UNL     1     -13.154  13.982  71.278  1.00  0.00    -0.329 C  
HETATM   20  C   UNL     1     -11.579   9.273  70.534  1.00  0.00    -0.266 A  
HETATM   21  O   UNL     1     -12.749   9.809  72.543  1.00  0.00    -0.255 OA 
HETATM   22  C   UNL     1     -11.481  13.504  69.458  1.00  0.00    -0.255 C  
HETATM   23  C   UNL     1     -11.607   7.824  70.867  1.00  0.00    -0.274 C  
HETATM   24  C   UNL     1     -11.828  14.409  70.642  1.00  0.00    -0.361 C  
HETATM   25  O   UNL     1     -14.223  13.930  70.331  1.00  0.00     0.751 OA 
HETATM   26  H   UNL     1     -12.726   8.888  72.775  1.00  0.00     0.000 HD 
HETATM   27  O   UNL     1     -12.251   7.379  71.811  1.00  0.00    -0.301 OA 
HETATM   28  H   UNL     1     -14.343  14.786  69.939  1.00  0.00     0.000 HD 
BRANCH  19  29
HETATM   29  C   UNL     1     -13.554  15.000  72.359  1.00  0.00    -0.460 C  
HETATM   30  O   UNL     1     -14.400  15.878  72.157  1.00  0.00    -0.346 OA 
BRANCH  29  31
HETATM   31  C   UNL     1     -12.801  14.948  73.687  1.00  0.00    -0.385 C  
HETATM   32  O   UNL     1     -11.759  15.915  73.745  1.00  0.00    -0.214 OA 
HETATM   33  H   UNL     1     -11.291  15.882  74.572  1.00  0.00     0.000 HD 
ENDBRANCH  29  31
ENDBRANCH  19  29
BRANCH  22  34
HETATM   34  O   UNL     1     -12.380  13.714  68.355  1.00  0.00    -0.241 OA 
BRANCH  34  35
HETATM   35  C   UNL     1     -12.074  14.820  67.492  1.00  0.00    -0.096 C  
HETATM   36  C   UNL     1     -10.604  15.243  67.478  1.00  0.00    -0.273 C  
HETATM   37  C   UNL     1      -9.758  14.144  66.842  1.00  0.00    -0.269 C  
HETATM   38  C   UNL     1     -10.281  13.878  65.412  1.00  0.00    -0.337 C  
HETATM   39  N   UNL     1      -8.330  14.497  66.851  1.00  0.00    -0.381 NA 
HETATM   40  C   UNL     1     -11.783  13.544  65.473  1.00  0.00    -0.340 C  
HETATM   41  H2  UNL     1      -8.006  14.722  67.792  1.00  0.00     0.000 HD 
HETATM   42  O   UNL     1      -9.569  12.815  64.776  1.00  0.00    -0.496 OA 
HETATM   43  H1  UNL     1      -7.765  13.762  66.426  1.00  0.00     0.000 HD 
HETATM   44  C   UNL     1     -12.368  13.441  64.066  1.00  0.00    -0.402 C  
HETATM   45  H   UNL     1      -9.891  12.651  63.898  1.00  0.00     0.000 HD 
HETATM   46  O   UNL     1     -12.528  14.553  66.163  1.00  0.00    -0.315 OA 
ENDBRANCH  34  35
ENDBRANCH  22  34
ENDBRANCH   2   3
TORSDOF 5
ENDMDL
MODEL       16
REMARK 921   NORMALIZED FREE ENERGY PREDICTED BY IDOCK:   -7.11 KCAL/MOL
REMARK 922        TOTAL FREE ENERGY PREDICTED BY IDOCK:  -10.23 KCAL/MOL
REMARK 923 INTER-LIGAND FREE ENERGY PREDICTED BY IDOCK:   -9.09 KCAL/MOL
REMARK 924 INTRA-LIGAND FREE ENERGY PREDICTED BY IDOCK:   -1.14 KCAL/MOL
REMARK 927      BINDING AFFINITY PREDICTED BY RF-SCORE:    0.00 PKD
ROOT
HETATM    1  C   UNL     1      -7.099   3.533  71.641  1.00  0.00    -0.035 C  
HETATM    2  O   UNL     1      -8.131   4.204  70.924  1.00  0.00    -0.068 OA 
ENDROOT
BRANCH   2   3
HETATM    3  C   UNL     1      -9.281   4.489  71.612  1.00  0.00    -0.135 A  
HETATM    4  C   UNL     1      -9.860   3.563  72.496  1.00  0.00    -0.220 A  
HETATM    5  C   UNL     1     -11.023   3.872  73.193  1.00  0.00    -0.246 A  
HETATM    6  C   UNL     1     -11.620   5.111  73.015  1.00  0.00    -0.301 A  
HETATM    7  C   UNL     1     -11.069   6.042  72.122  1.00  0.00    -0.328 A  
HETATM    8  C   UNL     1      -9.911   5.737  71.401  1.00  0.00    -0.234 A  
HETATM    9  C   UNL     1      -9.391   6.749  70.442  1.00  0.00    -0.163 C  
HETATM   10  O   UNL     1      -8.450   6.515  69.690  1.00  0.00    -0.128 OA 
HETATM   11  C   UNL     1     -10.018   8.095  70.359  1.00  0.00    -0.190 A  
HETATM   12  C   UNL     1      -9.454   9.090  69.531  1.00  0.00    -0.164 A  
HETATM   13  O   UNL     1      -8.302   8.858  68.813  1.00  0.00    -0.120 OA 
HETATM   14  C   UNL     1     -10.024  10.375  69.410  1.00  0.00    -0.240 A  
HETATM   15  H   UNL     1      -7.923   9.528  68.256  1.00  0.00     0.000 HD 
HETATM   16  C   UNL     1     -11.201  10.666  70.141  1.00  0.00    -0.378 A  
HETATM   17  C   UNL     1     -11.726   9.683  71.009  1.00  0.00    -0.353 A  
HETATM   18  C   UNL     1     -11.867  12.033  70.039  1.00  0.00    -0.392 C  
HETATM   19  C   UNL     1     -11.365  12.886  68.870  1.00  0.00    -0.288 C  
HETATM   20  C   UNL     1     -11.155   8.395  71.103  1.00  0.00    -0.301 A  
HETATM   21  O   UNL     1     -12.785   9.980  71.823  1.00  0.00    -0.383 OA 
HETATM   22  C   UNL     1      -9.351  11.415  68.516  1.00  0.00    -0.180 C  
HETATM   23  C   UNL     1     -11.754   7.340  71.965  1.00  0.00    -0.292 C  
HETATM   24  C   UNL     1      -9.834  12.827  68.854  1.00  0.00     0.140 C  
HETATM   25  O   UNL     1     -11.942  12.416  67.651  1.00  0.00    -0.454 OA 
HETATM   26  H   UNL     1     -13.139   9.319  72.406  1.00  0.00     0.000 HD 
HETATM   27  O   UNL     1     -12.816   7.501  72.557  1.00  0.00     0.044 OA 
HETATM   28  H   UNL     1     -11.631  12.945  66.926  1.00  0.00     0.000 HD 
BRANCH  19  29
HETATM   29  C   UNL     1     -11.818  14.344  69.056  1.00  0.00    -0.323 C  
HETATM   30  O   UNL     1     -11.720  15.185  68.155  1.00  0.00    -0.342 OA 
BRANCH  29  31
HETATM   31  C   UNL     1     -12.325  14.753  70.438  1.00  0.00    -0.344 C  
HETATM   32  O   UNL     1     -13.583  15.414  70.368  1.00  0.00    -0.751 OA 
HETATM   33  H   UNL     1     -13.898  15.668  71.227  1.00  0.00     0.000 HD 
ENDBRANCH  29  31
ENDBRANCH  19  29
BRANCH  22  34
HETATM   34  O   UNL     1      -9.641  11.074  67.149  1.00  0.00    -0.167 OA 
BRANCH  34  35
HETATM   35  C   UNL     1      -8.859  11.747  66.151  1.00  0.00    -0.107 C  
HETATM   36  C   UNL     1      -7.671  10.948  65.612  1.00  0.00     0.012 C  
HETATM   37  C   UNL     1      -8.174   9.749  64.816  1.00  0.00    -0.148 C  
HETATM   38  C   UNL     1      -9.079  10.256  63.670  1.00  0.00    -0.258 C  
HETATM   39  N   UNL     1      -7.058   8.931  64.319  1.00  0.00    -0.089 NA 
HETATM   40  C   UNL     1     -10.206  11.125  64.256  1.00  0.00    -0.340 C  
HETATM   41  H2  UNL     1      -6.437   8.644  65.077  1.00  0.00     0.000 HD 
HETATM   42  O   UNL     1      -9.635   9.176  62.917  1.00  0.00    -0.346 OA 
HETATM   43  H1  UNL     1      -7.395   8.129  63.788  1.00  0.00     0.000 HD 
HETATM   44  C   UNL     1     -11.017  11.779  63.140  1.00  0.00    -0.275 C  
HETATM   45  H   UNL     1     -10.191   9.488  62.212  1.00  0.00     0.000 HD 
HETATM   46  O   UNL     1      -9.695  12.182  65.075  1.00  0.00    -0.204 OA 
ENDBRANCH  34  35
ENDBRANCH  22  34
ENDBRANCH   2   3
TORSDOF 5
ENDMDL
MODEL       17
REMARK 921   NORMALIZED FREE ENERGY PREDICTED BY IDOCK:   -7.10 KCAL/MOL
REMARK 922        TOTAL FREE ENERGY PREDICTED BY IDOCK:  -10.22 KCAL/MOL
REMARK 923 INTER-LIGAND FREE ENERGY PREDICTED BY IDOCK:   -9.16 KCAL/MOL
REMARK 924 INTRA-LIGAND FREE ENERGY PREDICTED BY IDOCK:   -1.06 KCAL/MOL
REMARK 927      BINDING AFFINITY PREDICTED BY RF-SCORE:    0.00 PKD
ROOT
HETATM    1  C   UNL     1      -5.297   9.938  64.175  1.00  0.00    -0.082 C  
HETATM    2  O   UNL     1      -6.242  10.482  65.092  1.00  0.00    -0.124 OA 
ENDROOT
BRANCH   2   3
HETATM    3  C   UNL     1      -7.282   9.672  65.466  1.00  0.00    -0.098 A  
HETATM    4  C   UNL     1      -7.375   8.341  65.027  1.00  0.00    -0.086 A  
HETATM    5  C   UNL     1      -8.433   7.530  65.424  1.00  0.00    -0.105 A  
HETATM    6  C   UNL     1      -9.409   8.041  66.265  1.00  0.00    -0.246 A  
HETATM    7  C   UNL     1      -9.346   9.374  66.699  1.00  0.00    -0.211 A  
HETATM    8  C   UNL     1      -8.299  10.205  66.293  1.00  0.00    -0.130 A  
HETATM    9  C   UNL     1      -8.301  11.619  66.755  1.00  0.00    -0.171 C  
HETATM   10  O   UNL     1      -7.484  12.441  66.352  1.00  0.00     0.364 OA 
HETATM   11  C   UNL     1      -9.322  12.088  67.729  1.00  0.00    -0.190 A  
HETATM   12  C   UNL     1      -9.255  13.398  68.252  1.00  0.00    -0.198 A  
HETATM   13  O   UNL     1      -8.235  14.257  67.907  1.00  0.00    -0.134 OA 
HETATM   14  C   UNL     1     -10.211  13.889  69.166  1.00  0.00     0.019 A  
HETATM   15  H   UNL     1      -8.191  15.138  68.259  1.00  0.00     0.000 HD 
HETATM   16  C   UNL     1     -11.270  13.037  69.563  1.00  0.00    -0.146 A  
HETATM   17  C   UNL     1     -11.297  11.711  69.077  1.00  0.00    -0.275 A  
HETATM   18  C   UNL     1     -12.337  13.519  70.537  1.00  0.00    -0.412 C  
HETATM   19  C   UNL     1     -12.344  15.035  70.756  1.00  0.00    -0.343 C  
HETATM   20  C   UNL     1     -10.345  11.241  68.147  1.00  0.00    -0.205 A  
HETATM   21  O   UNL     1     -12.234  10.829  69.543  1.00  0.00    -0.449 OA 
HETATM   22  C   UNL     1     -10.068  15.308  69.713  1.00  0.00    -0.218 C  
HETATM   23  C   UNL     1     -10.420   9.866  67.585  1.00  0.00    -0.244 C  
HETATM   24  C   UNL     1     -10.901  15.494  70.983  1.00  0.00    -0.203 C  
HETATM   25  O   UNL     1     -12.952  15.679  69.635  1.00  0.00    -0.494 OA 
HETATM   26  H   UNL     1     -12.253   9.937  69.216  1.00  0.00     0.000 HD 
HETATM   27  O   UNL     1     -11.355   9.110  67.823  1.00  0.00     0.230 OA 
HETATM   28  H   UNL     1     -12.957  16.619  69.771  1.00  0.00     0.000 HD 
BRANCH  19  29
HETATM   29  C   UNL     1     -13.190  15.380  71.993  1.00  0.00    -0.429 C  
HETATM   30  O   UNL     1     -14.410  15.565  71.927  1.00  0.00    -0.509 OA 
BRANCH  29  31
HETATM   31  C   UNL     1     -12.454  15.574  73.318  1.00  0.00    -0.482 C  
HETATM   32  O   UNL     1     -13.148  16.461  74.187  1.00  0.00    -0.904 OA 
HETATM   33  H   UNL     1     -12.690  16.580  75.011  1.00  0.00     0.000 HD 
ENDBRANCH  29  31
ENDBRANCH  19  29
BRANCH  22  34
HETATM   34  O   UNL     1     -10.474  16.222  68.679  1.00  0.00    -0.252 OA 
BRANCH  34  35
HETATM   35  C   UNL     1     -10.273  17.616  68.954  1.00  0.00    -0.354 C  
HETATM   36  C   UNL     1      -8.818  18.025  69.193  1.00  0.00     0.114 C  
HETATM   37  C   UNL     1      -8.020  17.872  67.902  1.00  0.00    -0.235 C  
HETATM   38  C   UNL     1      -8.677  18.741  66.805  1.00  0.00    -0.300 C  
HETATM   39  N   UNL     1      -6.605  18.214  68.105  1.00  0.00    -0.197 NA 
HETATM   40  C   UNL     1     -10.160  18.351  66.665  1.00  0.00    -0.380 C  
HETATM   41  H2  UNL     1      -6.194  17.672  68.866  1.00  0.00     0.000 HD 
HETATM   42  O   UNL     1      -8.012  18.599  65.548  1.00  0.00    -0.382 OA 
HETATM   43  H1  UNL     1      -6.072  18.111  67.242  1.00  0.00     0.000 HD 
HETATM   44  C   UNL     1     -10.878  19.303  65.712  1.00  0.00    -0.338 C  
HETATM   45  H   UNL     1      -8.416  19.133  64.874  1.00  0.00     0.000 HD 
HETATM   46  O   UNL     1     -10.850  18.415  67.918  1.00  0.00    -0.356 OA 
ENDBRANCH  34  35
ENDBRANCH  22  34
ENDBRANCH   2   3
TORSDOF 5
ENDMDL
MODEL       18
REMARK 921   NORMALIZED FREE ENERGY PREDICTED BY IDOCK:   -7.06 KCAL/MOL
REMARK 922        TOTAL FREE ENERGY PREDICTED BY IDOCK:  -10.17 KCAL/MOL
REMARK 923 INTER-LIGAND FREE ENERGY PREDICTED BY IDOCK:   -9.54 KCAL/MOL
REMARK 924 INTRA-LIGAND FREE ENERGY PREDICTED BY IDOCK:   -0.63 KCAL/MOL
REMARK 927      BINDING AFFINITY PREDICTED BY RF-SCORE:    0.00 PKD
ROOT
HETATM    1  C   UNL     1     -11.167  15.179  69.068  1.00  0.00    -0.273 C  
HETATM    2  O   UNL     1     -12.059  14.400  68.274  1.00  0.00    -0.309 OA 
ENDROOT
BRANCH   2   3
HETATM    3  C   UNL     1     -11.684  14.154  66.980  1.00  0.00    -0.405 A  
HETATM    4  C   UNL     1     -11.769  15.143  65.986  1.00  0.00     0.003 A  
HETATM    5  C   UNL     1     -11.375  14.879  64.678  1.00  0.00    -0.362 A  
HETATM    6  C   UNL     1     -10.892  13.621  64.350  1.00  0.00    -0.374 A  
HETATM    7  C   UNL     1     -10.818  12.612  65.323  1.00  0.00    -0.319 A  
HETATM    8  C   UNL     1     -11.227  12.860  66.636  1.00  0.00    -0.342 A  
HETATM    9  C   UNL     1     -11.160  11.744  67.617  1.00  0.00    -0.252 C  
HETATM   10  O   UNL     1     -11.606  11.845  68.756  1.00  0.00    -0.258 OA 
HETATM   11  C   UNL     1     -10.548  10.444  67.233  1.00  0.00    -0.322 A  
HETATM   12  C   UNL     1     -10.383   9.425  68.197  1.00  0.00    -0.211 A  
HETATM   13  O   UNL     1     -10.747   9.616  69.512  1.00  0.00    -0.217 OA 
HETATM   14  C   UNL     1      -9.822   8.172  67.873  1.00  0.00    -0.206 A  
HETATM   15  H   UNL     1     -10.636   8.930  70.160  1.00  0.00     0.000 HD 
HETATM   16  C   UNL     1      -9.418   7.934  66.537  1.00  0.00    -0.277 A  
HETATM   17  C   UNL     1      -9.536   8.979  65.593  1.00  0.00    -0.167 A  
HETATM   18  C   UNL     1      -8.818   6.595  66.129  1.00  0.00    -0.160 C  
HETATM   19  C   UNL     1      -9.008   5.483  67.165  1.00  0.00    -0.112 C  
HETATM   20  C   UNL     1     -10.119  10.220  65.928  1.00  0.00    -0.319 A  
HETATM   21  O   UNL     1      -9.037   8.820  64.329  1.00  0.00    -0.402 OA 
HETATM   22  C   UNL     1      -9.648   7.121  68.968  1.00  0.00    -0.146 C  
HETATM   23  C   UNL     1     -10.305  11.291  64.912  1.00  0.00    -0.304 C  
HETATM   24  C   UNL     1      -8.647   6.044  68.544  1.00  0.00    -0.111 C  
HETATM   25  O   UNL     1     -10.351   4.998  67.107  1.00  0.00    -0.203 OA 
HETATM   26  H   UNL     1      -9.116   9.522  63.694  1.00  0.00     0.000 HD 
HETATM   27  O   UNL     1     -10.055  11.119  63.724  1.00  0.00    -0.294 OA 
HETATM   28  H   UNL     1     -10.468   4.309  67.749  1.00  0.00     0.000 HD 
BRANCH  19  29
HETATM   29  C   UNL     1      -8.083   4.300  66.837  1.00  0.00    -0.101 C  
HETATM   30  O   UNL     1      -6.991   4.142  67.393  1.00  0.00    -0.057 OA 
BRANCH  29  31
HETATM   31  C   UNL     1      -8.521   3.351  65.722  1.00  0.00    -0.109 C  
HETATM   32  O   UNL     1      -9.499   2.420  66.171  1.00  0.00    -0.363 OA 
HETATM   33  H   UNL     1      -9.771   1.830  65.478  1.00  0.00     0.000 HD 
ENDBRANCH  29  31
ENDBRANCH  19  29
BRANCH  22  34
HETATM   34  O   UNL     1     -10.942   6.556  69.246  1.00  0.00    -0.274 OA 
BRANCH  34  35
HETATM   35  C   UNL     1     -11.134   6.039  70.570  1.00  0.00    -0.314 C  
HETATM   36  C   UNL     1     -10.204   6.625  71.635  1.00  0.00    -0.212 C  
HETATM   37  C   UNL     1     -10.535   8.098  71.854  1.00  0.00    -0.248 C  
HETATM   38  C   UNL     1     -12.018   8.219  72.273  1.00  0.00    -0.386 C  
HETATM   39  N   UNL     1      -9.630   8.707  72.840  1.00  0.00    -0.149 NA 
HETATM   40  C   UNL     1     -12.904   7.537  71.214  1.00  0.00    -0.290 C  
HETATM   41  H2  UNL     1      -8.651   8.577  72.582  1.00  0.00     0.000 HD 
HETATM   42  O   UNL     1     -12.412   9.582  72.438  1.00  0.00    -0.279 OA 
HETATM   43  H1  UNL     1      -9.851   9.692  72.986  1.00  0.00     0.000 HD 
HETATM   44  C   UNL     1     -14.358   7.491  71.679  1.00  0.00    -0.621 C  
HETATM   45  H   UNL     1     -13.324   9.656  72.695  1.00  0.00     0.000 HD 
HETATM   46  O   UNL     1     -12.500   6.187  70.968  1.00  0.00     0.202 OA 
ENDBRANCH  34  35
ENDBRANCH  22  34
ENDBRANCH   2   3
TORSDOF 5
ENDMDL
MODEL       19
REMARK 921   NORMALIZED FREE ENERGY PREDICTED BY IDOCK:   -7.02 KCAL/MOL
REMARK 922        TOTAL FREE ENERGY PREDICTED BY IDOCK:  -10.12 KCAL/MOL
REMARK 923 INTER-LIGAND FREE ENERGY PREDICTED BY IDOCK:   -9.26 KCAL/MOL
REMARK 924 INTRA-LIGAND FREE ENERGY PREDICTED BY IDOCK:   -0.86 KCAL/MOL
REMARK 927      BINDING AFFINITY PREDICTED BY RF-SCORE:    0.00 PKD
ROOT
HETATM    1  C   UNL     1      -6.840   5.201  69.130  1.00  0.00    -0.054 C  
HETATM    2  O   UNL     1      -6.112   6.092  68.290  1.00  0.00    -0.019 OA 
ENDROOT
BRANCH   2   3
HETATM    3  C   UNL     1      -6.275   5.942  66.938  1.00  0.00    -0.030 A  
HETATM    4  C   UNL     1      -5.744   4.840  66.248  1.00  0.00    -0.018 A  
HETATM    5  C   UNL     1      -5.927   4.699  64.876  1.00  0.00    -0.025 A  
HETATM    6  C   UNL     1      -6.642   5.661  64.179  1.00  0.00    -0.037 A  
HETATM    7  C   UNL     1      -7.163   6.781  64.845  1.00  0.00    -0.075 A  
HETATM    8  C   UNL     1      -6.971   6.943  66.219  1.00  0.00    -0.069 A  
HETATM    9  C   UNL     1      -7.514   8.167  66.868  1.00  0.00    -0.091 C  
HETATM   10  O   UNL     1      -7.291   8.440  68.043  1.00  0.00    -0.092 OA 
HETATM   11  C   UNL     1      -8.351   9.119  66.089  1.00  0.00    -0.123 A  
HETATM   12  C   UNL     1      -8.959  10.220  66.733  1.00  0.00    -0.132 A  
HETATM   13  O   UNL     1      -8.825  10.421  68.088  1.00  0.00    -0.128 OA 
HETATM   14  C   UNL     1      -9.747  11.155  66.030  1.00  0.00    -0.263 A  
HETATM   15  H   UNL     1      -9.233  11.162  68.521  1.00  0.00     0.000 HD 
HETATM   16  C   UNL     1      -9.927  10.981  64.637  1.00  0.00    -0.357 A  
HETATM   17  C   UNL     1      -9.361   9.847  64.013  1.00  0.00    -0.223 A  
HETATM   18  C   UNL     1     -10.757  11.968  63.827  1.00  0.00    -0.478 C  
HETATM   19  C   UNL     1     -11.067  13.275  64.562  1.00  0.00    -0.372 C  
HETATM   20  C   UNL     1      -8.557   8.931  64.726  1.00  0.00    -0.184 A  
HETATM   21  O   UNL     1      -9.625   9.585  62.696  1.00  0.00    -0.555 OA 
HETATM   22  C   UNL     1     -10.397  12.311  66.790  1.00  0.00    -0.217 C  
HETATM   23  C   UNL     1      -7.906   7.777  64.048  1.00  0.00    -0.127 C  
HETATM   24  C   UNL     1     -11.536  12.930  65.978  1.00  0.00    -0.424 C  
HETATM   25  O   UNL     1      -9.909  14.113  64.558  1.00  0.00    -0.634 OA 
HETATM   26  H   UNL     1      -9.244   8.823  62.276  1.00  0.00     0.000 HD 
HETATM   27  O   UNL     1      -7.953   7.618  62.834  1.00  0.00    -0.136 OA 
HETATM   28  H   UNL     1     -10.102  14.923  65.014  1.00  0.00     0.000 HD 
BRANCH  19  29
HETATM   29  C   UNL     1     -12.181  14.037  63.826  1.00  0.00    -0.205 C  
HETATM   30  O   UNL     1     -12.752  13.574  62.832  1.00  0.00    -0.569 OA 
BRANCH  29  31
HETATM   31  C   UNL     1     -12.514  15.446  64.316  1.00  0.00     0.066 C  
HETATM   32  O   UNL     1     -11.657  16.425  63.740  1.00  0.00    -1.605 OA 
HETATM   33  H   UNL     1     -11.865  17.300  64.045  1.00  0.00     0.000 HD 
ENDBRANCH  29  31
ENDBRANCH  19  29
BRANCH  22  34
HETATM   34  O   UNL     1      -9.373  13.278  67.081  1.00  0.00    -0.222 OA 
BRANCH  34  35
HETATM   35  C   UNL     1      -9.273  13.700  68.449  1.00  0.00    -0.169 C  
HETATM   36  C   UNL     1      -8.333  14.883  68.694  1.00  0.00    -0.164 C  
HETATM   37  C   UNL     1      -8.909  16.140  68.050  1.00  0.00    -0.181 C  
HETATM   38  C   UNL     1     -10.313  16.404  68.640  1.00  0.00    -0.273 C  
HETATM   39  N   UNL     1      -8.009  17.290  68.228  1.00  0.00    -0.234 NA 
HETATM   40  C   UNL     1     -11.191  15.154  68.447  1.00  0.00    -0.299 C  
HETATM   41  H2  UNL     1      -7.070  17.088  67.883  1.00  0.00     0.000 HD 
HETATM   42  O   UNL     1     -10.937  17.539  68.036  1.00  0.00    -0.328 OA 
HETATM   43  H1  UNL     1      -8.394  18.130  67.797  1.00  0.00     0.000 HD 
HETATM   44  C   UNL     1     -12.527  15.319  69.166  1.00  0.00     0.026 C  
HETATM   45  H   UNL     1     -11.800  17.701  68.398  1.00  0.00     0.000 HD 
HETATM   46  O   UNL     1     -10.571  13.978  68.979  1.00  0.00    -0.238 OA 
ENDBRANCH  34  35
ENDBRANCH  22  34
ENDBRANCH   2   3
TORSDOF 5
ENDMDL
MODEL       20
REMARK 921   NORMALIZED FREE ENERGY PREDICTED BY IDOCK:   -6.84 KCAL/MOL
REMARK 922        TOTAL FREE ENERGY PREDICTED BY IDOCK:   -9.89 KCAL/MOL
REMARK 923 INTER-LIGAND FREE ENERGY PREDICTED BY IDOCK:   -9.92 KCAL/MOL
REMARK 924 INTRA-LIGAND FREE ENERGY PREDICTED BY IDOCK:    0.02 KCAL/MOL
REMARK 927      BINDING AFFINITY PREDICTED BY RF-SCORE:    0.00 PKD
ROOT
HETATM    1  C   UNL     1     -11.125  16.466  69.805  1.00  0.00    -0.305 C  
HETATM    2  O   UNL     1     -12.052  15.479  69.365  1.00  0.00    -0.336 OA 
ENDROOT
BRANCH   2   3
HETATM    3  C   UNL     1     -12.565  14.639  70.319  1.00  0.00    -0.318 A  
HETATM    4  C   UNL     1     -13.394  15.113  71.350  1.00  0.00    -0.547 A  
HETATM    5  C   UNL     1     -13.914  14.245  72.305  1.00  0.00    -0.629 A  
HETATM    6  C   UNL     1     -13.609  12.894  72.240  1.00  0.00    -0.611 A  
HETATM    7  C   UNL     1     -12.766  12.404  71.231  1.00  0.00    -0.347 A  
HETATM    8  C   UNL     1     -12.223  13.267  70.277  1.00  0.00    -0.391 A  
HETATM    9  C   UNL     1     -11.307  12.699  69.251  1.00  0.00    -0.245 C  
HETATM   10  O   UNL     1     -10.700  13.404  68.451  1.00  0.00    -0.242 OA 
HETATM   11  C   UNL     1     -11.088  11.230  69.173  1.00  0.00    -0.312 A  
HETATM   12  C   UNL     1     -10.309  10.683  68.131  1.00  0.00    -0.176 A  
HETATM   13  O   UNL     1      -9.765  11.480  67.148  1.00  0.00    -0.182 OA 
HETATM   14  C   UNL     1     -10.063   9.297  68.028  1.00  0.00    -0.234 A  
HETATM   15  H   UNL     1      -9.241  11.111  66.447  1.00  0.00     0.000 HD 
HETATM   16  C   UNL     1     -10.614   8.436  69.007  1.00  0.00    -0.172 A  
HETATM   17  C   UNL     1     -11.438   8.987  70.014  1.00  0.00     0.010 A  
HETATM   18  C   UNL     1     -10.371   6.933  68.951  1.00  0.00    -0.198 C  
HETATM   19  C   UNL     1      -9.251   6.517  67.993  1.00  0.00    -0.111 C  
HETATM   20  C   UNL     1     -11.658  10.378  70.115  1.00  0.00    -0.392 A  
HETATM   21  O   UNL     1     -12.087   8.164  70.895  1.00  0.00    -0.438 OA 
HETATM   22  C   UNL     1      -9.231   8.767  66.861  1.00  0.00    -0.156 C  
HETATM   23  C   UNL     1     -12.468  10.958  71.220  1.00  0.00    -0.388 C  
HETATM   24  C   UNL     1      -9.447   7.264  66.671  1.00  0.00    -0.228 C  
HETATM   25  O   UNL     1      -7.982   6.789  68.591  1.00  0.00    -0.115 OA 
HETATM   26  H   UNL     1     -12.641   8.535  71.572  1.00  0.00     0.000 HD 
HETATM   27  O   UNL     1     -12.902  10.278  72.142  1.00  0.00    -0.388 OA 
HETATM   28  H   UNL     1      -7.288   6.531  67.997  1.00  0.00     0.000 HD 
BRANCH  19  29
HETATM   29  C   UNL     1      -9.318   5.001  67.739  1.00  0.00    -0.127 C  
HETATM   30  O   UNL     1      -8.946   4.175  68.579  1.00  0.00    -0.103 OA 
BRANCH  29  31
HETATM   31  C   UNL     1      -9.787   4.539  66.360  1.00  0.00    -0.229 C  
HETATM   32  O   UNL     1      -9.588   3.143  66.171  1.00  0.00    -0.372 OA 
HETATM   33  H   UNL     1      -9.880   2.856  65.314  1.00  0.00     0.000 HD 
ENDBRANCH  29  31
ENDBRANCH  19  29
BRANCH  22  34
HETATM   34  O   UNL     1      -7.851   9.069  67.130  1.00  0.00    -0.098 OA 
BRANCH  34  35
HETATM   35  C   UNL     1      -7.170   9.849  66.137  1.00  0.00    -0.104 C  
HETATM   36  C   UNL     1      -6.126   9.086  65.318  1.00  0.00    -0.059 C  
HETATM   37  C   UNL     1      -6.818   8.049  64.440  1.00  0.00    -0.064 C  
HETATM   38  C   UNL     1      -7.835   8.770  63.525  1.00  0.00    -0.149 C  
HETATM   39  N   UNL     1      -5.842   7.264  63.670  1.00  0.00    -0.040 NA 
HETATM   40  C   UNL     1      -8.806   9.592  64.391  1.00  0.00    -0.230 C  
HETATM   41  H2  UNL     1      -5.143   6.835  64.278  1.00  0.00     0.000 HD 
HETATM   42  O   UNL     1      -8.564   7.847  62.713  1.00  0.00    -0.401 OA 
HETATM   43  H1  UNL     1      -6.305   6.571  63.083  1.00  0.00     0.000 HD 
HETATM   44  C   UNL     1      -9.716  10.449  63.513  1.00  0.00    -0.333 C  
HETATM   45  H   UNL     1      -9.189   8.290  62.151  1.00  0.00     0.000 HD 
HETATM   46  O   UNL     1      -8.114  10.484  65.271  1.00  0.00    -0.158 OA 
ENDBRANCH  34  35
ENDBRANCH  22  34
ENDBRANCH   2   3
TORSDOF 5
ENDMDL
MODEL       21
REMARK 921   NORMALIZED FREE ENERGY PREDICTED BY IDOCK:   -6.83 KCAL/MOL
REMARK 922        TOTAL FREE ENERGY PREDICTED BY IDOCK:   -9.87 KCAL/MOL
REMARK 923 INTER-LIGAND FREE ENERGY PREDICTED BY IDOCK:   -9.30 KCAL/MOL
REMARK 924 INTRA-LIGAND FREE ENERGY PREDICTED BY IDOCK:   -0.57 KCAL/MOL
REMARK 927      BINDING AFFINITY PREDICTED BY RF-SCORE:    0.00 PKD
ROOT
HETATM    1  C   UNL     1     -11.639  15.426  68.304  1.00  0.00    -0.348 C  
HETATM    2  O   UNL     1     -12.383  14.357  67.726  1.00  0.00    -0.236 OA 
ENDROOT
BRANCH   2   3
HETATM    3  C   UNL     1     -11.945  13.877  66.520  1.00  0.00    -0.439 A  
HETATM    4  C   UNL     1     -12.023  14.646  65.347  1.00  0.00    -0.275 A  
HETATM    5  C   UNL     1     -11.565  14.146  64.132  1.00  0.00    -0.252 A  
HETATM    6  C   UNL     1     -11.024  12.870  64.078  1.00  0.00    -0.447 A  
HETATM    7  C   UNL     1     -10.956  12.077  65.233  1.00  0.00    -0.356 A  
HETATM    8  C   UNL     1     -11.429  12.561  66.456  1.00  0.00    -0.418 A  
HETATM    9  C   UNL     1     -11.364  11.664  67.641  1.00  0.00    -0.295 C  
HETATM   10  O   UNL     1     -11.861  11.969  68.721  1.00  0.00    -0.300 OA 
HETATM   11  C   UNL     1     -10.691  10.341  67.545  1.00  0.00    -0.348 A  
HETATM   12  C   UNL     1     -10.532   9.541  68.697  1.00  0.00    -0.211 A  
HETATM   13  O   UNL     1     -10.957   9.971  69.934  1.00  0.00    -0.253 OA 
HETATM   14  C   UNL     1      -9.913   8.274  68.648  1.00  0.00    -0.203 A  
HETATM   15  H   UNL     1     -10.850   9.432  70.709  1.00  0.00     0.000 HD 
HETATM   16  C   UNL     1      -9.445   7.794  67.401  1.00  0.00    -0.177 A  
HETATM   17  C   UNL     1      -9.560   8.626  66.264  1.00  0.00    -0.252 A  
HETATM   18  C   UNL     1      -8.782   6.428  67.288  1.00  0.00    -0.106 C  
HETATM   19  C   UNL     1      -8.977   5.536  68.517  1.00  0.00    -0.110 C  
HETATM   20  C   UNL     1     -10.200   9.883  66.326  1.00  0.00    -0.282 A  
HETATM   21  O   UNL     1      -9.002   8.243  65.075  1.00  0.00    -0.397 OA 
HETATM   22  C   UNL     1      -9.750   7.467  69.935  1.00  0.00    -0.171 C  
HETATM   23  C   UNL     1     -10.381  10.723  65.111  1.00  0.00    -0.271 C  
HETATM   24  C   UNL     1      -8.694   6.372  69.768  1.00  0.00    -0.138 C  
HETATM   25  O   UNL     1     -10.298   4.991  68.510  1.00  0.00    -0.124 OA 
HETATM   26  H   UNL     1      -9.080   8.802  64.311  1.00  0.00     0.000 HD 
HETATM   27  O   UNL     1     -10.074  10.331  63.991  1.00  0.00    -0.263 OA 
HETATM   28  H   UNL     1     -10.418   4.438  69.272  1.00  0.00     0.000 HD 
BRANCH  19  29
HETATM   29  C   UNL     1      -7.997   4.351  68.463  1.00  0.00    -0.078 C  
HETATM   30  O   UNL     1      -7.186   4.124  69.367  1.00  0.00    -0.049 OA 
BRANCH  29  31
HETATM   31  C   UNL     1      -7.997   3.495  67.197  1.00  0.00    -0.083 C  
HETATM   32  O   UNL     1      -9.237   2.822  67.010  1.00  0.00    -0.211 OA 
HETATM   33  H   UNL     1      -9.236   2.290  66.223  1.00  0.00     0.000 HD 
ENDBRANCH  29  31
ENDBRANCH  19  29
BRANCH  22  34
HETATM   34  O   UNL     1     -11.033   6.913  70.275  1.00  0.00    -0.253 OA 
BRANCH  34  35
HETATM   35  C   UNL     1     -11.574   7.305  71.544  1.00  0.00    -0.275 C  
HETATM   36  C   UNL     1     -12.086   6.153  72.413  1.00  0.00    -0.186 C  
HETATM   37  C   UNL     1     -10.914   5.285  72.860  1.00  0.00    -0.287 C  
HETATM   38  C   UNL     1      -9.906   6.168  73.631  1.00  0.00    -0.184 C  
HETATM   39  N   UNL     1     -11.373   4.141  73.661  1.00  0.00    -0.234 NA 
HETATM   40  C   UNL     1      -9.491   7.358  72.747  1.00  0.00    -0.160 C  
HETATM   41  H2  UNL     1     -12.077   3.594  73.165  1.00  0.00     0.000 HD 
HETATM   42  O   UNL     1      -8.751   5.428  74.030  1.00  0.00    -0.117 OA 
HETATM   43  H1  UNL     1     -10.590   3.561  73.960  1.00  0.00     0.000 HD 
HETATM   44  C   UNL     1      -8.628   8.339  73.538  1.00  0.00    -0.269 C  
HETATM   45  H   UNL     1      -8.131   5.970  74.503  1.00  0.00     0.000 HD 
HETATM   46  O   UNL     1     -10.624   8.090  72.269  1.00  0.00    -0.245 OA 
ENDBRANCH  34  35
ENDBRANCH  22  34
ENDBRANCH   2   3
TORSDOF 5
ENDMDL
MODEL       22
REMARK 921   NORMALIZED FREE ENERGY PREDICTED BY IDOCK:   -6.73 KCAL/MOL
REMARK 922        TOTAL FREE ENERGY PREDICTED BY IDOCK:   -9.75 KCAL/MOL
REMARK 923 INTER-LIGAND FREE ENERGY PREDICTED BY IDOCK:  -10.47 KCAL/MOL
REMARK 924 INTRA-LIGAND FREE ENERGY PREDICTED BY IDOCK:    0.72 KCAL/MOL
REMARK 927      BINDING AFFINITY PREDICTED BY RF-SCORE:    0.00 PKD
ROOT
HETATM    1  C   UNL     1      -9.758   5.651  70.678  1.00  0.00    -0.180 C  
HETATM    2  O   UNL     1      -9.635   6.292  69.411  1.00  0.00    -0.141 OA 
ENDROOT
BRANCH   2   3
HETATM    3  C   UNL     1      -8.420   6.850  69.113  1.00  0.00    -0.129 A  
HETATM    4  C   UNL     1      -7.225   6.121  69.229  1.00  0.00    -0.082 A  
HETATM    5  C   UNL     1      -6.000   6.701  68.913  1.00  0.00    -0.022 A  
HETATM    6  C   UNL     1      -5.958   8.017  68.478  1.00  0.00    -0.040 A  
HETATM    7  C   UNL     1      -7.138   8.769  68.374  1.00  0.00    -0.077 A  
HETATM    8  C   UNL     1      -8.372   8.204  68.706  1.00  0.00    -0.126 A  
HETATM    9  C   UNL     1      -9.587   9.059  68.611  1.00  0.00    -0.153 C  
HETATM   10  O   UNL     1     -10.688   8.676  68.993  1.00  0.00    -0.198 OA 
HETATM   11  C   UNL     1      -9.494  10.433  68.051  1.00  0.00    -0.152 A  
HETATM   12  C   UNL     1     -10.664  11.201  67.858  1.00  0.00    -0.216 A  
HETATM   13  O   UNL     1     -11.911  10.692  68.145  1.00  0.00    -0.791 OA 
HETATM   14  C   UNL     1     -10.621  12.514  67.344  1.00  0.00    -0.242 A  
HETATM   15  H   UNL     1     -12.698  11.209  68.015  1.00  0.00     0.000 HD 
HETATM   16  C   UNL     1      -9.362  13.075  67.019  1.00  0.00    -0.236 A  
HETATM   17  C   UNL     1      -8.204  12.279  67.164  1.00  0.00    -0.179 A  
HETATM   18  C   UNL     1      -9.256  14.492  66.473  1.00  0.00    -0.282 C  
HETATM   19  C   UNL     1     -10.534  15.321  66.632  1.00  0.00    -0.290 C  
HETATM   20  C   UNL     1      -8.261  10.974  67.699  1.00  0.00    -0.117 A  
HETATM   21  O   UNL     1      -6.991  12.749  66.737  1.00  0.00    -0.370 OA 
HETATM   22  C   UNL     1     -11.925  13.282  67.136  1.00  0.00    -0.348 C  
HETATM   23  C   UNL     1      -7.029  10.168  67.915  1.00  0.00    -0.083 C  
HETATM   24  C   UNL     1     -11.721  14.463  66.184  1.00  0.00    -0.384 C  
HETATM   25  O   UNL     1     -10.657  15.758  67.987  1.00  0.00    -0.263 OA 
HETATM   26  H   UNL     1      -6.212  12.215  66.835  1.00  0.00     0.000 HD 
HETATM   27  O   UNL     1      -5.906  10.624  67.734  1.00  0.00    -0.044 OA 
HETATM   28  H   UNL     1     -11.449  16.272  68.085  1.00  0.00     0.000 HD 
BRANCH  19  29
HETATM   29  C   UNL     1     -10.454  16.580  65.753  1.00  0.00    -0.329 C  
HETATM   30  O   UNL     1     -10.871  16.601  64.590  1.00  0.00    -0.784 OA 
BRANCH  29  31
HETATM   31  C   UNL     1      -9.755  17.805  66.341  1.00  0.00    -0.308 C  
HETATM   32  O   UNL     1     -10.648  18.616  67.095  1.00  0.00    -0.407 OA 
HETATM   33  H   UNL     1     -10.212  19.377  67.460  1.00  0.00     0.000 HD 
ENDBRANCH  29  31
ENDBRANCH  19  29
BRANCH  22  34
HETATM   34  O   UNL     1     -12.390  13.720  68.425  1.00  0.00    -0.254 OA 
BRANCH  34  35
HETATM   35  C   UNL     1     -11.480  13.540  69.519  1.00  0.00    -0.255 C  
HETATM   36  C   UNL     1     -11.347  14.743  70.455  1.00  0.00    -0.242 C  
HETATM   37  C   UNL     1     -12.656  14.958  71.207  1.00  0.00    -0.331 C  
HETATM   38  C   UNL     1     -12.998  13.669  71.991  1.00  0.00    -0.334 C  
HETATM   39  N   UNL     1     -12.581  16.135  72.085  1.00  0.00    -0.498 NA 
HETATM   40  C   UNL     1     -13.032  12.476  71.018  1.00  0.00    -0.068 C  
HETATM   41  H2  UNL     1     -12.304  16.970  71.569  1.00  0.00     0.000 HD 
HETATM   42  O   UNL     1     -14.248  13.781  72.674  1.00  0.00    -0.710 OA 
HETATM   43  H1  UNL     1     -13.456  16.278  72.588  1.00  0.00     0.000 HD 
HETATM   44  C   UNL     1     -13.200  11.165  71.783  1.00  0.00    -0.486 C  
HETATM   45  H   UNL     1     -14.458  12.989  73.155  1.00  0.00     0.000 HD 
HETATM   46  O   UNL     1     -11.822  12.367  70.262  1.00  0.00    -0.322 OA 
ENDBRANCH  34  35
ENDBRANCH  22  34
ENDBRANCH   2   3
TORSDOF 5
ENDMDL
MODEL       23
REMARK 921   NORMALIZED FREE ENERGY PREDICTED BY IDOCK:   -6.68 KCAL/MOL
REMARK 922        TOTAL FREE ENERGY PREDICTED BY IDOCK:   -9.68 KCAL/MOL
REMARK 923 INTER-LIGAND FREE ENERGY PREDICTED BY IDOCK:   -8.96 KCAL/MOL
REMARK 924 INTRA-LIGAND FREE ENERGY PREDICTED BY IDOCK:   -0.72 KCAL/MOL
REMARK 927      BINDING AFFINITY PREDICTED BY RF-SCORE:    0.00 PKD
ROOT
HETATM    1  C   UNL     1      -5.230   5.447  64.344  1.00  0.00    -0.010 C  
HETATM    2  O   UNL     1      -6.566   5.724  64.752  1.00  0.00    -0.040 OA 
ENDROOT
BRANCH   2   3
HETATM    3  C   UNL     1      -7.092   4.931  65.737  1.00  0.00    -0.067 A  
HETATM    4  C   UNL     1      -6.758   3.571  65.848  1.00  0.00    -0.041 A  
HETATM    5  C   UNL     1      -7.294   2.783  66.860  1.00  0.00    -0.065 A  
HETATM    6  C   UNL     1      -8.171   3.347  67.774  1.00  0.00    -0.086 A  
HETATM    7  C   UNL     1      -8.535   4.698  67.670  1.00  0.00    -0.103 A  
HETATM    8  C   UNL     1      -8.018   5.496  66.647  1.00  0.00    -0.101 A  
HETATM    9  C   UNL     1      -8.465   6.913  66.563  1.00  0.00    -0.125 C  
HETATM   10  O   UNL     1      -8.148   7.645  65.631  1.00  0.00    -0.112 OA 
HETATM   11  C   UNL     1      -9.335   7.488  67.623  1.00  0.00    -0.151 A  
HETATM   12  C   UNL     1      -9.666   8.861  67.602  1.00  0.00    -0.161 A  
HETATM   13  O   UNL     1      -9.169   9.703  66.632  1.00  0.00    -0.144 OA 
HETATM   14  C   UNL     1     -10.500   9.444  68.578  1.00  0.00    -0.239 A  
HETATM   15  H   UNL     1      -9.392  10.627  66.618  1.00  0.00     0.000 HD 
HETATM   16  C   UNL     1     -11.022   8.621  69.605  1.00  0.00    -0.099 A  
HETATM   17  C   UNL     1     -10.641   7.262  69.649  1.00  0.00    -0.235 A  
HETATM   18  C   UNL     1     -11.938   9.196  70.677  1.00  0.00    -0.171 C  
HETATM   19  C   UNL     1     -12.485  10.589  70.351  1.00  0.00    -0.310 C  
HETATM   20  C   UNL     1      -9.821   6.688  68.652  1.00  0.00    -0.138 A  
HETATM   21  O   UNL     1     -11.026   6.475  70.700  1.00  0.00    -0.250 OA 
HETATM   22  C   UNL     1     -10.800  10.941  68.512  1.00  0.00    -0.220 C  
HETATM   23  C   UNL     1      -9.481   5.239  68.666  1.00  0.00    -0.128 C  
HETATM   24  C   UNL     1     -11.324  11.456  69.854  1.00  0.00    -0.300 C  
HETATM   25  O   UNL     1     -13.535  10.479  69.389  1.00  0.00     0.030 OA 
HETATM   26  H   UNL     1     -10.770   5.561  70.730  1.00  0.00     0.000 HD 
HETATM   27  O   UNL     1      -9.967   4.459  69.476  1.00  0.00    -0.211 OA 
HETATM   28  H   UNL     1     -13.874  11.343  69.187  1.00  0.00     0.000 HD 
BRANCH  19  29
HETATM   29  C   UNL     1     -13.090  11.222  71.615  1.00  0.00    -0.408 C  
HETATM   30  O   UNL     1     -13.718  10.560  72.448  1.00  0.00    -0.125 OA 
BRANCH  29  31
HETATM   31  C   UNL     1     -12.964  12.736  71.775  1.00  0.00    -0.314 C  
HETATM   32  O   UNL     1     -13.489  13.186  73.018  1.00  0.00    -0.586 OA 
HETATM   33  H   UNL     1     -13.409  14.127  73.117  1.00  0.00     0.000 HD 
ENDBRANCH  29  31
ENDBRANCH  19  29
BRANCH  22  34
HETATM   34  O   UNL     1     -11.755  11.154  67.458  1.00  0.00    -0.574 OA 
BRANCH  34  35
HETATM   35  C   UNL     1     -12.060  12.521  67.149  1.00  0.00    -0.065 C  
HETATM   36  C   UNL     1     -10.887  13.493  67.288  1.00  0.00    -0.285 C  
HETATM   37  C   UNL     1      -9.837  13.189  66.224  1.00  0.00    -0.283 C  
HETATM   38  C   UNL     1     -10.495  13.296  64.829  1.00  0.00    -0.384 C  
HETATM   39  N   UNL     1      -8.672  14.077  66.355  1.00  0.00    -0.435 NA 
HETATM   40  C   UNL     1     -11.720  12.365  64.771  1.00  0.00    -0.368 C  
HETATM   41  H2  UNL     1      -8.276  14.039  67.295  1.00  0.00     0.000 HD 
HETATM   42  O   UNL     1      -9.578  12.964  63.785  1.00  0.00    -0.573 OA 
HETATM   43  H1  UNL     1      -7.970  13.873  65.644  1.00  0.00     0.000 HD 
HETATM   44  C   UNL     1     -12.490  12.571  63.469  1.00  0.00    -0.561 C  
HETATM   45  H   UNL     1      -9.983  13.029  62.927  1.00  0.00     0.000 HD 
HETATM   46  O   UNL     1     -12.635  12.618  65.843  1.00  0.00    -0.526 OA 
ENDBRANCH  34  35
ENDBRANCH  22  34
ENDBRANCH   2   3
TORSDOF 5
ENDMDL
MODEL       24
REMARK 921   NORMALIZED FREE ENERGY PREDICTED BY IDOCK:   -6.65 KCAL/MOL
REMARK 922        TOTAL FREE ENERGY PREDICTED BY IDOCK:   -9.65 KCAL/MOL
REMARK 923 INTER-LIGAND FREE ENERGY PREDICTED BY IDOCK:   -9.08 KCAL/MOL
REMARK 924 INTRA-LIGAND FREE ENERGY PREDICTED BY IDOCK:   -0.56 KCAL/MOL
REMARK 927      BINDING AFFINITY PREDICTED BY RF-SCORE:    0.00 PKD
ROOT
HETATM    1  C   UNL     1     -10.147  15.031  65.191  1.00  0.00    -0.315 C  
HETATM    2  O   UNL     1     -10.387  13.991  66.135  1.00  0.00    -0.283 OA 
ENDROOT
BRANCH   2   3
HETATM    3  C   UNL     1     -11.003  14.346  67.306  1.00  0.00    -0.297 A  
HETATM    4  C   UNL     1     -11.398  15.670  67.561  1.00  0.00    -0.198 A  
HETATM    5  C   UNL     1     -12.030  16.010  68.752  1.00  0.00    -0.088 A  
HETATM    6  C   UNL     1     -12.275  15.030  69.701  1.00  0.00    -0.293 A  
HETATM    7  C   UNL     1     -11.871  13.706  69.476  1.00  0.00    -0.394 A  
HETATM    8  C   UNL     1     -11.218  13.354  68.292  1.00  0.00    -0.310 A  
HETATM    9  C   UNL     1     -10.781  11.942  68.121  1.00  0.00    -0.215 C  
HETATM   10  O   UNL     1     -10.103  11.578  67.165  1.00  0.00    -0.194 OA 
HETATM   11  C   UNL     1     -11.151  10.915  69.131  1.00  0.00    -0.301 A  
HETATM   12  C   UNL     1     -10.831   9.557  68.911  1.00  0.00    -0.150 A  
HETATM   13  O   UNL     1     -10.208   9.145  67.754  1.00  0.00    -0.197 OA 
HETATM   14  C   UNL     1     -11.150   8.553  69.849  1.00  0.00    -0.114 A  
HETATM   15  H   UNL     1      -9.994   8.231  67.607  1.00  0.00     0.000 HD 
HETATM   16  C   UNL     1     -11.805   8.926  71.048  1.00  0.00    -0.324 A  
HETATM   17  C   UNL     1     -12.169  10.278  71.233  1.00  0.00    -0.395 A  
HETATM   18  C   UNL     1     -12.161   7.885  72.101  1.00  0.00    -0.371 C  
HETATM   19  C   UNL     1     -11.468   6.533  71.902  1.00  0.00    -0.301 C  
HETATM   20  C   UNL     1     -11.825  11.275  70.294  1.00  0.00    -0.446 A  
HETATM   21  O   UNL     1     -12.915  10.645  72.320  1.00  0.00    -0.466 OA 
HETATM   22  C   UNL     1     -10.799   7.098  69.541  1.00  0.00    -0.225 C  
HETATM   23  C   UNL     1     -12.149  12.708  70.528  1.00  0.00    -0.275 C  
HETATM   24  C   UNL     1     -11.596   6.140  70.427  1.00  0.00    -0.262 C  
HETATM   25  O   UNL     1     -10.107   6.625  72.326  1.00  0.00    -0.175 OA 
HETATM   26  H   UNL     1     -13.159  11.555  72.445  1.00  0.00     0.000 HD 
HETATM   27  O   UNL     1     -12.638  13.107  71.579  1.00  0.00    -0.296 OA 
HETATM   28  H   UNL     1      -9.678   5.786  72.203  1.00  0.00     0.000 HD 
BRANCH  19  29
HETATM   29  C   UNL     1     -12.146   5.465  72.776  1.00  0.00     0.084 C  
HETATM   30  O   UNL     1     -13.374   5.395  72.898  1.00  0.00     0.343 OA 
BRANCH  29  31
HETATM   31  C   UNL     1     -11.240   4.527  73.572  1.00  0.00    -0.303 C  
HETATM   32  O   UNL     1     -10.387   3.766  72.725  1.00  0.00    -0.160 OA 
HETATM   33  H   UNL     1      -9.824   3.183  73.220  1.00  0.00     0.000 HD 
ENDBRANCH  29  31
ENDBRANCH  19  29
BRANCH  22  34
HETATM   34  O   UNL     1      -9.382   6.936  69.733  1.00  0.00    -0.147 OA 
BRANCH  34  35
HETATM   35  C   UNL     1      -8.792   5.776  69.129  1.00  0.00    -0.112 C  
HETATM   36  C   UNL     1      -9.719   4.985  68.203  1.00  0.00    -0.199 C  
HETATM   37  C   UNL     1     -10.042   5.816  66.965  1.00  0.00    -0.187 C  
HETATM   38  C   UNL     1      -8.720   6.187  66.256  1.00  0.00    -0.143 C  
HETATM   39  N   UNL     1     -10.968   5.105  66.072  1.00  0.00    -0.764 NA 
HETATM   40  C   UNL     1      -7.789   6.901  67.253  1.00  0.00    -0.110 C  
HETATM   41  H2  UNL     1     -11.816   4.818  66.562  1.00  0.00     0.000 HD 
HETATM   42  O   UNL     1      -8.945   7.019  65.116  1.00  0.00    -0.359 OA 
HETATM   43  H1  UNL     1     -11.184   5.661  65.244  1.00  0.00     0.000 HD 
HETATM   44  C   UNL     1      -6.412   7.130  66.634  1.00  0.00    -0.054 C  
HETATM   45  H   UNL     1      -8.132   7.247  64.680  1.00  0.00     0.000 HD 
HETATM   46  O   UNL     1      -7.589   6.130  68.443  1.00  0.00    -0.088 OA 
ENDBRANCH  34  35
ENDBRANCH  22  34
ENDBRANCH   2   3
TORSDOF 5
ENDMDL
MODEL       25
REMARK 921   NORMALIZED FREE ENERGY PREDICTED BY IDOCK:   -6.65 KCAL/MOL
REMARK 922        TOTAL FREE ENERGY PREDICTED BY IDOCK:   -9.64 KCAL/MOL
REMARK 923 INTER-LIGAND FREE ENERGY PREDICTED BY IDOCK:   -8.68 KCAL/MOL
REMARK 924 INTRA-LIGAND FREE ENERGY PREDICTED BY IDOCK:   -0.97 KCAL/MOL
REMARK 927      BINDING AFFINITY PREDICTED BY RF-SCORE:    0.00 PKD
ROOT
HETATM    1  C   UNL     1     -12.453  13.728  63.902  1.00  0.00    -0.202 C  
HETATM    2  O   UNL     1     -12.382  14.177  65.252  1.00  0.00    -0.424 OA 
ENDROOT
BRANCH   2   3
HETATM    3  C   UNL     1     -11.177  14.668  65.681  1.00  0.00    -0.342 A  
HETATM    4  C   UNL     1     -10.732  15.951  65.320  1.00  0.00    -0.442 A  
HETATM    5  C   UNL     1      -9.510  16.437  65.771  1.00  0.00    -0.191 A  
HETATM    6  C   UNL     1      -8.719  15.645  66.590  1.00  0.00    -0.333 A  
HETATM    7  C   UNL     1      -9.134  14.353  66.946  1.00  0.00    -0.269 A  
HETATM    8  C   UNL     1     -10.351  13.846  66.484  1.00  0.00    -0.286 A  
HETATM    9  C   UNL     1     -10.726  12.457  66.864  1.00  0.00    -0.240 C  
HETATM   10  O   UNL     1     -11.719  11.898  66.407  1.00  0.00    -0.522 OA 
HETATM   11  C   UNL     1      -9.883  11.688  67.817  1.00  0.00    -0.186 A  
HETATM   12  C   UNL     1     -10.299  10.414  68.263  1.00  0.00    -0.171 A  
HETATM   13  O   UNL     1     -11.498   9.869  67.861  1.00  0.00    -0.569 OA 
HETATM   14  C   UNL     1      -9.524   9.644  69.155  1.00  0.00    -0.172 A  
HETATM   15  H   UNL     1     -11.777   9.012  68.161  1.00  0.00     0.000 HD 
HETATM   16  C   UNL     1      -8.289  10.168  69.609  1.00  0.00    -0.174 A  
HETATM   17  C   UNL     1      -7.909  11.466  69.200  1.00  0.00     0.027 A  
HETATM   18  C   UNL     1      -7.406   9.374  70.562  1.00  0.00    -0.138 C  
HETATM   19  C   UNL     1      -7.797   7.899  70.693  1.00  0.00    -0.095 C  
HETATM   20  C   UNL     1      -8.686  12.216  68.291  1.00  0.00    -0.178 A  
HETATM   21  O   UNL     1      -6.787  12.049  69.724  1.00  0.00    -0.336 OA 
HETATM   22  C   UNL     1     -10.041   8.283  69.618  1.00  0.00    -0.199 C  
HETATM   23  C   UNL     1      -8.245  13.553  67.810  1.00  0.00    -0.176 C  
HETATM   24  C   UNL     1      -9.314   7.819  70.882  1.00  0.00    -0.157 C  
HETATM   25  O   UNL     1      -7.350   7.180  69.542  1.00  0.00    -0.084 OA 
HETATM   26  H   UNL     1      -6.530  12.921  69.449  1.00  0.00     0.000 HD 
HETATM   27  O   UNL     1      -7.151  14.026  68.099  1.00  0.00    -0.097 OA 
HETATM   28  H   UNL     1      -7.592   6.266  69.624  1.00  0.00     0.000 HD 
BRANCH  19  29
HETATM   29  C   UNL     1      -7.097   7.280  71.915  1.00  0.00    -0.063 C  
HETATM   30  O   UNL     1      -6.991   6.058  72.067  1.00  0.00    -0.074 OA 
BRANCH  29  31
HETATM   31  C   UNL     1      -6.599   8.235  73.000  1.00  0.00    -0.099 C  
HETATM   32  O   UNL     1      -7.638   8.610  73.896  1.00  0.00    -0.387 OA 
HETATM   33  H   UNL     1      -7.328   9.203  74.570  1.00  0.00     0.000 HD 
ENDBRANCH  29  31
ENDBRANCH  19  29
BRANCH  22  34
HETATM   34  O   UNL     1      -9.862   7.351  68.537  1.00  0.00    -0.153 OA 
BRANCH  34  35
HETATM   35  C   UNL     1     -10.889   6.362  68.379  1.00  0.00    -0.311 C  
HETATM   36  C   UNL     1     -11.124   5.898  66.939  1.00  0.00    -0.175 C  
HETATM   37  C   UNL     1      -9.907   5.126  66.441  1.00  0.00    -0.193 C  
HETATM   38  C   UNL     1      -9.657   3.928  67.385  1.00  0.00    -0.172 C  
HETATM   39  N   UNL     1     -10.079   4.702  65.044  1.00  0.00    -0.396 NA 
HETATM   40  C   UNL     1      -9.515   4.439  68.831  1.00  0.00    -0.165 C  
HETATM   41  H2  UNL     1     -10.296   5.492  64.436  1.00  0.00     0.000 HD 
HETATM   42  O   UNL     1      -8.491   3.192  67.010  1.00  0.00    -0.094 OA 
HETATM   43  H1  UNL     1      -9.265   4.186  64.711  1.00  0.00     0.000 HD 
HETATM   44  C   UNL     1      -9.435   3.269  69.809  1.00  0.00    -0.212 C  
HETATM   45  H   UNL     1      -8.337   2.456  67.590  1.00  0.00     0.000 HD 
HETATM   46  O   UNL     1     -10.633   5.240  69.227  1.00  0.00    -0.225 OA 
ENDBRANCH  34  35
ENDBRANCH  22  34
ENDBRANCH   2   3
TORSDOF 5
ENDMDL
MODEL       26
REMARK 921   NORMALIZED FREE ENERGY PREDICTED BY IDOCK:   -6.64 KCAL/MOL
REMARK 922        TOTAL FREE ENERGY PREDICTED BY IDOCK:   -9.63 KCAL/MOL
REMARK 923 INTER-LIGAND FREE ENERGY PREDICTED BY IDOCK:   -8.66 KCAL/MOL
REMARK 924 INTRA-LIGAND FREE ENERGY PREDICTED BY IDOCK:   -0.97 KCAL/MOL
REMARK 927      BINDING AFFINITY PREDICTED BY RF-SCORE:    0.00 PKD
ROOT
HETATM    1  C   UNL     1      -8.692   1.698  66.376  1.00  0.00    -0.119 C  
HETATM    2  O   UNL     1      -9.442   2.717  65.721  1.00  0.00    -0.080 OA 
ENDROOT
BRANCH   2   3
HETATM    3  C   UNL     1      -8.761   3.528  64.851  1.00  0.00    -0.115 A  
HETATM    4  C   UNL     1      -8.058   3.006  63.753  1.00  0.00    -0.082 A  
HETATM    5  C   UNL     1      -7.379   3.844  62.875  1.00  0.00    -0.049 A  
HETATM    6  C   UNL     1      -7.397   5.214  63.086  1.00  0.00    -0.049 A  
HETATM    7  C   UNL     1      -8.075   5.755  64.188  1.00  0.00    -0.120 A  
HETATM    8  C   UNL     1      -8.745   4.922  65.088  1.00  0.00    -0.148 A  
HETATM    9  C   UNL     1      -9.419   5.547  66.259  1.00  0.00    -0.157 C  
HETATM   10  O   UNL     1      -9.929   4.880  67.153  1.00  0.00    -0.177 OA 
HETATM   11  C   UNL     1      -9.483   7.028  66.385  1.00  0.00    -0.176 A  
HETATM   12  C   UNL     1     -10.218   7.619  67.436  1.00  0.00    -0.251 A  
HETATM   13  O   UNL     1     -10.918   6.852  68.341  1.00  0.00    -0.393 OA 
HETATM   14  C   UNL     1     -10.293   9.018  67.602  1.00  0.00    -0.317 A  
HETATM   15  H   UNL     1     -11.412   7.251  69.048  1.00  0.00     0.000 HD 
HETATM   16  C   UNL     1      -9.603   9.848  66.686  1.00  0.00    -0.235 A  
HETATM   17  C   UNL     1      -8.916   9.248  65.607  1.00  0.00    -0.199 A  
HETATM   18  C   UNL     1      -9.638  11.364  66.825  1.00  0.00    -0.207 C  
HETATM   19  C   UNL     1     -10.172  11.855  68.175  1.00  0.00    -0.199 C  
HETATM   20  C   UNL     1      -8.833   7.846  65.466  1.00  0.00    -0.070 A  
HETATM   21  O   UNL     1      -8.349  10.029  64.636  1.00  0.00    -0.148 OA 
HETATM   22  C   UNL     1     -11.125   9.595  68.745  1.00  0.00    -0.049 C  
HETATM   23  C   UNL     1      -8.049   7.220  64.367  1.00  0.00    -0.065 C  
HETATM   24  C   UNL     1     -11.446  11.071  68.501  1.00  0.00    -0.379 C  
HETATM   25  O   UNL     1      -9.163  11.699  69.174  1.00  0.00    -0.392 OA 
HETATM   26  H   UNL     1      -7.887   9.626  63.910  1.00  0.00     0.000 HD 
HETATM   27  O   UNL     1      -7.363   7.878  63.593  1.00  0.00    -0.090 OA 
HETATM   28  H   UNL     1      -9.494  12.004  70.011  1.00  0.00     0.000 HD 
BRANCH  19  29
HETATM   29  C   UNL     1     -10.502  13.355  68.091  1.00  0.00    -0.245 C  
HETATM   30  O   UNL     1     -10.190  14.045  67.115  1.00  0.00    -0.254 OA 
BRANCH  29  31
HETATM   31  C   UNL     1     -11.165  13.998  69.308  1.00  0.00    -0.261 C  
HETATM   32  O   UNL     1     -10.213  14.606  70.173  1.00  0.00    -0.423 OA 
HETATM   33  H   UNL     1     -10.626  15.006  70.929  1.00  0.00     0.000 HD 
ENDBRANCH  29  31
ENDBRANCH  19  29
BRANCH  22  34
HETATM   34  O   UNL     1     -10.386   9.413  69.965  1.00  0.00    -0.202 OA 
BRANCH  34  35
HETATM   35  C   UNL     1     -11.073   9.753  71.178  1.00  0.00    -0.344 C  
HETATM   36  C   UNL     1     -12.557   9.379  71.207  1.00  0.00    -0.403 C  
HETATM   37  C   UNL     1     -12.706   7.862  71.213  1.00  0.00    -0.229 C  
HETATM   38  C   UNL     1     -11.957   7.292  72.440  1.00  0.00    -0.163 C  
HETATM   39  N   UNL     1     -14.122   7.464  71.196  1.00  0.00    -0.623 NA 
HETATM   40  C   UNL     1     -10.493   7.769  72.410  1.00  0.00    -0.263 C  
HETATM   41  H2  UNL     1     -14.620   7.887  70.413  1.00  0.00     0.000 HD 
HETATM   42  O   UNL     1     -12.006   5.864  72.475  1.00  0.00    -0.472 OA 
HETATM   43  H1  UNL     1     -14.221   6.450  71.200  1.00  0.00     0.000 HD 
HETATM   44  C   UNL     1      -9.770   7.365  73.692  1.00  0.00    -0.349 C  
HETATM   45  H   UNL     1     -11.546   5.514  73.228  1.00  0.00     0.000 HD 
HETATM   46  O   UNL     1     -10.397   9.193  72.306  1.00  0.00    -0.162 OA 
ENDBRANCH  34  35
ENDBRANCH  22  34
ENDBRANCH   2   3
TORSDOF 5
ENDMDL
MODEL       27
REMARK 921   NORMALIZED FREE ENERGY PREDICTED BY IDOCK:   -6.62 KCAL/MOL
REMARK 922        TOTAL FREE ENERGY PREDICTED BY IDOCK:   -9.60 KCAL/MOL
REMARK 923 INTER-LIGAND FREE ENERGY PREDICTED BY IDOCK:   -8.49 KCAL/MOL
REMARK 924 INTRA-LIGAND FREE ENERGY PREDICTED BY IDOCK:   -1.11 KCAL/MOL
REMARK 927      BINDING AFFINITY PREDICTED BY RF-SCORE:    0.00 PKD
ROOT
HETATM    1  C   UNL     1     -10.852   4.467  73.906  1.00  0.00    -0.268 C  
HETATM    2  O   UNL     1     -10.745   4.659  72.498  1.00  0.00    -0.200 OA 
ENDROOT
BRANCH   2   3
HETATM    3  C   UNL     1      -9.572   4.269  71.906  1.00  0.00    -0.150 A  
HETATM    4  C   UNL     1      -8.822   3.187  72.396  1.00  0.00    -0.109 A  
HETATM    5  C   UNL     1      -7.639   2.799  71.777  1.00  0.00    -0.048 A  
HETATM    6  C   UNL     1      -7.193   3.489  70.660  1.00  0.00    -0.037 A  
HETATM    7  C   UNL     1      -7.916   4.585  70.166  1.00  0.00    -0.063 A  
HETATM    8  C   UNL     1      -9.096   4.997  70.790  1.00  0.00    -0.174 A  
HETATM    9  C   UNL     1      -9.804   6.187  70.245  1.00  0.00    -0.169 C  
HETATM   10  O   UNL     1     -10.780   6.680  70.801  1.00  0.00    -0.223 OA 
HETATM   11  C   UNL     1      -9.330   6.832  68.991  1.00  0.00    -0.134 A  
HETATM   12  C   UNL     1     -10.066   7.890  68.415  1.00  0.00    -0.194 A  
HETATM   13  O   UNL     1     -11.249   8.326  68.971  1.00  0.00    -0.410 OA 
HETATM   14  C   UNL     1      -9.646   8.539  67.236  1.00  0.00    -0.220 A  
HETATM   15  H   UNL     1     -11.744   9.038  68.583  1.00  0.00     0.000 HD 
HETATM   16  C   UNL     1      -8.443   8.116  66.620  1.00  0.00    -0.129 A  
HETATM   17  C   UNL     1      -7.743   7.021  67.173  1.00  0.00    -0.108 A  
HETATM   18  C   UNL     1      -7.935   8.790  65.352  1.00  0.00    -0.112 C  
HETATM   19  C   UNL     1      -8.627  10.119  65.031  1.00  0.00    -0.167 C  
HETATM   20  C   UNL     1      -8.166   6.394  68.365  1.00  0.00    -0.113 A  
HETATM   21  O   UNL     1      -6.651   6.508  66.527  1.00  0.00    -0.045 OA 
HETATM   22  C   UNL     1     -10.501   9.662  66.651  1.00  0.00    -0.163 C  
HETATM   23  C   UNL     1      -7.386   5.287  68.981  1.00  0.00    -0.066 C  
HETATM   24  C   UNL     1     -10.138   9.924  65.187  1.00  0.00    -0.177 C  
HETATM   25  O   UNL     1      -8.117  11.144  65.886  1.00  0.00    -0.296 OA 
HETATM   26  H   UNL     1      -6.179   5.772  66.899  1.00  0.00     0.000 HD 
HETATM   27  O   UNL     1      -6.297   4.930  68.545  1.00  0.00    -0.033 OA 
HETATM   28  H   UNL     1      -8.546  11.967  65.686  1.00  0.00     0.000 HD 
BRANCH  19  29
HETATM   29  C   UNL     1      -8.312  10.535  63.584  1.00  0.00    -0.108 C  
HETATM   30  O   UNL     1      -7.257  10.223  63.023  1.00  0.00    -0.140 OA 
BRANCH  29  31
HETATM   31  C   UNL     1      -9.325  11.432  62.874  1.00  0.00    -0.323 C  
HETATM   32  O   UNL     1      -9.580  12.627  63.603  1.00  0.00    -0.654 OA 
HETATM   33  H   UNL     1     -10.209  13.184  63.160  1.00  0.00     0.000 HD 
ENDBRANCH  29  31
ENDBRANCH  19  29
BRANCH  22  34
HETATM   34  O   UNL     1     -10.304  10.835  67.459  1.00  0.00    -0.187 OA 
BRANCH  34  35
HETATM   35  C   UNL     1     -11.492  11.471  67.951  1.00  0.00    -0.301 C  
HETATM   36  C   UNL     1     -11.263  12.501  69.059  1.00  0.00    -0.321 C  
HETATM   37  C   UNL     1     -10.510  13.703  68.497  1.00  0.00    -0.244 C  
HETATM   38  C   UNL     1     -11.327  14.303  67.330  1.00  0.00    -0.332 C  
HETATM   39  N   UNL     1     -10.233  14.696  69.546  1.00  0.00    -0.417 NA 
HETATM   40  C   UNL     1     -11.606  13.205  66.286  1.00  0.00    -0.356 C  
HETATM   41  H2  UNL     1      -9.739  14.280  70.335  1.00  0.00     0.000 HD 
HETATM   42  O   UNL     1     -10.649  15.401  66.717  1.00  0.00    -0.298 OA 
HETATM   43  H1  UNL     1      -9.729  15.499  69.170  1.00  0.00     0.000 HD 
HETATM   44  C   UNL     1     -12.552  13.720  65.205  1.00  0.00    -0.471 C  
HETATM   45  H   UNL     1     -11.151  15.769  66.000  1.00  0.00     0.000 HD 
HETATM   46  O   UNL     1     -12.225  12.055  66.872  1.00  0.00    -0.529 OA 
ENDBRANCH  34  35
ENDBRANCH  22  34
ENDBRANCH   2   3
TORSDOF 5
ENDMDL
MODEL       28
REMARK 921   NORMALIZED FREE ENERGY PREDICTED BY IDOCK:   -6.55 KCAL/MOL
REMARK 922        TOTAL FREE ENERGY PREDICTED BY IDOCK:   -9.51 KCAL/MOL
REMARK 923 INTER-LIGAND FREE ENERGY PREDICTED BY IDOCK:   -9.25 KCAL/MOL
REMARK 924 INTRA-LIGAND FREE ENERGY PREDICTED BY IDOCK:   -0.26 KCAL/MOL
REMARK 927      BINDING AFFINITY PREDICTED BY RF-SCORE:    0.00 PKD
ROOT
HETATM    1  C   UNL     1     -11.530  12.736  63.458  1.00  0.00    -0.459 C  
HETATM    2  O   UNL     1     -10.599  12.775  64.535  1.00  0.00    -0.318 OA 
ENDROOT
BRANCH   2   3
HETATM    3  C   UNL     1     -11.065  13.220  65.744  1.00  0.00    -0.279 A  
HETATM    4  C   UNL     1     -11.539  14.531  65.915  1.00  0.00    -0.349 A  
HETATM    5  C   UNL     1     -12.018  14.964  67.147  1.00  0.00    -0.136 A  
HETATM    6  C   UNL     1     -12.028  14.088  68.222  1.00  0.00    -0.384 A  
HETATM    7  C   UNL     1     -11.541  12.781  68.079  1.00  0.00    -0.388 A  
HETATM    8  C   UNL     1     -11.040  12.340  66.851  1.00  0.00    -0.341 A  
HETATM    9  C   UNL     1     -10.504  10.954  66.765  1.00  0.00    -0.251 C  
HETATM   10  O   UNL     1      -9.943  10.530  65.760  1.00  0.00    -0.231 OA 
HETATM   11  C   UNL     1     -10.624  10.031  67.925  1.00  0.00    -0.298 A  
HETATM   12  C   UNL     1     -10.217   8.684  67.804  1.00  0.00    -0.225 A  
HETATM   13  O   UNL     1      -9.736   8.184  66.615  1.00  0.00    -0.211 OA 
HETATM   14  C   UNL     1     -10.299   7.778  68.882  1.00  0.00    -0.224 A  
HETATM   15  H   UNL     1      -9.461   7.278  66.534  1.00  0.00     0.000 HD 
HETATM   16  C   UNL     1     -10.802   8.242  70.122  1.00  0.00    -0.237 A  
HETATM   17  C   UNL     1     -11.258   9.575  70.216  1.00  0.00    -0.261 A  
HETATM   18  C   UNL     1     -10.901   7.310  71.323  1.00  0.00    -0.255 C  
HETATM   19  C   UNL     1     -10.123   6.000  71.163  1.00  0.00    -0.194 C  
HETATM   20  C   UNL     1     -11.150  10.476  69.134  1.00  0.00    -0.302 A  
HETATM   21  O   UNL     1     -11.867  10.013  71.362  1.00  0.00    -0.370 OA 
HETATM   22  C   UNL     1      -9.864   6.327  68.679  1.00  0.00    -0.136 C  
HETATM   23  C   UNL     1     -11.567  11.898  69.262  1.00  0.00    -0.315 C  
HETATM   24  C   UNL     1     -10.431   5.425  69.778  1.00  0.00    -0.378 C  
HETATM   25  O   UNL     1      -8.729   6.244  71.357  1.00  0.00    -0.134 OA 
HETATM   26  H   UNL     1     -12.174  10.910  71.425  1.00  0.00     0.000 HD 
HETATM   27  O   UNL     1     -11.932  12.382  70.328  1.00  0.00    -0.349 OA 
HETATM   28  H   UNL     1      -8.247   5.432  71.258  1.00  0.00     0.000 HD 
BRANCH  19  29
HETATM   29  C   UNL     1     -10.563   4.997  72.242  1.00  0.00    -0.206 C  
HETATM   30  O   UNL     1     -11.572   5.173  72.934  1.00  0.00    -0.297 OA 
BRANCH  29  31
HETATM   31  C   UNL     1      -9.656   3.794  72.498  1.00  0.00    -0.134 C  
HETATM   32  O   UNL     1     -10.259   2.575  72.080  1.00  0.00    -0.152 OA 
HETATM   33  H   UNL     1      -9.694   1.828  72.239  1.00  0.00     0.000 HD 
ENDBRANCH  29  31
ENDBRANCH  19  29
BRANCH  22  34
HETATM   34  O   UNL     1      -8.426   6.296  68.663  1.00  0.00    -0.121 OA 
BRANCH  34  35
HETATM   35  C   UNL     1      -7.818   5.858  67.440  1.00  0.00    -0.102 C  
HETATM   36  C   UNL     1      -6.930   4.618  67.567  1.00  0.00    -0.061 C  
HETATM   37  C   UNL     1      -7.787   3.403  67.909  1.00  0.00    -0.072 C  
HETATM   38  C   UNL     1      -8.855   3.221  66.806  1.00  0.00    -0.140 C  
HETATM   39  N   UNL     1      -6.961   2.199  68.083  1.00  0.00    -0.039 NA 
HETATM   40  C   UNL     1      -9.662   4.524  66.657  1.00  0.00    -0.207 C  
HETATM   41  H2  UNL     1      -6.225   2.346  68.774  1.00  0.00     0.000 HD 
HETATM   42  O   UNL     1      -9.733   2.131  67.094  1.00  0.00    -0.390 OA 
HETATM   43  H1  UNL     1      -7.534   1.388  68.311  1.00  0.00     0.000 HD 
HETATM   44  C   UNL     1     -10.611   4.435  65.465  1.00  0.00    -0.193 C  
HETATM   45  H   UNL     1     -10.390   2.020  66.417  1.00  0.00     0.000 HD 
HETATM   46  O   UNL     1      -8.814   5.655  66.434  1.00  0.00    -0.121 OA 
ENDBRANCH  34  35
ENDBRANCH  22  34
ENDBRANCH   2   3
TORSDOF 5
ENDMDL
MODEL       29
REMARK 921   NORMALIZED FREE ENERGY PREDICTED BY IDOCK:   -6.50 KCAL/MOL
REMARK 922        TOTAL FREE ENERGY PREDICTED BY IDOCK:   -9.45 KCAL/MOL
REMARK 923 INTER-LIGAND FREE ENERGY PREDICTED BY IDOCK:   -9.42 KCAL/MOL
REMARK 924 INTRA-LIGAND FREE ENERGY PREDICTED BY IDOCK:   -0.03 KCAL/MOL
REMARK 927      BINDING AFFINITY PREDICTED BY RF-SCORE:    0.00 PKD
ROOT
HETATM    1  C   UNL     1      -6.036   8.337  68.476  1.00  0.00    -0.041 C  
HETATM    2  O   UNL     1      -6.617   8.814  67.265  1.00  0.00    -0.057 OA 
ENDROOT
BRANCH   2   3
HETATM    3  C   UNL     1      -7.984   8.890  67.220  1.00  0.00    -0.097 A  
HETATM    4  C   UNL     1      -8.785   7.738  67.153  1.00  0.00    -0.125 A  
HETATM    5  C   UNL     1     -10.172   7.834  67.117  1.00  0.00    -0.365 A  
HETATM    6  C   UNL     1     -10.773   9.083  67.148  1.00  0.00    -0.206 A  
HETATM    7  C   UNL     1      -9.991  10.247  67.193  1.00  0.00    -0.243 A  
HETATM    8  C   UNL     1      -8.597  10.165  67.211  1.00  0.00    -0.125 A  
HETATM    9  C   UNL     1      -7.817  11.432  67.224  1.00  0.00    -0.149 C  
HETATM   10  O   UNL     1      -6.594  11.450  67.125  1.00  0.00    -0.095 OA 
HETATM   11  C   UNL     1      -8.513  12.740  67.348  1.00  0.00    -0.191 A  
HETATM   12  C   UNL     1      -7.767  13.933  67.473  1.00  0.00    -0.179 A  
HETATM   13  O   UNL     1      -6.391  13.916  67.519  1.00  0.00    -0.276 OA 
HETATM   14  C   UNL     1      -8.386  15.195  67.578  1.00  0.00    -0.188 A  
HETATM   15  H   UNL     1      -5.889  14.718  67.603  1.00  0.00     0.000 HD 
HETATM   16  C   UNL     1      -9.800  15.263  67.551  1.00  0.00    -0.213 A  
HETATM   17  C   UNL     1     -10.538  14.060  67.481  1.00  0.00    -0.260 A  
HETATM   18  C   UNL     1     -10.521  16.601  67.648  1.00  0.00    -0.320 C  
HETATM   19  C   UNL     1      -9.613  17.816  67.436  1.00  0.00    -0.264 C  
HETATM   20  C   UNL     1      -9.903  12.805  67.356  1.00  0.00    -0.210 A  
HETATM   21  O   UNL     1     -11.903  14.086  67.583  1.00  0.00    -0.357 OA 
HETATM   22  C   UNL     1      -7.522  16.446  67.735  1.00  0.00    -0.142 C  
HETATM   23  C   UNL     1     -10.687  11.549  67.212  1.00  0.00    -0.244 C  
HETATM   24  C   UNL     1      -8.345  17.619  68.271  1.00  0.00    -0.274 C  
HETATM   25  O   UNL     1      -9.333  17.968  66.043  1.00  0.00    -0.505 OA 
HETATM   26  H   UNL     1     -12.399  13.277  67.536  1.00  0.00     0.000 HD 
HETATM   27  O   UNL     1     -11.907  11.546  67.098  1.00  0.00    -0.595 OA 
HETATM   28  H   UNL     1      -8.771  18.722  65.912  1.00  0.00     0.000 HD 
BRANCH  19  29
HETATM   29  C   UNL     1     -10.335  19.093  67.897  1.00  0.00    -0.414 C  
HETATM   30  O   UNL     1     -11.146  19.688  67.179  1.00  0.00    -0.420 OA 
BRANCH  29  31
HETATM   31  C   UNL     1      -9.953  19.665  69.262  1.00  0.00    -0.269 C  
HETATM   32  O   UNL     1     -10.910  20.607  69.731  1.00  0.00    -0.402 OA 
HETATM   33  H   UNL     1     -10.672  20.961  70.579  1.00  0.00     0.000 HD 
ENDBRANCH  29  31
ENDBRANCH  19  29
BRANCH  22  34
HETATM   34  O   UNL     1      -6.947  16.749  66.452  1.00  0.00    -0.225 OA 
BRANCH  34  35
HETATM   35  C   UNL     1      -5.729  17.507  66.469  1.00  0.00    -0.199 C  
HETATM   36  C   UNL     1      -5.189  17.894  65.090  1.00  0.00    -0.011 C  
HETATM   37  C   UNL     1      -6.135  18.891  64.428  1.00  0.00     0.008 C  
HETATM   38  C   UNL     1      -6.278  20.127  65.345  1.00  0.00    -0.234 C  
HETATM   39  N   UNL     1      -5.671  19.253  63.080  1.00  0.00    -0.394 NA 
HETATM   40  C   UNL     1      -6.738  19.675  66.743  1.00  0.00    -0.195 C  
HETATM   41  H2  UNL     1      -5.529  18.427  62.498  1.00  0.00     0.000 HD 
HETATM   42  O   UNL     1      -7.200  21.080  64.811  1.00  0.00    -0.417 OA 
HETATM   43  H1  UNL     1      -6.303  19.919  62.638  1.00  0.00     0.000 HD 
HETATM   44  C   UNL     1      -6.726  20.849  67.719  1.00  0.00    -0.372 C  
HETATM   45  H   UNL     1      -7.288  21.839  65.375  1.00  0.00     0.000 HD 
HETATM   46  O   UNL     1      -5.878  18.669  67.289  1.00  0.00    -0.154 OA 
ENDBRANCH  34  35
ENDBRANCH  22  34
ENDBRANCH   2   3
TORSDOF 5
ENDMDL
MODEL       30
REMARK 921   NORMALIZED FREE ENERGY PREDICTED BY IDOCK:   -6.48 KCAL/MOL
REMARK 922        TOTAL FREE ENERGY PREDICTED BY IDOCK:   -9.42 KCAL/MOL
REMARK 923 INTER-LIGAND FREE ENERGY PREDICTED BY IDOCK:  -10.64 KCAL/MOL
REMARK 924 INTRA-LIGAND FREE ENERGY PREDICTED BY IDOCK:    1.22 KCAL/MOL
REMARK 927      BINDING AFFINITY PREDICTED BY RF-SCORE:    0.00 PKD
ROOT
HETATM    1  C   UNL     1      -7.694   4.676  67.455  1.00  0.00    -0.089 C  
HETATM    2  O   UNL     1      -7.655   5.546  68.583  1.00  0.00    -0.078 OA 
ENDROOT
BRANCH   2   3
HETATM    3  C   UNL     1      -8.740   5.529  69.418  1.00  0.00    -0.107 A  
HETATM    4  C   UNL     1      -9.155   4.353  70.067  1.00  0.00    -0.168 A  
HETATM    5  C   UNL     1     -10.254   4.357  70.919  1.00  0.00    -0.112 A  
HETATM    6  C   UNL     1     -10.951   5.536  71.132  1.00  0.00    -0.196 A  
HETATM    7  C   UNL     1     -10.567   6.717  70.478  1.00  0.00    -0.270 A  
HETATM    8  C   UNL     1      -9.476   6.723  69.606  1.00  0.00    -0.146 A  
HETATM    9  C   UNL     1      -9.134   7.995  68.913  1.00  0.00    -0.144 C  
HETATM   10  O   UNL     1      -8.266   8.057  68.048  1.00  0.00    -0.126 OA 
HETATM   11  C   UNL     1      -9.859   9.250  69.249  1.00  0.00    -0.172 A  
HETATM   12  C   UNL     1      -9.459  10.475  68.674  1.00  0.00    -0.172 A  
HETATM   13  O   UNL     1      -8.378  10.550  67.824  1.00  0.00    -0.111 OA 
HETATM   14  C   UNL     1     -10.127  11.686  68.953  1.00  0.00    -0.109 A  
HETATM   15  H   UNL     1      -8.109  11.375  67.437  1.00  0.00     0.000 HD 
HETATM   16  C   UNL     1     -11.235  11.663  69.833  1.00  0.00    -0.140 A  
HETATM   17  C   UNL     1     -11.593  10.441  70.446  1.00  0.00    -0.337 A  
HETATM   18  C   UNL     1     -12.001  12.938  70.159  1.00  0.00    -0.373 C  
HETATM   19  C   UNL     1     -11.690  14.110  69.224  1.00  0.00    -0.323 C  
HETATM   20  C   UNL     1     -10.927   9.234  70.141  1.00  0.00    -0.278 A  
HETATM   21  O   UNL     1     -12.576  10.413  71.398  1.00  0.00    -0.362 OA 
HETATM   22  C   UNL     1      -9.629  12.983  68.316  1.00  0.00    -0.213 C  
HETATM   23  C   UNL     1     -11.354   7.939  70.736  1.00  0.00    -0.274 C  
HETATM   24  C   UNL     1     -10.170  14.204  69.062  1.00  0.00    -0.130 C  
HETATM   25  O   UNL     1     -12.362  13.921  67.978  1.00  0.00    -0.476 OA 
HETATM   26  H   UNL     1     -12.817   9.592  71.810  1.00  0.00     0.000 HD 
HETATM   27  O   UNL     1     -12.354   7.837  71.438  1.00  0.00    -0.312 OA 
HETATM   28  H   UNL     1     -12.168  14.649  67.399  1.00  0.00     0.000 HD 
BRANCH  19  29
HETATM   29  C   UNL     1     -12.220  15.419  69.833  1.00  0.00    -0.334 C  
HETATM   30  O   UNL     1     -11.983  16.523  69.333  1.00  0.00     0.102 OA 
BRANCH  29  31
HETATM   31  C   UNL     1     -12.996  15.321  71.147  1.00  0.00    -0.454 C  
HETATM   32  O   UNL     1     -14.399  15.233  70.930  1.00  0.00    -0.773 OA 
HETATM   33  H   UNL     1     -14.880  15.171  71.747  1.00  0.00     0.000 HD 
ENDBRANCH  29  31
ENDBRANCH  19  29
BRANCH  22  34
HETATM   34  O   UNL     1     -10.040  12.984  66.938  1.00  0.00    -0.236 OA 
BRANCH  34  35
HETATM   35  C   UNL     1     -11.041  12.022  66.576  1.00  0.00    -0.314 C  
HETATM   36  C   UNL     1     -12.108  12.532  65.605  1.00  0.00    -0.464 C  
HETATM   37  C   UNL     1     -11.477  12.810  64.245  1.00  0.00    -0.373 C  
HETATM   38  C   UNL     1     -10.818  11.511  63.726  1.00  0.00    -0.416 C  
HETATM   39  N   UNL     1     -12.465  13.345  63.297  1.00  0.00    -0.894 NA 
HETATM   40  C   UNL     1      -9.819  10.992  64.777  1.00  0.00    -0.276 C  
HETATM   41  H2  UNL     1     -12.933  14.171  63.669  1.00  0.00     0.000 HD 
HETATM   42  O   UNL     1     -10.153  11.715  62.478  1.00  0.00    -0.478 OA 
HETATM   43  H1  UNL     1     -12.043  13.531  62.388  1.00  0.00     0.000 HD 
HETATM   44  C   UNL     1      -9.275   9.623  64.372  1.00  0.00    -0.258 C  
HETATM   45  H   UNL     1      -9.748  10.917  62.160  1.00  0.00     0.000 HD 
HETATM   46  O   UNL     1     -10.427  10.837  66.063  1.00  0.00    -0.250 OA 
ENDBRANCH  34  35
ENDBRANCH  22  34
ENDBRANCH   2   3
TORSDOF 5
ENDMDL
MODEL       31
REMARK 921   NORMALIZED FREE ENERGY PREDICTED BY IDOCK:   -6.47 KCAL/MOL
REMARK 922        TOTAL FREE ENERGY PREDICTED BY IDOCK:   -9.41 KCAL/MOL
REMARK 923 INTER-LIGAND FREE ENERGY PREDICTED BY IDOCK:   -8.39 KCAL/MOL
REMARK 924 INTRA-LIGAND FREE ENERGY PREDICTED BY IDOCK:   -1.02 KCAL/MOL
REMARK 927      BINDING AFFINITY PREDICTED BY RF-SCORE:    0.00 PKD
ROOT
HETATM    1  C   UNL     1     -10.719  19.763  65.772  1.00  0.00    -0.370 C  
HETATM    2  O   UNL     1     -10.442  19.012  66.951  1.00  0.00    -0.379 OA 
ENDROOT
BRANCH   2   3
HETATM    3  C   UNL     1      -9.174  19.100  67.460  1.00  0.00    -0.296 A  
HETATM    4  C   UNL     1      -8.547  20.340  67.671  1.00  0.00    -0.340 A  
HETATM    5  C   UNL     1      -7.262  20.412  68.197  1.00  0.00    -0.231 A  
HETATM    6  C   UNL     1      -6.589  19.243  68.520  1.00  0.00    -0.289 A  
HETATM    7  C   UNL     1      -7.188  17.994  68.298  1.00  0.00    -0.248 A  
HETATM    8  C   UNL     1      -8.471  17.908  67.753  1.00  0.00    -0.242 A  
HETATM    9  C   UNL     1      -9.043  16.556  67.507  1.00  0.00    -0.197 C  
HETATM   10  O   UNL     1     -10.112  16.393  66.927  1.00  0.00    -0.266 OA 
HETATM   11  C   UNL     1      -8.315  15.340  67.957  1.00  0.00    -0.146 A  
HETATM   12  C   UNL     1      -8.910  14.067  67.824  1.00  0.00    -0.187 A  
HETATM   13  O   UNL     1     -10.181  13.919  67.314  1.00  0.00    -0.246 OA 
HETATM   14  C   UNL     1      -8.248  12.887  68.223  1.00  0.00    -0.153 A  
HETATM   15  H   UNL     1     -10.580  13.062  67.225  1.00  0.00     0.000 HD 
HETATM   16  C   UNL     1      -6.945  12.989  68.767  1.00  0.00    -0.103 A  
HETATM   17  C   UNL     1      -6.381  14.272  68.947  1.00  0.00    -0.089 A  
HETATM   18  C   UNL     1      -6.180  11.747  69.202  1.00  0.00    -0.083 C  
HETATM   19  C   UNL     1      -6.784  10.433  68.697  1.00  0.00    -0.053 C  
HETATM   20  C   UNL     1      -7.048  15.443  68.524  1.00  0.00    -0.114 A  
HETATM   21  O   UNL     1      -5.180  14.409  69.588  1.00  0.00    -0.091 OA 
HETATM   22  C   UNL     1      -8.957  11.541  68.074  1.00  0.00    -0.170 C  
HETATM   23  C   UNL     1      -6.418  16.784  68.651  1.00  0.00    -0.165 C  
HETATM   24  C   UNL     1      -8.294  10.471  68.945  1.00  0.00    -0.147 C  
HETATM   25  O   UNL     1      -6.460  10.255  67.317  1.00  0.00    -0.065 OA 
HETATM   26  H   UNL     1      -4.800  15.271  69.708  1.00  0.00     0.000 HD 
HETATM   27  O   UNL     1      -5.264  16.934  69.035  1.00  0.00    -0.130 OA 
HETATM   28  H   UNL     1      -6.834   9.440  67.005  1.00  0.00     0.000 HD 
BRANCH  19  29
HETATM   29  C   UNL     1      -6.171   9.248  69.464  1.00  0.00    -0.040 C  
HETATM   30  O   UNL     1      -6.252   8.085  69.055  1.00  0.00    -0.038 OA 
BRANCH  29  31
HETATM   31  C   UNL     1      -5.519   9.545  70.814  1.00  0.00    -0.049 C  
HETATM   32  O   UNL     1      -6.467   9.544  71.874  1.00  0.00    -0.298 OA 
HETATM   33  H   UNL     1      -6.061   9.728  72.713  1.00  0.00     0.000 HD 
ENDBRANCH  29  31
ENDBRANCH  19  29
BRANCH  22  34
HETATM   34  O   UNL     1      -8.929  11.178  66.683  1.00  0.00    -0.160 OA 
BRANCH  34  35
HETATM   35  C   UNL     1     -10.002  10.342  66.226  1.00  0.00    -0.226 C  
HETATM   36  C   UNL     1     -11.387  10.991  66.261  1.00  0.00     0.134 C  
HETATM   37  C   UNL     1     -11.453  12.121  65.239  1.00  0.00    -0.336 C  
HETATM   38  C   UNL     1     -11.135  11.547  63.840  1.00  0.00    -0.380 C  
HETATM   39  N   UNL     1     -12.758  12.798  65.275  1.00  0.00    -0.691 NA 
HETATM   40  C   UNL     1      -9.773  10.829  63.881  1.00  0.00    -0.313 C  
HETATM   41  H2  UNL     1     -12.983  13.128  66.214  1.00  0.00     0.000 HD 
HETATM   42  O   UNL     1     -11.122  12.566  62.839  1.00  0.00    -0.624 OA 
HETATM   43  H1  UNL     1     -12.802  13.554  64.592  1.00  0.00     0.000 HD 
HETATM   44  C   UNL     1      -9.507  10.107  62.562  1.00  0.00    -0.269 C  
HETATM   45  H   UNL     1     -10.926  12.213  61.979  1.00  0.00     0.000 HD 
HETATM   46  O   UNL     1      -9.720   9.843  64.916  1.00  0.00    -0.302 OA 
ENDBRANCH  34  35
ENDBRANCH  22  34
ENDBRANCH   2   3
TORSDOF 5
ENDMDL
MODEL       32
REMARK 921   NORMALIZED FREE ENERGY PREDICTED BY IDOCK:   -6.44 KCAL/MOL
REMARK 922        TOTAL FREE ENERGY PREDICTED BY IDOCK:   -9.36 KCAL/MOL
REMARK 923 INTER-LIGAND FREE ENERGY PREDICTED BY IDOCK:   -8.97 KCAL/MOL
REMARK 924 INTRA-LIGAND FREE ENERGY PREDICTED BY IDOCK:   -0.40 KCAL/MOL
REMARK 927      BINDING AFFINITY PREDICTED BY RF-SCORE:    0.00 PKD
ROOT
HETATM    1  C   UNL     1     -11.844  15.562  68.981  1.00  0.00    -0.354 C  
HETATM    2  O   UNL     1     -11.718  14.143  68.970  1.00  0.00    -0.281 OA 
ENDROOT
BRANCH   2   3
HETATM    3  C   UNL     1     -12.270  13.462  70.023  1.00  0.00    -0.298 A  
HETATM    4  C   UNL     1     -13.086  14.104  70.970  1.00  0.00    -0.370 A  
HETATM    5  C   UNL     1     -13.646  13.395  72.028  1.00  0.00    -0.577 A  
HETATM    6  C   UNL     1     -13.396  12.037  72.150  1.00  0.00    -0.396 A  
HETATM    7  C   UNL     1     -12.566  11.381  71.228  1.00  0.00    -0.480 A  
HETATM    8  C   UNL     1     -11.983  12.085  70.171  1.00  0.00    -0.401 A  
HETATM    9  C   UNL     1     -11.084  11.346  69.244  1.00  0.00    -0.254 C  
HETATM   10  O   UNL     1     -10.445  11.912  68.363  1.00  0.00    -0.203 OA 
HETATM   11  C   UNL     1     -10.925   9.873  69.369  1.00  0.00    -0.263 A  
HETATM   12  C   UNL     1     -10.161   9.159  68.419  1.00  0.00    -0.200 A  
HETATM   13  O   UNL     1      -9.579   9.793  67.344  1.00  0.00    -0.149 OA 
HETATM   14  C   UNL     1      -9.971   7.764  68.508  1.00  0.00    -0.193 A  
HETATM   15  H   UNL     1      -9.065   9.312  66.706  1.00  0.00     0.000 HD 
HETATM   16  C   UNL     1     -10.563   7.066  69.589  1.00  0.00    -0.253 A  
HETATM   17  C   UNL     1     -11.370   7.781  70.502  1.00  0.00    -0.241 A  
HETATM   18  C   UNL     1     -10.379   5.562  69.741  1.00  0.00    -0.366 C  
HETATM   19  C   UNL     1      -9.271   4.975  68.862  1.00  0.00    -0.115 C  
HETATM   20  C   UNL     1     -11.534   9.180  70.411  1.00  0.00    -0.228 A  
HETATM   21  O   UNL     1     -12.057   7.112  71.479  1.00  0.00    -0.302 OA 
HETATM   22  C   UNL     1      -9.153   7.047  67.435  1.00  0.00    -0.123 C  
HETATM   23  C   UNL     1     -12.327   9.937  71.416  1.00  0.00    -0.404 C  
HETATM   24  C   UNL     1      -9.429   5.542  67.448  1.00  0.00    -0.121 C  
HETATM   25  O   UNL     1      -7.996   5.277  69.432  1.00  0.00    -0.086 OA 
HETATM   26  H   UNL     1     -12.600   7.593  72.093  1.00  0.00     0.000 HD 
HETATM   27  O   UNL     1     -12.794   9.406  72.418  1.00  0.00    -0.376 OA 
HETATM   28  H   UNL     1      -7.309   4.913  68.887  1.00  0.00     0.000 HD 
BRANCH  19  29
HETATM   29  C   UNL     1      -9.397   3.443  68.815  1.00  0.00    -0.167 C  
HETATM   30  O   UNL     1      -9.933   2.798  69.722  1.00  0.00     0.182 OA 
BRANCH  29  31
HETATM   31  C   UNL     1      -8.756   2.720  67.632  1.00  0.00    -0.113 C  
HETATM   32  O   UNL     1      -9.587   1.680  67.130  1.00  0.00    -0.373 OA 
HETATM   33  H   UNL     1      -9.188   1.231  66.394  1.00  0.00     0.000 HD 
ENDBRANCH  29  31
ENDBRANCH  19  29
BRANCH  22  34
HETATM   34  O   UNL     1      -7.764   7.329  67.677  1.00  0.00    -0.107 OA 
BRANCH  34  35
HETATM   35  C   UNL     1      -6.902   7.285  66.531  1.00  0.00    -0.061 C  
HETATM   36  C   UNL     1      -7.620   7.315  65.179  1.00  0.00    -0.105 C  
HETATM   37  C   UNL     1      -8.287   8.672  64.981  1.00  0.00    -0.171 C  
HETATM   38  C   UNL     1      -7.208   9.776  65.070  1.00  0.00    -0.127 C  
HETATM   39  N   UNL     1      -9.025   8.723  63.710  1.00  0.00    -0.369 NA 
HETATM   40  C   UNL     1      -6.457   9.647  66.408  1.00  0.00    -0.070 C  
HETATM   41  H2  UNL     1      -9.698   7.960  63.637  1.00  0.00     0.000 HD 
HETATM   42  O   UNL     1      -7.775  11.082  64.951  1.00  0.00    -0.337 OA 
HETATM   43  H1  UNL     1      -9.471   9.630  63.577  1.00  0.00     0.000 HD 
HETATM   44  C   UNL     1      -5.276  10.613  66.457  1.00  0.00    -0.061 C  
HETATM   45  H   UNL     1      -7.112  11.761  65.007  1.00  0.00     0.000 HD 
HETATM   46  O   UNL     1      -5.929   8.331  66.600  1.00  0.00    -0.049 OA 
ENDBRANCH  34  35
ENDBRANCH  22  34
ENDBRANCH   2   3
TORSDOF 5
ENDMDL
MODEL       33
REMARK 921   NORMALIZED FREE ENERGY PREDICTED BY IDOCK:   -6.42 KCAL/MOL
REMARK 922        TOTAL FREE ENERGY PREDICTED BY IDOCK:   -9.35 KCAL/MOL
REMARK 923 INTER-LIGAND FREE ENERGY PREDICTED BY IDOCK:   -8.18 KCAL/MOL
REMARK 924 INTRA-LIGAND FREE ENERGY PREDICTED BY IDOCK:   -1.17 KCAL/MOL
REMARK 927      BINDING AFFINITY PREDICTED BY RF-SCORE:    0.00 PKD
ROOT
HETATM    1  C   UNL     1     -12.874  12.213  63.284  1.00  0.00    -0.173 C  
HETATM    2  O   UNL     1     -12.975  12.780  64.587  1.00  0.00    -0.742 OA 
ENDROOT
BRANCH   2   3
HETATM    3  C   UNL     1     -11.957  13.606  64.986  1.00  0.00    -0.378 A  
HETATM    4  C   UNL     1     -11.850  14.926  64.516  1.00  0.00    -0.404 A  
HETATM    5  C   UNL     1     -10.815  15.753  64.938  1.00  0.00    -0.433 A  
HETATM    6  C   UNL     1      -9.875  15.269  65.835  1.00  0.00    -0.385 A  
HETATM    7  C   UNL     1      -9.951  13.948  66.301  1.00  0.00    -0.315 A  
HETATM    8  C   UNL     1     -10.975  13.101  65.870  1.00  0.00    -0.288 A  
HETATM    9  C   UNL     1     -10.987  11.699  66.369  1.00  0.00    -0.295 C  
HETATM   10  O   UNL     1     -11.781  10.862  65.952  1.00  0.00     0.309 OA 
HETATM   11  C   UNL     1     -10.008  11.262  67.400  1.00  0.00    -0.206 A  
HETATM   12  C   UNL     1     -10.092   9.965  67.953  1.00  0.00    -0.173 A  
HETATM   13  O   UNL     1     -11.091   9.092  67.586  1.00  0.00    -0.486 OA 
HETATM   14  C   UNL     1      -9.175   9.504  68.921  1.00  0.00    -0.145 A  
HETATM   15  H   UNL     1     -11.147   8.220  67.958  1.00  0.00     0.000 HD 
HETATM   16  C   UNL     1      -8.138  10.372  69.342  1.00  0.00    -0.161 A  
HETATM   17  C   UNL     1      -8.096  11.685  68.823  1.00  0.00    -0.072 A  
HETATM   18  C   UNL     1      -7.114   9.922  70.375  1.00  0.00    -0.146 C  
HETATM   19  C   UNL     1      -7.109   8.412  70.633  1.00  0.00    -0.044 C  
HETATM   20  C   UNL     1      -9.009  12.125  67.840  1.00  0.00    -0.184 A  
HETATM   21  O   UNL     1      -7.185  12.585  69.307  1.00  0.00    -0.302 OA 
HETATM   22  C   UNL     1      -9.335   8.099  69.498  1.00  0.00    -0.155 C  
HETATM   23  C   UNL     1      -8.915  13.486  67.246  1.00  0.00    -0.222 C  
HETATM   24  C   UNL     1      -8.559   7.950  70.808  1.00  0.00    -0.132 C  
HETATM   25  O   UNL     1      -6.448   7.743  69.558  1.00  0.00    -0.034 OA 
HETATM   26  H   UNL     1      -7.156  13.468  68.958  1.00  0.00     0.000 HD 
HETATM   27  O   UNL     1      -7.995  14.253  67.505  1.00  0.00    -0.162 OA 
HETATM   28  H   UNL     1      -6.446   6.807  69.719  1.00  0.00     0.000 HD 
BRANCH  19  29
HETATM   29  C   UNL     1      -6.317   8.104  71.915  1.00  0.00    -0.053 C  
HETATM   30  O   UNL     1      -6.325   8.860  72.893  1.00  0.00    -0.257 OA 
BRANCH  29  31
HETATM   31  C   UNL     1      -5.436   6.856  71.916  1.00  0.00    -0.036 C  
HETATM   32  O   UNL     1      -6.107   5.732  71.359  1.00  0.00    -0.028 OA 
HETATM   33  H   UNL     1      -5.558   4.956  71.359  1.00  0.00     0.000 HD 
ENDBRANCH  29  31
ENDBRANCH  19  29
BRANCH  22  34
HETATM   34  O   UNL     1      -8.879   7.160  68.508  1.00  0.00    -0.126 OA 
BRANCH  34  35
HETATM   35  C   UNL     1      -9.263   5.793  68.709  1.00  0.00    -0.118 C  
HETATM   36  C   UNL     1     -10.494   5.344  67.919  1.00  0.00    -0.202 C  
HETATM   37  C   UNL     1     -10.173   5.332  66.428  1.00  0.00    -0.249 C  
HETATM   38  C   UNL     1      -8.972   4.389  66.184  1.00  0.00    -0.121 C  
HETATM   39  N   UNL     1     -11.348   4.947  65.632  1.00  0.00    -0.911 NA 
HETATM   40  C   UNL     1      -7.790   4.831  67.067  1.00  0.00    -0.098 C  
HETATM   41  H2  UNL     1     -12.151   5.541  65.837  1.00  0.00     0.000 HD 
HETATM   42  O   UNL     1      -8.579   4.376  64.811  1.00  0.00    -0.121 OA 
HETATM   43  H1  UNL     1     -11.133   4.939  64.635  1.00  0.00     0.000 HD 
HETATM   44  C   UNL     1      -6.647   3.823  66.977  1.00  0.00    -0.045 C  
HETATM   45  H   UNL     1      -7.841   3.797  64.661  1.00  0.00     0.000 HD 
HETATM   46  O   UNL     1      -8.159   4.923  68.447  1.00  0.00    -0.085 OA 
ENDBRANCH  34  35
ENDBRANCH  22  34
ENDBRANCH   2   3
TORSDOF 5
ENDMDL
MODEL       34
REMARK 921   NORMALIZED FREE ENERGY PREDICTED BY IDOCK:   -6.41 KCAL/MOL
REMARK 922        TOTAL FREE ENERGY PREDICTED BY IDOCK:   -9.33 KCAL/MOL
REMARK 923 INTER-LIGAND FREE ENERGY PREDICTED BY IDOCK:   -8.27 KCAL/MOL
REMARK 924 INTRA-LIGAND FREE ENERGY PREDICTED BY IDOCK:   -1.06 KCAL/MOL
REMARK 927      BINDING AFFINITY PREDICTED BY RF-SCORE:    0.00 PKD
ROOT
HETATM    1  C   UNL     1     -10.315  14.403  64.878  1.00  0.00    -0.389 C  
HETATM    2  O   UNL     1      -9.698  14.282  66.157  1.00  0.00    -0.297 OA 
ENDROOT
BRANCH   2   3
HETATM    3  C   UNL     1     -10.450  14.637  67.246  1.00  0.00    -0.266 A  
HETATM    4  C   UNL     1     -10.874  15.961  67.449  1.00  0.00    -0.291 A  
HETATM    5  C   UNL     1     -11.645  16.302  68.556  1.00  0.00    -0.188 A  
HETATM    6  C   UNL     1     -11.999  15.322  69.471  1.00  0.00    -0.356 A  
HETATM    7  C   UNL     1     -11.568  13.999  69.298  1.00  0.00    -0.356 A  
HETATM    8  C   UNL     1     -10.778  13.646  68.201  1.00  0.00    -0.260 A  
HETATM    9  C   UNL     1     -10.321  12.235  68.085  1.00  0.00    -0.216 C  
HETATM   10  O   UNL     1      -9.533  11.871  67.218  1.00  0.00    -0.172 OA 
HETATM   11  C   UNL     1     -10.807  11.209  69.046  1.00  0.00    -0.276 A  
HETATM   12  C   UNL     1     -10.461   9.851  68.868  1.00  0.00    -0.211 A  
HETATM   13  O   UNL     1      -9.704   9.438  67.794  1.00  0.00    -0.144 OA 
HETATM   14  C   UNL     1     -10.887   8.848  69.763  1.00  0.00    -0.207 A  
HETATM   15  H   UNL     1      -9.471   8.525  67.676  1.00  0.00     0.000 HD 
HETATM   16  C   UNL     1     -11.681   9.221  70.874  1.00  0.00    -0.360 A  
HETATM   17  C   UNL     1     -12.067  10.573  71.012  1.00  0.00    -0.387 A  
HETATM   18  C   UNL     1     -12.157   8.181  71.879  1.00  0.00    -0.368 C  
HETATM   19  C   UNL     1     -11.443   6.830  71.767  1.00  0.00    -0.281 C  
HETATM   20  C   UNL     1     -11.615  11.569  70.119  1.00  0.00    -0.336 A  
HETATM   21  O   UNL     1     -12.938  10.940  72.002  1.00  0.00    -0.457 OA 
HETATM   22  C   UNL     1     -10.498   7.393  69.501  1.00  0.00    -0.232 C  
HETATM   23  C   UNL     1     -11.968  13.002  70.311  1.00  0.00    -0.285 C  
HETATM   24  C   UNL     1     -11.394   6.434  70.288  1.00  0.00    -0.468 C  
HETATM   25  O   UNL     1     -10.143   6.925  72.350  1.00  0.00    -0.169 OA 
HETATM   26  H   UNL     1     -13.197  11.849  72.095  1.00  0.00     0.000 HD 
HETATM   27  O   UNL     1     -12.580  13.401  71.295  1.00  0.00    -0.354 OA 
HETATM   28  H   UNL     1      -9.700   6.088  72.281  1.00  0.00     0.000 HD 
BRANCH  19  29
HETATM   29  C   UNL     1     -12.219   5.762  72.556  1.00  0.00     0.067 C  
HETATM   30  O   UNL     1     -13.453   5.694  72.537  1.00  0.00     0.353 OA 
BRANCH  29  31
HETATM   31  C   UNL     1     -11.411   4.820  73.448  1.00  0.00    -0.312 C  
HETATM   32  O   UNL     1     -10.353   4.191  72.735  1.00  0.00    -0.166 OA 
HETATM   33  H   UNL     1      -9.851   3.606  73.290  1.00  0.00     0.000 HD 
ENDBRANCH  29  31
ENDBRANCH  19  29
BRANCH  22  34
HETATM   34  O   UNL     1      -9.115   7.234  69.861  1.00  0.00    -0.142 OA 
BRANCH  34  35
HETATM   35  C   UNL     1      -8.248   6.736  68.832  1.00  0.00    -0.121 C  
HETATM   36  C   UNL     1      -6.793   6.526  69.258  1.00  0.00    -0.065 C  
HETATM   37  C   UNL     1      -6.711   5.390  70.272  1.00  0.00    -0.047 C  
HETATM   38  C   UNL     1      -7.303   4.111  69.636  1.00  0.00    -0.050 C  
HETATM   39  N   UNL     1      -5.331   5.189  70.738  1.00  0.00    -0.004 NA 
HETATM   40  C   UNL     1      -8.733   4.400  69.145  1.00  0.00    -0.085 C  
HETATM   41  H2  UNL     1      -4.931   6.051  71.108  1.00  0.00     0.000 HD 
HETATM   42  O   UNL     1      -7.312   3.018  70.555  1.00  0.00    -0.037 OA 
HETATM   43  H1  UNL     1      -5.277   4.429  71.416  1.00  0.00     0.000 HD 
HETATM   44  C   UNL     1      -9.284   3.211  68.362  1.00  0.00    -0.235 C  
HETATM   45  H   UNL     1      -7.675   2.232  70.164  1.00  0.00     0.000 HD 
HETATM   46  O   UNL     1      -8.780   5.533  68.272  1.00  0.00    -0.100 OA 
ENDBRANCH  34  35
ENDBRANCH  22  34
ENDBRANCH   2   3
TORSDOF 5
ENDMDL
MODEL       35
REMARK 921   NORMALIZED FREE ENERGY PREDICTED BY IDOCK:   -6.37 KCAL/MOL
REMARK 922        TOTAL FREE ENERGY PREDICTED BY IDOCK:   -9.28 KCAL/MOL
REMARK 923 INTER-LIGAND FREE ENERGY PREDICTED BY IDOCK:   -8.29 KCAL/MOL
REMARK 924 INTRA-LIGAND FREE ENERGY PREDICTED BY IDOCK:   -0.99 KCAL/MOL
REMARK 927      BINDING AFFINITY PREDICTED BY RF-SCORE:    0.00 PKD
ROOT
HETATM    1  C   UNL     1      -6.122   3.142  70.068  1.00  0.00    -0.023 C  
HETATM    2  O   UNL     1      -7.408   3.553  69.614  1.00  0.00    -0.045 OA 
ENDROOT
BRANCH   2   3
HETATM    3  C   UNL     1      -8.425   3.536  70.532  1.00  0.00    -0.061 A  
HETATM    4  C   UNL     1      -8.722   2.386  71.283  1.00  0.00    -0.112 A  
HETATM    5  C   UNL     1      -9.753   2.390  72.217  1.00  0.00    -0.197 A  
HETATM    6  C   UNL     1     -10.497   3.543  72.411  1.00  0.00    -0.102 A  
HETATM    7  C   UNL     1     -10.231   4.696  71.657  1.00  0.00    -0.233 A  
HETATM    8  C   UNL     1      -9.211   4.700  70.702  1.00  0.00    -0.197 A  
HETATM    9  C   UNL     1      -8.995   5.939  69.907  1.00  0.00    -0.139 C  
HETATM   10  O   UNL     1      -8.200   5.988  68.974  1.00  0.00    -0.106 OA 
HETATM   11  C   UNL     1      -9.762   7.175  70.220  1.00  0.00    -0.175 A  
HETATM   12  C   UNL     1      -9.476   8.378  69.540  1.00  0.00    -0.166 A  
HETATM   13  O   UNL     1      -8.469   8.452  68.604  1.00  0.00    -0.126 OA 
HETATM   14  C   UNL     1     -10.189   9.569  69.795  1.00  0.00    -0.249 A  
HETATM   15  H   UNL     1      -8.277   9.262  68.146  1.00  0.00     0.000 HD 
HETATM   16  C   UNL     1     -11.225   9.547  70.760  1.00  0.00    -0.383 A  
HETATM   17  C   UNL     1     -11.465   8.352  71.474  1.00  0.00    -0.278 A  
HETATM   18  C   UNL     1     -12.035  10.800  71.065  1.00  0.00    -0.409 C  
HETATM   19  C   UNL     1     -11.861  11.922  70.038  1.00  0.00    -0.328 C  
HETATM   20  C   UNL     1     -10.757   7.163  71.193  1.00  0.00    -0.252 A  
HETATM   21  O   UNL     1     -12.371   8.337  72.500  1.00  0.00    -0.495 OA 
HETATM   22  C   UNL     1      -9.815  10.844  69.041  1.00  0.00    -0.180 C  
HETATM   23  C   UNL     1     -11.064   5.890  71.899  1.00  0.00    -0.268 C  
HETATM   24  C   UNL     1     -10.366  12.083  69.750  1.00  0.00     0.940 C  
HETATM   25  O   UNL     1     -12.614  11.616  68.862  1.00  0.00    -0.127 OA 
HETATM   26  H   UNL     1     -12.533   7.533  72.980  1.00  0.00     0.000 HD 
HETATM   27  O   UNL     1     -12.001   5.784  72.683  1.00  0.00    -0.250 OA 
HETATM   28  H   UNL     1     -12.506  12.312  68.225  1.00  0.00     0.000 HD 
BRANCH  19  29
HETATM   29  C   UNL     1     -12.418  13.239  70.604  1.00  0.00    -0.298 C  
HETATM   30  O   UNL     1     -13.360  13.268  71.403  1.00  0.00    -0.277 OA 
BRANCH  29  31
HETATM   31  C   UNL     1     -11.817  14.542  70.077  1.00  0.00    -0.313 C  
HETATM   32  O   UNL     1     -12.817  15.518  69.810  1.00  0.00    -0.616 OA 
HETATM   33  H   UNL     1     -12.443  16.328  69.483  1.00  0.00     0.000 HD 
ENDBRANCH  29  31
ENDBRANCH  19  29
BRANCH  22  34
HETATM   34  O   UNL     1     -10.328  10.733  67.702  1.00  0.00    -0.184 OA 
BRANCH  34  35
HETATM   35  C   UNL     1      -9.504  11.278  66.662  1.00  0.00    -0.186 C  
HETATM   36  C   UNL     1      -9.952  10.941  65.238  1.00  0.00    -0.330 C  
HETATM   37  C   UNL     1     -11.279  11.631  64.939  1.00  0.00    -0.222 C  
HETATM   38  C   UNL     1     -11.103  13.155  65.129  1.00  0.00    -0.287 C  
HETATM   39  N   UNL     1     -11.765  11.294  63.593  1.00  0.00    -0.438 NA 
HETATM   40  C   UNL     1     -10.567  13.434  66.546  1.00  0.00    -0.287 C  
HETATM   41  H2  UNL     1     -11.828  10.285  63.459  1.00  0.00     0.000 HD 
HETATM   42  O   UNL     1     -12.328  13.860  64.921  1.00  0.00    -0.408 OA 
HETATM   43  H1  UNL     1     -12.652  11.755  63.393  1.00  0.00     0.000 HD 
HETATM   44  C   UNL     1     -10.222  14.912  66.709  1.00  0.00    -0.259 C  
HETATM   45  H   UNL     1     -12.220  14.797  65.038  1.00  0.00     0.000 HD 
HETATM   46  O   UNL     1      -9.374  12.693  66.821  1.00  0.00    -0.221 OA 
ENDBRANCH  34  35
ENDBRANCH  22  34
ENDBRANCH   2   3
TORSDOF 5
ENDMDL
MODEL       36
REMARK 921   NORMALIZED FREE ENERGY PREDICTED BY IDOCK:   -6.29 KCAL/MOL
REMARK 922        TOTAL FREE ENERGY PREDICTED BY IDOCK:   -9.18 KCAL/MOL
REMARK 923 INTER-LIGAND FREE ENERGY PREDICTED BY IDOCK:   -7.99 KCAL/MOL
REMARK 924 INTRA-LIGAND FREE ENERGY PREDICTED BY IDOCK:   -1.19 KCAL/MOL
REMARK 927      BINDING AFFINITY PREDICTED BY RF-SCORE:    0.00 PKD
ROOT
HETATM    1  C   UNL     1      -5.594   3.049  65.813  1.00  0.00    -0.017 C  
HETATM    2  O   UNL     1      -6.090   4.013  66.737  1.00  0.00    -0.026 OA 
ENDROOT
BRANCH   2   3
HETATM    3  C   UNL     1      -6.986   3.571  67.675  1.00  0.00    -0.051 A  
HETATM    4  C   UNL     1      -7.018   2.230  68.091  1.00  0.00    -0.047 A  
HETATM    5  C   UNL     1      -7.928   1.800  69.050  1.00  0.00    -0.055 A  
HETATM    6  C   UNL     1      -8.818   2.708  69.605  1.00  0.00    -0.146 A  
HETATM    7  C   UNL     1      -8.817   4.048  69.188  1.00  0.00    -0.147 A  
HETATM    8  C   UNL     1      -7.920   4.488  68.212  1.00  0.00    -0.080 A  
HETATM    9  C   UNL     1      -7.987   5.912  67.784  1.00  0.00    -0.098 C  
HETATM   10  O   UNL     1      -7.315   6.348  66.854  1.00  0.00    -0.076 OA 
HETATM   11  C   UNL     1      -8.897   6.861  68.477  1.00  0.00    -0.124 A  
HETATM   12  C   UNL     1      -8.878   8.233  68.145  1.00  0.00    -0.139 A  
HETATM   13  O   UNL     1      -8.002   8.732  67.207  1.00  0.00    -0.097 OA 
HETATM   14  C   UNL     1      -9.735   9.166  68.766  1.00  0.00    -0.167 A  
HETATM   15  H   UNL     1      -7.989   9.655  66.983  1.00  0.00     0.000 HD 
HETATM   16  C   UNL     1     -10.644   8.703  69.748  1.00  0.00    -0.224 A  
HETATM   17  C   UNL     1     -10.617   7.339  70.113  1.00  0.00    -0.232 A  
HETATM   18  C   UNL     1     -11.601   9.664  70.442  1.00  0.00    -0.299 C  
HETATM   19  C   UNL     1     -11.716  11.031  69.760  1.00  0.00    -0.335 C  
HETATM   20  C   UNL     1      -9.767   6.414  69.467  1.00  0.00    -0.167 A  
HETATM   21  O   UNL     1     -11.392   6.890  71.148  1.00  0.00    -0.263 OA 
HETATM   22  C   UNL     1      -9.648  10.641  68.378  1.00  0.00    -0.168 C  
HETATM   23  C   UNL     1      -9.794   4.966  69.807  1.00  0.00    -0.221 C  
HETATM   24  C   UNL     1     -10.304  11.528  69.438  1.00  0.00     0.083 C  
HETATM   25  O   UNL     1     -12.535  10.918  68.595  1.00  0.00    -0.772 OA 
HETATM   26  H   UNL     1     -11.374   5.972  71.393  1.00  0.00     0.000 HD 
HETATM   27  O   UNL     1     -10.612   4.489  70.585  1.00  0.00     0.039 OA 
HETATM   28  H   UNL     1     -12.607  11.766  68.173  1.00  0.00     0.000 HD 
BRANCH  19  29
HETATM   29  C   UNL     1     -12.406  12.029  70.706  1.00  0.00    -0.308 C  
HETATM   30  O   UNL     1     -13.064  11.662  71.686  1.00  0.00    -0.445 OA 
BRANCH  29  31
HETATM   31  C   UNL     1     -12.323  13.512  70.347  1.00  0.00    -0.327 C  
HETATM   32  O   UNL     1     -11.497  14.233  71.254  1.00  0.00    -0.474 OA 
HETATM   33  H   UNL     1     -11.446  15.154  71.030  1.00  0.00     0.000 HD 
ENDBRANCH  29  31
ENDBRANCH  19  29
BRANCH  22  34
HETATM   34  O   UNL     1     -10.280  10.799  67.096  1.00  0.00    -0.196 OA 
BRANCH  34  35
HETATM   35  C   UNL     1      -9.860  11.929  66.319  1.00  0.00    -0.225 C  
HETATM   36  C   UNL     1      -8.554  11.734  65.546  1.00  0.00     0.375 C  
HETATM   37  C   UNL     1      -8.756  10.694  64.448  1.00  0.00    -0.137 C  
HETATM   38  C   UNL     1      -9.896  11.168  63.518  1.00  0.00    -0.353 C  
HETATM   39  N   UNL     1      -7.508  10.447  63.710  1.00  0.00    -0.315 NA 
HETATM   40  C   UNL     1     -11.160  11.435  64.356  1.00  0.00    -0.259 C  
HETATM   41  H2  UNL     1      -6.747  10.186  64.338  1.00  0.00     0.000 HD 
HETATM   42  O   UNL     1     -10.180  10.209  62.496  1.00  0.00    -0.572 OA 
HETATM   43  H1  UNL     1      -7.644   9.752  62.977  1.00  0.00     0.000 HD 
HETATM   44  C   UNL     1     -12.253  12.063  63.495  1.00  0.00    -0.653 C  
HETATM   45  H   UNL     1     -10.881  10.500  61.925  1.00  0.00     0.000 HD 
HETATM   46  O   UNL     1     -10.905  12.340  65.434  1.00  0.00    -0.270 OA 
ENDBRANCH  34  35
ENDBRANCH  22  34
ENDBRANCH   2   3
TORSDOF 5
ENDMDL
MODEL       37
REMARK 921   NORMALIZED FREE ENERGY PREDICTED BY IDOCK:   -6.26 KCAL/MOL
REMARK 922        TOTAL FREE ENERGY PREDICTED BY IDOCK:   -9.14 KCAL/MOL
REMARK 923 INTER-LIGAND FREE ENERGY PREDICTED BY IDOCK:   -8.26 KCAL/MOL
REMARK 924 INTRA-LIGAND FREE ENERGY PREDICTED BY IDOCK:   -0.88 KCAL/MOL
REMARK 927      BINDING AFFINITY PREDICTED BY RF-SCORE:    0.00 PKD
ROOT
HETATM    1  C   UNL     1     -12.250  12.831  64.984  1.00  0.00    -0.473 C  
HETATM    2  O   UNL     1     -11.239  12.270  65.817  1.00  0.00    -0.309 OA 
ENDROOT
BRANCH   2   3
HETATM    3  C   UNL     1     -11.461  12.300  67.169  1.00  0.00    -0.352 A  
HETATM    4  C   UNL     1     -11.929  13.456  67.815  1.00  0.00    -0.363 A  
HETATM    5  C   UNL     1     -12.158  13.466  69.186  1.00  0.00    -0.306 A  
HETATM    6  C   UNL     1     -11.921  12.319  69.928  1.00  0.00    -0.377 A  
HETATM    7  C   UNL     1     -11.433  11.159  69.307  1.00  0.00    -0.363 A  
HETATM    8  C   UNL     1     -11.182  11.142  67.932  1.00  0.00    -0.365 A  
HETATM    9  C   UNL     1     -10.632   9.896  67.332  1.00  0.00    -0.277 C  
HETATM   10  O   UNL     1     -10.278   9.836  66.159  1.00  0.00    -0.259 OA 
HETATM   11  C   UNL     1     -10.484   8.668  68.158  1.00  0.00    -0.241 A  
HETATM   12  C   UNL     1     -10.068   7.458  67.561  1.00  0.00    -0.192 A  
HETATM   13  O   UNL     1      -9.827   7.372  66.207  1.00  0.00    -0.418 OA 
HETATM   14  C   UNL     1      -9.900   6.274  68.308  1.00  0.00    -0.134 A  
HETATM   15  H   UNL     1      -9.547   6.557  65.806  1.00  0.00     0.000 HD 
HETATM   16  C   UNL     1     -10.151   6.309  69.701  1.00  0.00    -0.215 A  
HETATM   17  C   UNL     1     -10.619   7.511  70.279  1.00  0.00    -0.229 A  
HETATM   18  C   UNL     1      -9.973   5.064  70.559  1.00  0.00    -0.312 C  
HETATM   19  C   UNL     1      -9.204   3.934  69.868  1.00  0.00    -0.144 C  
HETATM   20  C   UNL     1     -10.763   8.693  69.521  1.00  0.00    -0.189 A  
HETATM   21  O   UNL     1     -10.992   7.538  71.596  1.00  0.00    -0.230 OA 
HETATM   22  C   UNL     1      -9.471   4.991  67.598  1.00  0.00    -0.132 C  
HETATM   23  C   UNL     1     -11.189   9.972  70.150  1.00  0.00    -0.304 C  
HETATM   24  C   UNL     1      -9.772   3.760  68.456  1.00  0.00    -0.089 C  
HETATM   25  O   UNL     1      -7.808   4.236  69.862  1.00  0.00    -0.053 OA 
HETATM   26  H   UNL     1     -11.307   8.346  71.984  1.00  0.00     0.000 HD 
HETATM   27  O   UNL     1     -11.341  10.090  71.360  1.00  0.00    -0.339 OA 
HETATM   28  H   UNL     1      -7.332   3.535  69.433  1.00  0.00     0.000 HD 
BRANCH  19  29
HETATM   29  C   UNL     1      -9.382   2.624  70.654  1.00  0.00    -0.145 C  
HETATM   30  O   UNL     1      -9.831   1.597  70.133  1.00  0.00    -0.004 OA 
BRANCH  29  31
HETATM   31  C   UNL     1      -9.061   2.650  72.148  1.00  0.00    -0.086 C  
HETATM   32  O   UNL     1      -7.730   3.087  72.397  1.00  0.00    -0.055 OA 
HETATM   33  H   UNL     1      -7.531   3.103  73.326  1.00  0.00     0.000 HD 
ENDBRANCH  29  31
ENDBRANCH  19  29
BRANCH  22  34
HETATM   34  O   UNL     1      -8.067   5.097  67.304  1.00  0.00    -0.103 OA 
BRANCH  34  35
HETATM   35  C   UNL     1      -7.560   4.194  66.311  1.00  0.00    -0.089 C  
HETATM   36  C   UNL     1      -8.613   3.619  65.361  1.00  0.00    -0.112 C  
HETATM   37  C   UNL     1      -9.171   4.730  64.477  1.00  0.00    -0.057 C  
HETATM   38  C   UNL     1      -8.004   5.381  63.698  1.00  0.00    -0.106 C  
HETATM   39  N   UNL     1     -10.219   4.223  63.580  1.00  0.00    -0.394 NA 
HETATM   40  C   UNL     1      -6.933   5.863  64.694  1.00  0.00    -0.052 C  
HETATM   41  H2  UNL     1     -10.959   3.749  64.098  1.00  0.00     0.000 HD 
HETATM   42  O   UNL     1      -8.449   6.473  62.892  1.00  0.00    -0.328 OA 
HETATM   43  H1  UNL     1     -10.592   4.966  62.989  1.00  0.00     0.000 HD 
HETATM   44  C   UNL     1      -5.693   6.357  63.952  1.00  0.00    -0.022 C  
HETATM   45  H   UNL     1      -7.733   6.873  62.413  1.00  0.00     0.000 HD 
HETATM   46  O   UNL     1      -6.506   4.814  65.569  1.00  0.00    -0.038 OA 
ENDBRANCH  34  35
ENDBRANCH  22  34
ENDBRANCH   2   3
TORSDOF 5
ENDMDL
MODEL       38
REMARK 921   NORMALIZED FREE ENERGY PREDICTED BY IDOCK:   -6.23 KCAL/MOL
REMARK 922        TOTAL FREE ENERGY PREDICTED BY IDOCK:   -9.10 KCAL/MOL
REMARK 923 INTER-LIGAND FREE ENERGY PREDICTED BY IDOCK:   -8.19 KCAL/MOL
REMARK 924 INTRA-LIGAND FREE ENERGY PREDICTED BY IDOCK:   -0.92 KCAL/MOL
REMARK 927      BINDING AFFINITY PREDICTED BY RF-SCORE:    0.00 PKD
ROOT
HETATM    1  C   UNL     1     -11.500  15.032  68.721  1.00  0.00    -0.319 C  
HETATM    2  O   UNL     1     -12.108  13.884  68.137  1.00  0.00    -0.365 OA 
ENDROOT
BRANCH   2   3
HETATM    3  C   UNL     1     -11.939  13.710  66.788  1.00  0.00    -0.414 A  
HETATM    4  C   UNL     1     -12.410  14.652  65.858  1.00  0.00    -0.127 A  
HETATM    5  C   UNL     1     -12.222  14.464  64.493  1.00  0.00    -0.483 A  
HETATM    6  C   UNL     1     -11.560  13.332  64.043  1.00  0.00    -0.458 A  
HETATM    7  C   UNL     1     -11.100  12.369  64.953  1.00  0.00    -0.344 A  
HETATM    8  C   UNL     1     -11.299  12.537  66.326  1.00  0.00    -0.386 A  
HETATM    9  C   UNL     1     -10.821  11.467  67.243  1.00  0.00    -0.263 C  
HETATM   10  O   UNL     1     -11.058  11.483  68.447  1.00  0.00    -0.201 OA 
HETATM   11  C   UNL     1     -10.037  10.319  66.713  1.00  0.00    -0.272 A  
HETATM   12  C   UNL     1      -9.490   9.365  67.598  1.00  0.00    -0.132 A  
HETATM   13  O   UNL     1      -9.632   9.487  68.963  1.00  0.00    -0.158 OA 
HETATM   14  C   UNL     1      -8.753   8.254  67.138  1.00  0.00    -0.127 A  
HETATM   15  H   UNL     1      -9.264   8.845  69.558  1.00  0.00     0.000 HD 
HETATM   16  C   UNL     1      -8.566   8.093  65.743  1.00  0.00    -0.175 A  
HETATM   17  C   UNL     1      -9.071   9.083  64.870  1.00  0.00    -0.072 A  
HETATM   18  C   UNL     1      -7.791   6.905  65.190  1.00  0.00    -0.120 C  
HETATM   19  C   UNL     1      -7.551   5.787  66.209  1.00  0.00    -0.091 C  
HETATM   20  C   UNL     1      -9.824  10.179  65.345  1.00  0.00    -0.375 A  
HETATM   21  O   UNL     1      -8.794   9.021  63.531  1.00  0.00    -0.408 OA 
HETATM   22  C   UNL     1      -8.166   7.270  68.149  1.00  0.00    -0.124 C  
HETATM   23  C   UNL     1     -10.412  11.179  64.414  1.00  0.00    -0.353 C  
HETATM   24  C   UNL     1      -7.062   6.422  67.514  1.00  0.00    -0.080 C  
HETATM   25  O   UNL     1      -8.752   5.033  66.384  1.00  0.00    -0.114 OA 
HETATM   26  H   UNL     1      -9.134   9.686  62.944  1.00  0.00     0.000 HD 
HETATM   27  O   UNL     1     -10.358  11.053  63.196  1.00  0.00    -0.325 OA 
HETATM   28  H   UNL     1      -8.603   4.339  67.016  1.00  0.00     0.000 HD 
BRANCH  19  29
HETATM   29  C   UNL     1      -6.480   4.818  65.679  1.00  0.00    -0.040 C  
HETATM   30  O   UNL     1      -5.713   5.123  64.760  1.00  0.00    -0.016 OA 
BRANCH  29  31
HETATM   31  C   UNL     1      -6.444   3.413  66.277  1.00  0.00    -0.036 C  
HETATM   32  O   UNL     1      -7.457   2.577  65.729  1.00  0.00    -0.066 OA 
HETATM   33  H   UNL     1      -7.434   1.703  66.101  1.00  0.00     0.000 HD 
ENDBRANCH  29  31
ENDBRANCH  19  29
BRANCH  22  34
HETATM   34  O   UNL     1      -9.240   6.451  68.643  1.00  0.00    -0.127 OA 
BRANCH  34  35
HETATM   35  C   UNL     1      -8.952   5.668  69.810  1.00  0.00    -0.127 C  
HETATM   36  C   UNL     1      -7.851   6.230  70.711  1.00  0.00    -0.106 C  
HETATM   37  C   UNL     1      -8.324   7.531  71.352  1.00  0.00    -0.107 C  
HETATM   38  C   UNL     1      -9.617   7.251  72.151  1.00  0.00    -0.138 C  
HETATM   39  N   UNL     1      -7.273   8.125  72.192  1.00  0.00    -0.085 NA 
HETATM   40  C   UNL     1     -10.661   6.605  71.221  1.00  0.00    -0.231 C  
HETATM   41  H2  UNL     1      -6.406   8.257  71.670  1.00  0.00     0.000 HD 
HETATM   42  O   UNL     1     -10.150   8.443  72.731  1.00  0.00    -0.286 OA 
HETATM   43  H1  UNL     1      -7.589   8.994  72.620  1.00  0.00     0.000 HD 
HETATM   44  C   UNL     1     -11.888   6.163  72.015  1.00  0.00    -0.336 C  
HETATM   45  H   UNL     1     -10.945   8.271  73.222  1.00  0.00     0.000 HD 
HETATM   46  O   UNL     1     -10.146   5.443  70.564  1.00  0.00    -0.202 OA 
ENDBRANCH  34  35
ENDBRANCH  22  34
ENDBRANCH   2   3
TORSDOF 5
ENDMDL
MODEL       39
REMARK 921   NORMALIZED FREE ENERGY PREDICTED BY IDOCK:   -6.18 KCAL/MOL
REMARK 922        TOTAL FREE ENERGY PREDICTED BY IDOCK:   -9.04 KCAL/MOL
REMARK 923 INTER-LIGAND FREE ENERGY PREDICTED BY IDOCK:   -7.94 KCAL/MOL
REMARK 924 INTRA-LIGAND FREE ENERGY PREDICTED BY IDOCK:   -1.10 KCAL/MOL
REMARK 927      BINDING AFFINITY PREDICTED BY RF-SCORE:    0.00 PKD
ROOT
HETATM    1  C   UNL     1      -8.749  17.235  68.432  1.00  0.00    -0.261 C  
HETATM    2  O   UNL     1      -9.005  15.841  68.285  1.00  0.00    -0.177 OA 
ENDROOT
BRANCH   2   3
HETATM    3  C   UNL     1      -9.621  15.441  67.128  1.00  0.00    -0.212 A  
HETATM    4  C   UNL     1     -10.215  16.364  66.252  1.00  0.00    -0.341 A  
HETATM    5  C   UNL     1     -10.828  15.941  65.077  1.00  0.00    -0.444 A  
HETATM    6  C   UNL     1     -10.854  14.590  64.766  1.00  0.00    -0.410 A  
HETATM    7  C   UNL     1     -10.285  13.650  65.638  1.00  0.00    -0.316 A  
HETATM    8  C   UNL     1      -9.682  14.059  66.830  1.00  0.00    -0.283 A  
HETATM    9  C   UNL     1      -9.126  13.016  67.733  1.00  0.00    -0.200 C  
HETATM   10  O   UNL     1      -8.685  13.282  68.847  1.00  0.00     0.074 OA 
HETATM   11  C   UNL     1      -9.099  11.592  67.307  1.00  0.00    -0.164 A  
HETATM   12  C   UNL     1      -8.470  10.621  68.116  1.00  0.00    -0.122 A  
HETATM   13  O   UNL     1      -7.840  10.965  69.292  1.00  0.00    -0.227 OA 
HETATM   14  C   UNL     1      -8.435   9.257  67.758  1.00  0.00    -0.116 A  
HETATM   15  H   UNL     1      -7.417  10.311  69.836  1.00  0.00     0.000 HD 
HETATM   16  C   UNL     1      -9.056   8.856  66.551  1.00  0.00    -0.206 A  
HETATM   17  C   UNL     1      -9.635   9.843  65.721  1.00  0.00    -0.250 A  
HETATM   18  C   UNL     1      -9.060   7.395  66.121  1.00  0.00    -0.167 C  
HETATM   19  C   UNL     1      -8.657   6.417  67.229  1.00  0.00    -0.110 C  
HETATM   20  C   UNL     1      -9.680  11.201  66.104  1.00  0.00    -0.253 A  
HETATM   21  O   UNL     1     -10.127   9.502  64.491  1.00  0.00    -0.281 OA 
HETATM   22  C   UNL     1      -7.717   8.260  68.666  1.00  0.00    -0.114 C  
HETATM   23  C   UNL     1     -10.352  12.224  65.259  1.00  0.00    -0.281 C  
HETATM   24  C   UNL     1      -7.402   6.962  67.918  1.00  0.00    -0.097 C  
HETATM   25  O   UNL     1      -9.747   6.244  68.136  1.00  0.00    -0.121 OA 
HETATM   26  H   UNL     1     -10.516  10.165  63.933  1.00  0.00     0.000 HD 
HETATM   27  O   UNL     1     -10.979  11.931  64.247  1.00  0.00    -0.310 OA 
HETATM   28  H   UNL     1      -9.496   5.637  68.823  1.00  0.00     0.000 HD 
BRANCH  19  29
HETATM   29  C   UNL     1      -8.347   5.038  66.622  1.00  0.00    -0.107 C  
HETATM   30  O   UNL     1      -7.246   4.492  66.751  1.00  0.00    -0.076 OA 
BRANCH  29  31
HETATM   31  C   UNL     1      -9.432   4.386  65.766  1.00  0.00    -0.174 C  
HETATM   32  O   UNL     1      -9.895   3.166  66.334  1.00  0.00    -0.405 OA 
HETATM   33  H   UNL     1     -10.570   2.762  65.801  1.00  0.00     0.000 HD 
ENDBRANCH  29  31
ENDBRANCH  19  29
BRANCH  22  34
HETATM   34  O   UNL     1      -8.558   8.017  69.807  1.00  0.00    -0.129 OA 
BRANCH  34  35
HETATM   35  C   UNL     1      -8.106   7.009  70.723  1.00  0.00    -0.113 C  
HETATM   36  C   UNL     1      -7.450   7.542  71.999  1.00  0.00    -0.081 C  
HETATM   37  C   UNL     1      -8.491   8.256  72.854  1.00  0.00    -0.194 C  
HETATM   38  C   UNL     1      -9.633   7.265  73.179  1.00  0.00    -0.193 C  
HETATM   39  N   UNL     1      -7.887   8.821  74.070  1.00  0.00    -0.378 NA 
HETATM   40  C   UNL     1     -10.199   6.692  71.867  1.00  0.00    -0.186 C  
HETATM   41  H2  UNL     1      -7.101   9.432  73.849  1.00  0.00     0.000 HD 
HETATM   42  O   UNL     1     -10.676   7.887  73.932  1.00  0.00    -0.110 OA 
HETATM   43  H1  UNL     1      -8.584   9.298  74.642  1.00  0.00     0.000 HD 
HETATM   44  C   UNL     1     -11.212   5.586  72.156  1.00  0.00    -0.247 C  
HETATM   45  H   UNL     1     -11.378   7.278  74.131  1.00  0.00     0.000 HD 
HETATM   46  O   UNL     1      -9.175   6.118  71.049  1.00  0.00    -0.155 OA 
ENDBRANCH  34  35
ENDBRANCH  22  34
ENDBRANCH   2   3
TORSDOF 5
ENDMDL
MODEL       40
REMARK 921   NORMALIZED FREE ENERGY PREDICTED BY IDOCK:   -6.16 KCAL/MOL
REMARK 922        TOTAL FREE ENERGY PREDICTED BY IDOCK:   -9.00 KCAL/MOL
REMARK 923 INTER-LIGAND FREE ENERGY PREDICTED BY IDOCK:   -8.50 KCAL/MOL
REMARK 924 INTRA-LIGAND FREE ENERGY PREDICTED BY IDOCK:   -0.50 KCAL/MOL
REMARK 927      BINDING AFFINITY PREDICTED BY RF-SCORE:    0.00 PKD
ROOT
HETATM    1  C   UNL     1     -13.352  15.238  71.689  1.00  0.00    -0.463 C  
HETATM    2  O   UNL     1     -12.181  14.576  71.219  1.00  0.00    -0.323 OA 
ENDROOT
BRANCH   2   3
HETATM    3  C   UNL     1     -11.713  14.944  69.984  1.00  0.00    -0.294 A  
HETATM    4  C   UNL     1     -11.761  16.278  69.545  1.00  0.00    -0.094 A  
HETATM    5  C   UNL     1     -11.273  16.635  68.293  1.00  0.00    -0.220 A  
HETATM    6  C   UNL     1     -10.732  15.662  67.466  1.00  0.00    -0.303 A  
HETATM    7  C   UNL     1     -10.694  14.321  67.877  1.00  0.00    -0.244 A  
HETATM    8  C   UNL     1     -11.197  13.946  69.125  1.00  0.00    -0.311 A  
HETATM    9  C   UNL     1     -11.163  12.505  69.495  1.00  0.00    -0.093 C  
HETATM   10  O   UNL     1     -11.687  12.079  70.519  1.00  0.00    -0.227 OA 
HETATM   11  C   UNL     1     -10.488  11.520  68.608  1.00  0.00    -0.224 A  
HETATM   12  C   UNL     1     -10.358  10.173  69.014  1.00  0.00    -0.212 A  
HETATM   13  O   UNL     1     -10.815   9.747  70.241  1.00  0.00    -0.254 OA 
HETATM   14  C   UNL     1      -9.740   9.203  68.198  1.00  0.00    -0.174 A  
HETATM   15  H   UNL     1     -10.727   8.841  70.514  1.00  0.00     0.000 HD 
HETATM   16  C   UNL     1      -9.241   9.597  66.933  1.00  0.00    -0.172 A  
HETATM   17  C   UNL     1      -9.326  10.957  66.561  1.00  0.00    -0.173 A  
HETATM   18  C   UNL     1      -8.576   8.588  66.007  1.00  0.00    -0.162 C  
HETATM   19  C   UNL     1      -8.802   7.127  66.408  1.00  0.00    -0.145 C  
HETATM   20  C   UNL     1      -9.967  11.913  67.379  1.00  0.00    -0.201 A  
HETATM   21  O   UNL     1      -8.739  11.389  65.402  1.00  0.00    -0.378 OA 
HETATM   22  C   UNL     1      -9.610   7.768  68.706  1.00  0.00    -0.154 C  
HETATM   23  C   UNL     1     -10.116  13.329  66.949  1.00  0.00    -0.250 C  
HETATM   24  C   UNL     1      -8.551   6.998  67.913  1.00  0.00    -0.126 C  
HETATM   25  O   UNL     1     -10.123   6.727  66.038  1.00  0.00    -0.398 OA 
HETATM   26  H   UNL     1      -8.796  12.303  65.151  1.00  0.00     0.000 HD 
HETATM   27  O   UNL     1      -9.781  13.715  65.835  1.00  0.00    -0.264 OA 
HETATM   28  H   UNL     1     -10.263   5.821  66.287  1.00  0.00     0.000 HD 
BRANCH  19  29
HETATM   29  C   UNL     1      -7.822   6.218  65.647  1.00  0.00    -0.098 C  
HETATM   30  O   UNL     1      -6.641   6.531  65.463  1.00  0.00    -0.041 OA 
BRANCH  29  31
HETATM   31  C   UNL     1      -8.381   4.931  65.041  1.00  0.00    -0.136 C  
HETATM   32  O   UNL     1      -8.643   3.947  66.034  1.00  0.00    -0.109 OA 
HETATM   33  H   UNL     1      -8.990   3.147  65.657  1.00  0.00     0.000 HD 
ENDBRANCH  29  31
ENDBRANCH  19  29
BRANCH  22  34
HETATM   34  O   UNL     1     -10.901   7.143  68.601  1.00  0.00    -0.187 OA 
BRANCH  34  35
HETATM   35  C   UNL     1     -11.132   6.020  69.463  1.00  0.00    -0.398 C  
HETATM   36  C   UNL     1     -10.035   5.763  70.499  1.00  0.00    -0.252 C  
HETATM   37  C   UNL     1     -10.009   6.900  71.516  1.00  0.00    -0.177 C  
HETATM   38  C   UNL     1     -11.400   7.004  72.182  1.00  0.00    -0.265 C  
HETATM   39  N   UNL     1      -8.936   6.710  72.503  1.00  0.00    -0.132 NA 
HETATM   40  C   UNL     1     -12.476   7.172  71.093  1.00  0.00    -0.359 C  
HETATM   41  H2  UNL     1      -8.029   6.590  72.052  1.00  0.00     0.000 HD 
HETATM   42  O   UNL     1     -11.465   8.091  73.107  1.00  0.00    -0.480 OA 
HETATM   43  H1  UNL     1      -8.920   7.470  73.182  1.00  0.00     0.000 HD 
HETATM   44  C   UNL     1     -13.874   7.109  71.704  1.00  0.00    -0.418 C  
HETATM   45  H   UNL     1     -12.320   8.155  73.516  1.00  0.00     0.000 HD 
HETATM   46  O   UNL     1     -12.404   6.139  70.106  1.00  0.00     0.409 OA 
ENDBRANCH  34  35
ENDBRANCH  22  34
ENDBRANCH   2   3
TORSDOF 5
ENDMDL
MODEL       41
REMARK 921   NORMALIZED FREE ENERGY PREDICTED BY IDOCK:   -6.13 KCAL/MOL
REMARK 922        TOTAL FREE ENERGY PREDICTED BY IDOCK:   -8.97 KCAL/MOL
REMARK 923 INTER-LIGAND FREE ENERGY PREDICTED BY IDOCK:   -7.83 KCAL/MOL
REMARK 924 INTRA-LIGAND FREE ENERGY PREDICTED BY IDOCK:   -1.14 KCAL/MOL
REMARK 927      BINDING AFFINITY PREDICTED BY RF-SCORE:    0.00 PKD
ROOT
HETATM    1  C   UNL     1      -8.834   2.022  65.755  1.00  0.00    -0.120 C  
HETATM    2  O   UNL     1      -9.508   3.179  66.243  1.00  0.00    -0.137 OA 
ENDROOT
BRANCH   2   3
HETATM    3  C   UNL     1      -9.407   3.437  67.585  1.00  0.00    -0.199 A  
HETATM    4  C   UNL     1      -9.474   2.409  68.541  1.00  0.00    -0.209 A  
HETATM    5  C   UNL     1      -9.360   2.688  69.899  1.00  0.00    -0.191 A  
HETATM    6  C   UNL     1      -9.179   3.998  70.315  1.00  0.00    -0.210 A  
HETATM    7  C   UNL     1      -9.131   5.042  69.379  1.00  0.00    -0.143 A  
HETATM    8  C   UNL     1      -9.262   4.777  68.013  1.00  0.00    -0.151 A  
HETATM    9  C   UNL     1      -9.238   5.925  67.067  1.00  0.00    -0.119 C  
HETATM   10  O   UNL     1      -9.461   5.791  65.868  1.00  0.00    -0.133 OA 
HETATM   11  C   UNL     1      -8.949   7.298  67.561  1.00  0.00    -0.122 A  
HETATM   12  C   UNL     1      -8.816   8.367  66.649  1.00  0.00    -0.142 A  
HETATM   13  O   UNL     1      -8.913   8.166  65.290  1.00  0.00    -0.381 OA 
HETATM   14  C   UNL     1      -8.558   9.687  67.075  1.00  0.00    -0.131 A  
HETATM   15  H   UNL     1      -8.823   8.886  64.676  1.00  0.00     0.000 HD 
HETATM   16  C   UNL     1      -8.435   9.941  68.462  1.00  0.00    -0.112 A  
HETATM   17  C   UNL     1      -8.515   8.855  69.363  1.00  0.00    -0.124 A  
HETATM   18  C   UNL     1      -8.169  11.348  68.979  1.00  0.00     0.015 C  
HETATM   19  C   UNL     1      -8.385  12.448  67.935  1.00  0.00    -0.165 C  
HETATM   20  C   UNL     1      -8.794   7.543  68.922  1.00  0.00    -0.135 A  
HETATM   21  O   UNL     1      -8.272   9.051  70.696  1.00  0.00    -0.144 OA 
HETATM   22  C   UNL     1      -8.401  10.795  66.035  1.00  0.00    -0.163 C  
HETATM   23  C   UNL     1      -8.947   6.417  69.883  1.00  0.00    -0.142 C  
HETATM   24  C   UNL     1      -7.701  12.017  66.634  1.00  0.00     0.068 C  
HETATM   25  O   UNL     1      -9.784  12.680  67.765  1.00  0.00    -0.195 OA 
HETATM   26  H   UNL     1      -8.326   8.321  71.302  1.00  0.00     0.000 HD 
HETATM   27  O   UNL     1      -8.935   6.584  71.097  1.00  0.00    -0.144 OA 
HETATM   28  H   UNL     1      -9.918  13.362  67.118  1.00  0.00     0.000 HD 
BRANCH  19  29
HETATM   29  C   UNL     1      -7.762  13.765  68.427  1.00  0.00    -0.134 C  
HETATM   30  O   UNL     1      -6.551  13.881  68.645  1.00  0.00    -0.082 OA 
BRANCH  29  31
HETATM   31  C   UNL     1      -8.711  14.925  68.725  1.00  0.00    -0.182 C  
HETATM   32  O   UNL     1      -9.630  14.606  69.763  1.00  0.00    -0.404 OA 
HETATM   33  H   UNL     1     -10.220  15.328  69.948  1.00  0.00     0.000 HD 
ENDBRANCH  29  31
ENDBRANCH  19  29
BRANCH  22  34
HETATM   34  O   UNL     1      -9.711  11.128  65.544  1.00  0.00    -0.208 OA 
BRANCH  34  35
HETATM   35  C   UNL     1      -9.757  11.838  64.298  1.00  0.00    -0.146 C  
HETATM   36  C   UNL     1     -10.961  11.512  63.411  1.00  0.00    -0.397 C  
HETATM   37  C   UNL     1     -12.240  12.016  64.072  1.00  0.00    -0.403 C  
HETATM   38  C   UNL     1     -12.111  13.538  64.310  1.00  0.00    -0.431 C  
HETATM   39  N   UNL     1     -13.424  11.680  63.269  1.00  0.00    -0.287 NA 
HETATM   40  C   UNL     1     -10.838  13.820  65.130  1.00  0.00    -0.345 C  
HETATM   41  H2  UNL     1     -13.473  10.680  63.072  1.00  0.00     0.000 HD 
HETATM   42  O   UNL     1     -13.255  14.068  64.983  1.00  0.00    -0.720 OA 
HETATM   43  H1  UNL     1     -14.279  12.017  63.711  1.00  0.00     0.000 HD 
HETATM   44  C   UNL     1     -10.591  15.323  65.239  1.00  0.00    -0.438 C  
HETATM   45  H   UNL     1     -13.175  15.003  65.129  1.00  0.00     0.000 HD 
HETATM   46  O   UNL     1      -9.675  13.247  64.525  1.00  0.00    -0.027 OA 
ENDBRANCH  34  35
ENDBRANCH  22  34
ENDBRANCH   2   3
TORSDOF 5
ENDMDL
MODEL       42
REMARK 921   NORMALIZED FREE ENERGY PREDICTED BY IDOCK:   -6.03 KCAL/MOL
REMARK 922        TOTAL FREE ENERGY PREDICTED BY IDOCK:   -8.84 KCAL/MOL
REMARK 923 INTER-LIGAND FREE ENERGY PREDICTED BY IDOCK:   -7.99 KCAL/MOL
REMARK 924 INTRA-LIGAND FREE ENERGY PREDICTED BY IDOCK:   -0.85 KCAL/MOL
REMARK 927      BINDING AFFINITY PREDICTED BY RF-SCORE:    0.00 PKD
ROOT
HETATM    1  C   UNL     1      -7.656   6.616  73.229  1.00  0.00    -0.091 C  
HETATM    2  O   UNL     1      -6.666   6.705  72.208  1.00  0.00    -0.058 OA 
ENDROOT
BRANCH   2   3
HETATM    3  C   UNL     1      -6.877   5.967  71.073  1.00  0.00    -0.066 A  
HETATM    4  C   UNL     1      -6.524   4.609  71.000  1.00  0.00    -0.026 A  
HETATM    5  C   UNL     1      -6.753   3.873  69.843  1.00  0.00    -0.034 A  
HETATM    6  C   UNL     1      -7.338   4.486  68.745  1.00  0.00    -0.056 A  
HETATM    7  C   UNL     1      -7.679   5.846  68.790  1.00  0.00    -0.091 A  
HETATM    8  C   UNL     1      -7.438   6.602  69.940  1.00  0.00    -0.095 A  
HETATM    9  C   UNL     1      -7.787   8.048  69.919  1.00  0.00    -0.102 C  
HETATM   10  O   UNL     1      -7.502   8.804  70.843  1.00  0.00    -0.069 OA 
HETATM   11  C   UNL     1      -8.496   8.632  68.749  1.00  0.00    -0.129 A  
HETATM   12  C   UNL     1      -8.926   9.976  68.778  1.00  0.00    -0.145 A  
HETATM   13  O   UNL     1      -8.736  10.766  69.891  1.00  0.00    -0.297 OA 
HETATM   14  C   UNL     1      -9.588  10.574  67.686  1.00  0.00    -0.175 A  
HETATM   15  H   UNL     1      -9.026  11.671  69.910  1.00  0.00     0.000 HD 
HETATM   16  C   UNL     1      -9.819   9.797  66.525  1.00  0.00    -0.286 A  
HETATM   17  C   UNL     1      -9.434   8.438  66.526  1.00  0.00    -0.220 A  
HETATM   18  C   UNL     1     -10.518  10.396  65.311  1.00  0.00    -0.178 C  
HETATM   19  C   UNL     1     -10.622  11.924  65.340  1.00  0.00    -0.271 C  
HETATM   20  C   UNL     1      -8.755   7.860  67.620  1.00  0.00    -0.126 A  
HETATM   21  O   UNL     1      -9.761   7.632  65.470  1.00  0.00    -0.093 OA 
HETATM   22  C   UNL     1     -10.049  12.027  67.790  1.00  0.00    -0.193 C  
HETATM   23  C   UNL     1      -8.289   6.447  67.587  1.00  0.00    -0.117 C  
HETATM   24  C   UNL     1     -11.106  12.346  66.730  1.00  0.00    -0.333 C  
HETATM   25  O   UNL     1      -9.357  12.497  65.004  1.00  0.00    -0.425 OA 
HETATM   26  H   UNL     1      -9.502   6.718  65.470  1.00  0.00     0.000 HD 
HETATM   27  O   UNL     1      -8.384   5.748  66.585  1.00  0.00    -0.109 OA 
HETATM   28  H   UNL     1      -9.422  13.444  65.022  1.00  0.00     0.000 HD 
BRANCH  19  29
HETATM   29  C   UNL     1     -11.631  12.398  64.281  1.00  0.00    -0.368 C  
HETATM   30  O   UNL     1     -12.006  11.672  63.354  1.00  0.00    -0.424 OA 
BRANCH  29  31
HETATM   31  C   UNL     1     -12.105  13.849  64.361  1.00  0.00    -0.443 C  
HETATM   32  O   UNL     1     -12.479  14.357  63.086  1.00  0.00    -1.009 OA 
HETATM   33  H   UNL     1     -12.773  15.259  63.136  1.00  0.00     0.000 HD 
ENDBRANCH  29  31
ENDBRANCH  19  29
BRANCH  22  34
HETATM   34  O   UNL     1      -8.892  12.869  67.649  1.00  0.00    -0.166 OA 
BRANCH  34  35
HETATM   35  C   UNL     1      -8.828  14.006  68.521  1.00  0.00    -0.160 C  
HETATM   36  C   UNL     1      -7.489  14.748  68.520  1.00  0.00    -0.117 C  
HETATM   37  C   UNL     1      -7.271  15.416  67.166  1.00  0.00    -0.144 C  
HETATM   38  C   UNL     1      -8.449  16.379  66.890  1.00  0.00    -0.221 C  
HETATM   39  N   UNL     1      -5.972  16.102  67.113  1.00  0.00    -0.324 NA 
HETATM   40  C   UNL     1      -9.775  15.603  66.990  1.00  0.00    -0.227 C  
HETATM   41  H2  UNL     1      -5.205  15.472  67.348  1.00  0.00     0.000 HD 
HETATM   42  O   UNL     1      -8.338  16.997  65.607  1.00  0.00    -0.417 OA 
HETATM   43  H1  UNL     1      -5.826  16.548  66.208  1.00  0.00     0.000 HD 
HETATM   44  C   UNL     1     -10.964  16.556  66.890  1.00  0.00     0.023 C  
HETATM   45  H   UNL     1      -9.062  17.588  65.437  1.00  0.00     0.000 HD 
HETATM   46  O   UNL     1      -9.897  14.911  68.237  1.00  0.00    -0.209 OA 
ENDBRANCH  34  35
ENDBRANCH  22  34
ENDBRANCH   2   3
TORSDOF 5
ENDMDL
MODEL       43
REMARK 921   NORMALIZED FREE ENERGY PREDICTED BY IDOCK:   -5.89 KCAL/MOL
REMARK 922        TOTAL FREE ENERGY PREDICTED BY IDOCK:   -8.66 KCAL/MOL
REMARK 923 INTER-LIGAND FREE ENERGY PREDICTED BY IDOCK:  -10.81 KCAL/MOL
REMARK 924 INTRA-LIGAND FREE ENERGY PREDICTED BY IDOCK:    2.15 KCAL/MOL
REMARK 927      BINDING AFFINITY PREDICTED BY RF-SCORE:    0.00 PKD
ROOT
HETATM    1  C   UNL     1      -9.760  20.507  67.506  1.00  0.00    -0.414 C  
HETATM    2  O   UNL     1      -9.636  19.562  68.565  1.00  0.00    -0.358 OA 
ENDROOT
BRANCH   2   3
HETATM    3  C   UNL     1      -8.402  18.998  68.753  1.00  0.00    -0.329 A  
HETATM    4  C   UNL     1      -7.253  19.784  68.943  1.00  0.00    -0.341 A  
HETATM    5  C   UNL     1      -6.009  19.195  69.142  1.00  0.00    -0.259 A  
HETATM    6  C   UNL     1      -5.900  17.813  69.152  1.00  0.00    -0.209 A  
HETATM    7  C   UNL     1      -7.031  17.009  68.944  1.00  0.00    -0.219 A  
HETATM    8  C   UNL     1      -8.284  17.589  68.725  1.00  0.00    -0.222 A  
HETATM    9  C   UNL     1      -9.443  16.690  68.475  1.00  0.00    -0.239 C  
HETATM   10  O   UNL     1     -10.549  17.119  68.161  1.00  0.00    -0.351 OA 
HETATM   11  C   UNL     1      -9.286  15.215  68.589  1.00  0.00    -0.196 A  
HETATM   12  C   UNL     1     -10.410  14.370  68.462  1.00  0.00    -0.248 A  
HETATM   13  O   UNL     1     -11.673  14.882  68.267  1.00  0.00    -0.321 OA 
HETATM   14  C   UNL     1     -10.304  12.966  68.548  1.00  0.00    -0.239 A  
HETATM   15  H   UNL     1     -12.429  14.313  68.182  1.00  0.00     0.000 HD 
HETATM   16  C   UNL     1      -9.027  12.393  68.763  1.00  0.00     0.150 A  
HETATM   17  C   UNL     1      -7.918  13.249  68.943  1.00  0.00     0.140 A  
HETATM   18  C   UNL     1      -8.853  10.883  68.851  1.00  0.00    -0.143 C  
HETATM   19  C   UNL     1     -10.066  10.085  68.363  1.00  0.00    -0.165 C  
HETATM   20  C   UNL     1      -8.037  14.652  68.834  1.00  0.00    -0.147 A  
HETATM   21  O   UNL     1      -6.698  12.729  69.280  1.00  0.00    -0.156 OA 
HETATM   22  C   UNL     1     -11.563  12.109  68.426  1.00  0.00    -0.327 C  
HETATM   23  C   UNL     1      -6.852  15.544  68.955  1.00  0.00    -0.139 C  
HETATM   24  C   UNL     1     -11.326  10.702  68.978  1.00  0.00    -0.340 C  
HETATM   25  O   UNL     1     -10.098  10.085  66.935  1.00  0.00    -0.208 OA 
HETATM   26  H   UNL     1      -5.952  13.305  69.401  1.00  0.00     0.000 HD 
HETATM   27  O   UNL     1      -5.711  15.109  69.058  1.00  0.00    -0.096 OA 
HETATM   28  H   UNL     1     -10.850   9.590  66.633  1.00  0.00     0.000 HD 
BRANCH  19  29
HETATM   29  C   UNL     1      -9.942   8.620  68.815  1.00  0.00    -0.183 C  
HETATM   30  O   UNL     1      -9.380   8.299  69.867  1.00  0.00    -0.157 OA 
BRANCH  29  31
HETATM   31  C   UNL     1     -10.471   7.544  67.867  1.00  0.00    -0.204 C  
HETATM   32  O   UNL     1     -11.658   6.936  68.362  1.00  0.00    -0.421 OA 
HETATM   33  H   UNL     1     -11.986   6.267  67.772  1.00  0.00     0.000 HD 
ENDBRANCH  29  31
ENDBRANCH  19  29
BRANCH  22  34
HETATM   34  O   UNL     1     -11.939  12.072  67.038  1.00  0.00    -0.609 OA 
BRANCH  34  35
HETATM   35  C   UNL     1     -10.863  12.109  66.090  1.00  0.00    -0.282 C  
HETATM   36  C   UNL     1     -11.132  11.373  64.776  1.00  0.00    -0.258 C  
HETATM   37  C   UNL     1     -12.224  12.097  63.994  1.00  0.00    -0.446 C  
HETATM   38  C   UNL     1     -11.773  13.554  63.742  1.00  0.00    -0.321 C  
HETATM   39  N   UNL     1     -12.542  11.391  62.744  1.00  0.00    -0.763 NA 
HETATM   40  C   UNL     1     -11.430  14.221  65.086  1.00  0.00    -0.351 C  
HETATM   41  H2  UNL     1     -12.787  10.416  62.915  1.00  0.00     0.000 HD 
HETATM   42  O   UNL     1     -12.778  14.309  63.062  1.00  0.00    -0.726 OA 
HETATM   43  H1  UNL     1     -13.271  11.876  62.222  1.00  0.00     0.000 HD 
HETATM   44  C   UNL     1     -10.821  15.603  64.860  1.00  0.00    -0.438 C  
HETATM   45  H   UNL     1     -12.501  15.204  62.907  1.00  0.00     0.000 HD 
HETATM   46  O   UNL     1     -10.474  13.461  65.832  1.00  0.00    -0.277 OA 
ENDBRANCH  34  35
ENDBRANCH  22  34
ENDBRANCH   2   3
TORSDOF 5
ENDMDL
MODEL       44
REMARK 921   NORMALIZED FREE ENERGY PREDICTED BY IDOCK:   -5.88 KCAL/MOL
REMARK 922        TOTAL FREE ENERGY PREDICTED BY IDOCK:   -8.65 KCAL/MOL
REMARK 923 INTER-LIGAND FREE ENERGY PREDICTED BY IDOCK:   -8.00 KCAL/MOL
REMARK 924 INTRA-LIGAND FREE ENERGY PREDICTED BY IDOCK:   -0.65 KCAL/MOL
REMARK 927      BINDING AFFINITY PREDICTED BY RF-SCORE:    0.00 PKD
ROOT
HETATM    1  C   UNL     1      -9.184   4.652  70.879  1.00  0.00    -0.141 C  
HETATM    2  O   UNL     1      -8.674   5.828  70.259  1.00  0.00    -0.132 OA 
ENDROOT
BRANCH   2   3
HETATM    3  C   UNL     1      -8.258   5.715  68.958  1.00  0.00    -0.100 A  
HETATM    4  C   UNL     1      -7.506   4.613  68.518  1.00  0.00    -0.065 A  
HETATM    5  C   UNL     1      -7.100   4.509  67.192  1.00  0.00    -0.068 A  
HETATM    6  C   UNL     1      -7.443   5.507  66.291  1.00  0.00    -0.086 A  
HETATM    7  C   UNL     1      -8.175   6.626  66.715  1.00  0.00    -0.114 A  
HETATM    8  C   UNL     1      -8.573   6.751  68.048  1.00  0.00    -0.122 A  
HETATM    9  C   UNL     1      -9.319   7.975  68.449  1.00  0.00    -0.138 C  
HETATM   10  O   UNL     1      -9.603   8.215  69.619  1.00  0.00    -0.166 OA 
HETATM   11  C   UNL     1      -9.738   8.967  67.424  1.00  0.00    -0.217 A  
HETATM   12  C   UNL     1     -10.540  10.069  67.790  1.00  0.00    -0.261 A  
HETATM   13  O   UNL     1     -10.983  10.236  69.084  1.00  0.00    -0.216 OA 
HETATM   14  C   UNL     1     -10.948  11.042  66.854  1.00  0.00    -0.311 A  
HETATM   15  H   UNL     1     -11.523  10.978  69.330  1.00  0.00     0.000 HD 
HETATM   16  C   UNL     1     -10.531  10.905  65.508  1.00  0.00    -0.286 A  
HETATM   17  C   UNL     1      -9.774   9.770  65.141  1.00  0.00    -0.268 A  
HETATM   18  C   UNL     1     -10.931  11.933  64.457  1.00  0.00    -0.376 C  
HETATM   19  C   UNL     1     -11.498  13.232  65.038  1.00  0.00    -0.305 C  
HETATM   20  C   UNL     1      -9.357   8.816  66.094  1.00  0.00    -0.297 A  
HETATM   21  O   UNL     1      -9.467   9.546  63.826  1.00  0.00    -0.419 OA 
HETATM   22  C   UNL     1     -11.837  12.198  67.310  1.00  0.00    -0.223 C  
HETATM   23  C   UNL     1      -8.501   7.660  65.713  1.00  0.00    -0.144 C  
HETATM   24  C   UNL     1     -12.522  12.869  66.117  1.00  0.00    -0.089 C  
HETATM   25  O   UNL     1     -10.432  14.036  65.545  1.00  0.00    -0.298 OA 
HETATM   26  H   UNL     1      -8.958   8.783  63.579  1.00  0.00     0.000 HD 
HETATM   27  O   UNL     1      -8.038   7.530  64.586  1.00  0.00    -0.138 OA 
HETATM   28  H   UNL     1     -10.784  14.842  65.906  1.00  0.00     0.000 HD 
BRANCH  19  29
HETATM   29  C   UNL     1     -12.190  14.042  63.929  1.00  0.00    -0.293 C  
HETATM   30  O   UNL     1     -12.431  13.563  62.815  1.00  0.00    -0.431 OA 
BRANCH  29  31
HETATM   31  C   UNL     1     -12.502  15.509  64.218  1.00  0.00     0.128 C  
HETATM   32  O   UNL     1     -11.465  16.372  63.767  1.00  0.00    -1.590 OA 
HETATM   33  H   UNL     1     -11.660  17.284  63.947  1.00  0.00     0.000 HD 
ENDBRANCH  29  31
ENDBRANCH  19  29
BRANCH  22  34
HETATM   34  O   UNL     1     -11.013  13.129  68.033  1.00  0.00    -0.233 OA 
BRANCH  34  35
HETATM   35  C   UNL     1     -11.503  14.475  68.115  1.00  0.00    -0.312 C  
HETATM   36  C   UNL     1     -12.619  14.696  69.139  1.00  0.00     0.146 C  
HETATM   37  C   UNL     1     -12.069  14.508  70.549  1.00  0.00    -0.325 C  
HETATM   38  C   UNL     1     -10.902  15.499  70.765  1.00  0.00    -0.261 C  
HETATM   39  N   UNL     1     -13.125  14.670  71.560  1.00  0.00    -0.328 NA 
HETATM   40  C   UNL     1      -9.850  15.295  69.659  1.00  0.00    -0.216 C  
HETATM   41  H2  UNL     1     -13.914  14.049  71.380  1.00  0.00     0.000 HD 
HETATM   42  O   UNL     1     -10.299  15.336  72.050  1.00  0.00     0.297 OA 
HETATM   43  H1  UNL     1     -12.757  14.544  72.502  1.00  0.00     0.000 HD 
HETATM   44  C   UNL     1      -8.766  16.368  69.744  1.00  0.00     0.626 C  
HETATM   45  H   UNL     1      -9.582  15.944  72.183  1.00  0.00     0.000 HD 
HETATM   46  O   UNL     1     -10.425  15.383  68.352  1.00  0.00    -0.232 OA 
ENDBRANCH  34  35
ENDBRANCH  22  34
ENDBRANCH   2   3
TORSDOF 5
ENDMDL
MODEL       45
REMARK 921   NORMALIZED FREE ENERGY PREDICTED BY IDOCK:   -5.86 KCAL/MOL
REMARK 922        TOTAL FREE ENERGY PREDICTED BY IDOCK:   -8.62 KCAL/MOL
REMARK 923 INTER-LIGAND FREE ENERGY PREDICTED BY IDOCK:   -8.01 KCAL/MOL
REMARK 924 INTRA-LIGAND FREE ENERGY PREDICTED BY IDOCK:   -0.60 KCAL/MOL
REMARK 927      BINDING AFFINITY PREDICTED BY RF-SCORE:    0.00 PKD
ROOT
HETATM    1  C   UNL     1     -11.618  16.085  64.013  1.00  0.00     0.196 C  
HETATM    2  O   UNL     1     -10.427  16.442  64.708  1.00  0.00    -0.620 OA 
ENDROOT
BRANCH   2   3
HETATM    3  C   UNL     1     -10.575  16.976  65.961  1.00  0.00    -0.206 A  
HETATM    4  C   UNL     1     -10.492  18.360  66.188  1.00  0.00    -0.422 A  
HETATM    5  C   UNL     1     -10.654  18.885  67.465  1.00  0.00    -0.524 A  
HETATM    6  C   UNL     1     -10.901  18.032  68.530  1.00  0.00     0.115 A  
HETATM    7  C   UNL     1     -10.967  16.645  68.330  1.00  0.00    -0.341 A  
HETATM    8  C   UNL     1     -10.788  16.103  67.054  1.00  0.00    -0.194 A  
HETATM    9  C   UNL     1     -10.833  14.623  66.905  1.00  0.00    -0.305 C  
HETATM   10  O   UNL     1     -10.572  14.064  65.845  1.00  0.00    -0.288 OA 
HETATM   11  C   UNL     1     -11.192  13.763  68.064  1.00  0.00    -0.293 A  
HETATM   12  C   UNL     1     -11.344  12.370  67.894  1.00  0.00    -0.289 A  
HETATM   13  O   UNL     1     -11.202  11.779  66.658  1.00  0.00    -0.301 OA 
HETATM   14  C   UNL     1     -11.668  11.516  68.968  1.00  0.00    -0.400 A  
HETATM   15  H   UNL     1     -11.304  10.841  66.544  1.00  0.00     0.000 HD 
HETATM   16  C   UNL     1     -11.839  12.079  70.256  1.00  0.00    -0.356 A  
HETATM   17  C   UNL     1     -11.739  13.480  70.405  1.00  0.00    -0.127 A  
HETATM   18  C   UNL     1     -12.177  11.202  71.454  1.00  0.00    -0.237 C  
HETATM   19  C   UNL     1     -11.978   9.703  71.207  1.00  0.00    -0.380 C  
HETATM   20  C   UNL     1     -11.394  14.320  69.324  1.00  0.00    -0.322 A  
HETATM   21  O   UNL     1     -12.027  14.064  71.609  1.00  0.00    -0.327 OA 
HETATM   22  C   UNL     1     -11.842  10.019  68.712  1.00  0.00     0.433 C  
HETATM   23  C   UNL     1     -11.221  15.787  69.503  1.00  0.00    -0.317 C  
HETATM   24  C   UNL     1     -12.608   9.351  69.856  1.00  0.00     0.969 C  
HETATM   25  O   UNL     1     -10.586   9.389  71.259  1.00  0.00    -0.313 OA 
HETATM   26  H   UNL     1     -11.959  15.006  71.710  1.00  0.00     0.000 HD 
HETATM   27  O   UNL     1     -11.273  16.324  70.603  1.00  0.00    -0.371 OA 
HETATM   28  H   UNL     1     -10.463   8.460  71.106  1.00  0.00     0.000 HD 
BRANCH  19  29
HETATM   29  C   UNL     1     -12.669   8.895  72.319  1.00  0.00    -0.397 C  
HETATM   30  O   UNL     1     -13.729   9.260  72.838  1.00  0.00    -0.327 OA 
BRANCH  29  31
HETATM   31  C   UNL     1     -11.951   7.647  72.831  1.00  0.00     0.033 C  
HETATM   32  O   UNL     1     -12.280   6.494  72.066  1.00  0.00    -0.372 OA 
HETATM   33  H   UNL     1     -11.833   5.718  72.384  1.00  0.00     0.000 HD 
ENDBRANCH  29  31
ENDBRANCH  19  29
BRANCH  22  34
HETATM   34  O   UNL     1     -10.534   9.444  68.549  1.00  0.00    -0.200 OA 
BRANCH  34  35
HETATM   35  C   UNL     1     -10.420   8.401  67.571  1.00  0.00    -0.257 C  
HETATM   36  C   UNL     1      -9.064   8.323  66.864  1.00  0.00    -0.181 C  
HETATM   37  C   UNL     1      -7.989   7.898  67.859  1.00  0.00    -0.128 C  
HETATM   38  C   UNL     1      -8.386   6.534  68.470  1.00  0.00    -0.121 C  
HETATM   39  N   UNL     1      -6.663   7.854  67.225  1.00  0.00    -0.067 NA 
HETATM   40  C   UNL     1      -9.792   6.643  69.089  1.00  0.00    -0.148 C  
HETATM   41  H2  UNL     1      -6.431   8.742  66.779  1.00  0.00     0.000 HD 
HETATM   42  O   UNL     1      -7.448   6.103  69.458  1.00  0.00    -0.087 OA 
HETATM   43  H1  UNL     1      -5.944   7.570  67.890  1.00  0.00     0.000 HD 
HETATM   44  C   UNL     1     -10.283   5.273  69.551  1.00  0.00    -0.338 C  
HETATM   45  H   UNL     1      -7.692   5.265  69.833  1.00  0.00     0.000 HD 
HETATM   46  O   UNL     1     -10.752   7.137  68.150  1.00  0.00    -0.203 OA 
ENDBRANCH  34  35
ENDBRANCH  22  34
ENDBRANCH   2   3
TORSDOF 5
ENDMDL
MODEL       46
REMARK 921   NORMALIZED FREE ENERGY PREDICTED BY IDOCK:   -5.81 KCAL/MOL
REMARK 922        TOTAL FREE ENERGY PREDICTED BY IDOCK:   -8.56 KCAL/MOL
REMARK 923 INTER-LIGAND FREE ENERGY PREDICTED BY IDOCK:   -8.87 KCAL/MOL
REMARK 924 INTRA-LIGAND FREE ENERGY PREDICTED BY IDOCK:    0.32 KCAL/MOL
REMARK 927      BINDING AFFINITY PREDICTED BY RF-SCORE:    0.00 PKD
ROOT
HETATM    1  C   UNL     1     -12.896  12.611  64.297  1.00  0.00    -0.215 C  
HETATM    2  O   UNL     1     -12.703  13.190  65.585  1.00  0.00    -0.469 OA 
ENDROOT
BRANCH   2   3
HETATM    3  C   UNL     1     -11.499  13.800  65.817  1.00  0.00    -0.318 A  
HETATM    4  C   UNL     1     -11.177  15.041  65.242  1.00  0.00    -0.368 A  
HETATM    5  C   UNL     1      -9.954  15.651  65.497  1.00  0.00    -0.364 A  
HETATM    6  C   UNL     1      -9.037  15.026  66.329  1.00  0.00    -0.288 A  
HETATM    7  C   UNL     1      -9.330  13.777  66.897  1.00  0.00    -0.267 A  
HETATM    8  C   UNL     1     -10.548  13.145  66.635  1.00  0.00    -0.284 A  
HETATM    9  C   UNL     1     -10.791  11.805  67.235  1.00  0.00    -0.253 C  
HETATM   10  O   UNL     1     -11.782  11.135  66.963  1.00  0.00    -0.460 OA 
HETATM   11  C   UNL     1      -9.812  11.224  68.193  1.00  0.00    -0.190 A  
HETATM   12  C   UNL     1     -10.097  10.006  68.846  1.00  0.00    -0.190 A  
HETATM   13  O   UNL     1     -11.290   9.346  68.647  1.00  0.00    -0.459 OA 
HETATM   14  C   UNL     1      -9.191   9.412  69.750  1.00  0.00    -0.209 A  
HETATM   15  H   UNL     1     -11.481   8.526  69.087  1.00  0.00     0.000 HD 
HETATM   16  C   UNL     1      -7.958  10.060  70.000  1.00  0.00    -0.166 A  
HETATM   17  C   UNL     1      -7.706  11.306  69.383  1.00  0.00     0.092 A  
HETATM   18  C   UNL     1      -6.937   9.457  70.956  1.00  0.00    -0.066 C  
HETATM   19  C   UNL     1      -7.214   7.997  71.325  1.00  0.00    -0.062 C  
HETATM   20  C   UNL     1      -8.614  11.878  68.465  1.00  0.00    -0.110 A  
HETATM   21  O   UNL     1      -6.581  12.016  69.705  1.00  0.00    -0.275 OA 
HETATM   22  C   UNL     1      -9.570   8.104  70.443  1.00  0.00    -0.170 C  
HETATM   23  C   UNL     1      -8.311  13.155  67.766  1.00  0.00    -0.171 C  
HETATM   24  C   UNL     1      -8.698   7.863  71.677  1.00  0.00    -0.153 C  
HETATM   25  O   UNL     1      -6.830   7.148  70.241  1.00  0.00    -0.054 OA 
HETATM   26  H   UNL     1      -6.411  12.854  69.291  1.00  0.00     0.000 HD 
HETATM   27  O   UNL     1      -7.229  13.722  67.874  1.00  0.00    -0.118 OA 
HETATM   28  H   UNL     1      -7.002   6.242  70.470  1.00  0.00     0.000 HD 
BRANCH  19  29
HETATM   29  C   UNL     1      -6.362   7.595  72.541  1.00  0.00    -0.055 C  
HETATM   30  O   UNL     1      -6.047   6.422  72.766  1.00  0.00    -0.048 OA 
BRANCH  29  31
HETATM   31  C   UNL     1      -5.978   8.697  73.526  1.00  0.00    -0.108 C  
HETATM   32  O   UNL     1      -7.023   8.969  74.453  1.00  0.00    -0.389 OA 
HETATM   33  H   UNL     1      -6.784   9.655  75.065  1.00  0.00     0.000 HD 
ENDBRANCH  29  31
ENDBRANCH  19  29
BRANCH  22  34
HETATM   34  O   UNL     1      -9.431   7.040  69.485  1.00  0.00    -0.148 OA 
BRANCH  34  35
HETATM   35  C   UNL     1     -10.525   6.115  69.405  1.00  0.00    -0.256 C  
HETATM   36  C   UNL     1     -10.256   4.740  70.021  1.00  0.00    -0.251 C  
HETATM   37  C   UNL     1     -10.108   4.873  71.533  1.00  0.00    -0.197 C  
HETATM   38  C   UNL     1     -11.396   5.506  72.107  1.00  0.00    -0.149 C  
HETATM   39  N   UNL     1      -9.804   3.576  72.155  1.00  0.00    -0.160 NA 
HETATM   40  C   UNL     1     -11.670   6.842  71.393  1.00  0.00    -0.316 C  
HETATM   41  H2  UNL     1      -8.982   3.142  71.735  1.00  0.00     0.000 HD 
HETATM   42  O   UNL     1     -11.302   5.714  73.517  1.00  0.00    -0.462 OA 
HETATM   43  H1  UNL     1      -9.704   3.666  73.166  1.00  0.00     0.000 HD 
HETATM   44  C   UNL     1     -13.022   7.411  71.815  1.00  0.00    -0.365 C  
HETATM   45  H   UNL     1     -12.093   6.103  73.870  1.00  0.00     0.000 HD 
HETATM   46  O   UNL     1     -11.705   6.691  69.970  1.00  0.00    -0.383 OA 
ENDBRANCH  34  35
ENDBRANCH  22  34
ENDBRANCH   2   3
TORSDOF 5
ENDMDL
MODEL       47
REMARK 921   NORMALIZED FREE ENERGY PREDICTED BY IDOCK:   -5.81 KCAL/MOL
REMARK 922        TOTAL FREE ENERGY PREDICTED BY IDOCK:   -8.56 KCAL/MOL
REMARK 923 INTER-LIGAND FREE ENERGY PREDICTED BY IDOCK:   -9.46 KCAL/MOL
REMARK 924 INTRA-LIGAND FREE ENERGY PREDICTED BY IDOCK:    0.91 KCAL/MOL
REMARK 927      BINDING AFFINITY PREDICTED BY RF-SCORE:    0.00 PKD
ROOT
HETATM    1  C   UNL     1      -9.375   5.770  71.095  1.00  0.00    -0.153 C  
HETATM    2  O   UNL     1     -10.417   6.323  70.296  1.00  0.00    -0.196 OA 
ENDROOT
BRANCH   2   3
HETATM    3  C   UNL     1     -11.411   7.000  70.953  1.00  0.00    -0.295 A  
HETATM    4  C   UNL     1     -12.297   6.346  71.825  1.00  0.00    -0.259 A  
HETATM    5  C   UNL     1     -13.294   7.051  72.491  1.00  0.00     0.522 A  
HETATM    6  C   UNL     1     -13.416   8.418  72.291  1.00  0.00    -0.301 A  
HETATM    7  C   UNL     1     -12.555   9.087  71.408  1.00  0.00    -0.370 A  
HETATM    8  C   UNL     1     -11.561   8.387  70.719  1.00  0.00    -0.252 A  
HETATM    9  C   UNL     1     -10.699   9.141  69.769  1.00  0.00    -0.228 C  
HETATM   10  O   UNL     1      -9.882   8.583  69.043  1.00  0.00    -0.174 OA 
HETATM   11  C   UNL     1     -10.814  10.620  69.663  1.00  0.00    -0.318 A  
HETATM   12  C   UNL     1      -9.920  11.344  68.845  1.00  0.00    -0.131 A  
HETATM   13  O   UNL     1      -8.905  10.715  68.158  1.00  0.00    -0.127 OA 
HETATM   14  C   UNL     1     -10.003  12.745  68.704  1.00  0.00    -0.099 A  
HETATM   15  H   UNL     1      -8.304  11.203  67.608  1.00  0.00     0.000 HD 
HETATM   16  C   UNL     1     -11.020  13.439  69.402  1.00  0.00    -0.079 A  
HETATM   17  C   UNL     1     -11.875  12.712  70.261  1.00  0.00    -0.214 A  
HETATM   18  C   UNL     1     -11.164  14.950  69.276  1.00  0.00    -0.300 C  
HETATM   19  C   UNL     1     -10.370  15.558  68.116  1.00  0.00    -0.237 C  
HETATM   20  C   UNL     1     -11.792  11.307  70.376  1.00  0.00    -0.443 A  
HETATM   21  O   UNL     1     -12.782  13.372  71.046  1.00  0.00    -0.342 OA 
HETATM   22  C   UNL     1      -8.989  13.473  67.822  1.00  0.00    -0.201 C  
HETATM   23  C   UNL     1     -12.741  10.540  71.227  1.00  0.00    -0.428 C  
HETATM   24  C   UNL     1      -8.956  14.969  68.141  1.00  0.00    -0.173 C  
HETATM   25  O   UNL     1     -11.047  15.303  66.885  1.00  0.00    -0.321 OA 
HETATM   26  H   UNL     1     -13.356  12.883  71.623  1.00  0.00     0.000 HD 
HETATM   27  O   UNL     1     -13.692  11.069  71.790  1.00  0.00    -0.067 OA 
HETATM   28  H   UNL     1     -10.554  15.681  66.166  1.00  0.00     0.000 HD 
BRANCH  19  29
HETATM   29  C   UNL     1     -10.289  17.085  68.283  1.00  0.00    -0.347 C  
HETATM   30  O   UNL     1     -10.644  17.655  69.321  1.00  0.00    -0.220 OA 
BRANCH  29  31
HETATM   31  C   UNL     1      -9.828  17.902  67.077  1.00  0.00    -0.314 C  
HETATM   32  O   UNL     1     -10.690  19.004  66.820  1.00  0.00    -0.413 OA 
HETATM   33  H   UNL     1     -10.403  19.511  66.070  1.00  0.00     0.000 HD 
ENDBRANCH  29  31
ENDBRANCH  19  29
BRANCH  22  34
HETATM   34  O   UNL     1      -9.348  13.236  66.449  1.00  0.00    -0.245 OA 
BRANCH  34  35
HETATM   35  C   UNL     1     -10.024  12.000  66.177  1.00  0.00    -0.231 C  
HETATM   36  C   UNL     1     -11.551  12.096  66.122  1.00  0.00    -0.418 C  
HETATM   37  C   UNL     1     -11.972  12.923  64.912  1.00  0.00    -0.392 C  
HETATM   38  C   UNL     1     -11.403  12.262  63.635  1.00  0.00    -0.470 C  
HETATM   39  N   UNL     1     -13.433  13.074  64.851  1.00  0.00    -0.172 NA 
HETATM   40  C   UNL     1      -9.877  12.109  63.777  1.00  0.00    -0.234 C  
HETATM   41  H2  UNL     1     -13.806  13.462  65.718  1.00  0.00     0.000 HD 
HETATM   42  O   UNL     1     -11.711  13.021  62.464  1.00  0.00    -0.284 OA 
HETATM   43  H1  UNL     1     -13.715  13.627  64.042  1.00  0.00     0.000 HD 
HETATM   44  C   UNL     1      -9.306  11.309  62.609  1.00  0.00    -0.313 C  
HETATM   45  H   UNL     1     -11.361  12.615  61.679  1.00  0.00     0.000 HD 
HETATM   46  O   UNL     1      -9.520  11.412  64.976  1.00  0.00    -0.226 OA 
ENDBRANCH  34  35
ENDBRANCH  22  34
ENDBRANCH   2   3
TORSDOF 5
ENDMDL
MODEL       48
REMARK 921   NORMALIZED FREE ENERGY PREDICTED BY IDOCK:   -5.77 KCAL/MOL
REMARK 922        TOTAL FREE ENERGY PREDICTED BY IDOCK:   -8.50 KCAL/MOL
REMARK 923 INTER-LIGAND FREE ENERGY PREDICTED BY IDOCK:   -8.08 KCAL/MOL
REMARK 924 INTRA-LIGAND FREE ENERGY PREDICTED BY IDOCK:   -0.42 KCAL/MOL
REMARK 927      BINDING AFFINITY PREDICTED BY RF-SCORE:    0.00 PKD
ROOT
HETATM    1  C   UNL     1     -14.285  13.252  72.456  1.00  0.00    -0.139 C  
HETATM    2  O   UNL     1     -13.360  12.731  71.505  1.00  0.00    -0.308 OA 
ENDROOT
BRANCH   2   3
HETATM    3  C   UNL     1     -12.607  13.640  70.809  1.00  0.00    -0.325 A  
HETATM    4  C   UNL     1     -12.735  15.022  71.023  1.00  0.00    -0.432 A  
HETATM    5  C   UNL     1     -11.956  15.930  70.314  1.00  0.00    -0.324 A  
HETATM    6  C   UNL     1     -11.040  15.465  69.382  1.00  0.00    -0.283 A  
HETATM    7  C   UNL     1     -10.911  14.089  69.138  1.00  0.00    -0.263 A  
HETATM    8  C   UNL     1     -11.701  13.168  69.831  1.00  0.00    -0.327 A  
HETATM    9  C   UNL     1     -11.547  11.724  69.507  1.00  0.00    -0.332 C  
HETATM   10  O   UNL     1     -12.280  10.864  69.984  1.00  0.00    -0.315 OA 
HETATM   11  C   UNL     1     -10.486  11.275  68.566  1.00  0.00    -0.218 A  
HETATM   12  C   UNL     1     -10.269   9.898  68.346  1.00  0.00    -0.178 A  
HETATM   13  O   UNL     1     -10.999   8.941  69.015  1.00  0.00    -0.419 OA 
HETATM   14  C   UNL     1      -9.284   9.429  67.452  1.00  0.00    -0.145 A  
HETATM   15  H   UNL     1     -10.853   8.014  68.867  1.00  0.00     0.000 HD 
HETATM   16  C   UNL     1      -8.497  10.375  66.752  1.00  0.00    -0.125 A  
HETATM   17  C   UNL     1      -8.684  11.749  67.020  1.00  0.00    -0.181 A  
HETATM   18  C   UNL     1      -7.428   9.925  65.765  1.00  0.00    -0.110 C  
HETATM   19  C   UNL     1      -7.526   8.448  65.368  1.00  0.00    -0.085 C  
HETATM   20  C   UNL     1      -9.688  12.203  67.903  1.00  0.00    -0.200 A  
HETATM   21  O   UNL     1      -7.852  12.678  66.456  1.00  0.00    -0.371 OA 
HETATM   22  C   UNL     1      -9.083   7.924  67.277  1.00  0.00    -0.135 C  
HETATM   23  C   UNL     1      -9.927  13.655  68.127  1.00  0.00    -0.246 C  
HETATM   24  C   UNL     1      -7.724   7.621  66.642  1.00  0.00    -0.098 C  
HETATM   25  O   UNL     1      -8.590   8.272  64.431  1.00  0.00    -0.379 OA 
HETATM   26  H   UNL     1      -7.978  13.602  66.636  1.00  0.00     0.000 HD 
HETATM   27  O   UNL     1      -9.339  14.522  67.492  1.00  0.00    -0.186 OA 
HETATM   28  H   UNL     1      -8.650   7.357  64.186  1.00  0.00     0.000 HD 
BRANCH  19  29
HETATM   29  C   UNL     1      -6.228   8.008  64.670  1.00  0.00    -0.049 C  
HETATM   30  O   UNL     1      -5.139   7.988  65.254  1.00  0.00    -0.028 OA 
BRANCH  29  31
HETATM   31  C   UNL     1      -6.309   7.669  63.183  1.00  0.00    -0.059 C  
HETATM   32  O   UNL     1      -6.563   8.821  62.388  1.00  0.00    -0.096 OA 
HETATM   33  H   UNL     1      -6.613   8.609  61.463  1.00  0.00     0.000 HD 
ENDBRANCH  29  31
ENDBRANCH  19  29
BRANCH  22  34
HETATM   34  O   UNL     1     -10.163   7.425  66.470  1.00  0.00    -0.194 OA 
BRANCH  34  35
HETATM   35  C   UNL     1     -10.925   6.346  67.031  1.00  0.00    -0.389 C  
HETATM   36  C   UNL     1     -10.977   5.078  66.176  1.00  0.00    -0.015 C  
HETATM   37  C   UNL     1      -9.592   4.443  66.111  1.00  0.00    -0.190 C  
HETATM   38  C   UNL     1      -9.117   4.134  67.549  1.00  0.00    -0.140 C  
HETATM   39  N   UNL     1      -9.593   3.244  65.260  1.00  0.00    -0.298 NA 
HETATM   40  C   UNL     1      -9.168   5.423  68.391  1.00  0.00    -0.111 C  
HETATM   41  H2  UNL     1      -9.957   3.446  64.328  1.00  0.00     0.000 HD 
HETATM   42  O   UNL     1      -7.796   3.590  67.566  1.00  0.00    -0.077 OA 
HETATM   43  H1  UNL     1      -8.667   2.820  65.217  1.00  0.00     0.000 HD 
HETATM   44  C   UNL     1      -8.867   5.120  69.857  1.00  0.00    -0.127 C  
HETATM   45  H   UNL     1      -7.505   3.401  68.450  1.00  0.00     0.000 HD 
HETATM   46  O   UNL     1     -10.458   6.040  68.347  1.00  0.00    -0.188 OA 
ENDBRANCH  34  35
ENDBRANCH  22  34
ENDBRANCH   2   3
TORSDOF 5
ENDMDL
MODEL       49
REMARK 921   NORMALIZED FREE ENERGY PREDICTED BY IDOCK:   -5.77 KCAL/MOL
REMARK 922        TOTAL FREE ENERGY PREDICTED BY IDOCK:   -8.50 KCAL/MOL
REMARK 923 INTER-LIGAND FREE ENERGY PREDICTED BY IDOCK:   -9.05 KCAL/MOL
REMARK 924 INTRA-LIGAND FREE ENERGY PREDICTED BY IDOCK:    0.55 KCAL/MOL
REMARK 927      BINDING AFFINITY PREDICTED BY RF-SCORE:    0.00 PKD
ROOT
HETATM    1  C   UNL     1     -10.431  19.644  67.597  1.00  0.00    -0.446 C  
HETATM    2  O   UNL     1     -10.049  18.827  68.700  1.00  0.00    -0.381 OA 
ENDROOT
BRANCH   2   3
HETATM    3  C   UNL     1      -8.713  18.563  68.845  1.00  0.00    -0.149 A  
HETATM    4  C   UNL     1      -7.775  19.589  69.046  1.00  0.00    -0.332 A  
HETATM    5  C   UNL     1      -6.423  19.302  69.199  1.00  0.00    -0.334 A  
HETATM    6  C   UNL     1      -5.994  17.984  69.153  1.00  0.00    -0.225 A  
HETATM    7  C   UNL     1      -6.911  16.945  68.933  1.00  0.00    -0.209 A  
HETATM    8  C   UNL     1      -8.269  17.222  68.759  1.00  0.00    -0.231 A  
HETATM    9  C   UNL     1      -9.192  16.085  68.493  1.00  0.00    -0.206 C  
HETATM   10  O   UNL     1     -10.375  16.253  68.216  1.00  0.00    -0.252 OA 
HETATM   11  C   UNL     1      -8.691  14.686  68.546  1.00  0.00    -0.176 A  
HETATM   12  C   UNL     1      -9.589  13.605  68.405  1.00  0.00    -0.203 A  
HETATM   13  O   UNL     1     -10.943  13.813  68.252  1.00  0.00    -0.235 OA 
HETATM   14  C   UNL     1      -9.156  12.263  68.433  1.00  0.00    -0.146 A  
HETATM   15  H   UNL     1     -11.546  13.086  68.157  1.00  0.00     0.000 HD 
HETATM   16  C   UNL     1      -7.775  11.999  68.603  1.00  0.00    -0.099 A  
HETATM   17  C   UNL     1      -6.893  13.085  68.799  1.00  0.00    -0.102 A  
HETATM   18  C   UNL     1      -7.251  10.570  68.628  1.00  0.00    -0.087 C  
HETATM   19  C   UNL     1      -8.256   9.526  68.131  1.00  0.00    -0.114 C  
HETATM   20  C   UNL     1      -7.339  14.423  68.747  1.00  0.00    -0.131 A  
HETATM   21  O   UNL     1      -5.576  12.854  69.093  1.00  0.00    -0.069 OA 
HETATM   22  C   UNL     1     -10.182  11.139  68.299  1.00  0.00    -0.182 C  
HETATM   23  C   UNL     1      -6.393  15.564  68.883  1.00  0.00    -0.108 C  
HETATM   24  C   UNL     1      -9.608   9.809  68.791  1.00  0.00    -0.155 C  
HETATM   25  O   UNL     1      -8.324   9.569  66.704  1.00  0.00    -0.115 OA 
HETATM   26  H   UNL     1      -4.983  13.584  69.224  1.00  0.00     0.000 HD 
HETATM   27  O   UNL     1      -5.180  15.405  68.949  1.00  0.00    -0.097 OA 
HETATM   28  H   UNL     1      -8.947   8.922  66.396  1.00  0.00     0.000 HD 
BRANCH  19  29
HETATM   29  C   UNL     1      -7.781   8.116  68.521  1.00  0.00    -0.112 C  
HETATM   30  O   UNL     1      -7.618   7.778  69.699  1.00  0.00    -0.088 OA 
BRANCH  29  31
HETATM   31  C   UNL     1      -7.431   7.153  67.389  1.00  0.00    -0.100 C  
HETATM   32  O   UNL     1      -8.544   6.355  67.006  1.00  0.00    -0.111 OA 
HETATM   33  H   UNL     1      -8.326   5.756  66.302  1.00  0.00     0.000 HD 
ENDBRANCH  29  31
ENDBRANCH  19  29
BRANCH  22  34
HETATM   34  O   UNL     1     -10.576  11.063  66.918  1.00  0.00    -0.235 OA 
BRANCH  34  35
HETATM   35  C   UNL     1     -10.094  12.112  66.065  1.00  0.00    -0.235 C  
HETATM   36  C   UNL     1      -9.558  11.648  64.709  1.00  0.00    -0.156 C  
HETATM   37  C   UNL     1     -10.702  11.098  63.863  1.00  0.00    -0.337 C  
HETATM   38  C   UNL     1     -11.775  12.199  63.699  1.00  0.00    -0.498 C  
HETATM   39  N   UNL     1     -10.217  10.600  62.567  1.00  0.00    -0.752 NA 
HETATM   40  C   UNL     1     -12.216  12.692  65.089  1.00  0.00    -0.481 C  
HETATM   41  H2  UNL     1      -9.472   9.913  62.684  1.00  0.00     0.000 HD 
HETATM   42  O   UNL     1     -12.907  11.730  62.963  1.00  0.00    -0.844 OA 
HETATM   43  H1  UNL     1     -10.982  10.232  62.003  1.00  0.00     0.000 HD 
HETATM   44  C   UNL     1     -13.149  13.894  64.961  1.00  0.00    -0.042 C  
HETATM   45  H   UNL     1     -13.566  12.406  62.863  1.00  0.00     0.000 HD 
HETATM   46  O   UNL     1     -11.103  13.109  65.886  1.00  0.00    -0.277 OA 
ENDBRANCH  34  35
ENDBRANCH  22  34
ENDBRANCH   2   3
TORSDOF 5
ENDMDL
MODEL       50
REMARK 921   NORMALIZED FREE ENERGY PREDICTED BY IDOCK:   -5.67 KCAL/MOL
REMARK 922        TOTAL FREE ENERGY PREDICTED BY IDOCK:   -8.38 KCAL/MOL
REMARK 923 INTER-LIGAND FREE ENERGY PREDICTED BY IDOCK:   -9.74 KCAL/MOL
REMARK 924 INTRA-LIGAND FREE ENERGY PREDICTED BY IDOCK:    1.36 KCAL/MOL
REMARK 927      BINDING AFFINITY PREDICTED BY RF-SCORE:    0.00 PKD
ROOT
HETATM    1  C   UNL     1      -9.500  15.748  68.296  1.00  0.00    -0.200 C  
HETATM    2  O   UNL     1     -10.650  14.968  67.980  1.00  0.00    -0.243 OA 
ENDROOT
BRANCH   2   3
HETATM    3  C   UNL     1     -10.647  14.318  66.773  1.00  0.00    -0.278 A  
HETATM    4  C   UNL     1     -10.845  15.006  65.564  1.00  0.00    -0.360 A  
HETATM    5  C   UNL     1     -10.830  14.333  64.348  1.00  0.00    -0.168 A  
HETATM    6  C   UNL     1     -10.617  12.963  64.327  1.00  0.00    -0.430 A  
HETATM    7  C   UNL     1     -10.439  12.253  65.524  1.00  0.00    -0.296 A  
HETATM    8  C   UNL     1     -10.469  12.915  66.754  1.00  0.00    -0.262 A  
HETATM    9  C   UNL     1     -10.309  12.107  67.993  1.00  0.00    -0.205 C  
HETATM   10  O   UNL     1     -10.438  12.593  69.112  1.00  0.00    -0.058 OA 
HETATM   11  C   UNL     1      -9.992  10.657  67.907  1.00  0.00    -0.189 A  
HETATM   12  C   UNL     1      -9.730   9.917  69.081  1.00  0.00    -0.198 A  
HETATM   13  O   UNL     1      -9.724  10.517  70.320  1.00  0.00    -0.295 OA 
HETATM   14  C   UNL     1      -9.441   8.537  69.046  1.00  0.00    -0.150 A  
HETATM   15  H   UNL     1      -9.548  10.019  71.110  1.00  0.00     0.000 HD 
HETATM   16  C   UNL     1      -9.420   7.878  67.793  1.00  0.00    -0.165 A  
HETATM   17  C   UNL     1      -9.630   8.638  66.621  1.00  0.00    -0.221 A  
HETATM   18  C   UNL     1      -9.126   6.387  67.699  1.00  0.00    -0.114 C  
HETATM   19  C   UNL     1      -9.199   5.650  69.039  1.00  0.00    -0.122 C  
HETATM   20  C   UNL     1      -9.938  10.015  66.673  1.00  0.00    -0.274 A  
HETATM   21  O   UNL     1      -9.488   8.055  65.391  1.00  0.00    -0.362 OA 
HETATM   22  C   UNL     1      -9.142   7.799  70.351  1.00  0.00    -0.155 C  
HETATM   23  C   UNL     1     -10.227  10.794  65.439  1.00  0.00    -0.276 C  
HETATM   24  C   UNL     1      -8.433   6.471  70.081  1.00  0.00    -0.135 C  
HETATM   25  O   UNL     1     -10.566   5.447  69.401  1.00  0.00    -0.276 OA 
HETATM   26  H   UNL     1      -9.629   8.566  64.602  1.00  0.00     0.000 HD 
HETATM   27  O   UNL     1     -10.307  10.268  64.335  1.00  0.00    -0.235 OA 
HETATM   28  H   UNL     1     -10.610   4.989  70.233  1.00  0.00     0.000 HD 
BRANCH  19  29
HETATM   29  C   UNL     1      -8.552   4.261  68.907  1.00  0.00    -0.084 C  
HETATM   30  O   UNL     1      -7.683   4.015  68.063  1.00  0.00    -0.067 OA 
BRANCH  29  31
HETATM   31  C   UNL     1      -9.083   3.148  69.810  1.00  0.00    -0.131 C  
HETATM   32  O   UNL     1      -9.454   3.637  71.093  1.00  0.00    -0.138 OA 
HETATM   33  H   UNL     1      -9.784   2.945  71.654  1.00  0.00     0.000 HD 
ENDBRANCH  29  31
ENDBRANCH  19  29
BRANCH  22  34
HETATM   34  O   UNL     1     -10.388   7.599  71.040  1.00  0.00    -0.202 OA 
BRANCH  34  35
HETATM   35  C   UNL     1     -11.578   7.822  70.271  1.00  0.00    -0.034 C  
HETATM   36  C   UNL     1     -12.737   6.871  70.581  1.00  0.00    -0.010 C  
HETATM   37  C   UNL     1     -13.256   7.135  71.991  1.00  0.00    -0.112 C  
HETATM   38  C   UNL     1     -13.698   8.613  72.091  1.00  0.00    -0.415 C  
HETATM   39  N   UNL     1     -14.343   6.208  72.342  1.00  0.00    -0.547 NA 
HETATM   40  C   UNL     1     -12.525   9.524  71.684  1.00  0.00    -0.391 C  
HETATM   41  H2  UNL     1     -14.059   5.235  72.222  1.00  0.00     0.000 HD 
HETATM   42  O   UNL     1     -14.143   8.945  73.408  1.00  0.00    -1.256 OA 
HETATM   43  H1  UNL     1     -14.690   6.384  73.284  1.00  0.00     0.000 HD 
HETATM   44  C   UNL     1     -12.977  10.981  71.609  1.00  0.00    -0.561 C  
HETATM   45  H   UNL     1     -14.414   9.853  73.469  1.00  0.00     0.000 HD 
HETATM   46  O   UNL     1     -12.004   9.181  70.396  1.00  0.00    -0.120 OA 
ENDBRANCH  34  35
ENDBRANCH  22  34
ENDBRANCH   2   3
TORSDOF 5
ENDMDL
MODEL       51
REMARK 921   NORMALIZED FREE ENERGY PREDICTED BY IDOCK:   -5.66 KCAL/MOL
REMARK 922        TOTAL FREE ENERGY PREDICTED BY IDOCK:   -8.36 KCAL/MOL
REMARK 923 INTER-LIGAND FREE ENERGY PREDICTED BY IDOCK:   -7.58 KCAL/MOL
REMARK 924 INTRA-LIGAND FREE ENERGY PREDICTED BY IDOCK:   -0.78 KCAL/MOL
REMARK 927      BINDING AFFINITY PREDICTED BY RF-SCORE:    0.00 PKD
ROOT
HETATM    1  C   UNL     1      -5.125   8.834  62.939  1.00  0.00    -0.068 C  
HETATM    2  O   UNL     1      -6.546   8.723  62.955  1.00  0.00    -0.091 OA 
ENDROOT
BRANCH   2   3
HETATM    3  C   UNL     1      -7.072   7.552  63.434  1.00  0.00    -0.074 A  
HETATM    4  C   UNL     1      -6.742   6.309  62.869  1.00  0.00    -0.040 A  
HETATM    5  C   UNL     1      -7.279   5.129  63.374  1.00  0.00    -0.048 A  
HETATM    6  C   UNL     1      -8.152   5.180  64.450  1.00  0.00    -0.121 A  
HETATM    7  C   UNL     1      -8.512   6.413  65.015  1.00  0.00    -0.032 A  
HETATM    8  C   UNL     1      -7.994   7.606  64.506  1.00  0.00    -0.130 A  
HETATM    9  C   UNL     1      -8.436   8.886  65.122  1.00  0.00    -0.173 C  
HETATM   10  O   UNL     1      -8.119   9.979  64.661  1.00  0.00    -0.143 OA 
HETATM   11  C   UNL     1      -9.302   8.877  66.331  1.00  0.00    -0.262 A  
HETATM   12  C   UNL     1      -9.629  10.088  66.979  1.00  0.00    -0.172 A  
HETATM   13  O   UNL     1      -9.132  11.294  66.538  1.00  0.00    -0.172 OA 
HETATM   14  C   UNL     1     -10.459  10.126  68.119  1.00  0.00    -0.243 A  
HETATM   15  H   UNL     1      -9.352  12.109  66.975  1.00  0.00     0.000 HD 
HETATM   16  C   UNL     1     -10.982   8.909  68.619  1.00  0.00     0.066 A  
HETATM   17  C   UNL     1     -10.605   7.698  67.996  1.00  0.00    -0.151 A  
HETATM   18  C   UNL     1     -11.894   8.893  69.838  1.00  0.00     0.450 C  
HETATM   19  C   UNL     1     -12.437  10.271  70.231  1.00  0.00    -0.167 C  
HETATM   20  C   UNL     1      -9.790   7.678  66.844  1.00  0.00    -0.304 A  
HETATM   21  O   UNL     1     -10.991   6.501  68.535  1.00  0.00    -0.315 OA 
HETATM   22  C   UNL     1     -10.755  11.467  68.788  1.00  0.00    -0.211 C  
HETATM   23  C   UNL     1      -9.454   6.405  66.151  1.00  0.00    -0.037 C  
HETATM   24  C   UNL     1     -11.275  11.268  70.214  1.00  0.00    -0.049 C  
HETATM   25  O   UNL     1     -13.490  10.643  69.340  1.00  0.00     0.014 OA 
HETATM   26  H   UNL     1     -10.737   5.687  68.117  1.00  0.00     0.000 HD 
HETATM   27  O   UNL     1      -9.940   5.330  66.483  1.00  0.00    -0.165 OA 
HETATM   28  H   UNL     1     -13.826  11.497  69.584  1.00  0.00     0.000 HD 
BRANCH  19  29
HETATM   29  C   UNL     1     -13.038  10.211  71.645  1.00  0.00    -0.447 C  
HETATM   30  O   UNL     1     -12.931  11.145  72.447  1.00  0.00    -0.108 OA 
BRANCH  29  31
HETATM   31  C   UNL     1     -13.713   8.908  72.069  1.00  0.00    -0.459 C  
HETATM   32  O   UNL     1     -14.127   8.942  73.430  1.00  0.00    -1.256 OA 
HETATM   33  H   UNL     1     -14.547   8.131  73.693  1.00  0.00     0.000 HD 
ENDBRANCH  29  31
ENDBRANCH  19  29
BRANCH  22  34
HETATM   34  O   UNL     1     -11.712  12.166  67.973  1.00  0.00    -0.331 OA 
BRANCH  34  35
HETATM   35  C   UNL     1     -11.854  13.571  68.229  1.00  0.00    -0.366 C  
HETATM   36  C   UNL     1     -10.589  14.267  68.737  1.00  0.00    -0.255 C  
HETATM   37  C   UNL     1      -9.534  14.285  67.635  1.00  0.00    -0.211 C  
HETATM   38  C   UNL     1     -10.117  15.006  66.399  1.00  0.00    -0.276 C  
HETATM   39  N   UNL     1      -8.286  14.908  68.102  1.00  0.00    -0.139 NA 
HETATM   40  C   UNL     1     -11.432  14.322  65.983  1.00  0.00    -0.347 C  
HETATM   41  H2  UNL     1      -7.937  14.460  68.948  1.00  0.00     0.000 HD 
HETATM   42  O   UNL     1      -9.198  15.008  65.304  1.00  0.00    -0.232 OA 
HETATM   43  H1  UNL     1      -7.581  14.920  67.365  1.00  0.00     0.000 HD 
HETATM   44  C   UNL     1     -12.120  15.111  64.871  1.00  0.00    -0.127 C  
HETATM   45  H   UNL     1      -9.557  15.450  64.544  1.00  0.00     0.000 HD 
HETATM   46  O   UNL     1     -12.359  14.239  67.071  1.00  0.00    -0.386 OA 
ENDBRANCH  34  35
ENDBRANCH  22  34
ENDBRANCH   2   3
TORSDOF 5
ENDMDL
MODEL       52
REMARK 921   NORMALIZED FREE ENERGY PREDICTED BY IDOCK:   -5.65 KCAL/MOL
REMARK 922        TOTAL FREE ENERGY PREDICTED BY IDOCK:   -8.35 KCAL/MOL
REMARK 923 INTER-LIGAND FREE ENERGY PREDICTED BY IDOCK:   -7.01 KCAL/MOL
REMARK 924 INTRA-LIGAND FREE ENERGY PREDICTED BY IDOCK:   -1.34 KCAL/MOL
REMARK 927      BINDING AFFINITY PREDICTED BY RF-SCORE:    0.00 PKD
ROOT
HETATM    1  C   UNL     1     -12.128   1.935  73.486  1.00  0.00    -0.039 C  
HETATM    2  O   UNL     1     -11.474   3.200  73.467  1.00  0.00    -0.209 OA 
ENDROOT
BRANCH   2   3
HETATM    3  C   UNL     1     -10.109   3.193  73.353  1.00  0.00    -0.118 A  
HETATM    4  C   UNL     1      -9.319   2.236  74.012  1.00  0.00    -0.090 A  
HETATM    5  C   UNL     1      -7.935   2.237  73.879  1.00  0.00    -0.054 A  
HETATM    6  C   UNL     1      -7.325   3.196  73.085  1.00  0.00    -0.046 A  
HETATM    7  C   UNL     1      -8.093   4.174  72.435  1.00  0.00    -0.095 A  
HETATM    8  C   UNL     1      -9.483   4.194  72.575  1.00  0.00    -0.175 A  
HETATM    9  C   UNL     1     -10.244   5.275  71.891  1.00  0.00    -0.207 C  
HETATM   10  O   UNL     1     -11.450   5.432  72.056  1.00  0.00    -0.128 OA 
HETATM   11  C   UNL     1      -9.548   6.221  70.979  1.00  0.00    -0.191 A  
HETATM   12  C   UNL     1     -10.288   7.173  70.245  1.00  0.00    -0.201 A  
HETATM   13  O   UNL     1     -11.662   7.229  70.324  1.00  0.00    -0.478 OA 
HETATM   14  C   UNL     1      -9.667   8.099  69.381  1.00  0.00    -0.170 A  
HETATM   15  H   UNL     1     -12.160   7.870  69.830  1.00  0.00     0.000 HD 
HETATM   16  C   UNL     1      -8.257   8.070  69.254  1.00  0.00    -0.127 A  
HETATM   17  C   UNL     1      -7.531   7.078  69.950  1.00  0.00    -0.090 A  
HETATM   18  C   UNL     1      -7.534   9.055  68.346  1.00  0.00    -0.082 C  
HETATM   19  C   UNL     1      -8.400  10.231  67.884  1.00  0.00    -0.114 C  
HETATM   20  C   UNL     1      -8.165   6.171  70.828  1.00  0.00    -0.125 A  
HETATM   21  O   UNL     1      -6.184   6.945  69.747  1.00  0.00    -0.032 OA 
HETATM   22  C   UNL     1     -10.528   9.088  68.596  1.00  0.00    -0.200 C  
HETATM   23  C   UNL     1      -7.386   5.175  71.611  1.00  0.00    -0.083 C  
HETATM   24  C   UNL     1      -9.750   9.680  67.418  1.00  0.00    -0.198 C  
HETATM   25  O   UNL     1      -8.532  11.175  68.948  1.00  0.00    -0.231 OA 
HETATM   26  H   UNL     1      -5.696   6.278  70.215  1.00  0.00     0.000 HD 
HETATM   27  O   UNL     1      -6.161   5.153  71.611  1.00  0.00    -0.027 OA 
HETATM   28  H   UNL     1      -9.069  11.905  68.661  1.00  0.00     0.000 HD 
BRANCH  19  29
HETATM   29  C   UNL     1      -7.714  10.957  66.714  1.00  0.00    -0.141 C  
HETATM   30  O   UNL     1      -7.618  10.452  65.590  1.00  0.00    -0.144 OA 
BRANCH  29  31
HETATM   31  C   UNL     1      -7.068  12.310  67.007  1.00  0.00    -0.037 C  
HETATM   32  O   UNL     1      -8.000  13.379  66.896  1.00  0.00    -0.397 OA 
HETATM   33  H   UNL     1      -7.598  14.220  67.079  1.00  0.00     0.000 HD 
ENDBRANCH  29  31
ENDBRANCH  19  29
BRANCH  22  34
HETATM   34  O   UNL     1     -10.963  10.113  69.507  1.00  0.00    -0.228 OA 
BRANCH  34  35
HETATM   35  C   UNL     1     -12.277  10.642  69.281  1.00  0.00    -0.037 C  
HETATM   36  C   UNL     1     -13.076  10.953  70.549  1.00  0.00    -0.090 C  
HETATM   37  C   UNL     1     -12.427  12.115  71.295  1.00  0.00    -0.185 C  
HETATM   38  C   UNL     1     -12.365  13.339  70.353  1.00  0.00    -0.295 C  
HETATM   39  N   UNL     1     -13.142  12.414  72.544  1.00  0.00    -0.323 NA 
HETATM   40  C   UNL     1     -11.630  12.949  69.057  1.00  0.00    -0.322 C  
HETATM   41  H2  UNL     1     -13.224  11.587  73.136  1.00  0.00     0.000 HD 
HETATM   42  O   UNL     1     -11.712  14.450  70.970  1.00  0.00    -0.436 OA 
HETATM   43  H1  UNL     1     -12.708  13.190  73.042  1.00  0.00     0.000 HD 
HETATM   44  C   UNL     1     -11.699  14.084  68.038  1.00  0.00    -0.394 C  
HETATM   45  H   UNL     1     -11.674  15.203  70.392  1.00  0.00     0.000 HD 
HETATM   46  O   UNL     1     -12.211  11.796  68.440  1.00  0.00    -0.467 OA 
ENDBRANCH  34  35
ENDBRANCH  22  34
ENDBRANCH   2   3
TORSDOF 5
ENDMDL
MODEL       53
REMARK 921   NORMALIZED FREE ENERGY PREDICTED BY IDOCK:   -5.64 KCAL/MOL
REMARK 922        TOTAL FREE ENERGY PREDICTED BY IDOCK:   -8.33 KCAL/MOL
REMARK 923 INTER-LIGAND FREE ENERGY PREDICTED BY IDOCK:   -8.35 KCAL/MOL
REMARK 924 INTRA-LIGAND FREE ENERGY PREDICTED BY IDOCK:    0.02 KCAL/MOL
REMARK 927      BINDING AFFINITY PREDICTED BY RF-SCORE:    0.00 PKD
ROOT
HETATM    1  C   UNL     1      -6.214   2.100  69.593  1.00  0.00    -0.025 C  
HETATM    2  O   UNL     1      -7.379   2.916  69.508  1.00  0.00    -0.044 OA 
ENDROOT
BRANCH   2   3
HETATM    3  C   UNL     1      -8.244   2.877  70.570  1.00  0.00    -0.045 A  
HETATM    4  C   UNL     1      -8.355   1.742  71.391  1.00  0.00    -0.060 A  
HETATM    5  C   UNL     1      -9.231   1.724  72.471  1.00  0.00    -0.111 A  
HETATM    6  C   UNL     1     -10.006   2.841  72.742  1.00  0.00    -0.212 A  
HETATM    7  C   UNL     1      -9.926   3.978  71.923  1.00  0.00    -0.246 A  
HETATM    8  C   UNL     1      -9.063   4.002  70.824  1.00  0.00    -0.177 A  
HETATM    9  C   UNL     1      -9.044   5.220  69.970  1.00  0.00    -0.128 C  
HETATM   10  O   UNL     1      -8.403   5.277  68.925  1.00  0.00    -0.092 OA 
HETATM   11  C   UNL     1      -9.828   6.422  70.360  1.00  0.00    -0.193 A  
HETATM   12  C   UNL     1      -9.721   7.613  69.610  1.00  0.00    -0.171 A  
HETATM   13  O   UNL     1      -8.872   7.707  68.530  1.00  0.00    -0.131 OA 
HETATM   14  C   UNL     1     -10.458   8.772  69.936  1.00  0.00    -0.227 A  
HETATM   15  H   UNL     1      -8.801   8.509  68.025  1.00  0.00     0.000 HD 
HETATM   16  C   UNL     1     -11.333   8.729  71.048  1.00  0.00    -0.332 A  
HETATM   17  C   UNL     1     -11.391   7.551  71.824  1.00  0.00    -0.254 A  
HETATM   18  C   UNL     1     -12.162   9.946  71.437  1.00  0.00    -0.499 C  
HETATM   19  C   UNL     1     -12.213  11.037  70.362  1.00  0.00    -0.373 C  
HETATM   20  C   UNL     1     -10.663   6.393  71.473  1.00  0.00    -0.282 A  
HETATM   21  O   UNL     1     -12.129   7.524  72.977  1.00  0.00    -0.524 OA 
HETATM   22  C   UNL     1     -10.278  10.036  69.097  1.00  0.00    -0.210 C  
HETATM   23  C   UNL     1     -10.783   5.133  72.255  1.00  0.00    -0.203 C  
HETATM   24  C   UNL     1     -10.790  11.269  69.846  1.00  0.00     0.004 C  
HETATM   25  O   UNL     1     -13.114  10.646  69.325  1.00  0.00    -0.425 OA 
HETATM   26  H   UNL     1     -12.169   6.732  73.499  1.00  0.00     0.000 HD 
HETATM   27  O   UNL     1     -11.583   5.005  73.175  1.00  0.00    -0.328 OA 
HETATM   28  H   UNL     1     -13.145  11.322  68.659  1.00  0.00     0.000 HD 
BRANCH  19  29
HETATM   29  C   UNL     1     -12.756  12.342  70.968  1.00  0.00    -0.225 C  
HETATM   30  O   UNL     1     -13.579  12.349  71.890  1.00  0.00    -0.342 OA 
BRANCH  29  31
HETATM   31  C   UNL     1     -12.304  13.655  70.332  1.00  0.00    -0.345 C  
HETATM   32  O   UNL     1     -11.603  14.480  71.255  1.00  0.00    -0.492 OA 
HETATM   33  H   UNL     1     -11.322  15.296  70.858  1.00  0.00     0.000 HD 
ENDBRANCH  29  31
ENDBRANCH  19  29
BRANCH  22  34
HETATM   34  O   UNL     1     -10.980   9.846  67.856  1.00  0.00    -0.272 OA 
BRANCH  34  35
HETATM   35  C   UNL     1     -10.652  10.759  66.799  1.00  0.00    -0.250 C  
HETATM   36  C   UNL     1      -9.589  11.803  67.151  1.00  0.00    -0.189 C  
HETATM   37  C   UNL     1      -8.243  11.117  67.362  1.00  0.00    -0.132 C  
HETATM   38  C   UNL     1      -7.870  10.345  66.076  1.00  0.00    -0.142 C  
HETATM   39  N   UNL     1      -7.206  12.085  67.747  1.00  0.00    -0.099 NA 
HETATM   40  C   UNL     1      -9.009   9.374  65.716  1.00  0.00    -0.186 C  
HETATM   41  H2  UNL     1      -7.483  12.626  68.566  1.00  0.00     0.000 HD 
HETATM   42  O   UNL     1      -6.644   9.628  66.225  1.00  0.00    -0.069 OA 
HETATM   43  H1  UNL     1      -6.306  11.626  67.888  1.00  0.00     0.000 HD 
HETATM   44  C   UNL     1      -8.749   8.719  64.361  1.00  0.00    -0.053 C  
HETATM   45  H   UNL     1      -6.415   9.154  65.434  1.00  0.00     0.000 HD 
HETATM   46  O   UNL     1     -10.272  10.041  65.623  1.00  0.00    -0.267 OA 
ENDBRANCH  34  35
ENDBRANCH  22  34
ENDBRANCH   2   3
TORSDOF 5
ENDMDL
MODEL       54
REMARK 921   NORMALIZED FREE ENERGY PREDICTED BY IDOCK:   -5.64 KCAL/MOL
REMARK 922        TOTAL FREE ENERGY PREDICTED BY IDOCK:   -8.33 KCAL/MOL
REMARK 923 INTER-LIGAND FREE ENERGY PREDICTED BY IDOCK:   -7.05 KCAL/MOL
REMARK 924 INTRA-LIGAND FREE ENERGY PREDICTED BY IDOCK:   -1.29 KCAL/MOL
REMARK 927      BINDING AFFINITY PREDICTED BY RF-SCORE:    0.00 PKD
ROOT
HETATM    1  C   UNL     1     -10.782  19.837  65.712  1.00  0.00    -0.370 C  
HETATM    2  O   UNL     1      -9.924  18.701  65.766  1.00  0.00    -0.504 OA 
ENDROOT
BRANCH   2   3
HETATM    3  C   UNL     1      -8.742  18.846  66.444  1.00  0.00    -0.303 A  
HETATM    4  C   UNL     1      -8.099  20.091  66.547  1.00  0.00    -0.346 A  
HETATM    5  C   UNL     1      -6.904  20.222  67.247  1.00  0.00    -0.287 A  
HETATM    6  C   UNL     1      -6.339  19.109  67.851  1.00  0.00    -0.230 A  
HETATM    7  C   UNL     1      -6.954  17.853  67.742  1.00  0.00    -0.202 A  
HETATM    8  C   UNL     1      -8.145  17.704  67.027  1.00  0.00    -0.243 A  
HETATM    9  C   UNL     1      -8.735  16.342  66.915  1.00  0.00    -0.204 C  
HETATM   10  O   UNL     1      -9.712  16.108  66.212  1.00  0.00    -0.266 OA 
HETATM   11  C   UNL     1      -8.136  15.203  67.660  1.00  0.00    -0.177 A  
HETATM   12  C   UNL     1      -8.761  13.937  67.642  1.00  0.00    -0.187 A  
HETATM   13  O   UNL     1      -9.948  13.732  66.973  1.00  0.00    -0.242 OA 
HETATM   14  C   UNL     1      -8.220  12.825  68.320  1.00  0.00    -0.159 A  
HETATM   15  H   UNL     1     -10.368  12.880  66.961  1.00  0.00     0.000 HD 
HETATM   16  C   UNL     1      -7.008  12.990  69.035  1.00  0.00    -0.056 A  
HETATM   17  C   UNL     1      -6.420  14.273  69.092  1.00  0.00    -0.109 A  
HETATM   18  C   UNL     1      -6.373  11.821  69.775  1.00  0.00    -0.125 C  
HETATM   19  C   UNL     1      -6.953  10.454  69.400  1.00  0.00    -0.091 C  
HETATM   20  C   UNL     1      -6.963  15.371  68.391  1.00  0.00    -0.111 A  
HETATM   21  O   UNL     1      -5.322  14.490  69.880  1.00  0.00    -0.093 OA 
HETATM   22  C   UNL     1      -8.958  11.488  68.282  1.00  0.00    -0.177 C  
HETATM   23  C   UNL     1      -6.300  16.703  68.397  1.00  0.00    -0.133 C  
HETATM   24  C   UNL     1      -8.480  10.563  69.403  1.00  0.00    -0.106 C  
HETATM   25  O   UNL     1      -6.437  10.045  68.132  1.00  0.00    -0.054 OA 
HETATM   26  H   UNL     1      -4.926  15.352  69.918  1.00  0.00     0.000 HD 
HETATM   27  O   UNL     1      -5.210  16.890  68.926  1.00  0.00    -0.128 OA 
HETATM   28  H   UNL     1      -6.797   9.198  67.900  1.00  0.00     0.000 HD 
BRANCH  19  29
HETATM   29  C   UNL     1      -6.514   9.399  70.430  1.00  0.00    -0.071 C  
HETATM   30  O   UNL     1      -6.923   9.407  71.597  1.00  0.00    -0.316 OA 
BRANCH  29  31
HETATM   31  C   UNL     1      -5.475   8.371  69.987  1.00  0.00    -0.022 C  
HETATM   32  O   UNL     1      -6.045   7.359  69.165  1.00  0.00    -0.029 OA 
HETATM   33  H   UNL     1      -5.399   6.720  68.889  1.00  0.00     0.000 HD 
ENDBRANCH  29  31
ENDBRANCH  19  29
BRANCH  22  34
HETATM   34  O   UNL     1      -8.740  10.901  66.987  1.00  0.00    -0.138 OA 
BRANCH  34  35
HETATM   35  C   UNL     1      -9.849  10.186  66.423  1.00  0.00    -0.222 C  
HETATM   36  C   UNL     1      -9.765   9.949  64.913  1.00  0.00    -0.332 C  
HETATM   37  C   UNL     1      -8.621   8.988  64.605  1.00  0.00    -0.165 C  
HETATM   38  C   UNL     1      -8.860   7.666  65.370  1.00  0.00     0.074 C  
HETATM   39  N   UNL     1      -8.482   8.771  63.157  1.00  0.00    -0.344 NA 
HETATM   40  C   UNL     1      -9.025   7.969  66.871  1.00  0.00    -0.138 C  
HETATM   41  H2  UNL     1      -8.377   9.653  62.654  1.00  0.00     0.000 HD 
HETATM   42  O   UNL     1      -7.792   6.739  65.173  1.00  0.00    -0.105 OA 
HETATM   43  H1  UNL     1      -7.717   8.129  62.952  1.00  0.00     0.000 HD 
HETATM   44  C   UNL     1      -9.430   6.709  67.633  1.00  0.00    -0.129 C  
HETATM   45  H   UNL     1      -7.938   5.927  65.644  1.00  0.00     0.000 HD 
HETATM   46  O   UNL     1     -10.043   8.947  67.110  1.00  0.00    -0.205 OA 
ENDBRANCH  34  35
ENDBRANCH  22  34
ENDBRANCH   2   3
TORSDOF 5
ENDMDL
MODEL       55
REMARK 921   NORMALIZED FREE ENERGY PREDICTED BY IDOCK:   -5.33 KCAL/MOL
REMARK 922        TOTAL FREE ENERGY PREDICTED BY IDOCK:   -7.94 KCAL/MOL
REMARK 923 INTER-LIGAND FREE ENERGY PREDICTED BY IDOCK:   -7.90 KCAL/MOL
REMARK 924 INTRA-LIGAND FREE ENERGY PREDICTED BY IDOCK:   -0.03 KCAL/MOL
REMARK 927      BINDING AFFINITY PREDICTED BY RF-SCORE:    0.00 PKD
ROOT
HETATM    1  C   UNL     1      -6.772   8.460  70.249  1.00  0.00    -0.036 C  
HETATM    2  O   UNL     1      -7.081   8.780  68.896  1.00  0.00    -0.064 OA 
ENDROOT
BRANCH   2   3
HETATM    3  C   UNL     1      -8.408   8.854  68.562  1.00  0.00    -0.125 A  
HETATM    4  C   UNL     1      -9.209   7.704  68.464  1.00  0.00    -0.143 A  
HETATM    5  C   UNL     1     -10.556   7.798  68.133  1.00  0.00    -0.182 A  
HETATM    6  C   UNL     1     -11.118   9.043  67.895  1.00  0.00     0.164 A  
HETATM    7  C   UNL     1     -10.331  10.203  67.967  1.00  0.00    -0.227 A  
HETATM    8  C   UNL     1      -8.972  10.121  68.281  1.00  0.00    -0.120 A  
HETATM    9  C   UNL     1      -8.178  11.379  68.309  1.00  0.00    -0.150 C  
HETATM   10  O   UNL     1      -6.960  11.381  68.462  1.00  0.00    -0.070 OA 
HETATM   11  C   UNL     1      -8.850  12.694  68.137  1.00  0.00    -0.194 A  
HETATM   12  C   UNL     1      -8.114  13.891  68.275  1.00  0.00    -0.150 A  
HETATM   13  O   UNL     1      -6.777  13.876  68.605  1.00  0.00    -0.085 OA 
HETATM   14  C   UNL     1      -8.708  15.159  68.105  1.00  0.00    -0.167 A  
HETATM   15  H   UNL     1      -6.282  14.682  68.698  1.00  0.00     0.000 HD 
HETATM   16  C   UNL     1     -10.085  15.225  67.780  1.00  0.00    -0.230 A  
HETATM   17  C   UNL     1     -10.824  14.024  67.698  1.00  0.00    -0.262 A  
HETATM   18  C   UNL     1     -10.775  16.567  67.572  1.00  0.00    -0.283 C  
HETATM   19  C   UNL     1      -9.811  17.747  67.414  1.00  0.00    -0.311 C  
HETATM   20  C   UNL     1     -10.211  12.762  67.851  1.00  0.00    -0.229 A  
HETATM   21  O   UNL     1     -12.180  14.065  67.513  1.00  0.00    -0.505 OA 
HETATM   22  C   UNL     1      -7.861  16.416  68.292  1.00  0.00    -0.168 C  
HETATM   23  C   UNL     1     -10.981  11.499  67.693  1.00  0.00    -0.242 C  
HETATM   24  C   UNL     1      -8.745  17.647  68.509  1.00  0.00    -0.285 C  
HETATM   25  O   UNL     1      -9.249  17.734  66.101  1.00  0.00    -0.457 OA 
HETATM   26  H   UNL     1     -12.678  13.258  67.458  1.00  0.00     0.000 HD 
HETATM   27  O   UNL     1     -12.152  11.486  67.332  1.00  0.00    -0.593 OA 
HETATM   28  H   UNL     1      -8.651  18.466  66.003  1.00  0.00     0.000 HD 
BRANCH  19  29
HETATM   29  C   UNL     1     -10.578  19.071  67.567  1.00  0.00    -0.461 C  
HETATM   30  O   UNL     1     -10.895  19.526  68.672  1.00  0.00     0.106 OA 
BRANCH  29  31
HETATM   31  C   UNL     1     -11.018  19.782  66.288  1.00  0.00    -0.141 C  
HETATM   32  O   UNL     1      -9.920  20.375  65.605  1.00  0.00    -0.588 OA 
HETATM   33  H   UNL     1     -10.194  20.816  64.810  1.00  0.00     0.000 HD 
ENDBRANCH  29  31
ENDBRANCH  19  29
BRANCH  22  34
HETATM   34  O   UNL     1      -7.029  16.566  67.129  1.00  0.00    -0.156 OA 
BRANCH  34  35
HETATM   35  C   UNL     1      -5.644  16.849  67.375  1.00  0.00    -0.154 C  
HETATM   36  C   UNL     1      -5.152  18.192  66.830  1.00  0.00    -0.152 C  
HETATM   37  C   UNL     1      -5.816  19.333  67.594  1.00  0.00    -0.192 C  
HETATM   38  C   UNL     1      -5.490  19.181  69.098  1.00  0.00    -0.200 C  
HETATM   39  N   UNL     1      -5.400  20.641  67.068  1.00  0.00    -0.170 NA 
HETATM   40  C   UNL     1      -5.924  17.783  69.575  1.00  0.00    -0.245 C  
HETATM   41  H2  UNL     1      -5.570  20.713  66.064  1.00  0.00     0.000 HD 
HETATM   42  O   UNL     1      -6.131  20.188  69.883  1.00  0.00    -0.321 OA 
HETATM   43  H1  UNL     1      -5.844  21.403  67.579  1.00  0.00     0.000 HD 
HETATM   44  C   UNL     1      -5.464  17.539  71.011  1.00  0.00     0.003 C  
HETATM   45  H   UNL     1      -5.931  20.094  70.807  1.00  0.00     0.000 HD 
HETATM   46  O   UNL     1      -5.356  16.744  68.771  1.00  0.00    -0.121 OA 
ENDBRANCH  34  35
ENDBRANCH  22  34
ENDBRANCH   2   3
TORSDOF 5
ENDMDL
MODEL       56
REMARK 921   NORMALIZED FREE ENERGY PREDICTED BY IDOCK:   -5.31 KCAL/MOL
REMARK 922        TOTAL FREE ENERGY PREDICTED BY IDOCK:   -7.91 KCAL/MOL
REMARK 923 INTER-LIGAND FREE ENERGY PREDICTED BY IDOCK:   -7.40 KCAL/MOL
REMARK 924 INTRA-LIGAND FREE ENERGY PREDICTED BY IDOCK:   -0.51 KCAL/MOL
REMARK 927      BINDING AFFINITY PREDICTED BY RF-SCORE:    0.00 PKD
ROOT
HETATM    1  C   UNL     1      -9.335   3.358  69.912  1.00  0.00    -0.168 C  
HETATM    2  O   UNL     1      -9.745   4.514  70.636  1.00  0.00    -0.179 OA 
ENDROOT
BRANCH   2   3
HETATM    3  C   UNL     1      -8.834   5.059  71.503  1.00  0.00    -0.132 A  
HETATM    4  C   UNL     1      -8.346   4.342  72.608  1.00  0.00    -0.101 A  
HETATM    5  C   UNL     1      -7.415   4.908  73.472  1.00  0.00    -0.087 A  
HETATM    6  C   UNL     1      -6.961   6.197  73.240  1.00  0.00    -0.080 A  
HETATM    7  C   UNL     1      -7.452   6.939  72.155  1.00  0.00    -0.091 A  
HETATM    8  C   UNL     1      -8.401   6.389  71.290  1.00  0.00    -0.123 A  
HETATM    9  C   UNL     1      -8.912   7.232  70.176  1.00  0.00    -0.148 C  
HETATM   10  O   UNL     1      -9.826   6.867  69.444  1.00  0.00    -0.157 OA 
HETATM   11  C   UNL     1      -8.323   8.574  69.921  1.00  0.00    -0.123 A  
HETATM   12  C   UNL     1      -8.731   9.325  68.797  1.00  0.00    -0.132 A  
HETATM   13  O   UNL     1      -9.647   8.829  67.896  1.00  0.00    -0.140 OA 
HETATM   14  C   UNL     1      -8.211  10.608  68.525  1.00  0.00    -0.128 A  
HETATM   15  H   UNL     1      -9.921   9.335  67.140  1.00  0.00     0.000 HD 
HETATM   16  C   UNL     1      -7.255  11.155  69.415  1.00  0.00    -0.091 A  
HETATM   17  C   UNL     1      -6.813  10.373  70.506  1.00  0.00     0.031 A  
HETATM   18  C   UNL     1      -6.670  12.541  69.178  1.00  0.00    -0.089 C  
HETATM   19  C   UNL     1      -7.432  13.372  68.142  1.00  0.00    -0.133 C  
HETATM   20  C   UNL     1      -7.359   9.099  70.775  1.00  0.00    -0.120 A  
HETATM   21  O   UNL     1      -5.798  10.823  71.306  1.00  0.00    -0.335 OA 
HETATM   22  C   UNL     1      -8.675  11.359  67.279  1.00  0.00    -0.148 C  
HETATM   23  C   UNL     1      -6.940   8.311  71.966  1.00  0.00    -0.087 C  
HETATM   24  C   UNL     1      -7.704  12.487  66.922  1.00  0.00     0.050 C  
HETATM   25  O   UNL     1      -8.632  13.883  68.725  1.00  0.00    -0.314 OA 
HETATM   26  H   UNL     1      -5.501  10.298  72.040  1.00  0.00     0.000 HD 
HETATM   27  O   UNL     1      -6.182   8.760  72.817  1.00  0.00    -0.126 OA 
HETATM   28  H   UNL     1      -9.104  14.398  68.082  1.00  0.00     0.000 HD 
BRANCH  19  29
HETATM   29  C   UNL     1      -6.583  14.582  67.715  1.00  0.00    -0.172 C  
HETATM   30  O   UNL     1      -5.365  14.498  67.523  1.00  0.00    -0.339 OA 
BRANCH  29  31
HETATM   31  C   UNL     1      -7.286  15.935  67.615  1.00  0.00    -0.159 C  
HETATM   32  O   UNL     1      -8.215  15.972  66.538  1.00  0.00    -0.272 OA 
HETATM   33  H   UNL     1      -8.651  16.814  66.477  1.00  0.00     0.000 HD 
ENDBRANCH  29  31
ENDBRANCH  19  29
BRANCH  22  34
HETATM   34  O   UNL     1      -9.997  11.866  67.536  1.00  0.00    -0.185 OA 
BRANCH  34  35
HETATM   35  C   UNL     1     -11.044  11.352  66.700  1.00  0.00    -0.271 C  
HETATM   36  C   UNL     1     -11.850  12.412  65.947  1.00  0.00    -0.467 C  
HETATM   37  C   UNL     1     -10.964  13.090  64.906  1.00  0.00    -0.307 C  
HETATM   38  C   UNL     1     -10.412  12.013  63.945  1.00  0.00    -0.402 C  
HETATM   39  N   UNL     1     -11.694  14.147  64.192  1.00  0.00    -0.624 NA 
HETATM   40  C   UNL     1      -9.687  10.926  64.759  1.00  0.00    -0.271 C  
HETATM   41  H2  UNL     1     -12.100  14.825  64.837  1.00  0.00     0.000 HD 
HETATM   42  O   UNL     1      -9.523  12.573  62.976  1.00  0.00    -0.320 OA 
HETATM   43  H1  UNL     1     -11.102  14.600  63.497  1.00  0.00     0.000 HD 
HETATM   44  C   UNL     1      -9.276   9.763  63.858  1.00  0.00    -0.248 C  
HETATM   45  H   UNL     1      -9.183  11.912  62.385  1.00  0.00     0.000 HD 
HETATM   46  O   UNL     1     -10.521  10.383  65.788  1.00  0.00    -0.210 OA 
ENDBRANCH  34  35
ENDBRANCH  22  34
ENDBRANCH   2   3
TORSDOF 5
ENDMDL
MODEL       57
REMARK 921   NORMALIZED FREE ENERGY PREDICTED BY IDOCK:   -5.26 KCAL/MOL
REMARK 922        TOTAL FREE ENERGY PREDICTED BY IDOCK:   -7.85 KCAL/MOL
REMARK 923 INTER-LIGAND FREE ENERGY PREDICTED BY IDOCK:   -6.49 KCAL/MOL
REMARK 924 INTRA-LIGAND FREE ENERGY PREDICTED BY IDOCK:   -1.36 KCAL/MOL
REMARK 927      BINDING AFFINITY PREDICTED BY RF-SCORE:    0.00 PKD
ROOT
HETATM    1  C   UNL     1     -10.953   4.186  64.897  1.00  0.00     0.007 C  
HETATM    2  O   UNL     1     -10.524   4.426  66.234  1.00  0.00    -0.205 OA 
ENDROOT
BRANCH   2   3
HETATM    3  C   UNL     1      -9.172   4.457  66.456  1.00  0.00    -0.142 A  
HETATM    4  C   UNL     1      -8.391   3.290  66.421  1.00  0.00    -0.099 A  
HETATM    5  C   UNL     1      -7.019   3.341  66.640  1.00  0.00    -0.054 A  
HETATM    6  C   UNL     1      -6.412   4.562  66.895  1.00  0.00    -0.041 A  
HETATM    7  C   UNL     1      -7.176   5.737  66.955  1.00  0.00    -0.075 A  
HETATM    8  C   UNL     1      -8.558   5.696  66.756  1.00  0.00    -0.111 A  
HETATM    9  C   UNL     1      -9.324   6.967  66.865  1.00  0.00    -0.153 C  
HETATM   10  O   UNL     1     -10.549   7.000  66.818  1.00  0.00    -0.281 OA 
HETATM   11  C   UNL     1      -8.610   8.259  67.050  1.00  0.00    -0.124 A  
HETATM   12  C   UNL     1      -9.328   9.474  67.041  1.00  0.00    -0.148 A  
HETATM   13  O   UNL     1     -10.689   9.502  66.828  1.00  0.00    -0.174 OA 
HETATM   14  C   UNL     1      -8.694  10.720  67.228  1.00  0.00    -0.130 A  
HETATM   15  H   UNL     1     -11.172  10.320  66.822  1.00  0.00     0.000 HD 
HETATM   16  C   UNL     1      -7.294  10.744  67.437  1.00  0.00    -0.094 A  
HETATM   17  C   UNL     1      -6.577   9.528  67.389  1.00  0.00    -0.070 A  
HETATM   18  C   UNL     1      -6.559  12.060  67.657  1.00  0.00    -0.107 C  
HETATM   19  C   UNL     1      -7.479  13.246  67.962  1.00  0.00    -0.138 C  
HETATM   20  C   UNL     1      -7.229   8.287  67.221  1.00  0.00    -0.084 A  
HETATM   21  O   UNL     1      -5.210   9.535  67.458  1.00  0.00    -0.036 OA 
HETATM   22  C   UNL     1      -9.526  12.001  67.184  1.00  0.00    -0.187 C  
HETATM   23  C   UNL     1      -6.476   7.004  67.242  1.00  0.00    -0.053 C  
HETATM   24  C   UNL     1      -8.637  13.226  66.959  1.00  0.00    -0.169 C  
HETATM   25  O   UNL     1      -7.928  13.169  69.316  1.00  0.00    -0.262 OA 
HETATM   26  H   UNL     1      -4.727   8.717  67.426  1.00  0.00     0.000 HD 
HETATM   27  O   UNL     1      -5.279   6.950  67.500  1.00  0.00    -0.008 OA 
HETATM   28  H   UNL     1      -8.498  13.905  69.505  1.00  0.00     0.000 HD 
BRANCH  19  29
HETATM   29  C   UNL     1      -6.699  14.563  67.815  1.00  0.00    -0.174 C  
HETATM   30  O   UNL     1      -5.470  14.592  67.690  1.00  0.00    -0.312 OA 
BRANCH  29  31
HETATM   31  C   UNL     1      -7.492  15.866  67.914  1.00  0.00    -0.131 C  
HETATM   32  O   UNL     1      -7.996  16.083  69.227  1.00  0.00    -0.230 OA 
HETATM   33  H   UNL     1      -8.489  16.893  69.288  1.00  0.00     0.000 HD 
ENDBRANCH  29  31
ENDBRANCH  19  29
BRANCH  22  34
HETATM   34  O   UNL     1     -10.252  12.099  68.421  1.00  0.00    -0.203 OA 
BRANCH  34  35
HETATM   35  C   UNL     1     -11.649  12.408  68.310  1.00  0.00    -0.333 C  
HETATM   36  C   UNL     1     -12.528  11.840  69.427  1.00  0.00     0.078 C  
HETATM   37  C   UNL     1     -12.190  12.523  70.748  1.00  0.00    -0.240 C  
HETATM   38  C   UNL     1     -12.397  14.047  70.588  1.00  0.00    -0.375 C  
HETATM   39  N   UNL     1     -12.985  11.970  71.854  1.00  0.00    -0.374 NA 
HETATM   40  C   UNL     1     -11.560  14.553  69.398  1.00  0.00    -0.303 C  
HETATM   41  H2  UNL     1     -12.883  10.957  71.919  1.00  0.00     0.000 HD 
HETATM   42  O   UNL     1     -12.040  14.757  71.775  1.00  0.00    -0.338 OA 
HETATM   43  H1  UNL     1     -12.758  12.427  72.737  1.00  0.00     0.000 HD 
HETATM   44  C   UNL     1     -11.871  16.020  69.108  1.00  0.00    -0.268 C  
HETATM   45  H   UNL     1     -12.167  15.694  71.677  1.00  0.00     0.000 HD 
HETATM   46  O   UNL     1     -11.838  13.821  68.200  1.00  0.00    -0.343 OA 
ENDBRANCH  34  35
ENDBRANCH  22  34
ENDBRANCH   2   3
TORSDOF 5
ENDMDL
MODEL       58
REMARK 921   NORMALIZED FREE ENERGY PREDICTED BY IDOCK:   -5.22 KCAL/MOL
REMARK 922        TOTAL FREE ENERGY PREDICTED BY IDOCK:   -7.80 KCAL/MOL
REMARK 923 INTER-LIGAND FREE ENERGY PREDICTED BY IDOCK:   -8.23 KCAL/MOL
REMARK 924 INTRA-LIGAND FREE ENERGY PREDICTED BY IDOCK:    0.43 KCAL/MOL
REMARK 927      BINDING AFFINITY PREDICTED BY RF-SCORE:    0.00 PKD
ROOT
HETATM    1  C   UNL     1     -10.432   5.230  74.224  1.00  0.00    -0.267 C  
HETATM    2  O   UNL     1      -9.862   5.788  73.044  1.00  0.00    -0.164 OA 
ENDROOT
BRANCH   2   3
HETATM    3  C   UNL     1      -9.725   4.954  71.966  1.00  0.00    -0.166 A  
HETATM    4  C   UNL     1      -9.637   3.560  72.118  1.00  0.00    -0.207 A  
HETATM    5  C   UNL     1      -9.509   2.727  71.012  1.00  0.00    -0.226 A  
HETATM    6  C   UNL     1      -9.466   3.279  69.740  1.00  0.00    -0.212 A  
HETATM    7  C   UNL     1      -9.531   4.670  69.567  1.00  0.00    -0.236 A  
HETATM    8  C   UNL     1      -9.643   5.519  70.671  1.00  0.00    -0.221 A  
HETATM    9  C   UNL     1      -9.672   6.987  70.431  1.00  0.00    -0.176 C  
HETATM   10  O   UNL     1      -9.653   7.801  71.349  1.00  0.00    -0.154 OA 
HETATM   11  C   UNL     1      -9.716   7.519  69.043  1.00  0.00    -0.162 A  
HETATM   12  C   UNL     1      -9.858   8.906  68.820  1.00  0.00    -0.173 A  
HETATM   13  O   UNL     1      -9.994   9.791  69.866  1.00  0.00    -0.217 OA 
HETATM   14  C   UNL     1      -9.888   9.455  67.521  1.00  0.00    -0.220 A  
HETATM   15  H   UNL     1     -10.089  10.724  69.715  1.00  0.00     0.000 HD 
HETATM   16  C   UNL     1      -9.767   8.583  66.412  1.00  0.00    -0.328 A  
HETATM   17  C   UNL     1      -9.681   7.192  66.645  1.00  0.00    -0.170 A  
HETATM   18  C   UNL     1      -9.781   9.122  64.988  1.00  0.00     0.241 C  
HETATM   19  C   UNL     1      -9.596  10.640  64.893  1.00  0.00    -0.269 C  
HETATM   20  C   UNL     1      -9.632   6.660  67.952  1.00  0.00    -0.121 A  
HETATM   21  O   UNL     1      -9.693   6.318  65.592  1.00  0.00    -0.363 OA 
HETATM   22  C   UNL     1     -10.068  10.962  67.346  1.00  0.00    -0.191 C  
HETATM   23  C   UNL     1      -9.470   5.200  68.191  1.00  0.00    -0.127 C  
HETATM   24  C   UNL     1     -10.517  11.301  65.923  1.00  0.00    -0.314 C  
HETATM   25  O   UNL     1      -8.221  10.970  65.098  1.00  0.00    -0.366 OA 
HETATM   26  H   UNL     1      -9.635   5.383  65.749  1.00  0.00     0.000 HD 
HETATM   27  O   UNL     1      -9.277   4.404  67.280  1.00  0.00    -0.125 OA 
HETATM   28  H   UNL     1      -8.107  11.911  65.039  1.00  0.00     0.000 HD 
BRANCH  19  29
HETATM   29  C   UNL     1      -9.975  11.125  63.483  1.00  0.00    -0.379 C  
HETATM   30  O   UNL     1      -9.533  10.590  62.461  1.00  0.00    -0.280 OA 
BRANCH  29  31
HETATM   31  C   UNL     1     -10.864  12.363  63.380  1.00  0.00    -0.367 C  
HETATM   32  O   UNL     1     -10.172  13.548  63.755  1.00  0.00    -0.581 OA 
HETATM   33  H   UNL     1     -10.725  14.317  63.690  1.00  0.00     0.000 HD 
ENDBRANCH  29  31
ENDBRANCH  19  29
BRANCH  22  34
HETATM   34  O   UNL     1      -8.817  11.596  67.667  1.00  0.00    -0.151 OA 
BRANCH  34  35
HETATM   35  C   UNL     1      -8.893  12.745  68.523  1.00  0.00    -0.040 C  
HETATM   36  C   UNL     1      -8.909  14.092  67.798  1.00  0.00    -0.185 C  
HETATM   37  C   UNL     1     -10.207  14.239  67.012  1.00  0.00    -0.260 C  
HETATM   38  C   UNL     1     -11.399  14.110  67.988  1.00  0.00    -0.299 C  
HETATM   39  N   UNL     1     -10.239  15.505  66.265  1.00  0.00    -0.279 NA 
HETATM   40  C   UNL     1     -11.288  12.780  68.755  1.00  0.00    -0.288 C  
HETATM   41  H2  UNL     1      -9.422  15.605  65.662  1.00  0.00     0.000 HD 
HETATM   42  O   UNL     1     -12.653  14.179  67.306  1.00  0.00    -0.516 OA 
HETATM   43  H1  UNL     1     -11.107  15.603  65.739  1.00  0.00     0.000 HD 
HETATM   44  C   UNL     1     -12.354  12.698  69.846  1.00  0.00    -0.126 C  
HETATM   45  H   UNL     1     -13.385  14.100  67.906  1.00  0.00     0.000 HD 
HETATM   46  O   UNL     1     -10.018  12.638  69.399  1.00  0.00     0.457 OA 
ENDBRANCH  34  35
ENDBRANCH  22  34
ENDBRANCH   2   3
TORSDOF 5
ENDMDL
MODEL       59
REMARK 921   NORMALIZED FREE ENERGY PREDICTED BY IDOCK:   -5.19 KCAL/MOL
REMARK 922        TOTAL FREE ENERGY PREDICTED BY IDOCK:   -7.75 KCAL/MOL
REMARK 923 INTER-LIGAND FREE ENERGY PREDICTED BY IDOCK:   -6.70 KCAL/MOL
REMARK 924 INTRA-LIGAND FREE ENERGY PREDICTED BY IDOCK:   -1.05 KCAL/MOL
REMARK 927      BINDING AFFINITY PREDICTED BY RF-SCORE:    0.00 PKD
ROOT
HETATM    1  C   UNL     1      -6.908  16.515  69.230  1.00  0.00    -0.224 C  
HETATM    2  O   UNL     1      -6.998  15.217  68.648  1.00  0.00    -0.105 OA 
ENDROOT
BRANCH   2   3
HETATM    3  C   UNL     1      -7.915  15.049  67.644  1.00  0.00    -0.162 A  
HETATM    4  C   UNL     1      -8.366  16.129  66.867  1.00  0.00    -0.271 A  
HETATM    5  C   UNL     1      -9.290  15.939  65.846  1.00  0.00    -0.353 A  
HETATM    6  C   UNL     1      -9.774  14.665  65.589  1.00  0.00    -0.302 A  
HETATM    7  C   UNL     1      -9.353  13.575  66.366  1.00  0.00    -0.191 A  
HETATM    8  C   UNL     1      -8.439  13.756  67.407  1.00  0.00    -0.209 A  
HETATM    9  C   UNL     1      -8.054  12.571  68.221  1.00  0.00    -0.165 C  
HETATM   10  O   UNL     1      -7.349  12.665  69.221  1.00  0.00     0.057 OA 
HETATM   11  C   UNL     1      -8.533  11.215  67.844  1.00  0.00    -0.131 A  
HETATM   12  C   UNL     1      -8.077  10.080  68.549  1.00  0.00    -0.103 A  
HETATM   13  O   UNL     1      -7.160  10.191  69.570  1.00  0.00    -0.074 OA 
HETATM   14  C   UNL     1      -8.517   8.777  68.235  1.00  0.00    -0.130 A  
HETATM   15  H   UNL     1      -6.853   9.427  70.045  1.00  0.00     0.000 HD 
HETATM   16  C   UNL     1      -9.449   8.611  67.182  1.00  0.00    -0.207 A  
HETATM   17  C   UNL     1      -9.857   9.746  66.447  1.00  0.00    -0.235 A  
HETATM   18  C   UNL     1      -9.968   7.228  66.809  1.00  0.00    -0.287 C  
HETATM   19  C   UNL     1      -9.667   6.146  67.851  1.00  0.00    -0.116 C  
HETATM   20  C   UNL     1      -9.423  11.046  66.787  1.00  0.00    -0.203 A  
HETATM   21  O   UNL     1     -10.655   9.600  65.345  1.00  0.00     0.059 OA 
HETATM   22  C   UNL     1      -7.967   7.588  69.021  1.00  0.00    -0.122 C  
HETATM   23  C   UNL     1      -9.911  12.245  66.054  1.00  0.00    -0.252 C  
HETATM   24  C   UNL     1      -8.200   6.276  68.269  1.00  0.00    -0.115 C  
HETATM   25  O   UNL     1     -10.564   6.280  68.954  1.00  0.00    -0.210 OA 
HETATM   26  H   UNL     1     -10.929  10.363  64.851  1.00  0.00     0.000 HD 
HETATM   27  O   UNL     1     -10.779  12.178  65.190  1.00  0.00    -0.273 OA 
HETATM   28  H   UNL     1     -10.378   5.609  69.600  1.00  0.00     0.000 HD 
BRANCH  19  29
HETATM   29  C   UNL     1      -9.903   4.754  67.240  1.00  0.00    -0.184 C  
HETATM   30  O   UNL     1      -9.586   3.714  67.827  1.00  0.00    -0.193 OA 
BRANCH  29  31
HETATM   31  C   UNL     1     -10.475   4.694  65.824  1.00  0.00    -0.255 C  
HETATM   32  O   UNL     1      -9.504   4.266  64.877  1.00  0.00    -0.156 OA 
HETATM   33  H   UNL     1      -9.861   4.229  63.997  1.00  0.00     0.000 HD 
ENDBRANCH  29  31
ENDBRANCH  19  29
BRANCH  22  34
HETATM   34  O   UNL     1      -8.606   7.576  70.309  1.00  0.00    -0.140 OA 
BRANCH  34  35
HETATM   35  C   UNL     1      -7.804   7.123  71.409  1.00  0.00    -0.097 C  
HETATM   36  C   UNL     1      -8.324   7.514  72.794  1.00  0.00    -0.150 C  
HETATM   37  C   UNL     1      -9.633   6.785  73.078  1.00  0.00    -0.148 C  
HETATM   38  C   UNL     1      -9.387   5.262  72.978  1.00  0.00    -0.133 C  
HETATM   39  N   UNL     1     -10.187   7.171  74.384  1.00  0.00    -0.430 NA 
HETATM   40  C   UNL     1      -8.783   4.933  71.601  1.00  0.00    -0.127 C  
HETATM   41  H2  UNL     1     -10.297   8.183  74.461  1.00  0.00     0.000 HD 
HETATM   42  O   UNL     1     -10.590   4.517  73.176  1.00  0.00    -0.185 OA 
HETATM   43  H1  UNL     1     -11.062   6.684  74.574  1.00  0.00     0.000 HD 
HETATM   44  C   UNL     1      -8.372   3.464  71.532  1.00  0.00    -0.080 C  
HETATM   45  H   UNL     1     -10.439   3.581  73.114  1.00  0.00     0.000 HD 
HETATM   46  O   UNL     1      -7.610   5.708  71.332  1.00  0.00    -0.098 OA 
ENDBRANCH  34  35
ENDBRANCH  22  34
ENDBRANCH   2   3
TORSDOF 5
ENDMDL
MODEL       60
REMARK 921   NORMALIZED FREE ENERGY PREDICTED BY IDOCK:   -5.19 KCAL/MOL
REMARK 922        TOTAL FREE ENERGY PREDICTED BY IDOCK:   -7.75 KCAL/MOL
REMARK 923 INTER-LIGAND FREE ENERGY PREDICTED BY IDOCK:   -8.04 KCAL/MOL
REMARK 924 INTRA-LIGAND FREE ENERGY PREDICTED BY IDOCK:    0.29 KCAL/MOL
REMARK 927      BINDING AFFINITY PREDICTED BY RF-SCORE:    0.00 PKD
ROOT
HETATM    1  C   UNL     1      -9.971   2.350  63.909  1.00  0.00    -0.133 C  
HETATM    2  O   UNL     1      -9.270   3.287  64.722  1.00  0.00    -0.132 OA 
ENDROOT
BRANCH   2   3
HETATM    3  C   UNL     1      -8.422   4.153  64.082  1.00  0.00    -0.106 A  
HETATM    4  C   UNL     1      -7.554   3.719  63.065  1.00  0.00    -0.058 A  
HETATM    5  C   UNL     1      -6.707   4.613  62.419  1.00  0.00    -0.026 A  
HETATM    6  C   UNL     1      -6.718   5.951  62.784  1.00  0.00    -0.039 A  
HETATM    7  C   UNL     1      -7.561   6.401  63.811  1.00  0.00    -0.092 A  
HETATM    8  C   UNL     1      -8.404   5.510  64.480  1.00  0.00    -0.127 A  
HETATM    9  C   UNL     1      -9.251   6.036  65.584  1.00  0.00     0.045 C  
HETATM   10  O   UNL     1      -9.930   5.301  66.295  1.00  0.00    -0.170 OA 
HETATM   11  C   UNL     1      -9.289   7.494  65.871  1.00  0.00     0.022 A  
HETATM   12  C   UNL     1     -10.178   8.003  66.843  1.00  0.00    -0.315 A  
HETATM   13  O   UNL     1     -11.048   7.179  67.521  1.00  0.00    -0.523 OA 
HETATM   14  C   UNL     1     -10.236   9.377  67.157  1.00  0.00    -0.319 A  
HETATM   15  H   UNL     1     -11.646   7.522  68.175  1.00  0.00     0.000 HD 
HETATM   16  C   UNL     1      -9.370  10.267  66.476  1.00  0.00    -0.200 A  
HETATM   17  C   UNL     1      -8.525   9.755  65.466  1.00  0.00    -0.142 A  
HETATM   18  C   UNL     1      -9.382  11.758  66.785  1.00  0.00    -0.199 C  
HETATM   19  C   UNL     1     -10.127  12.124  68.072  1.00  0.00    -0.204 C  
HETATM   20  C   UNL     1      -8.464   8.375  65.178  1.00  0.00    -0.179 A  
HETATM   21  O   UNL     1      -7.773  10.608  64.704  1.00  0.00    -0.336 OA 
HETATM   22  C   UNL     1     -11.237   9.867  68.203  1.00  0.00    -0.077 C  
HETATM   23  C   UNL     1      -7.520   7.834  64.162  1.00  0.00    -0.105 C  
HETATM   24  C   UNL     1     -11.463  11.375  68.083  1.00  0.00    -0.375 C  
HETATM   25  O   UNL     1      -9.314  11.807  69.203  1.00  0.00    -0.392 OA 
HETATM   26  H   UNL     1      -7.205  10.265  64.026  1.00  0.00     0.000 HD 
HETATM   27  O   UNL     1      -6.689   8.537  63.599  1.00  0.00    -0.083 OA 
HETATM   28  H   UNL     1      -9.776  12.034  70.001  1.00  0.00     0.000 HD 
BRANCH  19  29
HETATM   29  C   UNL     1     -10.390  13.639  68.111  1.00  0.00    -0.245 C  
HETATM   30  O   UNL     1      -9.625  14.426  68.679  1.00  0.00    -0.213 OA 
BRANCH  29  31
HETATM   31  C   UNL     1     -11.690  14.144  67.487  1.00  0.00    -0.386 C  
HETATM   32  O   UNL     1     -12.126  15.361  68.081  1.00  0.00    -0.476 OA 
HETATM   33  H   UNL     1     -12.935  15.674  67.693  1.00  0.00     0.000 HD 
ENDBRANCH  29  31
ENDBRANCH  19  29
BRANCH  22  34
HETATM   34  O   UNL     1     -10.727   9.513  69.501  1.00  0.00    -0.218 OA 
BRANCH  34  35
HETATM   35  C   UNL     1     -10.005   8.276  69.581  1.00  0.00    -0.193 C  
HETATM   36  C   UNL     1      -8.644   8.365  70.275  1.00  0.00    -0.128 C  
HETATM   37  C   UNL     1      -8.840   8.676  71.755  1.00  0.00    -0.211 C  
HETATM   38  C   UNL     1      -9.722   7.572  72.384  1.00  0.00    -0.161 C  
HETATM   39  N   UNL     1      -7.549   8.813  72.447  1.00  0.00    -0.353 NA 
HETATM   40  C   UNL     1     -11.040   7.463  71.596  1.00  0.00    -0.236 C  
HETATM   41  H2  UNL     1      -6.953   9.506  71.994  1.00  0.00     0.000 HD 
HETATM   42  O   UNL     1      -9.995   7.833  73.762  1.00  0.00    -0.340 OA 
HETATM   43  H1  UNL     1      -7.681   9.021  73.437  1.00  0.00     0.000 HD 
HETATM   44  C   UNL     1     -11.861   6.272  72.084  1.00  0.00    -0.365 C  
HETATM   45  H   UNL     1     -10.537   7.155  74.148  1.00  0.00     0.000 HD 
HETATM   46  O   UNL     1     -10.812   7.269  70.196  1.00  0.00    -0.245 OA 
ENDBRANCH  34  35
ENDBRANCH  22  34
ENDBRANCH   2   3
TORSDOF 5
ENDMDL
MODEL       61
REMARK 921   NORMALIZED FREE ENERGY PREDICTED BY IDOCK:   -5.18 KCAL/MOL
REMARK 922        TOTAL FREE ENERGY PREDICTED BY IDOCK:   -7.75 KCAL/MOL
REMARK 923 INTER-LIGAND FREE ENERGY PREDICTED BY IDOCK:   -8.34 KCAL/MOL
REMARK 924 INTRA-LIGAND FREE ENERGY PREDICTED BY IDOCK:    0.60 KCAL/MOL
REMARK 927      BINDING AFFINITY PREDICTED BY RF-SCORE:    0.00 PKD
ROOT
HETATM    1  C   UNL     1      -8.674   7.632  73.282  1.00  0.00    -0.190 C  
HETATM    2  O   UNL     1      -8.619   7.194  71.928  1.00  0.00    -0.116 OA 
ENDROOT
BRANCH   2   3
HETATM    3  C   UNL     1      -7.549   7.614  71.182  1.00  0.00    -0.080 A  
HETATM    4  C   UNL     1      -6.273   7.047  71.337  1.00  0.00    -0.037 A  
HETATM    5  C   UNL     1      -5.201   7.480  70.565  1.00  0.00    -0.023 A  
HETATM    6  C   UNL     1      -5.392   8.485  69.629  1.00  0.00    -0.030 A  
HETATM    7  C   UNL     1      -6.653   9.080  69.473  1.00  0.00    -0.043 A  
HETATM    8  C   UNL     1      -7.735   8.667  70.255  1.00  0.00    -0.083 A  
HETATM    9  C   UNL     1      -9.041   9.356  70.072  1.00  0.00    -0.220 C  
HETATM   10  O   UNL     1     -10.006   9.133  70.796  1.00  0.00    -0.225 OA 
HETATM   11  C   UNL     1      -9.212  10.363  68.991  1.00  0.00    -0.194 A  
HETATM   12  C   UNL     1     -10.481  10.933  68.747  1.00  0.00    -0.200 A  
HETATM   13  O   UNL     1     -11.590  10.551  69.469  1.00  0.00    -0.255 OA 
HETATM   14  C   UNL     1     -10.685  11.903  67.743  1.00  0.00    -0.243 A  
HETATM   15  H   UNL     1     -12.443  10.935  69.305  1.00  0.00     0.000 HD 
HETATM   16  C   UNL     1      -9.577  12.316  66.963  1.00  0.00    -0.208 A  
HETATM   17  C   UNL     1      -8.325  11.700  67.179  1.00  0.00    -0.164 A  
HETATM   18  C   UNL     1      -9.738  13.369  65.875  1.00  0.00    -0.197 C  
HETATM   19  C   UNL     1     -11.059  14.140  65.941  1.00  0.00    -0.306 C  
HETATM   20  C   UNL     1      -8.132  10.745  68.201  1.00  0.00    -0.117 A  
HETATM   21  O   UNL     1      -7.269  11.986  66.355  1.00  0.00    -0.365 OA 
HETATM   22  C   UNL     1     -12.088  12.463  67.513  1.00  0.00    -0.008 C  
HETATM   23  C   UNL     1      -6.794  10.152  68.469  1.00  0.00    -0.058 C  
HETATM   24  C   UNL     1     -12.195  13.132  66.141  1.00  0.00    -0.451 C  
HETATM   25  O   UNL     1     -10.997  15.108  66.990  1.00  0.00    -0.314 OA 
HETATM   26  H   UNL     1      -6.426  11.572  66.500  1.00  0.00     0.000 HD 
HETATM   27  O   UNL     1      -5.782  10.527  67.887  1.00  0.00    -0.044 OA 
HETATM   28  H   UNL     1     -11.816  15.587  67.031  1.00  0.00     0.000 HD 
BRANCH  19  29
HETATM   29  C   UNL     1     -11.283  14.907  64.627  1.00  0.00    -0.341 C  
HETATM   30  O   UNL     1     -10.976  16.097  64.497  1.00  0.00    -0.645 OA 
BRANCH  29  31
HETATM   31  C   UNL     1     -11.986  14.166  63.490  1.00  0.00     0.216 C  
HETATM   32  O   UNL     1     -11.293  12.980  63.121  1.00  0.00    -0.692 OA 
HETATM   33  H   UNL     1     -11.731  12.520  62.415  1.00  0.00     0.000 HD 
ENDBRANCH  29  31
ENDBRANCH  19  29
BRANCH  22  34
HETATM   34  O   UNL     1     -12.372  13.391  68.575  1.00  0.00    -0.194 OA 
BRANCH  34  35
HETATM   35  C   UNL     1     -11.535  13.297  69.736  1.00  0.00    -0.158 C  
HETATM   36  C   UNL     1     -10.837  14.599  70.137  1.00  0.00    -0.046 C  
HETATM   37  C   UNL     1     -11.871  15.613  70.613  1.00  0.00    -0.376 C  
HETATM   38  C   UNL     1     -12.655  15.006  71.799  1.00  0.00    -0.341 C  
HETATM   39  N   UNL     1     -11.240  16.894  70.966  1.00  0.00    -0.196 NA 
HETATM   40  C   UNL     1     -13.264  13.658  71.371  1.00  0.00    -0.283 C  
HETATM   41  H2  UNL     1     -10.682  17.261  70.195  1.00  0.00     0.000 HD 
HETATM   42  O   UNL     1     -13.685  15.884  72.259  1.00  0.00    -0.437 OA 
HETATM   43  H1  UNL     1     -11.932  17.572  71.284  1.00  0.00     0.000 HD 
HETATM   44  C   UNL     1     -13.902  12.953  72.566  1.00  0.00    -0.332 C  
HETATM   45  H   UNL     1     -14.167  15.511  72.987  1.00  0.00     0.000 HD 
HETATM   46  O   UNL     1     -12.275  12.770  70.840  1.00  0.00    -0.349 OA 
ENDBRANCH  34  35
ENDBRANCH  22  34
ENDBRANCH   2   3
TORSDOF 5
ENDMDL
MODEL       62
REMARK 921   NORMALIZED FREE ENERGY PREDICTED BY IDOCK:   -5.09 KCAL/MOL
REMARK 922        TOTAL FREE ENERGY PREDICTED BY IDOCK:   -7.62 KCAL/MOL
REMARK 923 INTER-LIGAND FREE ENERGY PREDICTED BY IDOCK:   -6.41 KCAL/MOL
REMARK 924 INTRA-LIGAND FREE ENERGY PREDICTED BY IDOCK:   -1.21 KCAL/MOL
REMARK 927      BINDING AFFINITY PREDICTED BY RF-SCORE:    0.00 PKD
ROOT
HETATM    1  C   UNL     1      -7.931   2.122  72.188  1.00  0.00    -0.053 C  
HETATM    2  O   UNL     1      -8.798   2.847  71.320  1.00  0.00    -0.070 OA 
ENDROOT
BRANCH   2   3
HETATM    3  C   UNL     1      -9.828   3.537  71.904  1.00  0.00    -0.167 A  
HETATM    4  C   UNL     1     -10.672   2.938  72.854  1.00  0.00    -0.177 A  
HETATM    5  C   UNL     1     -11.706   3.656  73.444  1.00  0.00     0.037 A  
HETATM    6  C   UNL     1     -11.909   4.981  73.089  1.00  0.00    -0.101 A  
HETATM    7  C   UNL     1     -11.091   5.592  72.127  1.00  0.00    -0.300 A  
HETATM    8  C   UNL     1     -10.059   4.876  71.513  1.00  0.00    -0.266 A  
HETATM    9  C   UNL     1      -9.245   5.564  70.474  1.00  0.00    -0.148 C  
HETATM   10  O   UNL     1      -8.399   4.974  69.809  1.00  0.00    -0.086 OA 
HETATM   11  C   UNL     1      -9.447   7.011  70.200  1.00  0.00    -0.162 A  
HETATM   12  C   UNL     1      -8.599   7.687  69.295  1.00  0.00    -0.136 A  
HETATM   13  O   UNL     1      -7.552   7.042  68.676  1.00  0.00    -0.103 OA 
HETATM   14  C   UNL     1      -8.764   9.055  68.994  1.00  0.00    -0.138 A  
HETATM   15  H   UNL     1      -6.982   7.497  68.067  1.00  0.00     0.000 HD 
HETATM   16  C   UNL     1      -9.819   9.765  69.618  1.00  0.00    -0.241 A  
HETATM   17  C   UNL     1     -10.627   9.094  70.563  1.00  0.00    -0.235 A  
HETATM   18  C   UNL     1     -10.051  11.240  69.320  1.00  0.00    -0.018 C  
HETATM   19  C   UNL     1      -9.297  11.755  68.090  1.00  0.00    -0.190 C  
HETATM   20  C   UNL     1     -10.461   7.719  70.838  1.00  0.00    -0.214 A  
HETATM   21  O   UNL     1     -11.568   9.786  71.275  1.00  0.00    -0.345 OA 
HETATM   22  C   UNL     1      -7.798   9.733  68.024  1.00  0.00    -0.086 C  
HETATM   23  C   UNL     1     -11.361   7.002  71.782  1.00  0.00    -0.258 C  
HETATM   24  C   UNL     1      -7.851  11.255  68.169  1.00  0.00    -0.127 C  
HETATM   25  O   UNL     1      -9.962  11.321  66.903  1.00  0.00    -0.200 OA 
HETATM   26  H   UNL     1     -12.112   9.335  71.910  1.00  0.00     0.000 HD 
HETATM   27  O   UNL     1     -12.340   7.537  72.289  1.00  0.00    -0.253 OA 
HETATM   28  H   UNL     1      -9.494  11.641  66.141  1.00  0.00     0.000 HD 
BRANCH  19  29
HETATM   29  C   UNL     1      -9.305  13.293  68.079  1.00  0.00    -0.218 C  
HETATM   30  O   UNL     1      -8.392  13.962  68.576  1.00  0.00    -0.155 OA 
BRANCH  29  31
HETATM   31  C   UNL     1     -10.538  13.986  67.500  1.00  0.00    -0.260 C  
HETATM   32  O   UNL     1     -10.742  15.273  68.072  1.00  0.00    -0.255 OA 
HETATM   33  H   UNL     1     -11.508  15.703  67.711  1.00  0.00     0.000 HD 
ENDBRANCH  29  31
ENDBRANCH  19  29
BRANCH  22  34
HETATM   34  O   UNL     1      -8.146   9.319  66.692  1.00  0.00    -0.107 OA 
BRANCH  34  35
HETATM   35  C   UNL     1      -7.177   9.594  65.671  1.00  0.00    -0.097 C  
HETATM   36  C   UNL     1      -6.558   8.356  65.016  1.00  0.00    -0.063 C  
HETATM   37  C   UNL     1      -7.619   7.617  64.207  1.00  0.00    -0.108 C  
HETATM   38  C   UNL     1      -8.203   8.582  63.150  1.00  0.00    -0.151 C  
HETATM   39  N   UNL     1      -7.072   6.396  63.598  1.00  0.00    -0.050 NA 
HETATM   40  C   UNL     1      -8.731   9.847  63.852  1.00  0.00    -0.214 C  
HETATM   41  H2  UNL     1      -6.642   5.789  64.297  1.00  0.00     0.000 HD 
HETATM   42  O   UNL     1      -9.249   7.969  62.393  1.00  0.00    -0.200 OA 
HETATM   43  H1  UNL     1      -7.781   5.901  63.058  1.00  0.00     0.000 HD 
HETATM   44  C   UNL     1      -9.160  10.892  62.824  1.00  0.00    -0.351 C  
HETATM   45  H   UNL     1      -9.608   8.562  61.744  1.00  0.00     0.000 HD 
HETATM   46  O   UNL     1      -7.733  10.457  64.676  1.00  0.00    -0.140 OA 
ENDBRANCH  34  35
ENDBRANCH  22  34
ENDBRANCH   2   3
TORSDOF 5
ENDMDL
MODEL       63
REMARK 921   NORMALIZED FREE ENERGY PREDICTED BY IDOCK:   -5.08 KCAL/MOL
REMARK 922        TOTAL FREE ENERGY PREDICTED BY IDOCK:   -7.61 KCAL/MOL
REMARK 923 INTER-LIGAND FREE ENERGY PREDICTED BY IDOCK:   -6.86 KCAL/MOL
REMARK 924 INTRA-LIGAND FREE ENERGY PREDICTED BY IDOCK:   -0.74 KCAL/MOL
REMARK 927      BINDING AFFINITY PREDICTED BY RF-SCORE:    0.00 PKD
ROOT
HETATM    1  C   UNL     1     -11.462  15.816  63.918  1.00  0.00     0.409 C  
HETATM    2  O   UNL     1     -10.361  15.866  64.821  1.00  0.00    -0.485 OA 
ENDROOT
BRANCH   2   3
HETATM    3  C   UNL     1     -10.652  16.065  66.145  1.00  0.00    -0.297 A  
HETATM    4  C   UNL     1     -10.867  17.351  66.668  1.00  0.00     0.042 A  
HETATM    5  C   UNL     1     -11.170  17.533  68.013  1.00  0.00     0.190 A  
HETATM    6  C   UNL     1     -11.263  16.431  68.850  1.00  0.00    -0.304 A  
HETATM    7  C   UNL     1     -11.031  15.140  68.352  1.00  0.00    -0.271 A  
HETATM    8  C   UNL     1     -10.708  14.944  67.007  1.00  0.00    -0.307 A  
HETATM    9  C   UNL     1     -10.439  13.557  66.541  1.00  0.00    -0.284 C  
HETATM   10  O   UNL     1     -10.038  13.313  65.408  1.00  0.00    -0.295 OA 
HETATM   11  C   UNL     1     -10.642  12.405  67.460  1.00  0.00    -0.240 A  
HETATM   12  C   UNL     1     -10.495  11.084  66.984  1.00  0.00    -0.240 A  
HETATM   13  O   UNL     1     -10.198  10.826  65.664  1.00  0.00    -0.249 OA 
HETATM   14  C   UNL     1     -10.663   9.963  67.824  1.00  0.00    -0.332 A  
HETATM   15  H   UNL     1     -10.099   9.937  65.345  1.00  0.00     0.000 HD 
HETATM   16  C   UNL     1     -10.984  10.178  69.187  1.00  0.00    -0.270 A  
HETATM   17  C   UNL     1     -11.183  11.501  69.639  1.00  0.00    -0.204 A  
HETATM   18  C   UNL     1     -11.164   9.005  70.141  1.00  0.00    -0.191 C  
HETATM   19  C   UNL     1     -10.650   7.670  69.594  1.00  0.00    -0.243 C  
HETATM   20  C   UNL     1     -10.991  12.613  68.791  1.00  0.00    -0.289 A  
HETATM   21  O   UNL     1     -11.619  11.731  70.916  1.00  0.00    -0.228 OA 
HETATM   22  C   UNL     1     -10.514   8.559  67.242  1.00  0.00    -0.296 C  
HETATM   23  C   UNL     1     -11.133  14.007  69.293  1.00  0.00    -0.232 C  
HETATM   24  C   UNL     1     -11.154   7.513  68.157  1.00  0.00     0.164 C  
HETATM   25  O   UNL     1      -9.224   7.634  69.680  1.00  0.00    -0.147 OA 
HETATM   26  H   UNL     1     -11.753  12.620  71.221  1.00  0.00     0.000 HD 
HETATM   27  O   UNL     1     -11.327  14.262  70.476  1.00  0.00    -0.158 OA 
HETATM   28  H   UNL     1      -8.906   6.806  69.341  1.00  0.00     0.000 HD 
BRANCH  19  29
HETATM   29  C   UNL     1     -11.186   6.512  70.453  1.00  0.00    -0.355 C  
HETATM   30  O   UNL     1     -11.211   5.346  70.047  1.00  0.00    -0.034 OA 
BRANCH  29  31
HETATM   31  C   UNL     1     -11.777   6.863  71.818  1.00  0.00    -0.302 C  
HETATM   32  O   UNL     1     -13.092   6.343  71.978  1.00  0.00    -0.418 OA 
HETATM   33  H   UNL     1     -13.459   6.562  72.826  1.00  0.00     0.000 HD 
ENDBRANCH  29  31
ENDBRANCH  19  29
BRANCH  22  34
HETATM   34  O   UNL     1      -9.110   8.305  67.056  1.00  0.00    -0.137 OA 
BRANCH  34  35
HETATM   35  C   UNL     1      -8.756   7.531  65.901  1.00  0.00    -0.147 C  
HETATM   36  C   UNL     1      -7.252   7.412  65.639  1.00  0.00    -0.066 C  
HETATM   37  C   UNL     1      -6.601   6.587  66.744  1.00  0.00    -0.048 C  
HETATM   38  C   UNL     1      -7.276   5.197  66.793  1.00  0.00    -0.077 C  
HETATM   39  N   UNL     1      -5.146   6.488  66.549  1.00  0.00    -0.012 NA 
HETATM   40  C   UNL     1      -8.796   5.375  66.969  1.00  0.00    -0.110 C  
HETATM   41  H2  UNL     1      -4.716   7.409  66.465  1.00  0.00     0.000 HD 
HETATM   42  O   UNL     1      -6.752   4.390  67.849  1.00  0.00    -0.048 OA 
HETATM   43  H1  UNL     1      -4.711   5.937  67.287  1.00  0.00     0.000 HD 
HETATM   44  C   UNL     1      -9.511   4.032  66.853  1.00  0.00    -0.220 C  
HETATM   45  H   UNL     1      -7.167   3.537  67.879  1.00  0.00     0.000 HD 
HETATM   46  O   UNL     1      -9.353   6.234  65.969  1.00  0.00    -0.135 OA 
ENDBRANCH  34  35
ENDBRANCH  22  34
ENDBRANCH   2   3
TORSDOF 5
ENDMDL
MODEL       64
REMARK 921   NORMALIZED FREE ENERGY PREDICTED BY IDOCK:   -5.02 KCAL/MOL
REMARK 922        TOTAL FREE ENERGY PREDICTED BY IDOCK:   -7.53 KCAL/MOL
REMARK 923 INTER-LIGAND FREE ENERGY PREDICTED BY IDOCK:   -7.15 KCAL/MOL
REMARK 924 INTRA-LIGAND FREE ENERGY PREDICTED BY IDOCK:   -0.38 KCAL/MOL
REMARK 927      BINDING AFFINITY PREDICTED BY RF-SCORE:    0.00 PKD
ROOT
HETATM    1  C   UNL     1     -10.843  16.252  68.150  1.00  0.00    -0.342 C  
HETATM    2  O   UNL     1     -11.323  14.926  67.948  1.00  0.00    -0.302 OA 
ENDROOT
BRANCH   2   3
HETATM    3  C   UNL     1     -11.291  14.442  66.666  1.00  0.00    -0.353 A  
HETATM    4  C   UNL     1     -11.764  15.198  65.580  1.00  0.00    -0.036 A  
HETATM    5  C   UNL     1     -11.715  14.695  64.284  1.00  0.00    -0.291 A  
HETATM    6  C   UNL     1     -11.192  13.430  64.061  1.00  0.00    -0.318 A  
HETATM    7  C   UNL     1     -10.733  12.651  65.133  1.00  0.00    -0.321 A  
HETATM    8  C   UNL     1     -10.793  13.137  66.442  1.00  0.00    -0.299 A  
HETATM    9  C   UNL     1     -10.325  12.254  67.544  1.00  0.00    -0.203 C  
HETATM   10  O   UNL     1     -10.451  12.560  68.726  1.00  0.00    -0.213 OA 
HETATM   11  C   UNL     1      -9.690  10.945  67.238  1.00  0.00    -0.189 A  
HETATM   12  C   UNL     1      -9.145  10.160  68.277  1.00  0.00    -0.122 A  
HETATM   13  O   UNL     1      -9.155  10.595  69.584  1.00  0.00    -0.402 OA 
HETATM   14  C   UNL     1      -8.547   8.906  68.034  1.00  0.00    -0.130 A  
HETATM   15  H   UNL     1      -8.789  10.066  70.284  1.00  0.00     0.000 HD 
HETATM   16  C   UNL     1      -8.500   8.424  66.703  1.00  0.00    -0.113 A  
HETATM   17  C   UNL     1      -8.997   9.241  65.664  1.00  0.00    -0.199 A  
HETATM   18  C   UNL     1      -7.877   7.071  66.385  1.00  0.00    -0.106 C  
HETATM   19  C   UNL     1      -7.641   6.187  67.613  1.00  0.00    -0.097 C  
HETATM   20  C   UNL     1      -9.611  10.485  65.926  1.00  0.00    -0.254 A  
HETATM   21  O   UNL     1      -8.848   8.857  64.359  1.00  0.00    -0.381 OA 
HETATM   22  C   UNL     1      -7.955   8.117  69.200  1.00  0.00    -0.113 C  
HETATM   23  C   UNL     1     -10.197  11.308  64.834  1.00  0.00    -0.286 C  
HETATM   24  C   UNL     1      -6.986   7.042  68.702  1.00  0.00    -0.079 C  
HETATM   25  O   UNL     1      -8.879   5.615  68.038  1.00  0.00    -0.107 OA 
HETATM   26  H   UNL     1      -9.183   9.407  63.660  1.00  0.00     0.000 HD 
HETATM   27  O   UNL     1     -10.262  10.912  63.677  1.00  0.00    -0.337 OA 
HETATM   28  H   UNL     1      -8.732   5.067  68.799  1.00  0.00     0.000 HD 
BRANCH  19  29
HETATM   29  C   UNL     1      -6.705   5.023  67.246  1.00  0.00    -0.055 C  
HETATM   30  O   UNL     1      -6.488   4.083  68.018  1.00  0.00    -0.036 OA 
BRANCH  29  31
HETATM   31  C   UNL     1      -5.971   5.104  65.908  1.00  0.00    -0.022 C  
HETATM   32  O   UNL     1      -6.663   4.406  64.880  1.00  0.00    -0.043 OA 
HETATM   33  H   UNL     1      -6.206   4.457  64.048  1.00  0.00     0.000 HD 
ENDBRANCH  29  31
ENDBRANCH  19  29
BRANCH  22  34
HETATM   34  O   UNL     1      -9.045   7.539  69.941  1.00  0.00    -0.144 OA 
BRANCH  34  35
HETATM   35  C   UNL     1      -9.431   8.229  71.137  1.00  0.00    -0.164 C  
HETATM   36  C   UNL     1     -10.119   7.360  72.192  1.00  0.00    -0.223 C  
HETATM   37  C   UNL     1      -9.124   6.350  72.756  1.00  0.00    -0.134 C  
HETATM   38  C   UNL     1      -7.922   7.115  73.354  1.00  0.00    -0.103 C  
HETATM   39  N   UNL     1      -9.762   5.466  73.743  1.00  0.00    -0.147 NA 
HETATM   40  C   UNL     1      -7.321   8.040  72.279  1.00  0.00    -0.096 C  
HETATM   41  H2  UNL     1     -10.586   5.005  73.355  1.00  0.00     0.000 HD 
HETATM   42  O   UNL     1      -6.920   6.225  73.849  1.00  0.00    -0.082 OA 
HETATM   43  H1  UNL     1      -9.097   4.791  74.119  1.00  0.00     0.000 HD 
HETATM   44  C   UNL     1      -6.240   8.934  72.882  1.00  0.00     0.008 C  
HETATM   45  H   UNL     1      -6.180   6.696  74.215  1.00  0.00     0.000 HD 
HETATM   46  O   UNL     1      -8.307   8.905  71.706  1.00  0.00    -0.321 OA 
ENDBRANCH  34  35
ENDBRANCH  22  34
ENDBRANCH   2   3
TORSDOF 5
ENDMDL
MODEL       65
REMARK 921   NORMALIZED FREE ENERGY PREDICTED BY IDOCK:   -4.99 KCAL/MOL
REMARK 922        TOTAL FREE ENERGY PREDICTED BY IDOCK:   -7.50 KCAL/MOL
REMARK 923 INTER-LIGAND FREE ENERGY PREDICTED BY IDOCK:   -8.52 KCAL/MOL
REMARK 924 INTRA-LIGAND FREE ENERGY PREDICTED BY IDOCK:    1.02 KCAL/MOL
REMARK 927      BINDING AFFINITY PREDICTED BY RF-SCORE:    0.00 PKD
ROOT
HETATM    1  C   UNL     1      -7.316   3.649  68.762  1.00  0.00    -0.053 C  
HETATM    2  O   UNL     1      -7.383   4.510  69.895  1.00  0.00    -0.049 OA 
ENDROOT
BRANCH   2   3
HETATM    3  C   UNL     1      -8.589   4.597  70.540  1.00  0.00    -0.094 A  
HETATM    4  C   UNL     1      -9.119   3.514  71.262  1.00  0.00    -0.180 A  
HETATM    5  C   UNL     1     -10.340   3.622  71.918  1.00  0.00    -0.019 A  
HETATM    6  C   UNL     1     -11.045   4.814  71.859  1.00  0.00     0.206 A  
HETATM    7  C   UNL     1     -10.545   5.901  71.126  1.00  0.00    -0.306 A  
HETATM    8  C   UNL     1      -9.327   5.800  70.447  1.00  0.00    -0.186 A  
HETATM    9  C   UNL     1      -8.861   6.971  69.657  1.00  0.00    -0.141 C  
HETATM   10  O   UNL     1      -7.865   6.924  68.943  1.00  0.00    -0.108 OA 
HETATM   11  C   UNL     1      -9.612   8.254  69.705  1.00  0.00    -0.167 A  
HETATM   12  C   UNL     1      -9.108   9.396  69.045  1.00  0.00    -0.142 A  
HETATM   13  O   UNL     1      -7.903   9.365  68.377  1.00  0.00    -0.089 OA 
HETATM   14  C   UNL     1      -9.794  10.628  69.051  1.00  0.00    -0.218 A  
HETATM   15  H   UNL     1      -7.564  10.134  67.934  1.00  0.00     0.000 HD 
HETATM   16  C   UNL     1     -11.030  10.713  69.737  1.00  0.00    -0.340 A  
HETATM   17  C   UNL     1     -11.499   9.581  70.440  1.00  0.00    -0.242 A  
HETATM   18  C   UNL     1     -11.820  12.015  69.765  1.00  0.00    -0.401 C  
HETATM   19  C   UNL     1     -11.346  13.056  68.746  1.00  0.00    -0.289 C  
HETATM   20  C   UNL     1     -10.810   8.349  70.407  1.00  0.00    -0.246 A  
HETATM   21  O   UNL     1     -12.622   9.672  71.216  1.00  0.00    -0.316 OA 
HETATM   22  C   UNL     1      -9.183  11.833  68.338  1.00  0.00    -0.175 C  
HETATM   23  C   UNL     1     -11.345   7.141  71.091  1.00  0.00    -0.275 C  
HETATM   24  C   UNL     1      -9.819  13.138  68.820  1.00  0.00     0.005 C  
HETATM   25  O   UNL     1     -11.812  12.699  67.444  1.00  0.00    -0.364 OA 
HETATM   26  H   UNL     1     -12.938   8.910  71.688  1.00  0.00     0.000 HD 
HETATM   27  O   UNL     1     -12.446   7.125  71.630  1.00  0.00    -0.334 OA 
HETATM   28  H   UNL     1     -11.518  13.345  66.813  1.00  0.00     0.000 HD 
BRANCH  19  29
HETATM   29  C   UNL     1     -11.949  14.430  69.084  1.00  0.00    -0.322 C  
HETATM   30  O   UNL     1     -11.822  15.407  68.339  1.00  0.00    -0.347 OA 
BRANCH  29  31
HETATM   31  C   UNL     1     -12.651  14.577  70.433  1.00  0.00    -0.346 C  
HETATM   32  O   UNL     1     -13.571  15.663  70.437  1.00  0.00    -0.805 OA 
HETATM   33  H   UNL     1     -14.008  15.754  71.276  1.00  0.00     0.000 HD 
ENDBRANCH  29  31
ENDBRANCH  19  29
BRANCH  22  34
HETATM   34  O   UNL     1      -9.367  11.649  66.923  1.00  0.00    -0.180 OA 
BRANCH  34  35
HETATM   35  C   UNL     1     -10.149  10.512  66.530  1.00  0.00    -0.225 C  
HETATM   36  C   UNL     1     -11.160  10.777  65.412  1.00  0.00     0.178 C  
HETATM   37  C   UNL     1     -10.422  11.077  64.111  1.00  0.00    -0.366 C  
HETATM   38  C   UNL     1      -9.505   9.880  63.770  1.00  0.00    -0.120 C  
HETATM   39  N   UNL     1     -11.363  11.381  63.023  1.00  0.00    -0.852 NA 
HETATM   40  C   UNL     1      -8.569   9.600  64.961  1.00  0.00    -0.162 C  
HETATM   41  H2  UNL     1     -11.999  12.137  63.277  1.00  0.00     0.000 HD 
HETATM   42  O   UNL     1      -8.738  10.121  62.590  1.00  0.00    -0.162 OA 
HETATM   43  H1  UNL     1     -10.870  11.582  62.153  1.00  0.00     0.000 HD 
HETATM   44  C   UNL     1      -7.768   8.322  64.725  1.00  0.00    -0.114 C  
HETATM   45  H   UNL     1      -8.174   9.385  62.380  1.00  0.00     0.000 HD 
HETATM   46  O   UNL     1      -9.295   9.420  66.181  1.00  0.00    -0.172 OA 
ENDBRANCH  34  35
ENDBRANCH  22  34
ENDBRANCH   2   3
TORSDOF 5
ENDMDL
MODEL       66
REMARK 921   NORMALIZED FREE ENERGY PREDICTED BY IDOCK:   -4.95 KCAL/MOL
REMARK 922        TOTAL FREE ENERGY PREDICTED BY IDOCK:   -7.45 KCAL/MOL
REMARK 923 INTER-LIGAND FREE ENERGY PREDICTED BY IDOCK:   -8.51 KCAL/MOL
REMARK 924 INTRA-LIGAND FREE ENERGY PREDICTED BY IDOCK:    1.06 KCAL/MOL
REMARK 927      BINDING AFFINITY PREDICTED BY RF-SCORE:    0.00 PKD
ROOT
HETATM    1  C   UNL     1      -8.070   2.956  67.655  1.00  0.00    -0.075 C  
HETATM    2  O   UNL     1      -7.571   4.244  67.303  1.00  0.00    -0.076 OA 
ENDROOT
BRANCH   2   3
HETATM    3  C   UNL     1      -7.488   4.534  65.967  1.00  0.00    -0.085 A  
HETATM    4  C   UNL     1      -7.023   3.592  65.034  1.00  0.00    -0.057 A  
HETATM    5  C   UNL     1      -6.955   3.900  63.680  1.00  0.00    -0.045 A  
HETATM    6  C   UNL     1      -7.351   5.155  63.243  1.00  0.00    -0.050 A  
HETATM    7  C   UNL     1      -7.799   6.118  64.160  1.00  0.00    -0.117 A  
HETATM    8  C   UNL     1      -7.855   5.827  65.525  1.00  0.00    -0.102 A  
HETATM    9  C   UNL     1      -8.305   6.897  66.456  1.00  0.00    -0.121 C  
HETATM   10  O   UNL     1      -8.273   6.760  67.675  1.00  0.00    -0.117 OA 
HETATM   11  C   UNL     1      -8.805   8.193  65.924  1.00  0.00    -0.194 A  
HETATM   12  C   UNL     1      -9.335   9.163  66.802  1.00  0.00    -0.165 A  
HETATM   13  O   UNL     1      -9.437   8.927  68.155  1.00  0.00    -0.142 OA 
HETATM   14  C   UNL     1      -9.806  10.411  66.342  1.00  0.00    -0.266 A  
HETATM   15  H   UNL     1      -9.794   9.580  68.745  1.00  0.00     0.000 HD 
HETATM   16  C   UNL     1      -9.736  10.694  64.956  1.00  0.00    -0.336 A  
HETATM   17  C   UNL     1      -9.254   9.695  64.080  1.00  0.00    -0.162 A  
HETATM   18  C   UNL     1     -10.217  12.030  64.406  1.00  0.00    -0.332 C  
HETATM   19  C   UNL     1     -10.444  13.101  65.477  1.00  0.00    -0.288 C  
HETATM   20  C   UNL     1      -8.768   8.459  64.558  1.00  0.00     0.067 A  
HETATM   21  O   UNL     1      -9.296   9.893  62.726  1.00  0.00    -0.322 OA 
HETATM   22  C   UNL     1     -10.391  11.408  67.341  1.00  0.00    -0.202 C  
HETATM   23  C   UNL     1      -8.197   7.440  63.637  1.00  0.00     0.075 C  
HETATM   24  C   UNL     1     -11.231  12.470  66.629  1.00  0.00    -0.357 C  
HETATM   25  O   UNL     1      -9.186  13.630  65.900  1.00  0.00    -0.489 OA 
HETATM   26  H   UNL     1      -8.972   9.222  62.137  1.00  0.00     0.000 HD 
HETATM   27  O   UNL     1      -8.031   7.655  62.442  1.00  0.00    -0.122 OA 
HETATM   28  H   UNL     1      -9.326  14.294  66.564  1.00  0.00     0.000 HD 
BRANCH  19  29
HETATM   29  C   UNL     1     -11.251  14.269  64.885  1.00  0.00    -0.379 C  
HETATM   30  O   UNL     1     -12.300  14.093  64.256  1.00  0.00    -0.601 OA 
BRANCH  29  31
HETATM   31  C   UNL     1     -10.667  15.673  65.028  1.00  0.00    -0.436 C  
HETATM   32  O   UNL     1     -11.217  16.577  64.077  1.00  0.00    -1.409 OA 
HETATM   33  H   UNL     1     -10.853  17.450  64.167  1.00  0.00     0.000 HD 
ENDBRANCH  29  31
ENDBRANCH  19  29
BRANCH  22  34
HETATM   34  O   UNL     1      -9.298  12.000  68.064  1.00  0.00    -0.182 OA 
BRANCH  34  35
HETATM   35  C   UNL     1      -7.983  11.714  67.568  1.00  0.00    -0.141 C  
HETATM   36  C   UNL     1      -7.030  12.911  67.531  1.00  0.00    -0.151 C  
HETATM   37  C   UNL     1      -6.706  13.356  68.954  1.00  0.00    -0.110 C  
HETATM   38  C   UNL     1      -6.085  12.165  69.720  1.00  0.00    -0.143 C  
HETATM   39  N   UNL     1      -5.826  14.534  68.957  1.00  0.00    -0.087 NA 
HETATM   40  C   UNL     1      -7.042  10.961  69.652  1.00  0.00    -0.116 C  
HETATM   41  H2  UNL     1      -6.220  15.297  68.406  1.00  0.00     0.000 HD 
HETATM   42  O   UNL     1      -5.811  12.496  71.082  1.00  0.00    -0.504 OA 
HETATM   43  H1  UNL     1      -5.610  14.831  69.908  1.00  0.00     0.000 HD 
HETATM   44  C   UNL     1      -6.387   9.719  70.252  1.00  0.00    -0.085 C  
HETATM   45  H   UNL     1      -5.430  11.764  71.553  1.00  0.00     0.000 HD 
HETATM   46  O   UNL     1      -7.398  10.636  68.304  1.00  0.00    -0.084 OA 
ENDBRANCH  34  35
ENDBRANCH  22  34
ENDBRANCH   2   3
TORSDOF 5
ENDMDL
MODEL       67
REMARK 921   NORMALIZED FREE ENERGY PREDICTED BY IDOCK:   -4.95 KCAL/MOL
REMARK 922        TOTAL FREE ENERGY PREDICTED BY IDOCK:   -7.45 KCAL/MOL
REMARK 923 INTER-LIGAND FREE ENERGY PREDICTED BY IDOCK:   -6.66 KCAL/MOL
REMARK 924 INTRA-LIGAND FREE ENERGY PREDICTED BY IDOCK:   -0.78 KCAL/MOL
REMARK 927      BINDING AFFINITY PREDICTED BY RF-SCORE:    0.00 PKD
ROOT
HETATM    1  C   UNL     1      -6.112   6.604  70.729  1.00  0.00    -0.028 C  
HETATM    2  O   UNL     1      -5.409   7.116  69.600  1.00  0.00    -0.015 OA 
ENDROOT
BRANCH   2   3
HETATM    3  C   UNL     1      -5.719   6.578  68.379  1.00  0.00    -0.016 A  
HETATM    4  C   UNL     1      -5.248   5.313  67.990  1.00  0.00    -0.004 A  
HETATM    5  C   UNL     1      -5.580   4.777  66.750  1.00  0.00    -0.014 A  
HETATM    6  C   UNL     1      -6.387   5.502  65.885  1.00  0.00    -0.035 A  
HETATM    7  C   UNL     1      -6.851   6.776  66.246  1.00  0.00    -0.060 A  
HETATM    8  C   UNL     1      -6.510   7.333  67.481  1.00  0.00    -0.055 A  
HETATM    9  C   UNL     1      -7.001   8.701  67.797  1.00  0.00    -0.075 C  
HETATM   10  O   UNL     1      -6.652   9.305  68.807  1.00  0.00    -0.052 OA 
HETATM   11  C   UNL     1      -7.937   9.394  66.872  1.00  0.00    -0.109 A  
HETATM   12  C   UNL     1      -8.489  10.644  67.227  1.00  0.00    -0.126 A  
HETATM   13  O   UNL     1      -8.209  11.234  68.439  1.00  0.00    -0.135 OA 
HETATM   14  C   UNL     1      -9.369  11.343  66.374  1.00  0.00    -0.219 A  
HETATM   15  H   UNL     1      -8.580  12.076  68.677  1.00  0.00     0.000 HD 
HETATM   16  C   UNL     1      -9.700  10.769  65.122  1.00  0.00    -0.319 A  
HETATM   17  C   UNL     1      -9.186   9.493  64.801  1.00  0.00    -0.205 A  
HETATM   18  C   UNL     1     -10.634  11.485  64.156  1.00  0.00    -0.420 C  
HETATM   19  C   UNL     1     -10.884  12.956  64.504  1.00  0.00    -0.363 C  
HETATM   20  C   UNL     1      -8.290   8.815  65.656  1.00  0.00    -0.144 A  
HETATM   21  O   UNL     1      -9.590   8.859  63.657  1.00  0.00     0.178 OA 
HETATM   22  C   UNL     1      -9.951  12.681  66.827  1.00  0.00    -0.234 C  
HETATM   23  C   UNL     1      -7.697   7.504  65.280  1.00  0.00    -0.112 C  
HETATM   24  C   UNL     1     -11.186  13.051  66.002  1.00  0.00    -0.320 C  
HETATM   25  O   UNL     1      -9.750  13.738  64.124  1.00  0.00    -0.517 OA 
HETATM   26  H   UNL     1      -9.244   8.001  63.440  1.00  0.00     0.000 HD 
HETATM   27  O   UNL     1      -7.876   6.994  64.180  1.00  0.00    -0.112 OA 
HETATM   28  H   UNL     1      -9.906  14.650  64.340  1.00  0.00     0.000 HD 
BRANCH  19  29
HETATM   29  C   UNL     1     -12.088  13.484  63.706  1.00  0.00    -0.425 C  
HETATM   30  O   UNL     1     -12.554  12.877  62.735  1.00  0.00    -0.125 OA 
BRANCH  29  31
HETATM   31  C   UNL     1     -12.653  14.847  64.102  1.00  0.00     0.113 C  
HETATM   32  O   UNL     1     -11.744  15.903  63.813  1.00  0.00    -1.124 OA 
HETATM   33  H   UNL     1     -12.096  16.750  64.059  1.00  0.00     0.000 HD 
ENDBRANCH  29  31
ENDBRANCH  19  29
BRANCH  22  34
HETATM   34  O   UNL     1      -8.920  13.675  66.704  1.00  0.00    -0.211 OA 
BRANCH  34  35
HETATM   35  C   UNL     1      -9.335  15.039  66.865  1.00  0.00    -0.241 C  
HETATM   36  C   UNL     1     -10.070  15.341  68.173  1.00  0.00    -0.229 C  
HETATM   37  C   UNL     1      -9.111  15.195  69.349  1.00  0.00    -0.180 C  
HETATM   38  C   UNL     1      -7.917  16.154  69.140  1.00  0.00    -0.233 C  
HETATM   39  N   UNL     1      -9.795  15.435  70.629  1.00  0.00    -0.041 NA 
HETATM   40  C   UNL     1      -7.267  15.869  67.774  1.00  0.00    -0.147 C  
HETATM   41  H2  UNL     1     -10.613  14.835  70.735  1.00  0.00     0.000 HD 
HETATM   42  O   UNL     1      -6.946  16.027  70.181  1.00  0.00     0.092 OA 
HETATM   43  H1  UNL     1      -9.154  15.338  71.415  1.00  0.00     0.000 HD 
HETATM   44  C   UNL     1      -6.192  16.907  67.463  1.00  0.00    -0.180 C  
HETATM   45  H   UNL     1      -6.212  16.615  70.052  1.00  0.00     0.000 HD 
HETATM   46  O   UNL     1      -8.219  15.920  66.708  1.00  0.00    -0.221 OA 
ENDBRANCH  34  35
ENDBRANCH  22  34
ENDBRANCH   2   3
TORSDOF 5
ENDMDL
MODEL       68
REMARK 921   NORMALIZED FREE ENERGY PREDICTED BY IDOCK:   -4.82 KCAL/MOL
REMARK 922        TOTAL FREE ENERGY PREDICTED BY IDOCK:   -7.27 KCAL/MOL
REMARK 923 INTER-LIGAND FREE ENERGY PREDICTED BY IDOCK:   -7.91 KCAL/MOL
REMARK 924 INTRA-LIGAND FREE ENERGY PREDICTED BY IDOCK:    0.64 KCAL/MOL
REMARK 927      BINDING AFFINITY PREDICTED BY RF-SCORE:    0.00 PKD
ROOT
HETATM    1  C   UNL     1      -6.664  16.457  69.942  1.00  0.00     0.067 C  
HETATM    2  O   UNL     1      -6.459  15.642  68.792  1.00  0.00    -0.105 OA 
ENDROOT
BRANCH   2   3
HETATM    3  C   UNL     1      -7.446  15.651  67.841  1.00  0.00    -0.133 A  
HETATM    4  C   UNL     1      -7.887  16.845  67.246  1.00  0.00    -0.204 A  
HETATM    5  C   UNL     1      -8.884  16.834  66.276  1.00  0.00    -0.334 A  
HETATM    6  C   UNL     1      -9.449  15.628  65.889  1.00  0.00    -0.376 A  
HETATM    7  C   UNL     1      -9.038  14.427  66.485  1.00  0.00    -0.233 A  
HETATM    8  C   UNL     1      -8.051  14.426  67.474  1.00  0.00    -0.204 A  
HETATM    9  C   UNL     1      -7.678  13.127  68.097  1.00  0.00    -0.143 C  
HETATM   10  O   UNL     1      -6.907  13.054  69.048  1.00  0.00    -0.097 OA 
HETATM   11  C   UNL     1      -8.251  11.856  67.579  1.00  0.00    -0.155 A  
HETATM   12  C   UNL     1      -7.812  10.617  68.096  1.00  0.00    -0.110 A  
HETATM   13  O   UNL     1      -6.827  10.549  69.056  1.00  0.00    -0.058 OA 
HETATM   14  C   UNL     1      -8.339   9.389  67.645  1.00  0.00    -0.119 A  
HETATM   15  H   UNL     1      -6.532   9.716  69.404  1.00  0.00     0.000 HD 
HETATM   16  C   UNL     1      -9.344   9.407  66.648  1.00  0.00    -0.211 A  
HETATM   17  C   UNL     1      -9.737  10.647  66.098  1.00  0.00    -0.205 A  
HETATM   18  C   UNL     1      -9.957   8.111  66.134  1.00  0.00    -0.017 C  
HETATM   19  C   UNL     1      -9.649   6.887  67.001  1.00  0.00    -0.158 C  
HETATM   20  C   UNL     1      -9.214  11.870  66.574  1.00  0.00    -0.216 A  
HETATM   21  O   UNL     1     -10.610  10.685  65.045  1.00  0.00    -0.255 OA 
HETATM   22  C   UNL     1      -7.803   8.082  68.228  1.00  0.00    -0.123 C  
HETATM   23  C   UNL     1      -9.684  13.176  66.041  1.00  0.00    -0.226 C  
HETATM   24  C   UNL     1      -8.153   6.895  67.329  1.00  0.00    -0.118 C  
HETATM   25  O   UNL     1     -10.466   6.911  68.172  1.00  0.00    -0.179 OA 
HETATM   26  H   UNL     1     -10.875  11.520  64.676  1.00  0.00     0.000 HD 
HETATM   27  O   UNL     1     -10.607  13.264  65.239  1.00  0.00    -0.295 OA 
HETATM   28  H   UNL     1     -10.274   6.151  68.710  1.00  0.00     0.000 HD 
BRANCH  19  29
HETATM   29  C   UNL     1      -9.996   5.601  66.231  1.00  0.00    -0.115 C  
HETATM   30  O   UNL     1     -11.133   5.117  66.234  1.00  0.00    -0.142 OA 
BRANCH  29  31
HETATM   31  C   UNL     1      -8.855   4.879  65.516  1.00  0.00    -0.143 C  
HETATM   32  O   UNL     1      -8.934   5.028  64.103  1.00  0.00    -0.285 OA 
HETATM   33  H   UNL     1      -8.224   4.579  63.659  1.00  0.00     0.000 HD 
ENDBRANCH  29  31
ENDBRANCH  19  29
BRANCH  22  34
HETATM   34  O   UNL     1      -8.359   7.925  69.545  1.00  0.00    -0.127 OA 
BRANCH  34  35
HETATM   35  C   UNL     1      -8.717   9.135  70.228  1.00  0.00    -0.200 C  
HETATM   36  C   UNL     1     -10.206   9.487  70.184  1.00  0.00    -0.291 C  
HETATM   37  C   UNL     1     -11.001   8.462  70.987  1.00  0.00    -0.246 C  
HETATM   38  C   UNL     1     -10.469   8.444  72.438  1.00  0.00    -0.332 C  
HETATM   39  N   UNL     1     -12.444   8.743  70.931  1.00  0.00    -0.492 NA 
HETATM   40  C   UNL     1      -8.953   8.174  72.422  1.00  0.00    -0.201 C  
HETATM   41  H2  UNL     1     -12.776   8.805  69.968  1.00  0.00     0.000 HD 
HETATM   42  O   UNL     1     -11.133   7.460  73.234  1.00  0.00    -0.525 OA 
HETATM   43  H1  UNL     1     -12.975   8.057  71.467  1.00  0.00     0.000 HD 
HETATM   44  C   UNL     1      -8.366   8.317  73.824  1.00  0.00    -0.265 C  
HETATM   45  H   UNL     1     -10.805   7.449  74.126  1.00  0.00     0.000 HD 
HETATM   46  O   UNL     1      -8.255   9.098  71.580  1.00  0.00    -0.343 OA 
ENDBRANCH  34  35
ENDBRANCH  22  34
ENDBRANCH   2   3
TORSDOF 5
ENDMDL
MODEL       69
REMARK 921   NORMALIZED FREE ENERGY PREDICTED BY IDOCK:   -4.77 KCAL/MOL
REMARK 922        TOTAL FREE ENERGY PREDICTED BY IDOCK:   -7.22 KCAL/MOL
REMARK 923 INTER-LIGAND FREE ENERGY PREDICTED BY IDOCK:   -5.78 KCAL/MOL
REMARK 924 INTRA-LIGAND FREE ENERGY PREDICTED BY IDOCK:   -1.44 KCAL/MOL
REMARK 927      BINDING AFFINITY PREDICTED BY RF-SCORE:    0.00 PKD
ROOT
HETATM    1  C   UNL     1     -10.843   4.867  66.116  1.00  0.00    -0.050 C  
HETATM    2  O   UNL     1      -9.569   5.443  66.389  1.00  0.00    -0.146 OA 
ENDROOT
BRANCH   2   3
HETATM    3  C   UNL     1      -9.110   5.355  67.677  1.00  0.00    -0.108 A  
HETATM    4  C   UNL     1      -9.107   4.137  68.377  1.00  0.00    -0.179 A  
HETATM    5  C   UNL     1      -8.629   4.063  69.681  1.00  0.00    -0.105 A  
HETATM    6  C   UNL     1      -8.148   5.208  70.299  1.00  0.00    -0.086 A  
HETATM    7  C   UNL     1      -8.161   6.438  69.626  1.00  0.00    -0.126 A  
HETATM    8  C   UNL     1      -8.656   6.529  68.322  1.00  0.00    -0.115 A  
HETATM    9  C   UNL     1      -8.678   7.866  67.668  1.00  0.00    -0.126 C  
HETATM   10  O   UNL     1      -9.200   8.050  66.573  1.00  0.00    -0.167 OA 
HETATM   11  C   UNL     1      -8.066   9.041  68.343  1.00  0.00    -0.108 A  
HETATM   12  C   UNL     1      -7.988  10.282  67.675  1.00  0.00    -0.102 A  
HETATM   13  O   UNL     1      -8.439  10.430  66.381  1.00  0.00    -0.131 OA 
HETATM   14  C   UNL     1      -7.430  11.426  68.283  1.00  0.00    -0.101 A  
HETATM   15  H   UNL     1      -8.386  11.265  65.932  1.00  0.00     0.000 HD 
HETATM   16  C   UNL     1      -6.940  11.320  69.607  1.00  0.00    -0.057 A  
HETATM   17  C   UNL     1      -6.972  10.061  70.247  1.00  0.00    -0.150 A  
HETATM   18  C   UNL     1      -6.339  12.526  70.317  1.00  0.00     0.144 C  
HETATM   19  C   UNL     1      -6.622  13.863  69.625  1.00  0.00    -0.082 C  
HETATM   20  C   UNL     1      -7.553   8.930  69.632  1.00  0.00    -0.072 A  
HETATM   21  O   UNL     1      -6.389   9.900  71.474  1.00  0.00    -0.314 OA 
HETATM   22  C   UNL     1      -7.354  12.734  67.496  1.00  0.00    -0.153 C  
HETATM   23  C   UNL     1      -7.647   7.624  70.339  1.00  0.00    -0.088 C  
HETATM   24  C   UNL     1      -6.347  13.697  68.128  1.00  0.00    -0.123 C  
HETATM   25  O   UNL     1      -7.966  14.266  69.892  1.00  0.00    -0.181 OA 
HETATM   26  H   UNL     1      -6.411   9.054  71.905  1.00  0.00     0.000 HD 
HETATM   27  O   UNL     1      -7.318   7.487  71.511  1.00  0.00    -0.072 OA 
HETATM   28  H   UNL     1      -8.142  15.095  69.463  1.00  0.00     0.000 HD 
BRANCH  19  29
HETATM   29  C   UNL     1      -5.699  14.952  70.197  1.00  0.00    -0.133 C  
HETATM   30  O   UNL     1      -5.140  14.835  71.293  1.00  0.00    -0.126 OA 
BRANCH  29  31
HETATM   31  C   UNL     1      -5.554  16.245  69.394  1.00  0.00    -0.132 C  
HETATM   32  O   UNL     1      -6.792  16.936  69.272  1.00  0.00    -0.230 OA 
HETATM   33  H   UNL     1      -6.701  17.739  68.773  1.00  0.00     0.000 HD 
ENDBRANCH  29  31
ENDBRANCH  19  29
BRANCH  22  34
HETATM   34  O   UNL     1      -8.674  13.304  67.458  1.00  0.00    -0.178 OA 
BRANCH  34  35
HETATM   35  C   UNL     1      -8.849  14.436  66.595  1.00  0.00    -0.159 C  
HETATM   36  C   UNL     1     -10.055  14.354  65.656  1.00  0.00    -0.377 C  
HETATM   37  C   UNL     1     -11.345  14.415  66.469  1.00  0.00    -0.350 C  
HETATM   38  C   UNL     1     -11.355  15.726  67.288  1.00  0.00    -0.059 C  
HETATM   39  N   UNL     1     -12.527  14.294  65.603  1.00  0.00    -0.440 NA 
HETATM   40  C   UNL     1     -10.080  15.801  68.147  1.00  0.00    -0.220 C  
HETATM   41  H2  UNL     1     -12.486  13.453  65.028  1.00  0.00     0.000 HD 
HETATM   42  O   UNL     1     -12.513  15.821  68.121  1.00  0.00    -0.090 OA 
HETATM   43  H1  UNL     1     -13.389  14.335  66.147  1.00  0.00     0.000 HD 
HETATM   44  C   UNL     1      -9.977  17.158  68.839  1.00  0.00    -0.304 C  
HETATM   45  H   UNL     1     -12.519  16.627  68.624  1.00  0.00     0.000 HD 
HETATM   46  O   UNL     1      -8.895  15.642  67.360  1.00  0.00    -0.181 OA 
ENDBRANCH  34  35
ENDBRANCH  22  34
ENDBRANCH   2   3
TORSDOF 5
ENDMDL
MODEL       70
REMARK 921   NORMALIZED FREE ENERGY PREDICTED BY IDOCK:   -4.77 KCAL/MOL
REMARK 922        TOTAL FREE ENERGY PREDICTED BY IDOCK:   -7.21 KCAL/MOL
REMARK 923 INTER-LIGAND FREE ENERGY PREDICTED BY IDOCK:   -7.57 KCAL/MOL
REMARK 924 INTRA-LIGAND FREE ENERGY PREDICTED BY IDOCK:    0.36 KCAL/MOL
REMARK 927      BINDING AFFINITY PREDICTED BY RF-SCORE:    0.00 PKD
ROOT
HETATM    1  C   UNL     1     -12.084  13.765  66.508  1.00  0.00    -0.443 C  
HETATM    2  O   UNL     1     -11.357  14.166  67.666  1.00  0.00    -0.291 OA 
ENDROOT
BRANCH   2   3
HETATM    3  C   UNL     1     -11.936  13.911  68.882  1.00  0.00    -0.358 A  
HETATM    4  C   UNL     1     -12.700  14.879  69.553  1.00  0.00     0.088 A  
HETATM    5  C   UNL     1     -13.288  14.600  70.782  1.00  0.00    -0.272 A  
HETATM    6  C   UNL     1     -13.117  13.348  71.354  1.00  0.00    -0.373 A  
HETATM    7  C   UNL     1     -12.340  12.373  70.710  1.00  0.00    -0.377 A  
HETATM    8  C   UNL     1     -11.729  12.647  69.484  1.00  0.00    -0.374 A  
HETATM    9  C   UNL     1     -10.888  11.589  68.863  1.00  0.00    -0.218 C  
HETATM   10  O   UNL     1     -10.227  11.788  67.848  1.00  0.00    -0.183 OA 
HETATM   11  C   UNL     1     -10.815  10.235  69.474  1.00  0.00    -0.292 A  
HETATM   12  C   UNL     1     -10.107   9.200  68.824  1.00  0.00    -0.197 A  
HETATM   13  O   UNL     1      -9.503   9.402  67.603  1.00  0.00    -0.131 OA 
HETATM   14  C   UNL     1      -9.999   7.906  69.375  1.00  0.00    -0.189 A  
HETATM   15  H   UNL     1      -9.026   8.706  67.166  1.00  0.00     0.000 HD 
HETATM   16  C   UNL     1     -10.617   7.646  70.622  1.00  0.00    -0.225 A  
HETATM   17  C   UNL     1     -11.369   8.672  71.237  1.00  0.00    -0.281 A  
HETATM   18  C   UNL     1     -10.522   6.271  71.269  1.00  0.00    -0.264 C  
HETATM   19  C   UNL     1      -9.462   5.359  70.645  1.00  0.00    -0.166 C  
HETATM   20  C   UNL     1     -11.451   9.968  70.683  1.00  0.00    -0.425 A  
HETATM   21  O   UNL     1     -12.082   8.411  72.376  1.00  0.00    -0.371 OA 
HETATM   22  C   UNL     1      -9.240   6.824  68.609  1.00  0.00    -0.132 C  
HETATM   23  C   UNL     1     -12.185  11.063  71.372  1.00  0.00    -0.186 C  
HETATM   24  C   UNL     1      -9.604   5.429  69.122  1.00  0.00    -0.193 C  
HETATM   25  O   UNL     1      -8.164   5.755  71.092  1.00  0.00    -0.118 OA 
HETATM   26  H   UNL     1     -12.587   9.100  72.790  1.00  0.00     0.000 HD 
HETATM   27  O   UNL     1     -12.670  10.926  72.489  1.00  0.00     0.247 OA 
HETATM   28  H   UNL     1      -7.507   5.190  70.705  1.00  0.00     0.000 HD 
BRANCH  19  29
HETATM   29  C   UNL     1      -9.680   3.909  71.112  1.00  0.00    -0.178 C  
HETATM   30  O   UNL     1      -9.856   2.980  70.317  1.00  0.00    -0.069 OA 
BRANCH  29  31
HETATM   31  C   UNL     1      -9.756   3.658  72.617  1.00  0.00    -0.141 C  
HETATM   32  O   UNL     1      -8.509   3.896  73.259  1.00  0.00    -0.087 OA 
HETATM   33  H   UNL     1      -8.558   3.740  74.195  1.00  0.00     0.000 HD 
ENDBRANCH  29  31
ENDBRANCH  19  29
BRANCH  22  34
HETATM   34  O   UNL     1      -7.833   7.086  68.754  1.00  0.00    -0.114 OA 
BRANCH  34  35
HETATM   35  C   UNL     1      -6.984   6.566  67.721  1.00  0.00    -0.082 C  
HETATM   36  C   UNL     1      -7.692   5.702  66.675  1.00  0.00    -0.100 C  
HETATM   37  C   UNL     1      -8.644   6.565  65.853  1.00  0.00    -0.149 C  
HETATM   38  C   UNL     1      -7.836   7.704  65.189  1.00  0.00    -0.124 C  
HETATM   39  N   UNL     1      -9.377   5.758  64.865  1.00  0.00    -0.215 NA 
HETATM   40  C   UNL     1      -7.074   8.487  66.273  1.00  0.00    -0.078 C  
HETATM   41  H2  UNL     1      -9.864   4.978  65.306  1.00  0.00     0.000 HD 
HETATM   42  O   UNL     1      -8.679   8.588  64.447  1.00  0.00    -0.391 OA 
HETATM   43  H1  UNL     1     -10.013   6.335  64.316  1.00  0.00     0.000 HD 
HETATM   44  C   UNL     1      -6.136   9.510  65.638  1.00  0.00    -0.064 C  
HETATM   45  H   UNL     1      -8.183   9.288  64.040  1.00  0.00     0.000 HD 
HETATM   46  O   UNL     1      -6.267   7.627  67.085  1.00  0.00    -0.049 OA 
ENDBRANCH  34  35
ENDBRANCH  22  34
ENDBRANCH   2   3
TORSDOF 5
ENDMDL
MODEL       71
REMARK 921   NORMALIZED FREE ENERGY PREDICTED BY IDOCK:   -4.59 KCAL/MOL
REMARK 922        TOTAL FREE ENERGY PREDICTED BY IDOCK:   -6.98 KCAL/MOL
REMARK 923 INTER-LIGAND FREE ENERGY PREDICTED BY IDOCK:   -7.31 KCAL/MOL
REMARK 924 INTRA-LIGAND FREE ENERGY PREDICTED BY IDOCK:    0.33 KCAL/MOL
REMARK 927      BINDING AFFINITY PREDICTED BY RF-SCORE:    0.00 PKD
ROOT
HETATM    1  C   UNL     1      -8.398  16.508  67.998  1.00  0.00    -0.180 C  
HETATM    2  O   UNL     1      -9.570  15.698  67.980  1.00  0.00    -0.202 OA 
ENDROOT
BRANCH   2   3
HETATM    3  C   UNL     1     -10.117  15.424  66.754  1.00  0.00    -0.262 A  
HETATM    4  C   UNL     1     -10.856  16.385  66.044  1.00  0.00    -0.093 A  
HETATM    5  C   UNL     1     -11.396  16.093  64.796  1.00  0.00    -0.253 A  
HETATM    6  C   UNL     1     -11.203  14.835  64.245  1.00  0.00    -0.029 A  
HETATM    7  C   UNL     1     -10.486  13.854  64.946  1.00  0.00    -0.446 A  
HETATM    8  C   UNL     1      -9.954  14.129  66.208  1.00  0.00    -0.315 A  
HETATM    9  C   UNL     1      -9.233  13.040  66.922  1.00  0.00    -0.236 C  
HETATM   10  O   UNL     1      -8.837  13.164  68.076  1.00  0.00    -0.176 OA 
HETATM   11  C   UNL     1      -8.977  11.741  66.244  1.00  0.00    -0.176 A  
HETATM   12  C   UNL     1      -8.197  10.751  66.880  1.00  0.00    -0.130 A  
HETATM   13  O   UNL     1      -7.627  10.970  68.115  1.00  0.00    -0.088 OA 
HETATM   14  C   UNL     1      -7.942   9.500  66.281  1.00  0.00    -0.107 A  
HETATM   15  H   UNL     1      -7.102  10.304  68.542  1.00  0.00     0.000 HD 
HETATM   16  C   UNL     1      -8.494   9.233  65.005  1.00  0.00    -0.178 A  
HETATM   17  C   UNL     1      -9.228  10.250  64.354  1.00  0.00    -0.252 A  
HETATM   18  C   UNL     1      -8.262   7.894  64.317  1.00  0.00    -0.042 C  
HETATM   19  C   UNL     1      -7.702   6.807  65.240  1.00  0.00    -0.106 C  
HETATM   20  C   UNL     1      -9.491  11.490  64.975  1.00  0.00    -0.174 A  
HETATM   21  O   UNL     1      -9.662  10.067  63.069  1.00  0.00    -0.497 OA 
HETATM   22  C   UNL     1      -7.069   8.481  67.012  1.00  0.00    -0.075 C  
HETATM   23  C   UNL     1     -10.323  12.530  64.313  1.00  0.00    -0.370 C  
HETATM   24  C   UNL     1      -6.551   7.410  66.049  1.00  0.00    -0.049 C  
HETATM   25  O   UNL     1      -8.747   6.298  66.071  1.00  0.00    -0.144 OA 
HETATM   26  H   UNL     1     -10.156  10.750  62.631  1.00  0.00     0.000 HD 
HETATM   27  O   UNL     1     -10.897  12.331  63.248  1.00  0.00    -0.435 OA 
HETATM   28  H   UNL     1      -8.399   5.624  66.642  1.00  0.00     0.000 HD 
BRANCH  19  29
HETATM   29  C   UNL     1      -7.175   5.631  64.400  1.00  0.00    -0.058 C  
HETATM   30  O   UNL     1      -5.970   5.380  64.300  1.00  0.00    -0.021 OA 
BRANCH  29  31
HETATM   31  C   UNL     1      -8.199   4.815  63.611  1.00  0.00    -0.112 C  
HETATM   32  O   UNL     1      -8.213   3.450  64.011  1.00  0.00    -0.088 OA 
HETATM   33  H   UNL     1      -8.849   2.944  63.520  1.00  0.00     0.000 HD 
ENDBRANCH  29  31
ENDBRANCH  19  29
BRANCH  22  34
HETATM   34  O   UNL     1      -7.856   7.901  68.067  1.00  0.00    -0.121 OA 
BRANCH  34  35
HETATM   35  C   UNL     1      -8.699   8.805  68.796  1.00  0.00    -0.137 C  
HETATM   36  C   UNL     1     -10.172   8.394  68.876  1.00  0.00    -0.223 C  
HETATM   37  C   UNL     1     -10.309   7.133  69.722  1.00  0.00    -0.214 C  
HETATM   38  C   UNL     1      -9.724   7.409  71.126  1.00  0.00    -0.163 C  
HETATM   39  N   UNL     1     -11.708   6.683  69.785  1.00  0.00    -0.650 NA 
HETATM   40  C   UNL     1      -8.273   7.903  70.985  1.00  0.00    -0.100 C  
HETATM   41  H2  UNL     1     -12.102   6.554  68.852  1.00  0.00     0.000 HD 
HETATM   42  O   UNL     1      -9.768   6.246  71.956  1.00  0.00    -0.153 OA 
HETATM   43  H1  UNL     1     -11.800   5.839  70.350  1.00  0.00     0.000 HD 
HETATM   44  C   UNL     1      -7.721   8.344  72.339  1.00  0.00    -0.145 C  
HETATM   45  H   UNL     1      -9.408   6.415  72.818  1.00  0.00     0.000 HD 
HETATM   46  O   UNL     1      -8.174   9.028  70.106  1.00  0.00    -0.109 OA 
ENDBRANCH  34  35
ENDBRANCH  22  34
ENDBRANCH   2   3
TORSDOF 5
ENDMDL
MODEL       72
REMARK 921   NORMALIZED FREE ENERGY PREDICTED BY IDOCK:   -4.55 KCAL/MOL
REMARK 922        TOTAL FREE ENERGY PREDICTED BY IDOCK:   -6.93 KCAL/MOL
REMARK 923 INTER-LIGAND FREE ENERGY PREDICTED BY IDOCK:   -7.16 KCAL/MOL
REMARK 924 INTRA-LIGAND FREE ENERGY PREDICTED BY IDOCK:    0.23 KCAL/MOL
REMARK 927      BINDING AFFINITY PREDICTED BY RF-SCORE:    0.00 PKD
ROOT
HETATM    1  C   UNL     1     -10.967   4.324  65.056  1.00  0.00     0.007 C  
HETATM    2  O   UNL     1     -10.690   4.656  66.414  1.00  0.00    -0.196 OA 
ENDROOT
BRANCH   2   3
HETATM    3  C   UNL     1      -9.377   4.631  66.803  1.00  0.00    -0.146 A  
HETATM    4  C   UNL     1      -8.664   3.427  66.917  1.00  0.00    -0.130 A  
HETATM    5  C   UNL     1      -7.328   3.421  67.305  1.00  0.00    -0.059 A  
HETATM    6  C   UNL     1      -6.691   4.620  67.585  1.00  0.00    -0.051 A  
HETATM    7  C   UNL     1      -7.391   5.833  67.498  1.00  0.00    -0.077 A  
HETATM    8  C   UNL     1      -8.738   5.852  67.126  1.00  0.00    -0.108 A  
HETATM    9  C   UNL     1      -9.440   7.163  67.085  1.00  0.00    -0.147 C  
HETATM   10  O   UNL     1     -10.646   7.254  66.881  1.00  0.00    -0.316 OA 
HETATM   11  C   UNL     1      -8.685   8.425  67.304  1.00  0.00    -0.130 A  
HETATM   12  C   UNL     1      -9.328   9.673  67.154  1.00  0.00    -0.139 A  
HETATM   13  O   UNL     1     -10.648   9.757  66.768  1.00  0.00    -0.206 OA 
HETATM   14  C   UNL     1      -8.654  10.893  67.367  1.00  0.00    -0.127 A  
HETATM   15  H   UNL     1     -11.081  10.596  66.667  1.00  0.00     0.000 HD 
HETATM   16  C   UNL     1      -7.292  10.858  67.750  1.00  0.00    -0.093 A  
HETATM   17  C   UNL     1      -6.642   9.607  67.845  1.00  0.00    -0.062 A  
HETATM   18  C   UNL     1      -6.519  12.145  68.006  1.00  0.00    -0.069 C  
HETATM   19  C   UNL     1      -7.403  13.388  68.142  1.00  0.00    -0.117 C  
HETATM   20  C   UNL     1      -7.336   8.393  67.647  1.00  0.00    -0.093 A  
HETATM   21  O   UNL     1      -5.296   9.550  68.086  1.00  0.00    -0.037 OA 
HETATM   22  C   UNL     1      -9.402  12.210  67.164  1.00  0.00    -0.193 C  
HETATM   23  C   UNL     1      -6.663   7.077  67.818  1.00  0.00    -0.071 C  
HETATM   24  C   UNL     1      -8.426  13.377  67.003  1.00  0.00    -0.137 C  
HETATM   25  O   UNL     1      -8.020  13.400  69.431  1.00  0.00    -0.191 OA 
HETATM   26  H   UNL     1      -4.859   8.708  68.150  1.00  0.00     0.000 HD 
HETATM   27  O   UNL     1      -5.513   6.977  68.227  1.00  0.00    -0.018 OA 
HETATM   28  H   UNL     1      -8.568  14.171  69.515  1.00  0.00     0.000 HD 
BRANCH  19  29
HETATM   29  C   UNL     1      -6.539  14.657  68.041  1.00  0.00    -0.146 C  
HETATM   30  O   UNL     1      -5.717  14.824  67.134  1.00  0.00    -0.197 OA 
BRANCH  29  31
HETATM   31  C   UNL     1      -6.669  15.688  69.161  1.00  0.00    -0.149 C  
HETATM   32  O   UNL     1      -7.915  16.373  69.112  1.00  0.00    -0.239 OA 
HETATM   33  H   UNL     1      -7.995  17.014  69.808  1.00  0.00     0.000 HD 
ENDBRANCH  29  31
ENDBRANCH  19  29
BRANCH  22  34
HETATM   34  O   UNL     1     -10.271  12.403  68.294  1.00  0.00    -0.218 OA 
BRANCH  34  35
HETATM   35  C   UNL     1     -11.609  12.826  67.997  1.00  0.00    -0.341 C  
HETATM   36  C   UNL     1     -11.848  14.335  68.094  1.00  0.00    -0.374 C  
HETATM   37  C   UNL     1     -11.073  15.051  66.993  1.00  0.00    -0.334 C  
HETATM   38  C   UNL     1     -11.526  14.496  65.623  1.00  0.00    -0.341 C  
HETATM   39  N   UNL     1     -11.243  16.509  67.082  1.00  0.00     0.080 NA 
HETATM   40  C   UNL     1     -11.348  12.967  65.608  1.00  0.00    -0.311 C  
HETATM   41  H2  UNL     1     -10.992  16.860  68.007  1.00  0.00     0.000 HD 
HETATM   42  O   UNL     1     -10.795  15.084  64.545  1.00  0.00    -0.620 OA 
HETATM   43  H1  UNL     1     -10.725  16.987  66.346  1.00  0.00     0.000 HD 
HETATM   44  C   UNL     1     -11.942  12.368  64.335  1.00  0.00    -0.482 C  
HETATM   45  H   UNL     1     -11.073  14.743  63.703  1.00  0.00     0.000 HD 
HETATM   46  O   UNL     1     -12.010  12.341  66.713  1.00  0.00    -0.586 OA 
ENDBRANCH  34  35
ENDBRANCH  22  34
ENDBRANCH   2   3
TORSDOF 5
ENDMDL
MODEL       73
REMARK 921   NORMALIZED FREE ENERGY PREDICTED BY IDOCK:   -4.55 KCAL/MOL
REMARK 922        TOTAL FREE ENERGY PREDICTED BY IDOCK:   -6.93 KCAL/MOL
REMARK 923 INTER-LIGAND FREE ENERGY PREDICTED BY IDOCK:   -7.04 KCAL/MOL
REMARK 924 INTRA-LIGAND FREE ENERGY PREDICTED BY IDOCK:    0.12 KCAL/MOL
REMARK 927      BINDING AFFINITY PREDICTED BY RF-SCORE:    0.00 PKD
ROOT
HETATM    1  C   UNL     1      -5.733   6.372  70.529  1.00  0.00    -0.019 C  
HETATM    2  O   UNL     1      -5.643   7.416  69.564  1.00  0.00    -0.022 OA 
ENDROOT
BRANCH   2   3
HETATM    3  C   UNL     1      -5.983   7.103  68.275  1.00  0.00    -0.030 A  
HETATM    4  C   UNL     1      -5.610   5.881  67.689  1.00  0.00    -0.012 A  
HETATM    5  C   UNL     1      -5.972   5.575  66.382  1.00  0.00    -0.018 A  
HETATM    6  C   UNL     1      -6.711   6.488  65.645  1.00  0.00    -0.048 A  
HETATM    7  C   UNL     1      -7.076   7.722  66.203  1.00  0.00    -0.069 A  
HETATM    8  C   UNL     1      -6.703   8.049  67.509  1.00  0.00    -0.069 A  
HETATM    9  C   UNL     1      -7.088   9.386  68.038  1.00  0.00    -0.081 C  
HETATM   10  O   UNL     1      -6.702   9.795  69.129  1.00  0.00    -0.051 OA 
HETATM   11  C   UNL     1      -7.958  10.287  67.237  1.00  0.00    -0.107 A  
HETATM   12  C   UNL     1      -8.413  11.506  67.785  1.00  0.00    -0.137 A  
HETATM   13  O   UNL     1      -8.098  11.875  69.074  1.00  0.00    -0.350 OA 
HETATM   14  C   UNL     1      -9.227  12.398  67.055  1.00  0.00    -0.208 A  
HETATM   15  H   UNL     1      -8.404  12.695  69.443  1.00  0.00     0.000 HD 
HETATM   16  C   UNL     1      -9.591  12.055  65.731  1.00  0.00    -0.227 A  
HETATM   17  C   UNL     1      -9.176  10.809  65.211  1.00  0.00    -0.204 A  
HETATM   18  C   UNL     1     -10.457  12.986  64.893  1.00  0.00    -0.358 C  
HETATM   19  C   UNL     1     -10.593  14.399  65.468  1.00  0.00    -0.347 C  
HETATM   20  C   UNL     1      -8.345   9.936  65.946  1.00  0.00    -0.126 A  
HETATM   21  O   UNL     1      -9.620  10.396  63.983  1.00  0.00    -0.277 OA 
HETATM   22  C   UNL     1      -9.706  13.690  67.716  1.00  0.00    -0.225 C  
HETATM   23  C   UNL     1      -7.854   8.657  65.366  1.00  0.00    -0.101 C  
HETATM   24  C   UNL     1     -10.900  14.281  66.964  1.00  0.00    -0.297 C  
HETATM   25  O   UNL     1      -9.398  15.138  65.212  1.00  0.00    -0.310 OA 
HETATM   26  H   UNL     1      -9.341   9.558  63.633  1.00  0.00     0.000 HD 
HETATM   27  O   UNL     1      -8.063   8.343  64.200  1.00  0.00    -0.148 OA 
HETATM   28  H   UNL     1      -9.483  16.015  65.568  1.00  0.00     0.000 HD 
BRANCH  19  29
HETATM   29  C   UNL     1     -11.745  15.139  64.767  1.00  0.00    -0.331 C  
HETATM   30  O   UNL     1     -11.577  16.211  64.175  1.00  0.00    -0.670 OA 
BRANCH  29  31
HETATM   31  C   UNL     1     -13.146  14.544  64.896  1.00  0.00     0.434 C  
HETATM   32  O   UNL     1     -13.160  13.151  64.607  1.00  0.00    -0.699 OA 
HETATM   33  H   UNL     1     -14.032  12.781  64.688  1.00  0.00     0.000 HD 
ENDBRANCH  29  31
ENDBRANCH  19  29
BRANCH  22  34
HETATM   34  O   UNL     1      -8.598  14.606  67.747  1.00  0.00    -0.158 OA 
BRANCH  34  35
HETATM   35  C   UNL     1      -8.219  15.096  69.041  1.00  0.00    -0.193 C  
HETATM   36  C   UNL     1      -7.439  16.413  69.032  1.00  0.00    -0.227 C  
HETATM   37  C   UNL     1      -8.343  17.544  68.553  1.00  0.00    -0.274 C  
HETATM   38  C   UNL     1      -9.575  17.625  69.484  1.00  0.00     0.368 C  
HETATM   39  N   UNL     1      -7.614  18.819  68.489  1.00  0.00    -0.317 NA 
HETATM   40  C   UNL     1     -10.272  16.253  69.528  1.00  0.00    -0.251 C  
HETATM   41  H2  UNL     1      -6.774  18.742  67.915  1.00  0.00     0.000 HD 
HETATM   42  O   UNL     1     -10.496  18.630  69.057  1.00  0.00    -0.447 OA 
HETATM   43  H1  UNL     1      -8.218  19.575  68.169  1.00  0.00     0.000 HD 
HETATM   44  C   UNL     1     -11.391  16.252  70.567  1.00  0.00    -0.318 C  
HETATM   45  H   UNL     1     -11.253  18.680  69.629  1.00  0.00     0.000 HD 
HETATM   46  O   UNL     1      -9.367  15.204  69.886  1.00  0.00    -0.117 OA 
ENDBRANCH  34  35
ENDBRANCH  22  34
ENDBRANCH   2   3
TORSDOF 5
ENDMDL
MODEL       74
REMARK 921   NORMALIZED FREE ENERGY PREDICTED BY IDOCK:   -4.47 KCAL/MOL
REMARK 922        TOTAL FREE ENERGY PREDICTED BY IDOCK:   -6.83 KCAL/MOL
REMARK 923 INTER-LIGAND FREE ENERGY PREDICTED BY IDOCK:   -6.96 KCAL/MOL
REMARK 924 INTRA-LIGAND FREE ENERGY PREDICTED BY IDOCK:    0.14 KCAL/MOL
REMARK 927      BINDING AFFINITY PREDICTED BY RF-SCORE:    0.00 PKD
ROOT
HETATM    1  C   UNL     1      -8.531   3.554  64.317  1.00  0.00    -0.090 C  
HETATM    2  O   UNL     1      -9.176   4.485  65.181  1.00  0.00    -0.147 OA 
ENDROOT
BRANCH   2   3
HETATM    3  C   UNL     1      -8.932   4.358  66.523  1.00  0.00    -0.117 A  
HETATM    4  C   UNL     1      -9.043   3.121  67.180  1.00  0.00    -0.203 A  
HETATM    5  C   UNL     1      -8.783   3.009  68.541  1.00  0.00    -0.141 A  
HETATM    6  C   UNL     1      -8.409   4.133  69.262  1.00  0.00    -0.083 A  
HETATM    7  C   UNL     1      -8.313   5.382  68.630  1.00  0.00    -0.093 A  
HETATM    8  C   UNL     1      -8.589   5.512  67.267  1.00  0.00    -0.108 A  
HETATM    9  C   UNL     1      -8.505   6.866  66.656  1.00  0.00    -0.121 C  
HETATM   10  O   UNL     1      -8.842   7.084  65.497  1.00  0.00    -0.083 OA 
HETATM   11  C   UNL     1      -8.011   8.019  67.455  1.00  0.00    -0.122 A  
HETATM   12  C   UNL     1      -7.825   9.278  66.844  1.00  0.00    -0.098 A  
HETATM   13  O   UNL     1      -8.060   9.464  65.500  1.00  0.00    -0.111 OA 
HETATM   14  C   UNL     1      -7.373  10.402  67.567  1.00  0.00    -0.092 A  
HETATM   15  H   UNL     1      -7.935  10.312  65.089  1.00  0.00     0.000 HD 
HETATM   16  C   UNL     1      -7.104  10.256  68.949  1.00  0.00    -0.075 A  
HETATM   17  C   UNL     1      -7.240   8.980  69.539  1.00  0.00    -0.060 A  
HETATM   18  C   UNL     1      -6.626  11.439  69.781  1.00  0.00    -0.111 C  
HETATM   19  C   UNL     1      -6.794  12.796  69.091  1.00  0.00    -0.054 C  
HETATM   20  C   UNL     1      -7.713   7.869  68.807  1.00  0.00    -0.112 A  
HETATM   21  O   UNL     1      -6.864   8.782  70.840  1.00  0.00    -0.053 OA 
HETATM   22  C   UNL     1      -7.170  11.731  66.841  1.00  0.00    -0.103 C  
HETATM   23  C   UNL     1      -7.921   6.545  69.451  1.00  0.00    -0.114 C  
HETATM   24  C   UNL     1      -6.279  12.672  67.655  1.00  0.00    -0.148 C  
HETATM   25  O   UNL     1      -8.163  13.198  69.149  1.00  0.00    -0.314 OA 
HETATM   26  H   UNL     1      -6.955   7.924  71.237  1.00  0.00     0.000 HD 
HETATM   27  O   UNL     1      -7.787   6.373  70.657  1.00  0.00    -0.102 OA 
HETATM   28  H   UNL     1      -8.267  14.039  68.721  1.00  0.00     0.000 HD 
BRANCH  19  29
HETATM   29  C   UNL     1      -5.975  13.865  69.836  1.00  0.00    -0.134 C  
HETATM   30  O   UNL     1      -5.705  14.959  69.331  1.00  0.00    -0.094 OA 
BRANCH  29  31
HETATM   31  C   UNL     1      -5.424  13.497  71.213  1.00  0.00    -0.207 C  
HETATM   32  O   UNL     1      -6.279  13.935  72.262  1.00  0.00    -0.412 OA 
HETATM   33  H   UNL     1      -5.936  13.706  73.118  1.00  0.00     0.000 HD 
ENDBRANCH  29  31
ENDBRANCH  19  29
BRANCH  22  34
HETATM   34  O   UNL     1      -8.467  12.308  66.606  1.00  0.00    -0.154 OA 
BRANCH  34  35
HETATM   35  C   UNL     1      -9.590  11.437  66.798  1.00  0.00    -0.188 C  
HETATM   36  C   UNL     1     -10.578  11.884  67.878  1.00  0.00    -0.229 C  
HETATM   37  C   UNL     1     -11.283  13.162  67.435  1.00  0.00    -0.287 C  
HETATM   38  C   UNL     1     -11.999  12.896  66.091  1.00  0.00    -0.429 C  
HETATM   39  N   UNL     1     -12.209  13.647  68.468  1.00  0.00    -0.385 NA 
HETATM   40  C   UNL     1     -10.980  12.365  65.066  1.00  0.00    -0.298 C  
HETATM   41  H2  UNL     1     -11.739  13.770  69.365  1.00  0.00     0.000 HD 
HETATM   42  O   UNL     1     -12.633  14.073  65.586  1.00  0.00    -0.497 OA 
HETATM   43  H1  UNL     1     -12.680  14.502  68.171  1.00  0.00     0.000 HD 
HETATM   44  C   UNL     1     -11.683  11.933  63.782  1.00  0.00    -0.554 C  
HETATM   45  H   UNL     1     -13.073  13.909  64.760  1.00  0.00     0.000 HD 
HETATM   46  O   UNL     1     -10.271  11.223  65.559  1.00  0.00    -0.239 OA 
ENDBRANCH  34  35
ENDBRANCH  22  34
ENDBRANCH   2   3
TORSDOF 5
ENDMDL
MODEL       75
REMARK 921   NORMALIZED FREE ENERGY PREDICTED BY IDOCK:   -4.37 KCAL/MOL
REMARK 922        TOTAL FREE ENERGY PREDICTED BY IDOCK:   -6.70 KCAL/MOL
REMARK 923 INTER-LIGAND FREE ENERGY PREDICTED BY IDOCK:   -8.19 KCAL/MOL
REMARK 924 INTRA-LIGAND FREE ENERGY PREDICTED BY IDOCK:    1.49 KCAL/MOL
REMARK 927      BINDING AFFINITY PREDICTED BY RF-SCORE:    0.00 PKD
ROOT
HETATM    1  C   UNL     1      -8.142   5.852  69.907  1.00  0.00    -0.116 C  
HETATM    2  O   UNL     1      -8.662   7.012  69.262  1.00  0.00    -0.135 OA 
ENDROOT
BRANCH   2   3
HETATM    3  C   UNL     1      -8.567   7.057  67.896  1.00  0.00    -0.126 A  
HETATM    4  C   UNL     1      -8.282   5.910  67.137  1.00  0.00    -0.105 A  
HETATM    5  C   UNL     1      -8.199   5.973  65.751  1.00  0.00    -0.136 A  
HETATM    6  C   UNL     1      -8.399   7.185  65.107  1.00  0.00    -0.081 A  
HETATM    7  C   UNL     1      -8.664   8.347  65.847  1.00  0.00    -0.197 A  
HETATM    8  C   UNL     1      -8.732   8.301  67.242  1.00  0.00    -0.126 A  
HETATM    9  C   UNL     1      -8.981   9.570  67.978  1.00  0.00    -0.123 C  
HETATM   10  O   UNL     1      -8.942   9.635  69.202  1.00  0.00    -0.138 OA 
HETATM   11  C   UNL     1      -9.280  10.822  67.233  1.00  0.00    -0.158 A  
HETATM   12  C   UNL     1      -9.626  11.998  67.933  1.00  0.00    -0.196 A  
HETATM   13  O   UNL     1      -9.731  12.011  69.306  1.00  0.00    -0.327 OA 
HETATM   14  C   UNL     1      -9.901  13.211  67.268  1.00  0.00    -0.232 A  
HETATM   15  H   UNL     1      -9.964  12.803  69.777  1.00  0.00     0.000 HD 
HETATM   16  C   UNL     1      -9.821  13.244  65.854  1.00  0.00    -0.241 A  
HETATM   17  C   UNL     1      -9.528  12.049  65.161  1.00  0.00     0.010 A  
HETATM   18  C   UNL     1     -10.096  14.530  65.086  1.00  0.00    -0.361 C  
HETATM   19  C   UNL     1     -10.121  15.787  65.960  1.00  0.00    -0.337 C  
HETATM   20  C   UNL     1      -9.234  10.847  65.842  1.00  0.00    -0.214 A  
HETATM   21  O   UNL     1      -9.570  12.021  63.793  1.00  0.00    -0.529 OA 
HETATM   22  C   UNL     1     -10.294  14.443  68.082  1.00  0.00    -0.231 C  
HETATM   23  C   UNL     1      -8.857   9.610  65.107  1.00  0.00    -0.180 C  
HETATM   24  C   UNL     1     -10.970  15.494  67.199  1.00  0.00    -0.295 C  
HETATM   25  O   UNL     1      -8.784  16.168  66.291  1.00  0.00    -0.293 OA 
HETATM   26  H   UNL     1      -9.373  11.218  63.326  1.00  0.00     0.000 HD 
HETATM   27  O   UNL     1      -8.689   9.593  63.894  1.00  0.00    -0.193 OA 
HETATM   28  H   UNL     1      -8.800  16.947  66.833  1.00  0.00     0.000 HD 
BRANCH  19  29
HETATM   29  C   UNL     1     -10.745  16.955  65.177  1.00  0.00    -0.103 C  
HETATM   30  O   UNL     1     -11.196  16.817  64.035  1.00  0.00    -1.089 OA 
BRANCH  29  31
HETATM   31  C   UNL     1     -10.716  18.336  65.831  1.00  0.00    -0.144 C  
HETATM   32  O   UNL     1      -9.406  18.889  65.846  1.00  0.00    -0.454 OA 
HETATM   33  H   UNL     1      -9.388  19.748  66.252  1.00  0.00     0.000 HD 
ENDBRANCH  29  31
ENDBRANCH  19  29
BRANCH  22  34
HETATM   34  O   UNL     1      -9.103  14.963  68.698  1.00  0.00    -0.174 OA 
BRANCH  34  35
HETATM   35  C   UNL     1      -7.863  14.630  68.057  1.00  0.00    -0.133 C  
HETATM   36  C   UNL     1      -6.934  15.817  67.790  1.00  0.00    -0.173 C  
HETATM   37  C   UNL     1      -6.426  16.382  69.113  1.00  0.00    -0.187 C  
HETATM   38  C   UNL     1      -5.699  15.259  69.888  1.00  0.00    -0.126 C  
HETATM   39  N   UNL     1      -5.564  17.553  68.897  1.00  0.00    -0.160 NA 
HETATM   40  C   UNL     1      -6.646  14.056  70.053  1.00  0.00    -0.025 C  
HETATM   41  H2  UNL     1      -6.034  18.267  68.340  1.00  0.00     0.000 HD 
HETATM   42  O   UNL     1      -5.247  15.706  71.168  1.00  0.00    -0.154 OA 
HETATM   43  H1  UNL     1      -5.226  17.930  69.782  1.00  0.00     0.000 HD 
HETATM   44  C   UNL     1      -5.906  12.869  70.664  1.00  0.00    -0.109 C  
HETATM   45  H   UNL     1      -4.800  15.016  71.644  1.00  0.00     0.000 HD 
HETATM   46  O   UNL     1      -7.176  13.618  68.798  1.00  0.00    -0.100 OA 
ENDBRANCH  34  35
ENDBRANCH  22  34
ENDBRANCH   2   3
TORSDOF 5
ENDMDL
MODEL       76
REMARK 921   NORMALIZED FREE ENERGY PREDICTED BY IDOCK:   -4.35 KCAL/MOL
REMARK 922        TOTAL FREE ENERGY PREDICTED BY IDOCK:   -6.67 KCAL/MOL
REMARK 923 INTER-LIGAND FREE ENERGY PREDICTED BY IDOCK:   -5.67 KCAL/MOL
REMARK 924 INTRA-LIGAND FREE ENERGY PREDICTED BY IDOCK:   -1.01 KCAL/MOL
REMARK 927      BINDING AFFINITY PREDICTED BY RF-SCORE:    0.00 PKD
ROOT
HETATM    1  C   UNL     1     -10.678   3.879  63.092  1.00  0.00    -0.125 C  
HETATM    2  O   UNL     1      -9.325   4.173  63.427  1.00  0.00    -0.139 OA 
ENDROOT
BRANCH   2   3
HETATM    3  C   UNL     1      -8.905   3.818  64.682  1.00  0.00    -0.120 A  
HETATM    4  C   UNL     1      -8.839   2.474  65.086  1.00  0.00    -0.120 A  
HETATM    5  C   UNL     1      -8.401   2.132  66.361  1.00  0.00    -0.095 A  
HETATM    6  C   UNL     1      -8.025   3.130  67.246  1.00  0.00    -0.078 A  
HETATM    7  C   UNL     1      -8.103   4.480  66.871  1.00  0.00    -0.102 A  
HETATM    8  C   UNL     1      -8.558   4.838  65.600  1.00  0.00    -0.127 A  
HETATM    9  C   UNL     1      -8.654   6.285  65.267  1.00  0.00    -0.061 C  
HETATM   10  O   UNL     1      -9.150   6.685  64.219  1.00  0.00     0.780 OA 
HETATM   11  C   UNL     1      -8.151   7.308  66.222  1.00  0.00    -0.121 A  
HETATM   12  C   UNL     1      -8.140   8.673  65.858  1.00  0.00    -0.111 A  
HETATM   13  O   UNL     1      -8.555   9.087  64.612  1.00  0.00    -0.173 OA 
HETATM   14  C   UNL     1      -7.686   9.678  66.738  1.00  0.00    -0.098 A  
HETATM   15  H   UNL     1      -8.548  10.005  64.368  1.00  0.00     0.000 HD 
HETATM   16  C   UNL     1      -7.235   9.300  68.026  1.00  0.00    -0.079 A  
HETATM   17  C   UNL     1      -7.198   7.927  68.359  1.00  0.00    -0.089 A  
HETATM   18  C   UNL     1      -6.746  10.344  69.020  1.00  0.00    -0.061 C  
HETATM   19  C   UNL     1      -7.101  11.785  68.638  1.00  0.00    -0.101 C  
HETATM   20  C   UNL     1      -7.675   6.935  67.475  1.00  0.00    -0.111 A  
HETATM   21  O   UNL     1      -6.647   7.524  69.546  1.00  0.00    -0.035 OA 
HETATM   22  C   UNL     1      -7.677  11.134  66.275  1.00  0.00    -0.097 C  
HETATM   23  C   UNL     1      -7.700   5.498  67.860  1.00  0.00    -0.092 C  
HETATM   24  C   UNL     1      -6.763  11.986  67.158  1.00  0.00    -0.136 C  
HETATM   25  O   UNL     1      -8.479  12.031  68.924  1.00  0.00    -0.360 OA 
HETATM   26  H   UNL     1      -6.623   6.602  69.770  1.00  0.00     0.000 HD 
HETATM   27  O   UNL     1      -7.402   5.115  68.986  1.00  0.00    -0.060 OA 
HETATM   28  H   UNL     1      -8.698  12.924  68.687  1.00  0.00     0.000 HD 
BRANCH  19  29
HETATM   29  C   UNL     1      -6.278  12.768  69.488  1.00  0.00    -0.120 C  
HETATM   30  O   UNL     1      -6.233  13.977  69.239  1.00  0.00    -0.093 OA 
BRANCH  29  31
HETATM   31  C   UNL     1      -5.435  12.184  70.621  1.00  0.00    -0.162 C  
HETATM   32  O   UNL     1      -5.773  12.751  71.881  1.00  0.00    -0.420 OA 
HETATM   33  H   UNL     1      -5.248  12.388  72.585  1.00  0.00     0.000 HD 
ENDBRANCH  29  31
ENDBRANCH  19  29
BRANCH  22  34
HETATM   34  O   UNL     1      -9.032  11.614  66.303  1.00  0.00    -0.202 OA 
BRANCH  34  35
HETATM   35  C   UNL     1      -9.296  12.804  65.546  1.00  0.00     0.237 C  
HETATM   36  C   UNL     1     -10.600  12.786  64.745  1.00  0.00    -0.348 C  
HETATM   37  C   UNL     1     -11.791  12.786  65.698  1.00  0.00    -0.425 C  
HETATM   38  C   UNL     1     -11.703  14.036  66.605  1.00  0.00    -0.399 C  
HETATM   39  N   UNL     1     -13.063  12.724  64.964  1.00  0.00    -0.770 NA 
HETATM   40  C   UNL     1     -10.339  14.053  67.319  1.00  0.00    -0.264 C  
HETATM   41  H2  UNL     1     -13.091  11.925  64.329  1.00  0.00     0.000 HD 
HETATM   42  O   UNL     1     -12.760  14.068  67.566  1.00  0.00    -0.325 OA 
HETATM   43  H1  UNL     1     -13.858  12.724  65.601  1.00  0.00     0.000 HD 
HETATM   44  C   UNL     1     -10.153  15.357  68.090  1.00  0.00    -0.222 C  
HETATM   45  H   UNL     1     -12.706  14.836  68.123  1.00  0.00     0.000 HD 
HETATM   46  O   UNL     1      -9.251  13.954  66.396  1.00  0.00    -0.242 OA 
ENDBRANCH  34  35
ENDBRANCH  22  34
ENDBRANCH   2   3
TORSDOF 5
ENDMDL
MODEL       77
REMARK 921   NORMALIZED FREE ENERGY PREDICTED BY IDOCK:   -4.32 KCAL/MOL
REMARK 922        TOTAL FREE ENERGY PREDICTED BY IDOCK:   -6.63 KCAL/MOL
REMARK 923 INTER-LIGAND FREE ENERGY PREDICTED BY IDOCK:   -5.83 KCAL/MOL
REMARK 924 INTRA-LIGAND FREE ENERGY PREDICTED BY IDOCK:   -0.80 KCAL/MOL
REMARK 927      BINDING AFFINITY PREDICTED BY RF-SCORE:    0.00 PKD
ROOT
HETATM    1  C   UNL     1     -13.143  10.200  71.812  1.00  0.00    -0.463 C  
HETATM    2  O   UNL     1     -11.830  10.547  71.382  1.00  0.00    -0.298 OA 
ENDROOT
BRANCH   2   3
HETATM    3  C   UNL     1     -11.637  10.699  70.034  1.00  0.00    -0.325 A  
HETATM    4  C   UNL     1     -12.118  11.823  69.342  1.00  0.00    -0.301 A  
HETATM    5  C   UNL     1     -11.906  11.965  67.975  1.00  0.00    -0.323 A  
HETATM    6  C   UNL     1     -11.210  10.985  67.284  1.00  0.00    -0.330 A  
HETATM    7  C   UNL     1     -10.740   9.844  67.952  1.00  0.00    -0.316 A  
HETATM    8  C   UNL     1     -10.962   9.680  69.322  1.00  0.00    -0.194 A  
HETATM    9  C   UNL     1     -10.471   8.435  69.971  1.00  0.00    -0.224 C  
HETATM   10  O   UNL     1     -10.725   8.162  71.140  1.00  0.00    -0.216 OA 
HETATM   11  C   UNL     1      -9.652   7.461  69.202  1.00  0.00    -0.156 A  
HETATM   12  C   UNL     1      -9.093   6.336  69.849  1.00  0.00    -0.144 A  
HETATM   13  O   UNL     1      -9.258   6.131  71.200  1.00  0.00    -0.152 OA 
HETATM   14  C   UNL     1      -8.323   5.380  69.155  1.00  0.00    -0.097 A  
HETATM   15  H   UNL     1      -8.883   5.375  71.635  1.00  0.00     0.000 HD 
HETATM   16  C   UNL     1      -8.113   5.556  67.766  1.00  0.00    -0.101 A  
HETATM   17  C   UNL     1      -8.629   6.712  67.139  1.00  0.00    -0.112 A  
HETATM   18  C   UNL     1      -7.300   4.548  66.964  1.00  0.00    -0.080 C  
HETATM   19  C   UNL     1      -7.048   3.226  67.696  1.00  0.00    -0.050 C  
HETATM   20  C   UNL     1      -9.415   7.650  67.844  1.00  0.00    -0.156 A  
HETATM   21  O   UNL     1      -8.332   6.973  65.829  1.00  0.00    -0.132 OA 
HETATM   22  C   UNL     1      -7.726   4.199  69.918  1.00  0.00    -0.052 C  
HETATM   23  C   UNL     1     -10.015   8.829  67.162  1.00  0.00    -0.230 C  
HETATM   24  C   UNL     1      -6.593   3.546  69.123  1.00  0.00    -0.034 C  
HETATM   25  O   UNL     1      -8.232   2.427  67.666  1.00  0.00    -0.064 OA 
HETATM   26  H   UNL     1      -8.680   7.750  65.407  1.00  0.00     0.000 HD 
HETATM   27  O   UNL     1      -9.941   8.994  65.950  1.00  0.00    -0.276 OA 
HETATM   28  H   UNL     1      -8.075   1.608  68.120  1.00  0.00     0.000 HD 
BRANCH  19  29
HETATM   29  C   UNL     1      -5.945   2.432  66.975  1.00  0.00    -0.023 C  
HETATM   30  O   UNL     1      -5.184   1.666  67.575  1.00  0.00    -0.011 OA 
BRANCH  29  31
HETATM   31  C   UNL     1      -5.760   2.684  65.479  1.00  0.00    -0.018 C  
HETATM   32  O   UNL     1      -6.871   2.221  64.721  1.00  0.00    -0.043 OA 
HETATM   33  H   UNL     1      -6.755   2.379  63.791  1.00  0.00     0.000 HD 
ENDBRANCH  29  31
ENDBRANCH  19  29
BRANCH  22  34
HETATM   34  O   UNL     1      -8.787   3.264  70.184  1.00  0.00    -0.070 OA 
BRANCH  34  35
HETATM   35  C   UNL     1      -8.478   2.201  71.097  1.00  0.00    -0.057 C  
HETATM   36  C   UNL     1      -7.582   2.597  72.272  1.00  0.00    -0.052 C  
HETATM   37  C   UNL     1      -8.333   3.552  73.194  1.00  0.00    -0.079 C  
HETATM   38  C   UNL     1      -9.627   2.861  73.680  1.00  0.00    -0.094 C  
HETATM   39  N   UNL     1      -7.487   3.991  74.313  1.00  0.00    -0.070 NA 
HETATM   40  C   UNL     1     -10.450   2.404  72.461  1.00  0.00    -0.098 C  
HETATM   41  H2  UNL     1      -6.611   4.398  73.984  1.00  0.00     0.000 HD 
HETATM   42  O   UNL     1     -10.413   3.725  74.504  1.00  0.00    -0.201 OA 
HETATM   43  H1  UNL     1      -7.989   4.629  74.929  1.00  0.00     0.000 HD 
HETATM   44  C   UNL     1     -11.649   1.569  72.904  1.00  0.00    -0.070 C  
HETATM   45  H   UNL     1     -11.208   3.300  74.802  1.00  0.00     0.000 HD 
HETATM   46  O   UNL     1      -9.679   1.589  71.572  1.00  0.00    -0.115 OA 
ENDBRANCH  34  35
ENDBRANCH  22  34
ENDBRANCH   2   3
TORSDOF 5
ENDMDL
MODEL       78
REMARK 921   NORMALIZED FREE ENERGY PREDICTED BY IDOCK:   -4.31 KCAL/MOL
REMARK 922        TOTAL FREE ENERGY PREDICTED BY IDOCK:   -6.61 KCAL/MOL
REMARK 923 INTER-LIGAND FREE ENERGY PREDICTED BY IDOCK:   -6.84 KCAL/MOL
REMARK 924 INTRA-LIGAND FREE ENERGY PREDICTED BY IDOCK:    0.23 KCAL/MOL
REMARK 927      BINDING AFFINITY PREDICTED BY RF-SCORE:    0.00 PKD
ROOT
HETATM    1  C   UNL     1     -10.909  15.736  67.174  1.00  0.00    -0.289 C  
HETATM    2  O   UNL     1     -10.296  15.070  68.274  1.00  0.00    -0.230 OA 
ENDROOT
BRANCH   2   3
HETATM    3  C   UNL     1     -11.130  14.560  69.234  1.00  0.00    -0.270 A  
HETATM    4  C   UNL     1     -11.998  15.383  69.970  1.00  0.00    -0.383 A  
HETATM    5  C   UNL     1     -12.845  14.848  70.935  1.00  0.00    -0.432 A  
HETATM    6  C   UNL     1     -12.832  13.482  71.174  1.00  0.00    -0.387 A  
HETATM    7  C   UNL     1     -11.958  12.644  70.465  1.00  0.00    -0.279 A  
HETATM    8  C   UNL     1     -11.090  13.172  69.506  1.00  0.00    -0.067 A  
HETATM    9  C   UNL     1     -10.160  12.243  68.810  1.00  0.00    -0.068 C  
HETATM   10  O   UNL     1      -9.290  12.641  68.041  1.00  0.00    -0.197 OA 
HETATM   11  C   UNL     1     -10.253  10.776  69.040  1.00  0.00    -0.229 A  
HETATM   12  C   UNL     1      -9.447   9.888  68.295  1.00  0.00    -0.139 A  
HETATM   13  O   UNL     1      -8.587  10.346  67.321  1.00  0.00    -0.125 OA 
HETATM   14  C   UNL     1      -9.492   8.492  68.492  1.00  0.00    -0.146 A  
HETATM   15  H   UNL     1      -8.045   9.748  66.820  1.00  0.00     0.000 HD 
HETATM   16  C   UNL     1     -10.372   7.973  69.472  1.00  0.00    -0.221 A  
HETATM   17  C   UNL     1     -11.214   8.865  70.173  1.00  0.00    -0.160 A  
HETATM   18  C   UNL     1     -10.452   6.475  69.735  1.00  0.00    -0.256 C  
HETATM   19  C   UNL     1      -9.304   5.670  69.119  1.00  0.00    -0.124 C  
HETATM   20  C   UNL     1     -11.142  10.262  69.979  1.00  0.00    -0.373 A  
HETATM   21  O   UNL     1     -12.163   8.380  71.032  1.00  0.00    -0.406 OA 
HETATM   22  C   UNL     1      -8.611   7.584  67.636  1.00  0.00    -0.119 C  
HETATM   23  C   UNL     1     -11.981  11.200  70.771  1.00  0.00    -0.312 C  
HETATM   24  C   UNL     1      -9.111   6.138  67.673  1.00  0.00    -0.109 C  
HETATM   25  O   UNL     1      -8.125   5.834  69.908  1.00  0.00    -0.103 OA 
HETATM   26  H   UNL     1     -12.729   8.980  71.504  1.00  0.00     0.000 HD 
HETATM   27  O   UNL     1     -12.700  10.823  71.690  1.00  0.00    -0.411 OA 
HETATM   28  H   UNL     1      -7.413   5.335  69.526  1.00  0.00     0.000 HD 
BRANCH  19  29
HETATM   29  C   UNL     1      -9.652   4.172  69.128  1.00  0.00    -0.172 C  
HETATM   30  O   UNL     1      -9.970   3.576  70.163  1.00  0.00    -0.058 OA 
BRANCH  29  31
HETATM   31  C   UNL     1      -9.512   3.408  67.812  1.00  0.00    -0.176 C  
HETATM   32  O   UNL     1      -8.158   3.070  67.536  1.00  0.00    -0.075 OA 
HETATM   33  H   UNL     1      -8.072   2.594  66.718  1.00  0.00     0.000 HD 
ENDBRANCH  29  31
ENDBRANCH  19  29
BRANCH  22  34
HETATM   34  O   UNL     1      -7.263   7.687  68.126  1.00  0.00    -0.087 OA 
BRANCH  34  35
HETATM   35  C   UNL     1      -6.239   7.845  67.134  1.00  0.00    -0.054 C  
HETATM   36  C   UNL     1      -5.325   6.631  66.947  1.00  0.00    -0.013 C  
HETATM   37  C   UNL     1      -6.121   5.474  66.353  1.00  0.00    -0.030 C  
HETATM   38  C   UNL     1      -6.734   5.929  65.009  1.00  0.00    -0.043 C  
HETATM   39  N   UNL     1      -5.285   4.274  66.200  1.00  0.00    -0.009 NA 
HETATM   40  C   UNL     1      -7.571   7.202  65.235  1.00  0.00    -0.103 C  
HETATM   41  H2  UNL     1      -4.842   4.011  67.081  1.00  0.00     0.000 HD 
HETATM   42  O   UNL     1      -7.545   4.909  64.423  1.00  0.00    -0.070 OA 
HETATM   43  H1  UNL     1      -5.817   3.501  65.803  1.00  0.00     0.000 HD 
HETATM   44  C   UNL     1      -8.052   7.774  63.904  1.00  0.00    -0.052 C  
HETATM   45  H   UNL     1      -7.922   5.189  63.597  1.00  0.00     0.000 HD 
HETATM   46  O   UNL     1      -6.815   8.230  65.883  1.00  0.00    -0.062 OA 
ENDBRANCH  34  35
ENDBRANCH  22  34
ENDBRANCH   2   3
TORSDOF 5
ENDMDL
MODEL       79
REMARK 921   NORMALIZED FREE ENERGY PREDICTED BY IDOCK:   -4.30 KCAL/MOL
REMARK 922        TOTAL FREE ENERGY PREDICTED BY IDOCK:   -6.61 KCAL/MOL
REMARK 923 INTER-LIGAND FREE ENERGY PREDICTED BY IDOCK:   -6.47 KCAL/MOL
REMARK 924 INTRA-LIGAND FREE ENERGY PREDICTED BY IDOCK:   -0.14 KCAL/MOL
REMARK 927      BINDING AFFINITY PREDICTED BY RF-SCORE:    0.00 PKD
ROOT
HETATM    1  C   UNL     1     -11.745  14.179  69.799  1.00  0.00    -0.311 C  
HETATM    2  O   UNL     1     -10.833  13.249  69.223  1.00  0.00    -0.156 OA 
ENDROOT
BRANCH   2   3
HETATM    3  C   UNL     1     -10.723  13.252  67.857  1.00  0.00    -0.239 A  
HETATM    4  C   UNL     1     -10.998  14.401  67.097  1.00  0.00    -0.305 A  
HETATM    5  C   UNL     1     -10.873  14.389  65.712  1.00  0.00    -0.308 A  
HETATM    6  C   UNL     1     -10.471  13.227  65.071  1.00  0.00    -0.367 A  
HETATM    7  C   UNL     1     -10.212  12.062  65.809  1.00  0.00    -0.274 A  
HETATM    8  C   UNL     1     -10.352  12.056  67.199  1.00  0.00    -0.235 A  
HETATM    9  C   UNL     1     -10.098  10.783  67.928  1.00  0.00    -0.172 C  
HETATM   10  O   UNL     1     -10.310  10.664  69.131  1.00  0.00    -0.202 OA 
HETATM   11  C   UNL     1      -9.582   9.593  67.200  1.00  0.00    -0.210 A  
HETATM   12  C   UNL     1      -9.236   8.423  67.910  1.00  0.00    -0.135 A  
HETATM   13  O   UNL     1      -9.331   8.362  69.283  1.00  0.00    -0.153 OA 
HETATM   14  C   UNL     1      -8.758   7.266  67.259  1.00  0.00    -0.121 A  
HETATM   15  H   UNL     1      -9.098   7.574  69.760  1.00  0.00     0.000 HD 
HETATM   16  C   UNL     1      -8.628   7.286  65.850  1.00  0.00    -0.159 A  
HETATM   17  C   UNL     1      -8.925   8.479  65.154  1.00  0.00    -0.006 A  
HETATM   18  C   UNL     1      -8.129   6.061  65.094  1.00  0.00    -0.132 C  
HETATM   19  C   UNL     1      -8.117   4.775  65.926  1.00  0.00    -0.107 C  
HETATM   20  C   UNL     1      -9.422   9.622  65.818  1.00  0.00    -0.308 A  
HETATM   21  O   UNL     1      -8.686   8.567  63.809  1.00  0.00    -0.414 OA 
HETATM   22  C   UNL     1      -8.377   6.040  68.088  1.00  0.00    -0.113 C  
HETATM   23  C   UNL     1      -9.799  10.852  65.071  1.00  0.00    -0.281 C  
HETATM   24  C   UNL     1      -7.487   5.089  67.286  1.00  0.00    -0.083 C  
HETATM   25  O   UNL     1      -9.447   4.268  66.044  1.00  0.00    -0.150 OA 
HETATM   26  H   UNL     1      -8.886   9.369  63.342  1.00  0.00     0.000 HD 
HETATM   27  O   UNL     1      -9.790  10.905  63.847  1.00  0.00    -0.271 OA 
HETATM   28  H   UNL     1      -9.440   3.471  66.560  1.00  0.00     0.000 HD 
BRANCH  19  29
HETATM   29  C   UNL     1      -7.282   3.699  65.212  1.00  0.00    -0.067 C  
HETATM   30  O   UNL     1      -6.046   3.727  65.195  1.00  0.00    -0.022 OA 
BRANCH  29  31
HETATM   31  C   UNL     1      -8.038   2.619  64.439  1.00  0.00    -0.082 C  
HETATM   32  O   UNL     1      -8.561   3.112  63.212  1.00  0.00    -0.089 OA 
HETATM   33  H   UNL     1      -9.031   2.440  62.732  1.00  0.00     0.000 HD 
ENDBRANCH  29  31
ENDBRANCH  19  29
BRANCH  22  34
HETATM   34  O   UNL     1      -9.593   5.395  68.505  1.00  0.00    -0.118 OA 
BRANCH  34  35
HETATM   35  C   UNL     1      -9.753   5.201  69.918  1.00  0.00    -0.199 C  
HETATM   36  C   UNL     1      -9.588   3.756  70.395  1.00  0.00    -0.262 C  
HETATM   37  C   UNL     1      -8.139   3.314  70.209  1.00  0.00    -0.045 C  
HETATM   38  C   UNL     1      -7.220   4.276  70.996  1.00  0.00    -0.037 C  
HETATM   39  N   UNL     1      -7.952   1.914  70.616  1.00  0.00    -0.041 NA 
HETATM   40  C   UNL     1      -7.488   5.723  70.543  1.00  0.00    -0.086 C  
HETATM   41  H2  UNL     1      -8.599   1.292  70.129  1.00  0.00     0.000 HD 
HETATM   42  O   UNL     1      -5.840   3.955  70.818  1.00  0.00    -0.013 OA 
HETATM   43  H1  UNL     1      -6.984   1.619  70.491  1.00  0.00     0.000 HD 
HETATM   44  C   UNL     1      -6.721   6.712  71.417  1.00  0.00    -0.058 C  
HETATM   45  H   UNL     1      -5.275   4.546  71.302  1.00  0.00     0.000 HD 
HETATM   46  O   UNL     1      -8.874   6.066  70.641  1.00  0.00    -0.139 OA 
ENDBRANCH  34  35
ENDBRANCH  22  34
ENDBRANCH   2   3
TORSDOF 5
ENDMDL
MODEL       80
REMARK 921   NORMALIZED FREE ENERGY PREDICTED BY IDOCK:   -4.15 KCAL/MOL
REMARK 922        TOTAL FREE ENERGY PREDICTED BY IDOCK:   -6.41 KCAL/MOL
REMARK 923 INTER-LIGAND FREE ENERGY PREDICTED BY IDOCK:   -5.31 KCAL/MOL
REMARK 924 INTRA-LIGAND FREE ENERGY PREDICTED BY IDOCK:   -1.10 KCAL/MOL
REMARK 927      BINDING AFFINITY PREDICTED BY RF-SCORE:    0.00 PKD
ROOT
HETATM    1  C   UNL     1     -11.930  14.595  65.260  1.00  0.00    -0.302 C  
HETATM    2  O   UNL     1     -11.326  14.468  66.544  1.00  0.00    -0.337 OA 
ENDROOT
BRANCH   2   3
HETATM    3  C   UNL     1      -9.988  14.750  66.633  1.00  0.00    -0.264 A  
HETATM    4  C   UNL     1      -9.434  15.894  66.034  1.00  0.00    -0.389 A  
HETATM    5  C   UNL     1      -8.075  16.170  66.142  1.00  0.00    -0.047 A  
HETATM    6  C   UNL     1      -7.255  15.304  66.850  1.00  0.00     0.186 A  
HETATM    7  C   UNL     1      -7.784  14.146  67.438  1.00  0.00    -0.189 A  
HETATM    8  C   UNL     1      -9.144  13.847  67.322  1.00  0.00    -0.230 A  
HETATM    9  C   UNL     1      -9.645  12.588  67.935  1.00  0.00    -0.206 C  
HETATM   10  O   UNL     1     -10.797  12.196  67.781  1.00  0.00    -0.210 OA 
HETATM   11  C   UNL     1      -8.739  11.744  68.760  1.00  0.00     0.019 A  
HETATM   12  C   UNL     1      -9.243  10.610  69.433  1.00  0.00    -0.051 A  
HETATM   13  O   UNL     1     -10.578  10.276  69.375  1.00  0.00    -0.206 OA 
HETATM   14  C   UNL     1      -8.417   9.774  70.214  1.00  0.00    -0.163 A  
HETATM   15  H   UNL     1     -10.917   9.513  69.828  1.00  0.00     0.000 HD 
HETATM   16  C   UNL     1      -7.040  10.086  70.316  1.00  0.00    -0.156 A  
HETATM   17  C   UNL     1      -6.556  11.253  69.684  1.00  0.00    -0.136 A  
HETATM   18  C   UNL     1      -6.100   9.210  71.134  1.00  0.00    -0.067 C  
HETATM   19  C   UNL     1      -6.690   7.851  71.521  1.00  0.00    -0.047 C  
HETATM   20  C   UNL     1      -7.392  12.068  68.890  1.00  0.00    -0.067 A  
HETATM   21  O   UNL     1      -5.259  11.648  69.872  1.00  0.00    -0.064 OA 
HETATM   22  C   UNL     1      -9.030   8.575  70.936  1.00  0.00    -0.172 C  
HETATM   23  C   UNL     1      -6.860  13.257  68.170  1.00  0.00    -0.114 C  
HETATM   24  C   UNL     1      -8.109   8.076  72.051  1.00  0.00    -0.164 C  
HETATM   25  O   UNL     1      -6.661   6.977  70.391  1.00  0.00    -0.049 OA 
HETATM   26  H   UNL     1      -4.934  12.432  69.447  1.00  0.00     0.000 HD 
HETATM   27  O   UNL     1      -5.666  13.532  68.150  1.00  0.00    -0.093 OA 
HETATM   28  H   UNL     1      -7.027   6.134  70.632  1.00  0.00     0.000 HD 
BRANCH  19  29
HETATM   29  C   UNL     1      -5.831   7.202  72.620  1.00  0.00    -0.041 C  
HETATM   30  O   UNL     1      -5.233   7.870  73.470  1.00  0.00    -0.044 OA 
BRANCH  29  31
HETATM   31  C   UNL     1      -5.665   5.684  72.580  1.00  0.00    -0.026 C  
HETATM   32  O   UNL     1      -5.626   5.119  73.885  1.00  0.00    -0.021 OA 
HETATM   33  H   UNL     1      -5.523   4.175  73.859  1.00  0.00     0.000 HD 
ENDBRANCH  29  31
ENDBRANCH  19  29
BRANCH  22  34
HETATM   34  O   UNL     1      -9.275   7.549  69.959  1.00  0.00    -0.151 OA 
BRANCH  34  35
HETATM   35  C   UNL     1     -10.437   6.736  70.176  1.00  0.00    -0.209 C  
HETATM   36  C   UNL     1     -11.012   6.081  68.917  1.00  0.00    -0.395 C  
HETATM   37  C   UNL     1     -10.033   5.041  68.384  1.00  0.00    -0.136 C  
HETATM   38  C   UNL     1      -9.764   3.995  69.491  1.00  0.00    -0.157 C  
HETATM   39  N   UNL     1     -10.533   4.421  67.148  1.00  0.00    -0.030 NA 
HETATM   40  C   UNL     1      -9.272   4.713  70.761  1.00  0.00    -0.140 C  
HETATM   41  H2  UNL     1     -10.757   5.122  66.441  1.00  0.00     0.000 HD 
HETATM   42  O   UNL     1      -8.806   3.020  69.077  1.00  0.00    -0.079 OA 
HETATM   43  H1  UNL     1      -9.878   3.726  66.792  1.00  0.00     0.000 HD 
HETATM   44  C   UNL     1      -9.159   3.730  71.924  1.00  0.00    -0.163 C  
HETATM   45  H   UNL     1      -8.641   2.378  69.757  1.00  0.00     0.000 HD 
HETATM   46  O   UNL     1     -10.172   5.747  71.174  1.00  0.00    -0.201 OA 
ENDBRANCH  34  35
ENDBRANCH  22  34
ENDBRANCH   2   3
TORSDOF 5
ENDMDL
MODEL       81
REMARK 921   NORMALIZED FREE ENERGY PREDICTED BY IDOCK:   -4.13 KCAL/MOL
REMARK 922        TOTAL FREE ENERGY PREDICTED BY IDOCK:   -6.39 KCAL/MOL
REMARK 923 INTER-LIGAND FREE ENERGY PREDICTED BY IDOCK:   -6.37 KCAL/MOL
REMARK 924 INTRA-LIGAND FREE ENERGY PREDICTED BY IDOCK:   -0.02 KCAL/MOL
REMARK 927      BINDING AFFINITY PREDICTED BY RF-SCORE:    0.00 PKD
ROOT
HETATM    1  C   UNL     1      -9.017   3.848  65.300  1.00  0.00    -0.132 C  
HETATM    2  O   UNL     1      -8.454   4.557  66.400  1.00  0.00    -0.112 OA 
ENDROOT
BRANCH   2   3
HETATM    3  C   UNL     1      -8.950   4.269  67.645  1.00  0.00    -0.118 A  
HETATM    4  C   UNL     1      -8.856   2.980  68.196  1.00  0.00    -0.164 A  
HETATM    5  C   UNL     1      -9.357   2.708  69.465  1.00  0.00    -0.184 A  
HETATM    6  C   UNL     1      -9.958   3.721  70.196  1.00  0.00     0.050 A  
HETATM    7  C   UNL     1     -10.081   5.010  69.655  1.00  0.00    -0.321 A  
HETATM    8  C   UNL     1      -9.598   5.293  68.375  1.00  0.00    -0.176 A  
HETATM    9  C   UNL     1      -9.786   6.668  67.838  1.00  0.00    -0.122 C  
HETATM   10  O   UNL     1      -9.495   6.965  66.684  1.00  0.00    -0.160 OA 
HETATM   11  C   UNL     1     -10.354   7.738  68.700  1.00  0.00    -0.221 A  
HETATM   12  C   UNL     1     -10.428   9.066  68.226  1.00  0.00    -0.200 A  
HETATM   13  O   UNL     1      -9.949   9.411  66.982  1.00  0.00    -0.191 OA 
HETATM   14  C   UNL     1     -10.973  10.109  69.004  1.00  0.00    -0.265 A  
HETATM   15  H   UNL     1      -9.999  10.305  66.664  1.00  0.00     0.000 HD 
HETATM   16  C   UNL     1     -11.465   9.806  70.297  1.00  0.00    -0.317 A  
HETATM   17  C   UNL     1     -11.336   8.485  70.783  1.00  0.00    -0.266 A  
HETATM   18  C   UNL     1     -12.075  10.890  71.175  1.00  0.00    -0.386 C  
HETATM   19  C   UNL     1     -12.403  12.187  70.429  1.00  0.00    -0.233 C  
HETATM   20  C   UNL     1     -10.807   7.448  69.984  1.00  0.00    -0.266 A  
HETATM   21  O   UNL     1     -11.684   8.192  72.074  1.00  0.00    -0.291 OA 
HETATM   22  C   UNL     1     -11.001  11.529  68.443  1.00  0.00    -0.221 C  
HETATM   23  C   UNL     1     -10.739   6.046  70.476  1.00  0.00    -0.284 C  
HETATM   24  C   UNL     1     -11.199  12.558  69.558  1.00  0.00    -0.163 C  
HETATM   25  O   UNL     1     -13.597  12.011  69.664  1.00  0.00     2.298 OA 
HETATM   26  H   UNL     1     -11.598   7.304  72.400  1.00  0.00     0.000 HD 
HETATM   27  O   UNL     1     -11.222   5.703  71.549  1.00  0.00    -0.220 OA 
HETATM   28  H   UNL     1     -13.801  12.815  69.202  1.00  0.00     0.000 HD 
BRANCH  19  29
HETATM   29  C   UNL     1     -12.672  13.316  71.438  1.00  0.00    -0.309 C  
HETATM   30  O   UNL     1     -13.009  13.091  72.605  1.00  0.00    -0.250 OA 
BRANCH  29  31
HETATM   31  C   UNL     1     -12.590  14.753  70.925  1.00  0.00    -0.336 C  
HETATM   32  O   UNL     1     -13.045  15.690  71.893  1.00  0.00    -0.428 OA 
HETATM   33  H   UNL     1     -12.994  16.583  71.573  1.00  0.00     0.000 HD 
ENDBRANCH  29  31
ENDBRANCH  19  29
BRANCH  22  34
HETATM   34  O   UNL     1     -12.059  11.599  67.470  1.00  0.00    -0.611 OA 
BRANCH  34  35
HETATM   35  C   UNL     1     -12.005  12.703  66.556  1.00  0.00    -0.331 C  
HETATM   36  C   UNL     1     -10.811  13.642  66.745  1.00  0.00    -0.291 C  
HETATM   37  C   UNL     1      -9.521  12.913  66.385  1.00  0.00    -0.226 C  
HETATM   38  C   UNL     1      -9.621  12.414  64.925  1.00  0.00     0.113 C  
HETATM   39  N   UNL     1      -8.346  13.771  66.597  1.00  0.00    -0.397 NA 
HETATM   40  C   UNL     1     -10.884  11.548  64.767  1.00  0.00    -0.297 C  
HETATM   41  H2  UNL     1      -8.316  14.138  67.548  1.00  0.00     0.000 HD 
HETATM   42  O   UNL     1      -8.464  11.668  64.540  1.00  0.00     0.021 OA 
HETATM   43  H1  UNL     1      -7.484  13.283  66.356  1.00  0.00     0.000 HD 
HETATM   44  C   UNL     1     -11.103  11.179  63.302  1.00  0.00     0.069 C  
HETATM   45  H   UNL     1      -8.526  11.361  63.643  1.00  0.00     0.000 HD 
HETATM   46  O   UNL     1     -12.061  12.234  65.207  1.00  0.00    -0.431 OA 
ENDBRANCH  34  35
ENDBRANCH  22  34
ENDBRANCH   2   3
TORSDOF 5
ENDMDL
MODEL       82
REMARK 921   NORMALIZED FREE ENERGY PREDICTED BY IDOCK:   -4.08 KCAL/MOL
REMARK 922        TOTAL FREE ENERGY PREDICTED BY IDOCK:   -6.32 KCAL/MOL
REMARK 923 INTER-LIGAND FREE ENERGY PREDICTED BY IDOCK:   -6.41 KCAL/MOL
REMARK 924 INTRA-LIGAND FREE ENERGY PREDICTED BY IDOCK:    0.09 KCAL/MOL
REMARK 927      BINDING AFFINITY PREDICTED BY RF-SCORE:    0.00 PKD
ROOT
HETATM    1  C   UNL     1      -9.103   5.408  67.164  1.00  0.00    -0.111 C  
HETATM    2  O   UNL     1      -7.809   5.959  67.387  1.00  0.00    -0.100 OA 
ENDROOT
BRANCH   2   3
HETATM    3  C   UNL     1      -7.445   6.184  68.689  1.00  0.00    -0.087 A  
HETATM    4  C   UNL     1      -7.291   5.129  69.605  1.00  0.00    -0.061 A  
HETATM    5  C   UNL     1      -6.912   5.375  70.920  1.00  0.00    -0.053 A  
HETATM    6  C   UNL     1      -6.683   6.678  71.335  1.00  0.00    -0.058 A  
HETATM    7  C   UNL     1      -6.852   7.748  70.442  1.00  0.00    -0.046 A  
HETATM    8  C   UNL     1      -7.250   7.516  69.123  1.00  0.00    -0.084 A  
HETATM    9  C   UNL     1      -7.447   8.690  68.230  1.00  0.00    -0.095 C  
HETATM   10  O   UNL     1      -7.904   8.581  67.097  1.00  0.00    -0.096 OA 
HETATM   11  C   UNL     1      -7.099  10.057  68.701  1.00  0.00    -0.078 A  
HETATM   12  C   UNL     1      -7.180  11.154  67.816  1.00  0.00    -0.091 A  
HETATM   13  O   UNL     1      -7.545  10.987  66.498  1.00  0.00    -0.139 OA 
HETATM   14  C   UNL     1      -6.874  12.469  68.224  1.00  0.00    -0.082 A  
HETATM   15  H   UNL     1      -7.600  11.726  65.903  1.00  0.00     0.000 HD 
HETATM   16  C   UNL     1      -6.479  12.689  69.566  1.00  0.00    -0.078 A  
HETATM   17  C   UNL     1      -6.348  11.577  70.428  1.00  0.00     0.093 A  
HETATM   18  C   UNL     1      -6.150  14.090  70.064  1.00  0.00    -0.148 C  
HETATM   19  C   UNL     1      -6.601  15.210  69.122  1.00  0.00    -0.128 C  
HETATM   20  C   UNL     1      -6.677  10.270  70.010  1.00  0.00    -0.137 A  
HETATM   21  O   UNL     1      -5.845  11.744  71.690  1.00  0.00    -0.189 OA 
HETATM   22  C   UNL     1      -6.959  13.609  67.211  1.00  0.00     0.105 C  
HETATM   23  C   UNL     1      -6.604   9.114  70.944  1.00  0.00    -0.082 C  
HETATM   24  C   UNL     1      -6.183  14.836  67.697  1.00  0.00    -0.114 C  
HETATM   25  O   UNL     1      -8.011  15.403  69.246  1.00  0.00    -0.197 OA 
HETATM   26  H   UNL     1      -5.757  10.997  72.270  1.00  0.00     0.000 HD 
HETATM   27  O   UNL     1      -6.351   9.248  72.135  1.00  0.00    -0.273 OA 
HETATM   28  H   UNL     1      -8.290  16.098  68.661  1.00  0.00     0.000 HD 
BRANCH  19  29
HETATM   29  C   UNL     1      -5.924  16.532  69.522  1.00  0.00    -0.184 C  
HETATM   30  O   UNL     1      -5.482  16.730  70.659  1.00  0.00    -0.204 OA 
BRANCH  29  31
HETATM   31  C   UNL     1      -5.887  17.648  68.478  1.00  0.00    -0.171 C  
HETATM   32  O   UNL     1      -7.157  18.266  68.315  1.00  0.00    -0.232 OA 
HETATM   33  H   UNL     1      -7.133  18.960  67.666  1.00  0.00     0.000 HD 
ENDBRANCH  29  31
ENDBRANCH  19  29
BRANCH  22  34
HETATM   34  O   UNL     1      -8.349  13.915  67.005  1.00  0.00    -0.178 OA 
BRANCH  34  35
HETATM   35  C   UNL     1      -9.263  12.816  67.132  1.00  0.00    -0.219 C  
HETATM   36  C   UNL     1     -10.476  13.083  68.027  1.00  0.00    -0.234 C  
HETATM   37  C   UNL     1     -11.377  14.128  67.376  1.00  0.00    -0.327 C  
HETATM   38  C   UNL     1     -11.807  13.615  65.982  1.00  0.00    -0.385 C  
HETATM   39  N   UNL     1     -12.532  14.443  68.229  1.00  0.00    -0.537 NA 
HETATM   40  C   UNL     1     -10.553  13.277  65.154  1.00  0.00    -0.330 C  
HETATM   41  H2  UNL     1     -12.240  14.730  69.164  1.00  0.00     0.000 HD 
HETATM   42  O   UNL     1     -12.608  14.574  65.289  1.00  0.00    -0.363 OA 
HETATM   43  H1  UNL     1     -13.133  15.141  67.793  1.00  0.00     0.000 HD 
HETATM   44  C   UNL     1     -10.942  12.611  63.836  1.00  0.00    -0.468 C  
HETATM   45  H   UNL     1     -12.872  14.259  64.432  1.00  0.00     0.000 HD 
HETATM   46  O   UNL     1      -9.686  12.370  65.842  1.00  0.00    -0.252 OA 
ENDBRANCH  34  35
ENDBRANCH  22  34
ENDBRANCH   2   3
TORSDOF 5
ENDMDL
MODEL       83
REMARK 921   NORMALIZED FREE ENERGY PREDICTED BY IDOCK:   -4.05 KCAL/MOL
REMARK 922        TOTAL FREE ENERGY PREDICTED BY IDOCK:   -6.29 KCAL/MOL
REMARK 923 INTER-LIGAND FREE ENERGY PREDICTED BY IDOCK:   -5.40 KCAL/MOL
REMARK 924 INTRA-LIGAND FREE ENERGY PREDICTED BY IDOCK:   -0.88 KCAL/MOL
REMARK 927      BINDING AFFINITY PREDICTED BY RF-SCORE:    0.00 PKD
ROOT
HETATM    1  C   UNL     1      -7.098  16.473  69.063  1.00  0.00    -0.213 C  
HETATM    2  O   UNL     1      -7.105  15.180  68.465  1.00  0.00    -0.104 OA 
ENDROOT
BRANCH   2   3
HETATM    3  C   UNL     1      -8.058  14.943  67.509  1.00  0.00    -0.182 A  
HETATM    4  C   UNL     1      -8.749  15.991  66.880  1.00  0.00    -0.259 A  
HETATM    5  C   UNL     1      -9.707  15.733  65.906  1.00  0.00    -0.389 A  
HETATM    6  C   UNL     1      -9.985  14.422  65.550  1.00  0.00    -0.359 A  
HETATM    7  C   UNL     1      -9.321  13.358  66.181  1.00  0.00    -0.075 A  
HETATM    8  C   UNL     1      -8.370  13.604  67.174  1.00  0.00    -0.151 A  
HETATM    9  C   UNL     1      -7.722  12.438  67.834  1.00  0.00    -0.135 C  
HETATM   10  O   UNL     1      -6.964  12.564  68.790  1.00  0.00    -0.088 OA 
HETATM   11  C   UNL     1      -7.991  11.058  67.349  1.00  0.00    -0.119 A  
HETATM   12  C   UNL     1      -7.291   9.963  67.901  1.00  0.00    -0.088 A  
HETATM   13  O   UNL     1      -6.326  10.143  68.868  1.00  0.00    -0.044 OA 
HETATM   14  C   UNL     1      -7.525   8.637  67.482  1.00  0.00    -0.090 A  
HETATM   15  H   UNL     1      -5.855   9.406  69.239  1.00  0.00     0.000 HD 
HETATM   16  C   UNL     1      -8.497   8.403  66.480  1.00  0.00    -0.116 A  
HETATM   17  C   UNL     1      -9.152   9.510  65.895  1.00  0.00    -0.184 A  
HETATM   18  C   UNL     1      -8.800   6.990  65.999  1.00  0.00    -0.155 C  
HETATM   19  C   UNL     1      -8.234   5.889  66.901  1.00  0.00    -0.105 C  
HETATM   20  C   UNL     1      -8.922  10.830  66.340  1.00  0.00    -0.179 A  
HETATM   21  O   UNL     1     -10.000   9.324  64.837  1.00  0.00    -0.297 OA 
HETATM   22  C   UNL     1      -6.716   7.499  68.103  1.00  0.00    -0.058 C  
HETATM   23  C   UNL     1      -9.666  11.984  65.768  1.00  0.00    -0.235 C  
HETATM   24  C   UNL     1      -6.782   6.240  67.235  1.00  0.00    -0.060 C  
HETATM   25  O   UNL     1      -9.048   5.759  68.068  1.00  0.00    -0.112 OA 
HETATM   26  H   UNL     1     -10.441  10.068  64.444  1.00  0.00     0.000 HD 
HETATM   27  O   UNL     1     -10.577  11.842  64.960  1.00  0.00    -0.267 OA 
HETATM   28  H   UNL     1      -8.697   5.076  68.627  1.00  0.00     0.000 HD 
BRANCH  19  29
HETATM   29  C   UNL     1      -8.277   4.539  66.165  1.00  0.00    -0.106 C  
HETATM   30  O   UNL     1      -8.720   4.427  65.017  1.00  0.00    -0.123 OA 
BRANCH  29  31
HETATM   31  C   UNL     1      -7.824   3.301  66.939  1.00  0.00    -0.080 C  
HETATM   32  O   UNL     1      -6.781   2.606  66.266  1.00  0.00    -0.041 OA 
HETATM   33  H   UNL     1      -6.500   1.837  66.748  1.00  0.00     0.000 HD 
ENDBRANCH  29  31
ENDBRANCH  19  29
BRANCH  22  34
HETATM   34  O   UNL     1      -7.237   7.255  69.422  1.00  0.00    -0.079 OA 
BRANCH  34  35
HETATM   35  C   UNL     1      -6.274   6.920  70.430  1.00  0.00    -0.027 C  
HETATM   36  C   UNL     1      -5.515   8.110  71.022  1.00  0.00    -0.029 C  
HETATM   37  C   UNL     1      -6.473   8.983  71.825  1.00  0.00    -0.030 C  
HETATM   38  C   UNL     1      -7.124   8.122  72.932  1.00  0.00    -0.106 C  
HETATM   39  N   UNL     1      -5.788  10.163  72.374  1.00  0.00    -0.113 NA 
HETATM   40  C   UNL     1      -7.796   6.893  72.293  1.00  0.00    -0.093 C  
HETATM   41  H2  UNL     1      -5.318  10.697  71.642  1.00  0.00     0.000 HD 
HETATM   42  O   UNL     1      -8.081   8.866  73.689  1.00  0.00    -0.335 OA 
HETATM   43  H1  UNL     1      -6.429  10.747  72.910  1.00  0.00     0.000 HD 
HETATM   44  C   UNL     1      -8.302   5.936  73.370  1.00  0.00    -0.115 C  
HETATM   45  H   UNL     1      -8.481   8.337  74.369  1.00  0.00     0.000 HD 
HETATM   46  O   UNL     1      -6.888   6.155  71.470  1.00  0.00    -0.064 OA 
ENDBRANCH  34  35
ENDBRANCH  22  34
ENDBRANCH   2   3
TORSDOF 5
ENDMDL
MODEL       84
REMARK 921   NORMALIZED FREE ENERGY PREDICTED BY IDOCK:   -4.02 KCAL/MOL
REMARK 922        TOTAL FREE ENERGY PREDICTED BY IDOCK:   -6.24 KCAL/MOL
REMARK 923 INTER-LIGAND FREE ENERGY PREDICTED BY IDOCK:   -5.96 KCAL/MOL
REMARK 924 INTRA-LIGAND FREE ENERGY PREDICTED BY IDOCK:   -0.28 KCAL/MOL
REMARK 927      BINDING AFFINITY PREDICTED BY RF-SCORE:    0.00 PKD
ROOT
HETATM    1  C   UNL     1     -11.188   3.917  72.207  1.00  0.00     0.720 C  
HETATM    2  O   UNL     1     -10.259   4.537  71.323  1.00  0.00    -0.173 OA 
ENDROOT
BRANCH   2   3
HETATM    3  C   UNL     1      -9.017   4.823  71.828  1.00  0.00    -0.131 A  
HETATM    4  C   UNL     1      -8.334   3.921  72.660  1.00  0.00    -0.098 A  
HETATM    5  C   UNL     1      -7.070   4.224  73.156  1.00  0.00    -0.068 A  
HETATM    6  C   UNL     1      -6.476   5.432  72.825  1.00  0.00    -0.064 A  
HETATM    7  C   UNL     1      -7.150   6.356  72.012  1.00  0.00    -0.082 A  
HETATM    8  C   UNL     1      -8.428   6.072  71.522  1.00  0.00    -0.128 A  
HETATM    9  C   UNL     1      -9.110   7.102  70.694  1.00  0.00    -0.158 C  
HETATM   10  O   UNL     1     -10.273   6.979  70.323  1.00  0.00    -0.190 OA 
HETATM   11  C   UNL     1      -8.390   8.341  70.294  1.00  0.00    -0.123 A  
HETATM   12  C   UNL     1      -8.999   9.264  69.417  1.00  0.00    -0.147 A  
HETATM   13  O   UNL     1     -10.247   9.030  68.883  1.00  0.00    -0.197 OA 
HETATM   14  C   UNL     1      -8.359  10.458  69.024  1.00  0.00    -0.150 A  
HETATM   15  H   UNL     1     -10.657   9.652  68.293  1.00  0.00     0.000 HD 
HETATM   16  C   UNL     1      -7.067  10.735  69.534  1.00  0.00    -0.132 A  
HETATM   17  C   UNL     1      -6.444   9.779  70.368  1.00  0.00    -0.101 A  
HETATM   18  C   UNL     1      -6.335  12.015  69.154  1.00  0.00    -0.093 C  
HETATM   19  C   UNL     1      -7.225  13.069  68.487  1.00  0.00    -0.104 C  
HETATM   20  C   UNL     1      -7.107   8.598  70.768  1.00  0.00    -0.061 A  
HETATM   21  O   UNL     1      -5.149   9.961  70.770  1.00  0.00    -0.036 OA 
HETATM   22  C   UNL     1      -9.063  11.403  68.052  1.00  0.00    -0.171 C  
HETATM   23  C   UNL     1      -6.472   7.630  71.702  1.00  0.00    -0.039 C  
HETATM   24  C   UNL     1      -8.068  12.376  67.414  1.00  0.00    -0.177 C  
HETATM   25  O   UNL     1      -8.025  13.717  69.477  1.00  0.00    -0.204 OA 
HETATM   26  H   UNL     1      -4.730   9.319  71.331  1.00  0.00     0.000 HD 
HETATM   27  O   UNL     1      -5.395   7.850  72.243  1.00  0.00    -0.036 OA 
HETATM   28  H   UNL     1      -8.576  14.371  69.064  1.00  0.00     0.000 HD 
BRANCH  19  29
HETATM   29  C   UNL     1      -6.350  14.150  67.830  1.00  0.00    -0.164 C  
HETATM   30  O   UNL     1      -5.190  13.929  67.467  1.00  0.00    -0.327 OA 
BRANCH  29  31
HETATM   31  C   UNL     1      -6.937  15.556  67.713  1.00  0.00    -0.164 C  
HETATM   32  O   UNL     1      -7.009  15.991  66.360  1.00  0.00    -0.092 OA 
HETATM   33  H   UNL     1      -7.374  16.865  66.288  1.00  0.00     0.000 HD 
ENDBRANCH  29  31
ENDBRANCH  19  29
BRANCH  22  34
HETATM   34  O   UNL     1     -10.087  12.102  68.780  1.00  0.00    -0.184 OA 
BRANCH  34  35
HETATM   35  C   UNL     1     -11.342  12.267  68.104  1.00  0.00    -0.295 C  
HETATM   36  C   UNL     1     -12.233  13.382  68.657  1.00  0.00    -0.143 C  
HETATM   37  C   UNL     1     -11.588  14.737  68.390  1.00  0.00    -0.324 C  
HETATM   38  C   UNL     1     -11.368  14.894  66.868  1.00  0.00    -0.337 C  
HETATM   39  N   UNL     1     -12.396  15.832  68.947  1.00  0.00    -0.492 NA 
HETATM   40  C   UNL     1     -10.542  13.703  66.347  1.00  0.00    -0.284 C  
HETATM   41  H2  UNL     1     -12.580  15.694  69.941  1.00  0.00     0.000 HD 
HETATM   42  O   UNL     1     -10.710  16.122  66.551  1.00  0.00    -0.302 OA 
HETATM   43  H1  UNL     1     -11.964  16.738  68.769  1.00  0.00     0.000 HD 
HETATM   44  C   UNL     1     -10.450  13.738  64.823  1.00  0.00    -0.448 C  
HETATM   45  H   UNL     1     -10.574  16.218  65.615  1.00  0.00     0.000 HD 
HETATM   46  O   UNL     1     -11.131  12.448  66.702  1.00  0.00    -0.263 OA 
ENDBRANCH  34  35
ENDBRANCH  22  34
ENDBRANCH   2   3
TORSDOF 5
ENDMDL
MODEL       85
REMARK 921   NORMALIZED FREE ENERGY PREDICTED BY IDOCK:   -3.97 KCAL/MOL
REMARK 922        TOTAL FREE ENERGY PREDICTED BY IDOCK:   -6.18 KCAL/MOL
REMARK 923 INTER-LIGAND FREE ENERGY PREDICTED BY IDOCK:   -5.99 KCAL/MOL
REMARK 924 INTRA-LIGAND FREE ENERGY PREDICTED BY IDOCK:   -0.19 KCAL/MOL
REMARK 927      BINDING AFFINITY PREDICTED BY RF-SCORE:    0.00 PKD
ROOT
HETATM    1  C   UNL     1     -12.293  11.992  63.264  1.00  0.00    -0.438 C  
HETATM    2  O   UNL     1     -11.162  12.365  64.046  1.00  0.00    -0.334 OA 
ENDROOT
BRANCH   2   3
HETATM    3  C   UNL     1     -11.408  12.844  65.306  1.00  0.00    -0.300 A  
HETATM    4  C   UNL     1     -12.093  14.052  65.515  1.00  0.00    -0.423 A  
HETATM    5  C   UNL     1     -12.343  14.518  66.801  1.00  0.00    -0.111 A  
HETATM    6  C   UNL     1     -11.909  13.781  67.893  1.00  0.00    -0.413 A  
HETATM    7  C   UNL     1     -11.205  12.582  67.706  1.00  0.00    -0.318 A  
HETATM    8  C   UNL     1     -10.932  12.112  66.419  1.00  0.00    -0.327 A  
HETATM    9  C   UNL     1     -10.151  10.853  66.279  1.00  0.00    -0.233 C  
HETATM   10  O   UNL     1      -9.772  10.435  65.190  1.00  0.00    -0.243 OA 
HETATM   11  C   UNL     1      -9.792  10.057  67.483  1.00  0.00    -0.211 A  
HETATM   12  C   UNL     1      -9.149   8.807  67.341  1.00  0.00    -0.133 A  
HETATM   13  O   UNL     1      -8.873   8.280  66.099  1.00  0.00    -0.149 OA 
HETATM   14  C   UNL     1      -8.777   8.026  68.455  1.00  0.00    -0.130 A  
HETATM   15  H   UNL     1      -8.441   7.439  66.004  1.00  0.00     0.000 HD 
HETATM   16  C   UNL     1      -9.054   8.520  69.753  1.00  0.00    -0.153 A  
HETATM   17  C   UNL     1      -9.746   9.744  69.883  1.00  0.00    -0.238 A  
HETATM   18  C   UNL     1      -8.662   7.724  70.991  1.00  0.00    -0.138 C  
HETATM   19  C   UNL     1      -7.686   6.577  70.714  1.00  0.00    -0.101 C  
HETATM   20  C   UNL     1     -10.094  10.524  68.758  1.00  0.00    -0.202 A  
HETATM   21  O   UNL     1     -10.140  10.181  71.119  1.00  0.00    -0.032 OA 
HETATM   22  C   UNL     1      -8.106   6.672  68.232  1.00  0.00    -0.111 C  
HETATM   23  C   UNL     1     -10.759  11.847  68.906  1.00  0.00    -0.199 C  
HETATM   24  C   UNL     1      -8.188   5.804  69.491  1.00  0.00    -0.108 C  
HETATM   25  O   UNL     1      -6.370   7.101  70.527  1.00  0.00    -0.037 OA 
HETATM   26  H   UNL     1     -10.605  11.005  71.206  1.00  0.00     0.000 HD 
HETATM   27  O   UNL     1     -10.951  12.367  69.999  1.00  0.00     0.271 OA 
HETATM   28  H   UNL     1      -5.766   6.389  70.355  1.00  0.00     0.000 HD 
BRANCH  19  29
HETATM   29  C   UNL     1      -7.632   5.633  71.927  1.00  0.00    -0.096 C  
HETATM   30  O   UNL     1      -8.038   5.971  73.044  1.00  0.00    -0.112 OA 
BRANCH  29  31
HETATM   31  C   UNL     1      -6.973   4.269  71.729  1.00  0.00    -0.035 C  
HETATM   32  O   UNL     1      -5.626   4.388  71.286  1.00  0.00    -0.010 OA 
HETATM   33  H   UNL     1      -5.217   3.540  71.163  1.00  0.00     0.000 HD 
ENDBRANCH  29  31
ENDBRANCH  19  29
BRANCH  22  34
HETATM   34  O   UNL     1      -6.741   6.912  67.848  1.00  0.00    -0.059 OA 
BRANCH  34  35
HETATM   35  C   UNL     1      -6.130   5.908  67.027  1.00  0.00    -0.025 C  
HETATM   36  C   UNL     1      -7.023   4.710  66.696  1.00  0.00    -0.063 C  
HETATM   37  C   UNL     1      -8.169   5.155  65.794  1.00  0.00    -0.117 C  
HETATM   38  C   UNL     1      -7.577   5.788  64.513  1.00  0.00    -0.084 C  
HETATM   39  N   UNL     1      -9.075   4.038  65.491  1.00  0.00    -0.134 NA 
HETATM   40  C   UNL     1      -6.619   6.928  64.903  1.00  0.00    -0.043 C  
HETATM   41  H2  UNL     1      -9.419   3.593  66.342  1.00  0.00     0.000 HD 
HETATM   42  O   UNL     1      -8.599   6.282  63.645  1.00  0.00    -0.331 OA 
HETATM   43  H1  UNL     1      -9.841   4.336  64.887  1.00  0.00     0.000 HD 
HETATM   44  C   UNL     1      -5.890   7.462  63.673  1.00  0.00    -0.048 C  
HETATM   45  H   UNL     1      -8.236   6.671  62.859  1.00  0.00     0.000 HD 
HETATM   46  O   UNL     1      -5.617   6.492  65.827  1.00  0.00    -0.020 OA 
ENDBRANCH  34  35
ENDBRANCH  22  34
ENDBRANCH   2   3
TORSDOF 5
ENDMDL
MODEL       86
REMARK 921   NORMALIZED FREE ENERGY PREDICTED BY IDOCK:   -3.84 KCAL/MOL
REMARK 922        TOTAL FREE ENERGY PREDICTED BY IDOCK:   -6.01 KCAL/MOL
REMARK 923 INTER-LIGAND FREE ENERGY PREDICTED BY IDOCK:   -8.23 KCAL/MOL
REMARK 924 INTRA-LIGAND FREE ENERGY PREDICTED BY IDOCK:    2.22 KCAL/MOL
REMARK 927      BINDING AFFINITY PREDICTED BY RF-SCORE:    0.00 PKD
ROOT
HETATM    1  C   UNL     1      -8.769   6.325  74.102  1.00  0.00    -0.127 C  
HETATM    2  O   UNL     1      -9.943   6.010  73.359  1.00  0.00    -0.166 OA 
ENDROOT
BRANCH   2   3
HETATM    3  C   UNL     1      -9.787   5.201  72.264  1.00  0.00    -0.171 A  
HETATM    4  C   UNL     1      -9.652   3.808  72.389  1.00  0.00    -0.198 A  
HETATM    5  C   UNL     1      -9.503   3.001  71.266  1.00  0.00    -0.220 A  
HETATM    6  C   UNL     1      -9.488   3.579  70.005  1.00  0.00    -0.253 A  
HETATM    7  C   UNL     1      -9.599   4.970  69.859  1.00  0.00    -0.246 A  
HETATM    8  C   UNL     1      -9.731   5.793  70.980  1.00  0.00    -0.213 A  
HETATM    9  C   UNL     1      -9.811   7.264  70.769  1.00  0.00    -0.178 C  
HETATM   10  O   UNL     1      -9.812   8.061  71.702  1.00  0.00    -0.158 OA 
HETATM   11  C   UNL     1      -9.881   7.821  69.392  1.00  0.00    -0.176 A  
HETATM   12  C   UNL     1     -10.070   9.206  69.195  1.00  0.00    -0.194 A  
HETATM   13  O   UNL     1     -10.228  10.067  70.259  1.00  0.00    -0.307 OA 
HETATM   14  C   UNL     1     -10.127   9.779  67.907  1.00  0.00    -0.212 A  
HETATM   15  H   UNL     1     -10.354  10.999  70.127  1.00  0.00     0.000 HD 
HETATM   16  C   UNL     1      -9.985   8.932  66.781  1.00  0.00    -0.338 A  
HETATM   17  C   UNL     1      -9.852   7.541  66.987  1.00  0.00    -0.214 A  
HETATM   18  C   UNL     1     -10.026   9.498  65.368  1.00  0.00    -0.135 C  
HETATM   19  C   UNL     1      -9.892  11.022  65.301  1.00  0.00    -0.259 C  
HETATM   20  C   UNL     1      -9.776   6.986  68.283  1.00  0.00    -0.136 A  
HETATM   21  O   UNL     1      -9.842   6.687  65.918  1.00  0.00    -0.386 OA 
HETATM   22  C   UNL     1     -10.357  11.282  67.763  1.00  0.00    -0.182 C  
HETATM   23  C   UNL     1      -9.565   5.528  68.493  1.00  0.00    -0.127 C  
HETATM   24  C   UNL     1     -10.827  11.633  66.349  1.00  0.00    -0.333 C  
HETATM   25  O   UNL     1      -8.527  11.393  65.504  1.00  0.00    -0.383 OA 
HETATM   26  H   UNL     1      -9.753   5.751  66.056  1.00  0.00     0.000 HD 
HETATM   27  O   UNL     1      -9.352   4.755  67.566  1.00  0.00    -0.125 OA 
HETATM   28  H   UNL     1      -8.444  12.338  65.462  1.00  0.00     0.000 HD 
BRANCH  19  29
HETATM   29  C   UNL     1     -10.296  11.521  63.904  1.00  0.00    -0.371 C  
HETATM   30  O   UNL     1     -11.262  12.271  63.725  1.00  0.00    -0.365 OA 
BRANCH  29  31
HETATM   31  C   UNL     1      -9.505  10.988  62.710  1.00  0.00    -0.334 C  
HETATM   32  O   UNL     1      -8.300  11.716  62.503  1.00  0.00    -0.644 OA 
HETATM   33  H   UNL     1      -7.808  11.384  61.761  1.00  0.00     0.000 HD 
ENDBRANCH  29  31
ENDBRANCH  19  29
BRANCH  22  34
HETATM   34  O   UNL     1      -9.126  11.951  68.089  1.00  0.00    -0.178 OA 
BRANCH  34  35
HETATM   35  C   UNL     1      -7.919  11.257  67.742  1.00  0.00    -0.117 C  
HETATM   36  C   UNL     1      -6.725  12.157  67.419  1.00  0.00    -0.143 C  
HETATM   37  C   UNL     1      -6.278  12.892  68.678  1.00  0.00    -0.071 C  
HETATM   38  C   UNL     1      -5.921  11.850  69.763  1.00  0.00    -0.132 C  
HETATM   39  N   UNL     1      -5.158  13.802  68.396  1.00  0.00    -0.093 NA 
HETATM   40  C   UNL     1      -7.123  10.915  69.987  1.00  0.00     0.049 C  
HETATM   41  H2  UNL     1      -5.384  14.453  67.643  1.00  0.00     0.000 HD 
HETATM   42  O   UNL     1      -5.548  12.472  70.994  1.00  0.00    -0.280 OA 
HETATM   43  H1  UNL     1      -4.860  14.293  69.238  1.00  0.00     0.000 HD 
HETATM   44  C   UNL     1      -6.748   9.772  70.927  1.00  0.00    -0.031 C  
HETATM   45  H   UNL     1      -5.329  11.832  71.660  1.00  0.00     0.000 HD 
HETATM   46  O   UNL     1      -7.573  10.320  68.765  1.00  0.00    -0.083 OA 
ENDBRANCH  34  35
ENDBRANCH  22  34
ENDBRANCH   2   3
TORSDOF 5
ENDMDL
MODEL       87
REMARK 921   NORMALIZED FREE ENERGY PREDICTED BY IDOCK:   -3.76 KCAL/MOL
REMARK 922        TOTAL FREE ENERGY PREDICTED BY IDOCK:   -5.91 KCAL/MOL
REMARK 923 INTER-LIGAND FREE ENERGY PREDICTED BY IDOCK:   -5.68 KCAL/MOL
REMARK 924 INTRA-LIGAND FREE ENERGY PREDICTED BY IDOCK:   -0.23 KCAL/MOL
REMARK 927      BINDING AFFINITY PREDICTED BY RF-SCORE:    0.00 PKD
ROOT
HETATM    1  C   UNL     1      -6.320   5.737  73.407  1.00  0.00    -0.067 C  
HETATM    2  O   UNL     1      -6.746   6.540  72.310  1.00  0.00    -0.065 OA 
ENDROOT
BRANCH   2   3
HETATM    3  C   UNL     1      -7.890   6.152  71.664  1.00  0.00    -0.102 A  
HETATM    4  C   UNL     1      -8.457   4.883  71.865  1.00  0.00    -0.123 A  
HETATM    5  C   UNL     1      -9.624   4.509  71.208  1.00  0.00    -0.240 A  
HETATM    6  C   UNL     1     -10.238   5.401  70.342  1.00  0.00    -0.332 A  
HETATM    7  C   UNL     1      -9.677   6.666  70.111  1.00  0.00    -0.174 A  
HETATM    8  C   UNL     1      -8.495   7.048  70.751  1.00  0.00    -0.135 A  
HETATM    9  C   UNL     1      -7.927   8.388  70.442  1.00  0.00    -0.099 C  
HETATM   10  O   UNL     1      -6.836   8.751  70.871  1.00  0.00    -0.053 OA 
HETATM   11  C   UNL     1      -8.675   9.338  69.577  1.00  0.00    -0.146 A  
HETATM   12  C   UNL     1      -8.188  10.648  69.376  1.00  0.00    -0.078 A  
HETATM   13  O   UNL     1      -7.041  11.090  69.996  1.00  0.00    -0.334 OA 
HETATM   14  C   UNL     1      -8.858  11.577  68.552  1.00  0.00    -0.139 A  
HETATM   15  H   UNL     1      -6.714  11.972  69.861  1.00  0.00     0.000 HD 
HETATM   16  C   UNL     1     -10.051  11.174  67.904  1.00  0.00    -0.195 A  
HETATM   17  C   UNL     1     -10.558   9.879  68.155  1.00  0.00    -0.227 A  
HETATM   18  C   UNL     1     -10.807  12.131  66.993  1.00  0.00    -0.289 C  
HETATM   19  C   UNL     1     -10.009  13.376  66.595  1.00  0.00    -0.277 C  
HETATM   20  C   UNL     1      -9.866   8.954  68.967  1.00  0.00    -0.182 A  
HETATM   21  O   UNL     1     -11.773   9.508  67.646  1.00  0.00     0.135 OA 
HETATM   22  C   UNL     1      -8.291  12.987  68.395  1.00  0.00    -0.118 C  
HETATM   23  C   UNL     1     -10.369   7.569  69.170  1.00  0.00    -0.212 C  
HETATM   24  C   UNL     1      -9.352  13.949  67.854  1.00  0.00    -0.208 C  
HETATM   25  O   UNL     1      -9.055  13.033  65.588  1.00  0.00    -0.348 OA 
HETATM   26  H   UNL     1     -12.115   8.638  67.815  1.00  0.00     0.000 HD 
HETATM   27  O   UNL     1     -11.347   7.133  68.574  1.00  0.00     0.098 OA 
HETATM   28  H   UNL     1      -8.560  13.806  65.342  1.00  0.00     0.000 HD 
BRANCH  19  29
HETATM   29  C   UNL     1     -10.952  14.429  65.988  1.00  0.00    -0.316 C  
HETATM   30  O   UNL     1     -12.091  14.148  65.600  1.00  0.00    -0.380 OA 
BRANCH  29  31
HETATM   31  C   UNL     1     -10.401  15.841  65.797  1.00  0.00    -0.369 C  
HETATM   32  O   UNL     1     -10.898  16.449  64.611  1.00  0.00    -0.786 OA 
HETATM   33  H   UNL     1     -10.556  17.328  64.493  1.00  0.00     0.000 HD 
ENDBRANCH  29  31
ENDBRANCH  19  29
BRANCH  22  34
HETATM   34  O   UNL     1      -7.154  12.912  67.518  1.00  0.00    -0.137 OA 
BRANCH  34  35
HETATM   35  C   UNL     1      -5.886  13.248  68.097  1.00  0.00    -0.105 C  
HETATM   36  C   UNL     1      -5.131  14.377  67.392  1.00  0.00     0.407 C  
HETATM   37  C   UNL     1      -5.883  15.692  67.574  1.00  0.00    -0.074 C  
HETATM   38  C   UNL     1      -6.035  15.974  69.087  1.00  0.00    -0.127 C  
HETATM   39  N   UNL     1      -5.210  16.794  66.871  1.00  0.00    -0.280 NA 
HETATM   40  C   UNL     1      -6.719  14.771  69.763  1.00  0.00    -0.173 C  
HETATM   41  H2  UNL     1      -5.067  16.577  65.885  1.00  0.00     0.000 HD 
HETATM   42  O   UNL     1      -6.785  17.165  69.331  1.00  0.00    -0.239 OA 
HETATM   43  H1  UNL     1      -5.713  17.672  66.993  1.00  0.00     0.000 HD 
HETATM   44  C   UNL     1      -6.733  14.944  71.280  1.00  0.00     0.909 C  
HETATM   45  H   UNL     1      -6.879  17.338  70.260  1.00  0.00     0.000 HD 
HETATM   46  O   UNL     1      -6.037  13.544  69.488  1.00  0.00    -0.100 OA 
ENDBRANCH  34  35
ENDBRANCH  22  34
ENDBRANCH   2   3
TORSDOF 5
ENDMDL
MODEL       88
REMARK 921   NORMALIZED FREE ENERGY PREDICTED BY IDOCK:   -3.68 KCAL/MOL
REMARK 922        TOTAL FREE ENERGY PREDICTED BY IDOCK:   -5.80 KCAL/MOL
REMARK 923 INTER-LIGAND FREE ENERGY PREDICTED BY IDOCK:   -7.68 KCAL/MOL
REMARK 924 INTRA-LIGAND FREE ENERGY PREDICTED BY IDOCK:    1.87 KCAL/MOL
REMARK 927      BINDING AFFINITY PREDICTED BY RF-SCORE:    0.00 PKD
ROOT
HETATM    1  C   UNL     1      -9.505  17.398  68.510  1.00  0.00    -0.297 C  
HETATM    2  O   UNL     1     -10.201  16.159  68.412  1.00  0.00    -0.228 OA 
ENDROOT
BRANCH   2   3
HETATM    3  C   UNL     1     -10.555  15.742  67.156  1.00  0.00    -0.313 A  
HETATM    4  C   UNL     1     -11.083  16.631  66.205  1.00  0.00     0.271 A  
HETATM    5  C   UNL     1     -11.428  16.193  64.931  1.00  0.00    -0.086 A  
HETATM    6  C   UNL     1     -11.249  14.860  64.594  1.00  0.00    -0.349 A  
HETATM    7  C   UNL     1     -10.742  13.951  65.535  1.00  0.00    -0.306 A  
HETATM    8  C   UNL     1     -10.409  14.374  66.824  1.00  0.00    -0.273 A  
HETATM    9  C   UNL     1      -9.909  13.361  67.792  1.00  0.00    -0.234 C  
HETATM   10  O   UNL     1      -9.704  13.627  68.972  1.00  0.00    -0.003 OA 
HETATM   11  C   UNL     1      -9.650  11.965  67.349  1.00  0.00    -0.176 A  
HETATM   12  C   UNL     1      -9.071  11.034  68.239  1.00  0.00    -0.158 A  
HETATM   13  O   UNL     1      -8.700  11.397  69.515  1.00  0.00    -0.210 OA 
HETATM   14  C   UNL     1      -8.822   9.697  67.866  1.00  0.00    -0.119 A  
HETATM   15  H   UNL     1      -8.311  10.770  70.113  1.00  0.00     0.000 HD 
HETATM   16  C   UNL     1      -9.172   9.281  66.558  1.00  0.00    -0.206 A  
HETATM   17  C   UNL     1      -9.700  10.233  65.658  1.00  0.00    -0.247 A  
HETATM   18  C   UNL     1      -8.938   7.845  66.107  1.00  0.00    -0.214 C  
HETATM   19  C   UNL     1      -8.632   6.873  67.249  1.00  0.00    -0.120 C  
HETATM   20  C   UNL     1      -9.962  11.563  66.054  1.00  0.00    -0.258 A  
HETATM   21  O   UNL     1      -9.927   9.891  64.353  1.00  0.00    -0.396 OA 
HETATM   22  C   UNL     1      -8.171   8.746  68.868  1.00  0.00    -0.118 C  
HETATM   23  C   UNL     1     -10.584  12.542  65.122  1.00  0.00    -0.293 C  
HETATM   24  C   UNL     1      -7.587   7.519  68.163  1.00  0.00    -0.114 C  
HETATM   25  O   UNL     1      -9.839   6.550  67.942  1.00  0.00    -0.121 OA 
HETATM   26  H   UNL     1     -10.282  10.531  63.747  1.00  0.00     0.000 HD 
HETATM   27  O   UNL     1     -10.985  12.225  64.008  1.00  0.00    -0.318 OA 
HETATM   28  H   UNL     1      -9.648   5.947  68.650  1.00  0.00     0.000 HD 
BRANCH  19  29
HETATM   29  C   UNL     1      -8.069   5.559  66.680  1.00  0.00    -0.105 C  
HETATM   30  O   UNL     1      -8.773   4.557  66.516  1.00  0.00    -0.112 OA 
BRANCH  29  31
HETATM   31  C   UNL     1      -6.569   5.500  66.395  1.00  0.00    -0.056 C  
HETATM   32  O   UNL     1      -6.265   5.896  65.063  1.00  0.00    -0.034 OA 
HETATM   33  H   UNL     1      -5.332   5.860  64.887  1.00  0.00     0.000 HD 
ENDBRANCH  29  31
ENDBRANCH  19  29
BRANCH  22  34
HETATM   34  O   UNL     1      -9.168   8.371  69.834  1.00  0.00    -0.149 OA 
BRANCH  34  35
HETATM   35  C   UNL     1     -10.526   8.366  69.371  1.00  0.00    -0.217 C  
HETATM   36  C   UNL     1     -11.419   7.292  69.996  1.00  0.00    -0.142 C  
HETATM   37  C   UNL     1     -11.626   7.592  71.477  1.00  0.00    -0.272 C  
HETATM   38  C   UNL     1     -12.252   8.998  71.619  1.00  0.00    -0.348 C  
HETATM   39  N   UNL     1     -12.444   6.554  72.122  1.00  0.00    -0.536 NA 
HETATM   40  C   UNL     1     -11.362  10.027  70.898  1.00  0.00    -0.361 C  
HETATM   41  H2  UNL     1     -12.051   5.624  71.979  1.00  0.00     0.000 HD 
HETATM   42  O   UNL     1     -12.419   9.368  72.988  1.00  0.00     0.151 OA 
HETATM   43  H1  UNL     1     -12.582   6.755  73.113  1.00  0.00     0.000 HD 
HETATM   44  C   UNL     1     -12.036  11.397  70.874  1.00  0.00    -0.383 C  
HETATM   45  H   UNL     1     -12.804  10.232  73.075  1.00  0.00     0.000 HD 
HETATM   46  O   UNL     1     -11.113   9.659  69.538  1.00  0.00    -0.229 OA 
ENDBRANCH  34  35
ENDBRANCH  22  34
ENDBRANCH   2   3
TORSDOF 5
ENDMDL
MODEL       89
REMARK 921   NORMALIZED FREE ENERGY PREDICTED BY IDOCK:   -3.62 KCAL/MOL
REMARK 922        TOTAL FREE ENERGY PREDICTED BY IDOCK:   -5.72 KCAL/MOL
REMARK 923 INTER-LIGAND FREE ENERGY PREDICTED BY IDOCK:   -5.52 KCAL/MOL
REMARK 924 INTRA-LIGAND FREE ENERGY PREDICTED BY IDOCK:   -0.20 KCAL/MOL
REMARK 927      BINDING AFFINITY PREDICTED BY RF-SCORE:    0.00 PKD
ROOT
HETATM    1  C   UNL     1     -10.667   6.719  70.309  1.00  0.00    -0.244 C  
HETATM    2  O   UNL     1     -11.906   7.300  69.911  1.00  0.00    -0.001 OA 
ENDROOT
BRANCH   2   3
HETATM    3  C   UNL     1     -12.576   8.037  70.852  1.00  0.00     0.037 A  
HETATM    4  C   UNL     1     -13.324   7.427  71.873  1.00  0.00    -0.292 A  
HETATM    5  C   UNL     1     -13.991   8.191  72.825  1.00  0.00     0.189 A  
HETATM    6  C   UNL     1     -13.917   9.575  72.765  1.00  0.00    -0.004 A  
HETATM    7  C   UNL     1     -13.194  10.205  71.741  1.00  0.00    -0.542 A  
HETATM    8  C   UNL     1     -12.534   9.449  70.769  1.00  0.00    -0.144 A  
HETATM    9  C   UNL     1     -11.811  10.170  69.686  1.00  0.00    -0.045 C  
HETATM   10  O   UNL     1     -11.306   9.584  68.734  1.00  0.00     0.024 OA 
HETATM   11  C   UNL     1     -11.689  11.651  69.724  1.00  0.00    -0.425 A  
HETATM   12  C   UNL     1     -10.908  12.324  68.758  1.00  0.00    -0.229 A  
HETATM   13  O   UNL     1     -10.217  11.633  67.788  1.00  0.00    -0.181 OA 
HETATM   14  C   UNL     1     -10.777  13.728  68.748  1.00  0.00    -0.267 A  
HETATM   15  H   UNL     1      -9.692  12.086  67.138  1.00  0.00     0.000 HD 
HETATM   16  C   UNL     1     -11.457  14.481  69.736  1.00  0.00    -0.327 A  
HETATM   17  C   UNL     1     -12.191  13.795  70.730  1.00  0.00    -0.363 A  
HETATM   18  C   UNL     1     -11.361  16.000  69.763  1.00  0.00    -0.331 C  
HETATM   19  C   UNL     1     -10.779  16.613  68.486  1.00  0.00    -0.351 C  
HETATM   20  C   UNL     1     -12.329  12.390  70.715  1.00  0.00    -0.377 A  
HETATM   21  O   UNL     1     -12.750  14.488  71.769  1.00  0.00    -0.317 OA 
HETATM   22  C   UNL     1      -9.898  14.393  67.690  1.00  0.00    -0.224 C  
HETATM   23  C   UNL     1     -13.161  11.681  71.724  1.00  0.00    -0.382 C  
HETATM   24  C   UNL     1      -9.528  15.820  68.100  1.00  0.00    -0.199 C  
HETATM   25  O   UNL     1     -11.770  16.607  67.457  1.00  0.00     0.349 OA 
HETATM   26  H   UNL     1     -13.243  14.028  72.438  1.00  0.00     0.000 HD 
HETATM   27  O   UNL     1     -13.839  12.277  72.551  1.00  0.00    -0.187 OA 
HETATM   28  H   UNL     1     -11.408  16.987  66.665  1.00  0.00     0.000 HD 
BRANCH  19  29
HETATM   29  C   UNL     1     -10.395  18.081  68.739  1.00  0.00    -0.284 C  
HETATM   30  O   UNL     1      -9.921  18.463  69.814  1.00  0.00     0.238 OA 
BRANCH  29  31
HETATM   31  C   UNL     1     -10.700  19.089  67.632  1.00  0.00    -0.409 C  
HETATM   32  O   UNL     1      -9.635  20.013  67.447  1.00  0.00    -0.347 OA 
HETATM   33  H   UNL     1      -9.825  20.640  66.758  1.00  0.00     0.000 HD 
ENDBRANCH  29  31
ENDBRANCH  19  29
BRANCH  22  34
HETATM   34  O   UNL     1     -10.615  14.373  66.443  1.00  0.00    -0.289 OA 
BRANCH  34  35
HETATM   35  C   UNL     1      -9.821  14.218  65.259  1.00  0.00    -0.169 C  
HETATM   36  C   UNL     1      -8.619  13.282  65.405  1.00  0.00     2.161 C  
HETATM   37  C   UNL     1      -9.103  11.850  65.612  1.00  0.00     0.021 C  
HETATM   38  C   UNL     1      -9.990  11.446  64.412  1.00  0.00    -0.274 C  
HETATM   39  N   UNL     1      -7.974  10.927  65.800  1.00  0.00    -0.303 NA 
HETATM   40  C   UNL     1     -11.131  12.467  64.255  1.00  0.00    -0.356 C  
HETATM   41  H2  UNL     1      -7.364  11.230  66.560  1.00  0.00     0.000 HD 
HETATM   42  O   UNL     1     -10.527  10.131  64.570  1.00  0.00    -0.300 OA 
HETATM   43  H1  UNL     1      -8.298   9.970  65.939  1.00  0.00     0.000 HD 
HETATM   44  C   UNL     1     -11.926  12.193  62.981  1.00  0.00    -0.117 C  
HETATM   45  H   UNL     1     -11.073   9.883  63.833  1.00  0.00     0.000 HD 
HETATM   46  O   UNL     1     -10.640  13.808  64.161  1.00  0.00    -0.264 OA 
ENDBRANCH  34  35
ENDBRANCH  22  34
ENDBRANCH   2   3
TORSDOF 5
ENDMDL
MODEL       90
REMARK 921   NORMALIZED FREE ENERGY PREDICTED BY IDOCK:   -3.44 KCAL/MOL
REMARK 922        TOTAL FREE ENERGY PREDICTED BY IDOCK:   -5.49 KCAL/MOL
REMARK 923 INTER-LIGAND FREE ENERGY PREDICTED BY IDOCK:   -8.24 KCAL/MOL
REMARK 924 INTRA-LIGAND FREE ENERGY PREDICTED BY IDOCK:    2.75 KCAL/MOL
REMARK 927      BINDING AFFINITY PREDICTED BY RF-SCORE:    0.00 PKD
ROOT
HETATM    1  C   UNL     1     -10.099   5.122  71.304  1.00  0.00    -0.210 C  
HETATM    2  O   UNL     1      -8.940   5.740  70.754  1.00  0.00    -0.144 OA 
ENDROOT
BRANCH   2   3
HETATM    3  C   UNL     1      -8.674   5.496  69.432  1.00  0.00    -0.107 A  
HETATM    4  C   UNL     1      -8.155   4.264  68.999  1.00  0.00    -0.073 A  
HETATM    5  C   UNL     1      -7.900   4.030  67.652  1.00  0.00    -0.090 A  
HETATM    6  C   UNL     1      -8.160   5.026  66.723  1.00  0.00    -0.108 A  
HETATM    7  C   UNL     1      -8.658   6.271  67.136  1.00  0.00    -0.107 A  
HETATM    8  C   UNL     1      -8.902   6.525  68.488  1.00  0.00    -0.121 A  
HETATM    9  C   UNL     1      -9.398   7.874  68.874  1.00  0.00    -0.150 C  
HETATM   10  O   UNL     1      -9.527   8.214  70.046  1.00  0.00    -0.166 OA 
HETATM   11  C   UNL     1      -9.746   8.872  67.828  1.00  0.00    -0.196 A  
HETATM   12  C   UNL     1     -10.321  10.109  68.191  1.00  0.00    -0.185 A  
HETATM   13  O   UNL     1     -10.606  10.410  69.505  1.00  0.00    -0.217 OA 
HETATM   14  C   UNL     1     -10.653  11.090  67.234  1.00  0.00    -0.287 A  
HETATM   15  H   UNL     1     -10.992  11.242  69.749  1.00  0.00     0.000 HD 
HETATM   16  C   UNL     1     -10.393  10.821  65.868  1.00  0.00    -0.302 A  
HETATM   17  C   UNL     1      -9.869   9.559  65.510  1.00  0.00    -0.234 A  
HETATM   18  C   UNL     1     -10.720  11.849  64.793  1.00  0.00    -0.356 C  
HETATM   19  C   UNL     1     -11.011  13.251  65.338  1.00  0.00    -0.284 C  
HETATM   20  C   UNL     1      -9.523   8.595  66.482  1.00  0.00    -0.278 A  
HETATM   21  O   UNL     1      -9.729   9.224  64.190  1.00  0.00    -0.273 OA 
HETATM   22  C   UNL     1     -11.295  12.399  67.690  1.00  0.00    -0.312 C  
HETATM   23  C   UNL     1      -8.906   7.296  66.103  1.00  0.00    -0.158 C  
HETATM   24  C   UNL     1     -11.974  13.116  66.521  1.00  0.00    -0.459 C  
HETATM   25  O   UNL     1      -9.786  13.890  65.700  1.00  0.00    -0.471 OA 
HETATM   26  H   UNL     1      -9.377   8.375  63.949  1.00  0.00     0.000 HD 
HETATM   27  O   UNL     1      -8.580   7.036  64.951  1.00  0.00     0.003 OA 
HETATM   28  H   UNL     1      -9.967  14.759  66.037  1.00  0.00     0.000 HD 
BRANCH  19  29
HETATM   29  C   UNL     1     -11.665  14.111  64.243  1.00  0.00    -0.345 C  
HETATM   30  O   UNL     1     -12.140  13.619  63.213  1.00  0.00    -0.471 OA 
BRANCH  29  31
HETATM   31  C   UNL     1     -11.637  15.627  64.428  1.00  0.00    -0.249 C  
HETATM   32  O   UNL     1     -12.658  16.273  63.676  1.00  0.00    -0.508 OA 
HETATM   33  H   UNL     1     -12.640  17.216  63.792  1.00  0.00     0.000 HD 
ENDBRANCH  29  31
ENDBRANCH  19  29
BRANCH  22  34
HETATM   34  O   UNL     1     -10.267  13.213  68.280  1.00  0.00    -0.239 OA 
BRANCH  34  35
HETATM   35  C   UNL     1      -9.036  13.306  67.548  1.00  0.00    -0.208 C  
HETATM   36  C   UNL     1      -8.287  14.631  67.707  1.00  0.00    -0.168 C  
HETATM   37  C   UNL     1      -7.777  14.766  69.138  1.00  0.00    -0.144 C  
HETATM   38  C   UNL     1      -6.863  13.560  69.457  1.00  0.00     0.048 C  
HETATM   39  N   UNL     1      -7.088  16.050  69.340  1.00  0.00    -0.219 NA 
HETATM   40  C   UNL     1      -7.635  12.253  69.197  1.00  0.00     0.202 C  
HETATM   41  H2  UNL     1      -7.680  16.838  69.077  1.00  0.00     0.000 HD 
HETATM   42  O   UNL     1      -6.395  13.593  70.807  1.00  0.00    -0.410 OA 
HETATM   43  H1  UNL     1      -6.748  16.140  70.297  1.00  0.00     0.000 HD 
HETATM   44  C   UNL     1      -6.711  11.046  69.340  1.00  0.00    -0.112 C  
HETATM   45  H   UNL     1      -5.834  12.851  71.003  1.00  0.00     0.000 HD 
HETATM   46  O   UNL     1      -8.180  12.208  67.874  1.00  0.00    -0.136 OA 
ENDBRANCH  34  35
ENDBRANCH  22  34
ENDBRANCH   2   3
TORSDOF 5
ENDMDL
MODEL       91
REMARK 921   NORMALIZED FREE ENERGY PREDICTED BY IDOCK:   -3.43 KCAL/MOL
REMARK 922        TOTAL FREE ENERGY PREDICTED BY IDOCK:   -5.48 KCAL/MOL
REMARK 923 INTER-LIGAND FREE ENERGY PREDICTED BY IDOCK:   -5.63 KCAL/MOL
REMARK 924 INTRA-LIGAND FREE ENERGY PREDICTED BY IDOCK:    0.15 KCAL/MOL
REMARK 927      BINDING AFFINITY PREDICTED BY RF-SCORE:    0.00 PKD
ROOT
HETATM    1  C   UNL     1     -10.357   1.561  63.437  1.00  0.00    -0.131 C  
HETATM    2  O   UNL     1      -9.236   1.776  64.290  1.00  0.00    -0.114 OA 
ENDROOT
BRANCH   2   3
HETATM    3  C   UNL     1      -8.221   2.554  63.799  1.00  0.00    -0.082 A  
HETATM    4  C   UNL     1      -7.304   2.061  62.856  1.00  0.00    -0.041 A  
HETATM    5  C   UNL     1      -6.285   2.868  62.360  1.00  0.00    -0.013 A  
HETATM    6  C   UNL     1      -6.173   4.177  62.803  1.00  0.00    -0.018 A  
HETATM    7  C   UNL     1      -7.065   4.683  63.760  1.00  0.00    -0.049 A  
HETATM    8  C   UNL     1      -8.082   3.877  64.279  1.00  0.00    -0.090 A  
HETATM    9  C   UNL     1      -8.978   4.455  65.317  1.00  0.00    -0.140 C  
HETATM   10  O   UNL     1      -9.819   3.781  65.905  1.00  0.00    -0.164 OA 
HETATM   11  C   UNL     1      -8.869   5.891  65.688  1.00  0.00    -0.126 A  
HETATM   12  C   UNL     1      -9.792   6.463  66.590  1.00  0.00    -0.152 A  
HETATM   13  O   UNL     1     -10.829   5.727  67.118  1.00  0.00    -0.348 OA 
HETATM   14  C   UNL     1      -9.717   7.816  66.980  1.00  0.00    -0.259 A  
HETATM   15  H   UNL     1     -11.450   6.112  67.725  1.00  0.00     0.000 HD 
HETATM   16  C   UNL     1      -8.676   8.618  66.451  1.00  0.00    -0.150 A  
HETATM   17  C   UNL     1      -7.791   8.051  65.507  1.00  0.00    -0.106 A  
HETATM   18  C   UNL     1      -8.540  10.082  66.848  1.00  0.00    -0.128 C  
HETATM   19  C   UNL     1      -9.375  10.479  68.068  1.00  0.00    -0.145 C  
HETATM   20  C   UNL     1      -7.868   6.689  65.142  1.00  0.00    -0.115 A  
HETATM   21  O   UNL     1      -6.859   8.835  64.884  1.00  0.00    -0.072 OA 
HETATM   22  C   UNL     1     -10.762   8.381  67.941  1.00  0.00    -0.074 C  
HETATM   23  C   UNL     1      -6.889   6.081  64.202  1.00  0.00    -0.046 C  
HETATM   24  C   UNL     1     -10.786   9.910  67.891  1.00  0.00    -0.316 C  
HETATM   25  O   UNL     1      -8.741  10.007  69.258  1.00  0.00    -0.151 OA 
HETATM   26  H   UNL     1      -6.263   8.454  64.249  1.00  0.00     0.000 HD 
HETATM   27  O   UNL     1      -5.919   6.697  63.775  1.00  0.00    -0.030 OA 
HETATM   28  H   UNL     1      -9.259  10.254  70.015  1.00  0.00     0.000 HD 
BRANCH  19  29
HETATM   29  C   UNL     1      -9.452  12.012  68.172  1.00  0.00    -0.200 C  
HETATM   30  O   UNL     1      -8.453  12.711  68.370  1.00  0.00    -0.168 OA 
BRANCH  29  31
HETATM   31  C   UNL     1     -10.838  12.653  68.105  1.00  0.00    -0.227 C  
HETATM   32  O   UNL     1     -11.163  13.079  66.787  1.00  0.00    -0.279 OA 
HETATM   33  H   UNL     1     -12.025  13.477  66.746  1.00  0.00     0.000 HD 
ENDBRANCH  29  31
ENDBRANCH  19  29
BRANCH  22  34
HETATM   34  O   UNL     1     -10.450   7.903  69.261  1.00  0.00    -0.218 OA 
BRANCH  34  35
HETATM   35  C   UNL     1     -11.415   7.026  69.860  1.00  0.00    -0.176 C  
HETATM   36  C   UNL     1     -11.188   5.536  69.594  1.00  0.00     0.295 C  
HETATM   37  C   UNL     1      -9.914   5.077  70.295  1.00  0.00    -0.255 C  
HETATM   38  C   UNL     1     -10.045   5.366  71.808  1.00  0.00    -0.196 C  
HETATM   39  N   UNL     1      -9.638   3.658  70.026  1.00  0.00    -0.192 NA 
HETATM   40  C   UNL     1     -10.361   6.859  72.016  1.00  0.00    -0.199 C  
HETATM   41  H2  UNL     1      -9.605   3.466  69.024  1.00  0.00     0.000 HD 
HETATM   42  O   UNL     1      -8.858   5.012  72.520  1.00  0.00    -0.122 OA 
HETATM   43  H1  UNL     1      -8.786   3.351  70.494  1.00  0.00     0.000 HD 
HETATM   44  C   UNL     1     -10.663   7.144  73.486  1.00  0.00    -0.375 C  
HETATM   45  H   UNL     1      -8.938   5.190  73.450  1.00  0.00     0.000 HD 
HETATM   46  O   UNL     1     -11.506   7.272  71.265  1.00  0.00    -0.260 OA 
ENDBRANCH  34  35
ENDBRANCH  22  34
ENDBRANCH   2   3
TORSDOF 5
ENDMDL
MODEL       92
REMARK 921   NORMALIZED FREE ENERGY PREDICTED BY IDOCK:   -3.39 KCAL/MOL
REMARK 922        TOTAL FREE ENERGY PREDICTED BY IDOCK:   -5.43 KCAL/MOL
REMARK 923 INTER-LIGAND FREE ENERGY PREDICTED BY IDOCK:   -7.83 KCAL/MOL
REMARK 924 INTRA-LIGAND FREE ENERGY PREDICTED BY IDOCK:    2.40 KCAL/MOL
REMARK 927      BINDING AFFINITY PREDICTED BY RF-SCORE:    0.00 PKD
ROOT
HETATM    1  C   UNL     1      -9.397   4.190  71.400  1.00  0.00    -0.145 C  
HETATM    2  O   UNL     1      -8.968   4.558  70.092  1.00  0.00    -0.083 OA 
ENDROOT
BRANCH   2   3
HETATM    3  C   UNL     1      -7.791   5.254  69.998  1.00  0.00    -0.080 A  
HETATM    4  C   UNL     1      -6.556   4.660  70.307  1.00  0.00    -0.036 A  
HETATM    5  C   UNL     1      -5.371   5.379  70.197  1.00  0.00    -0.004 A  
HETATM    6  C   UNL     1      -5.407   6.699  69.775  1.00  0.00    -0.014 A  
HETATM    7  C   UNL     1      -6.632   7.318  69.481  1.00  0.00    -0.040 A  
HETATM    8  C   UNL     1      -7.832   6.612  69.605  1.00  0.00    -0.115 A  
HETATM    9  C   UNL     1      -9.103   7.328  69.314  1.00  0.00    -0.138 C  
HETATM   10  O   UNL     1     -10.202   6.817  69.509  1.00  0.00    -0.174 OA 
HETATM   11  C   UNL     1      -9.077   8.715  68.778  1.00  0.00    -0.142 A  
HETATM   12  C   UNL     1     -10.279   9.351  68.397  1.00  0.00    -0.197 A  
HETATM   13  O   UNL     1     -11.491   8.701  68.475  1.00  0.00     0.010 OA 
HETATM   14  C   UNL     1     -10.302  10.670  67.898  1.00  0.00    -0.231 A  
HETATM   15  H   UNL     1     -12.299   9.129  68.219  1.00  0.00     0.000 HD 
HETATM   16  C   UNL     1      -9.078  11.374  67.784  1.00  0.00    -0.158 A  
HETATM   17  C   UNL     1      -7.877  10.710  68.116  1.00  0.00    -0.110 A  
HETATM   18  C   UNL     1      -9.046  12.805  67.264  1.00  0.00    -0.200 C  
HETATM   19  C   UNL     1     -10.419  13.483  67.213  1.00  0.00    -0.248 C  
HETATM   20  C   UNL     1      -7.872   9.396  68.633  1.00  0.00    -0.088 A  
HETATM   21  O   UNL     1      -6.672  11.321  67.894  1.00  0.00    -0.061 OA 
HETATM   22  C   UNL     1     -11.633  11.293  67.480  1.00  0.00    -0.175 C  
HETATM   23  C   UNL     1      -6.609   8.729  69.047  1.00  0.00    -0.048 C  
HETATM   24  C   UNL     1     -11.413  12.507  66.576  1.00  0.00    -0.418 C  
HETATM   25  O   UNL     1     -10.808  13.877  68.530  1.00  0.00    -0.243 OA 
HETATM   26  H   UNL     1      -5.864  10.875  68.118  1.00  0.00     0.000 HD 
HETATM   27  O   UNL     1      -5.530   9.310  69.053  1.00  0.00    -0.036 OA 
HETATM   28  H   UNL     1     -11.659  14.297  68.498  1.00  0.00     0.000 HD 
BRANCH  19  29
HETATM   29  C   UNL     1     -10.339  14.761  66.361  1.00  0.00    -0.293 C  
HETATM   30  O   UNL     1     -10.376  15.890  66.860  1.00  0.00    -0.279 OA 
BRANCH  29  31
HETATM   31  C   UNL     1     -10.297  14.592  64.843  1.00  0.00    -0.350 C  
HETATM   32  O   UNL     1     -10.943  15.667  64.171  1.00  0.00    -0.735 OA 
HETATM   33  H   UNL     1     -10.916  15.562  63.227  1.00  0.00     0.000 HD 
ENDBRANCH  29  31
ENDBRANCH  19  29
BRANCH  22  34
HETATM   34  O   UNL     1     -12.348  11.651  68.676  1.00  0.00    -0.394 OA 
BRANCH  34  35
HETATM   35  C   UNL     1     -11.555  11.815  69.860  1.00  0.00    -0.274 C  
HETATM   36  C   UNL     1     -12.138  12.773  70.902  1.00  0.00    -0.144 C  
HETATM   37  C   UNL     1     -13.412  12.178  71.493  1.00  0.00     0.146 C  
HETATM   38  C   UNL     1     -13.077  10.804  72.117  1.00  0.00    -0.244 C  
HETATM   39  N   UNL     1     -14.026  13.092  72.467  1.00  0.00    -0.688 NA 
HETATM   40  C   UNL     1     -12.413   9.909  71.053  1.00  0.00    -0.346 C  
HETATM   41  H2  UNL     1     -14.195  14.013  72.062  1.00  0.00     0.000 HD 
HETATM   42  O   UNL     1     -14.242  10.161  72.639  1.00  0.00    -0.362 OA 
HETATM   43  H1  UNL     1     -14.878  12.694  72.862  1.00  0.00     0.000 HD 
HETATM   44  C   UNL     1     -11.918   8.608  71.679  1.00  0.00    -0.388 C  
HETATM   45  H   UNL     1     -14.036   9.316  73.022  1.00  0.00     0.000 HD 
HETATM   46  O   UNL     1     -11.279  10.544  70.454  1.00  0.00    -0.304 OA 
ENDBRANCH  34  35
ENDBRANCH  22  34
ENDBRANCH   2   3
TORSDOF 5
ENDMDL
MODEL       93
REMARK 921   NORMALIZED FREE ENERGY PREDICTED BY IDOCK:   -3.35 KCAL/MOL
REMARK 922        TOTAL FREE ENERGY PREDICTED BY IDOCK:   -5.38 KCAL/MOL
REMARK 923 INTER-LIGAND FREE ENERGY PREDICTED BY IDOCK:   -7.46 KCAL/MOL
REMARK 924 INTRA-LIGAND FREE ENERGY PREDICTED BY IDOCK:    2.07 KCAL/MOL
REMARK 927      BINDING AFFINITY PREDICTED BY RF-SCORE:    0.00 PKD
ROOT
HETATM    1  C   UNL     1     -11.371  15.519  64.009  1.00  0.00     0.240 C  
HETATM    2  O   UNL     1     -10.340  16.289  64.619  1.00  0.00    -0.429 OA 
ENDROOT
BRANCH   2   3
HETATM    3  C   UNL     1     -10.597  16.795  65.866  1.00  0.00    -0.248 A  
HETATM    4  C   UNL     1     -10.683  18.178  66.099  1.00  0.00    -0.164 A  
HETATM    5  C   UNL     1     -10.954  18.673  67.370  1.00  0.00    -0.239 A  
HETATM    6  C   UNL     1     -11.142  17.791  68.422  1.00  0.00     0.263 A  
HETATM    7  C   UNL     1     -11.039  16.407  68.217  1.00  0.00    -0.337 A  
HETATM    8  C   UNL     1     -10.750  15.897  66.948  1.00  0.00    -0.289 A  
HETATM    9  C   UNL     1     -10.618  14.422  66.795  1.00  0.00    -0.282 C  
HETATM   10  O   UNL     1     -10.254  13.903  65.744  1.00  0.00    -0.298 OA 
HETATM   11  C   UNL     1     -10.920  13.520  67.937  1.00  0.00    -0.275 A  
HETATM   12  C   UNL     1     -10.904  12.119  67.758  1.00  0.00    -0.224 A  
HETATM   13  O   UNL     1     -10.647  11.556  66.528  1.00  0.00    -0.239 OA 
HETATM   14  C   UNL     1     -11.169  11.226  68.818  1.00  0.00    -0.311 A  
HETATM   15  H   UNL     1     -10.636  10.614  66.408  1.00  0.00     0.000 HD 
HETATM   16  C   UNL     1     -11.454  11.758  70.099  1.00  0.00    -0.169 A  
HETATM   17  C   UNL     1     -11.522  13.161  70.254  1.00  0.00     0.154 A  
HETATM   18  C   UNL     1     -11.734  10.840  71.281  1.00  0.00    -0.027 C  
HETATM   19  C   UNL     1     -11.355   9.376  71.039  1.00  0.00    -0.337 C  
HETATM   20  C   UNL     1     -11.234  14.041  69.189  1.00  0.00    -0.308 A  
HETATM   21  O   UNL     1     -11.921  13.700  71.447  1.00  0.00    -0.360 OA 
HETATM   22  C   UNL     1     -11.159   9.722  68.552  1.00  0.00    -0.087 C  
HETATM   23  C   UNL     1     -11.238  15.517  69.378  1.00  0.00    -0.300 C  
HETATM   24  C   UNL     1     -11.887   8.963  69.664  1.00  0.00     0.701 C  
HETATM   25  O   UNL     1      -9.938   9.224  71.146  1.00  0.00    -0.285 OA 
HETATM   26  H   UNL     1     -11.966  14.643  71.553  1.00  0.00     0.000 HD 
HETATM   27  O   UNL     1     -11.394  16.037  70.476  1.00  0.00    -0.355 OA 
HETATM   28  H   UNL     1      -9.703   8.316  70.996  1.00  0.00     0.000 HD 
BRANCH  19  29
HETATM   29  C   UNL     1     -11.990   8.487  72.121  1.00  0.00    -0.383 C  
HETATM   30  O   UNL     1     -11.331   8.004  73.049  1.00  0.00    -0.386 OA 
BRANCH  29  31
HETATM   31  C   UNL     1     -13.470   8.141  71.969  1.00  0.00    -0.278 C  
HETATM   32  O   UNL     1     -14.284   8.873  72.878  1.00  0.00    -1.034 OA 
HETATM   33  H   UNL     1     -15.204   8.658  72.782  1.00  0.00     0.000 HD 
ENDBRANCH  29  31
ENDBRANCH  19  29
BRANCH  22  34
HETATM   34  O   UNL     1      -9.788   9.302  68.440  1.00  0.00    -0.148 OA 
BRANCH  34  35
HETATM   35  C   UNL     1      -8.876  10.263  67.890  1.00  0.00    -0.122 C  
HETATM   36  C   UNL     1      -8.064  11.049  68.922  1.00  0.00    -0.135 C  
HETATM   37  C   UNL     1      -7.094  10.112  69.635  1.00  0.00    -0.115 C  
HETATM   38  C   UNL     1      -6.176   9.450  68.582  1.00  0.00    -0.044 C  
HETATM   39  N   UNL     1      -6.326  10.825  70.667  1.00  0.00    -0.340 NA 
HETATM   40  C   UNL     1      -7.043   8.749  67.520  1.00  0.00    -0.079 C  
HETATM   41  H2  UNL     1      -6.939  11.303  71.328  1.00  0.00     0.000 HD 
HETATM   42  O   UNL     1      -5.278   8.512  69.177  1.00  0.00    -0.034 OA 
HETATM   43  H1  UNL     1      -5.678  10.199  71.144  1.00  0.00     0.000 HD 
HETATM   44  C   UNL     1      -6.176   8.229  66.376  1.00  0.00    -0.049 C  
HETATM   45  H   UNL     1      -4.714   8.104  68.530  1.00  0.00     0.000 HD 
HETATM   46  O   UNL     1      -8.006   9.638  66.944  1.00  0.00    -0.105 OA 
ENDBRANCH  34  35
ENDBRANCH  22  34
ENDBRANCH   2   3
TORSDOF 5
ENDMDL
MODEL       94
REMARK 921   NORMALIZED FREE ENERGY PREDICTED BY IDOCK:   -3.30 KCAL/MOL
REMARK 922        TOTAL FREE ENERGY PREDICTED BY IDOCK:   -5.32 KCAL/MOL
REMARK 923 INTER-LIGAND FREE ENERGY PREDICTED BY IDOCK:   -5.33 KCAL/MOL
REMARK 924 INTRA-LIGAND FREE ENERGY PREDICTED BY IDOCK:    0.01 KCAL/MOL
REMARK 927      BINDING AFFINITY PREDICTED BY RF-SCORE:    0.00 PKD
ROOT
HETATM    1  C   UNL     1      -9.363  17.853  67.936  1.00  0.00    -0.271 C  
HETATM    2  O   UNL     1      -8.340  16.970  67.484  1.00  0.00    -0.185 OA 
ENDROOT
BRANCH   2   3
HETATM    3  C   UNL     1      -7.368  16.632  68.388  1.00  0.00    -0.190 A  
HETATM    4  C   UNL     1      -6.492  17.591  68.923  1.00  0.00    -0.213 A  
HETATM    5  C   UNL     1      -5.516  17.231  69.847  1.00  0.00    -0.221 A  
HETATM    6  C   UNL     1      -5.405  15.908  70.245  1.00  0.00    -0.154 A  
HETATM    7  C   UNL     1      -6.255  14.930  69.707  1.00  0.00    -0.144 A  
HETATM    8  C   UNL     1      -7.228  15.275  68.765  1.00  0.00    -0.127 A  
HETATM    9  C   UNL     1      -8.079  14.192  68.201  1.00  0.00    -0.148 C  
HETATM   10  O   UNL     1      -8.875  14.393  67.289  1.00  0.00    -0.191 OA 
HETATM   11  C   UNL     1      -7.978  12.807  68.732  1.00  0.00     0.069 A  
HETATM   12  C   UNL     1      -8.863  11.806  68.275  1.00  0.00    -0.172 A  
HETATM   13  O   UNL     1      -9.857  12.089  67.364  1.00  0.00    -0.183 OA 
HETATM   14  C   UNL     1      -8.793  10.476  68.739  1.00  0.00    -0.158 A  
HETATM   15  H   UNL     1     -10.452  11.415  67.057  1.00  0.00     0.000 HD 
HETATM   16  C   UNL     1      -7.798  10.140  69.689  1.00  0.00    -0.181 A  
HETATM   17  C   UNL     1      -6.953  11.160  70.180  1.00  0.00     0.269 A  
HETATM   18  C   UNL     1      -7.668   8.717  70.215  1.00  0.00    -0.083 C  
HETATM   19  C   UNL     1      -8.445   7.677  69.402  1.00  0.00    -0.132 C  
HETATM   20  C   UNL     1      -7.022  12.483  69.690  1.00  0.00     0.260 A  
HETATM   21  O   UNL     1      -6.069  10.892  71.190  1.00  0.00    -0.356 OA 
HETATM   22  C   UNL     1      -9.797   9.446  68.224  1.00  0.00    -0.160 C  
HETATM   23  C   UNL     1      -6.083  13.536  70.160  1.00  0.00    -0.123 C  
HETATM   24  C   UNL     1      -9.852   8.224  69.143  1.00  0.00    -0.179 C  
HETATM   25  O   UNL     1      -7.740   7.388  68.194  1.00  0.00    -0.115 OA 
HETATM   26  H   UNL     1      -5.501  11.578  71.520  1.00  0.00     0.000 HD 
HETATM   27  O   UNL     1      -5.149  13.293  70.915  1.00  0.00    -0.107 OA 
HETATM   28  H   UNL     1      -8.223   6.743  67.690  1.00  0.00     0.000 HD 
BRANCH  19  29
HETATM   29  C   UNL     1      -8.546   6.363  70.195  1.00  0.00    -0.135 C  
HETATM   30  O   UNL     1      -9.614   5.957  70.665  1.00  0.00    -0.168 OA 
BRANCH  29  31
HETATM   31  C   UNL     1      -7.249   5.601  70.463  1.00  0.00    -0.074 C  
HETATM   32  O   UNL     1      -6.935   4.700  69.408  1.00  0.00    -0.048 OA 
HETATM   33  H   UNL     1      -6.128   4.226  69.575  1.00  0.00     0.000 HD 
ENDBRANCH  29  31
ENDBRANCH  19  29
BRANCH  22  34
HETATM   34  O   UNL     1      -9.407   9.081  66.888  1.00  0.00    -0.145 OA 
BRANCH  34  35
HETATM   35  C   UNL     1      -8.466   9.951  66.244  1.00  0.00    -0.128 C  
HETATM   36  C   UNL     1      -7.214   9.260  65.699  1.00  0.00    -0.090 C  
HETATM   37  C   UNL     1      -7.594   8.346  64.539  1.00  0.00    -0.106 C  
HETATM   38  C   UNL     1      -8.293   9.189  63.448  1.00  0.00    -0.192 C  
HETATM   39  N   UNL     1      -6.421   7.629  64.017  1.00  0.00    -0.052 NA 
HETATM   40  C   UNL     1      -9.491   9.932  64.067  1.00  0.00    -0.167 C  
HETATM   41  H2  UNL     1      -5.936   7.117  64.754  1.00  0.00     0.000 HD 
HETATM   42  O   UNL     1      -8.730   8.382  62.353  1.00  0.00    -0.398 OA 
HETATM   43  H1  UNL     1      -6.676   7.018  63.241  1.00  0.00     0.000 HD 
HETATM   44  C   UNL     1     -10.100  10.904  63.059  1.00  0.00    -0.251 C  
HETATM   45  H   UNL     1      -9.160   8.900  61.683  1.00  0.00     0.000 HD 
HETATM   46  O   UNL     1      -9.108  10.702  65.212  1.00  0.00    -0.179 OA 
ENDBRANCH  34  35
ENDBRANCH  22  34
ENDBRANCH   2   3
TORSDOF 5
ENDMDL
MODEL       95
REMARK 921   NORMALIZED FREE ENERGY PREDICTED BY IDOCK:   -3.24 KCAL/MOL
REMARK 922        TOTAL FREE ENERGY PREDICTED BY IDOCK:   -5.24 KCAL/MOL
REMARK 923 INTER-LIGAND FREE ENERGY PREDICTED BY IDOCK:   -5.59 KCAL/MOL
REMARK 924 INTRA-LIGAND FREE ENERGY PREDICTED BY IDOCK:    0.35 KCAL/MOL
REMARK 927      BINDING AFFINITY PREDICTED BY RF-SCORE:    0.00 PKD
ROOT
HETATM    1  C   UNL     1      -6.369   1.661  68.351  1.00  0.00    -0.025 C  
HETATM    2  O   UNL     1      -5.830   2.924  67.972  1.00  0.00    -0.022 OA 
ENDROOT
BRANCH   2   3
HETATM    3  C   UNL     1      -5.816   3.216  66.633  1.00  0.00    -0.023 A  
HETATM    4  C   UNL     1      -5.201   2.366  65.699  1.00  0.00    -0.008 A  
HETATM    5  C   UNL     1      -5.204   2.674  64.342  1.00  0.00    -0.008 A  
HETATM    6  C   UNL     1      -5.822   3.836  63.906  1.00  0.00    -0.014 A  
HETATM    7  C   UNL     1      -6.424   4.709  64.824  1.00  0.00    -0.039 A  
HETATM    8  C   UNL     1      -6.412   4.420  66.191  1.00  0.00    -0.041 A  
HETATM    9  C   UNL     1      -7.035   5.399  67.123  1.00  0.00    -0.065 C  
HETATM   10  O   UNL     1      -6.966   5.277  68.342  1.00  0.00    -0.058 OA 
HETATM   11  C   UNL     1      -7.764   6.581  66.592  1.00  0.00    -0.099 A  
HETATM   12  C   UNL     1      -8.449   7.447  67.472  1.00  0.00    -0.116 A  
HETATM   13  O   UNL     1      -8.492   7.204  68.827  1.00  0.00    -0.125 OA 
HETATM   14  C   UNL     1      -9.140   8.588  67.013  1.00  0.00    -0.170 A  
HETATM   15  H   UNL     1      -8.953   7.787  69.419  1.00  0.00     0.000 HD 
HETATM   16  C   UNL     1      -9.137   8.871  65.626  1.00  0.00    -0.269 A  
HETATM   17  C   UNL     1      -8.495   7.969  64.748  1.00  0.00    -0.019 A  
HETATM   18  C   UNL     1      -9.855  10.096  65.077  1.00  0.00    -0.392 C  
HETATM   19  C   UNL     1     -10.257  11.116  66.146  1.00  0.00    -0.244 C  
HETATM   20  C   UNL     1      -7.790   6.842  65.225  1.00  0.00    -0.121 A  
HETATM   21  O   UNL     1      -8.586   8.148  63.394  1.00  0.00    -0.406 OA 
HETATM   22  C   UNL     1      -9.882   9.471  68.015  1.00  0.00    -0.155 C  
HETATM   23  C   UNL     1      -7.057   5.935  64.301  1.00  0.00    -0.053 C  
HETATM   24  C   UNL     1     -10.906  10.362  67.310  1.00  0.00    -0.324 C  
HETATM   25  O   UNL     1      -9.108  11.863  66.552  1.00  0.00    -0.204 OA 
HETATM   26  H   UNL     1      -8.154   7.542  62.804  1.00  0.00     0.000 HD 
HETATM   27  O   UNL     1      -6.946   6.169  63.103  1.00  0.00    -0.042 OA 
HETATM   28  H   UNL     1      -9.358  12.496  67.215  1.00  0.00     0.000 HD 
BRANCH  19  29
HETATM   29  C   UNL     1     -11.266  12.118  65.560  1.00  0.00    -0.334 C  
HETATM   30  O   UNL     1     -11.709  12.012  64.411  1.00  0.00    -0.345 OA 
BRANCH  29  31
HETATM   31  C   UNL     1     -11.651  13.318  66.424  1.00  0.00    -0.347 C  
HETATM   32  O   UNL     1     -10.951  14.495  66.040  1.00  0.00    -0.311 OA 
HETATM   33  H   UNL     1     -11.191  15.241  66.578  1.00  0.00     0.000 HD 
ENDBRANCH  29  31
ENDBRANCH  19  29
BRANCH  22  34
HETATM   34  O   UNL     1      -8.904  10.253  68.723  1.00  0.00    -0.132 OA 
BRANCH  34  35
HETATM   35  C   UNL     1      -7.533  10.021  68.370  1.00  0.00    -0.082 C  
HETATM   36  C   UNL     1      -6.740  11.276  67.996  1.00  0.00    -0.062 C  
HETATM   37  C   UNL     1      -6.570  12.163  69.226  1.00  0.00    -0.104 C  
HETATM   38  C   UNL     1      -5.854  11.352  70.330  1.00  0.00    -0.153 C  
HETATM   39  N   UNL     1      -5.850  13.401  68.895  1.00  0.00    -0.073 NA 
HETATM   40  C   UNL     1      -6.644  10.058  70.605  1.00  0.00    -0.086 C  
HETATM   41  H2  UNL     1      -6.300  13.904  68.129  1.00  0.00     0.000 HD 
HETATM   42  O   UNL     1      -5.715  12.106  71.535  1.00  0.00    -0.408 OA 
HETATM   43  H1  UNL     1      -5.736  13.994  69.717  1.00  0.00     0.000 HD 
HETATM   44  C   UNL     1      -5.877   9.155  71.569  1.00  0.00    -0.069 C  
HETATM   45  H   UNL     1      -5.275  11.607  72.214  1.00  0.00     0.000 HD 
HETATM   46  O   UNL     1      -6.866   9.303  69.410  1.00  0.00    -0.047 OA 
ENDBRANCH  34  35
ENDBRANCH  22  34
ENDBRANCH   2   3
TORSDOF 5
ENDMDL
MODEL       96
REMARK 921   NORMALIZED FREE ENERGY PREDICTED BY IDOCK:   -3.14 KCAL/MOL
REMARK 922        TOTAL FREE ENERGY PREDICTED BY IDOCK:   -5.10 KCAL/MOL
REMARK 923 INTER-LIGAND FREE ENERGY PREDICTED BY IDOCK:   -6.45 KCAL/MOL
REMARK 924 INTRA-LIGAND FREE ENERGY PREDICTED BY IDOCK:    1.35 KCAL/MOL
REMARK 927      BINDING AFFINITY PREDICTED BY RF-SCORE:    0.00 PKD
ROOT
HETATM    1  C   UNL     1     -11.014  15.671  65.311  1.00  0.00    -0.364 C  
HETATM    2  O   UNL     1     -10.565  15.862  66.650  1.00  0.00    -0.314 OA 
ENDROOT
BRANCH   2   3
HETATM    3  C   UNL     1      -9.211  15.942  66.845  1.00  0.00    -0.226 A  
HETATM    4  C   UNL     1      -8.477  17.077  66.463  1.00  0.00    -0.306 A  
HETATM    5  C   UNL     1      -7.104  17.146  66.677  1.00  0.00    -0.283 A  
HETATM    6  C   UNL     1      -6.451  16.079  67.275  1.00  0.00    -0.200 A  
HETATM    7  C   UNL     1      -7.162  14.927  67.645  1.00  0.00    -0.207 A  
HETATM    8  C   UNL     1      -8.538  14.838  67.419  1.00  0.00    -0.210 A  
HETATM    9  C   UNL     1      -9.235  13.580  67.799  1.00  0.00    -0.213 C  
HETATM   10  O   UNL     1     -10.415  13.378  67.530  1.00  0.00    -0.234 OA 
HETATM   11  C   UNL     1      -8.502  12.505  68.520  1.00  0.00    -0.061 A  
HETATM   12  C   UNL     1      -9.191  11.361  68.979  1.00  0.00     0.071 A  
HETATM   13  O   UNL     1     -10.551  11.226  68.806  1.00  0.00    -0.188 OA 
HETATM   14  C   UNL     1      -8.533  10.312  69.654  1.00  0.00    -0.132 A  
HETATM   15  H   UNL     1     -11.014  10.456  69.115  1.00  0.00     0.000 HD 
HETATM   16  C   UNL     1      -7.137  10.413  69.869  1.00  0.00    -0.160 A  
HETATM   17  C   UNL     1      -6.467  11.586  69.455  1.00  0.00    -0.124 A  
HETATM   18  C   UNL     1      -6.374   9.304  70.580  1.00  0.00    -0.062 C  
HETATM   19  C   UNL     1      -7.157   7.995  70.716  1.00  0.00    -0.048 C  
HETATM   20  C   UNL     1      -7.136  12.619  68.763  1.00  0.00    -0.087 A  
HETATM   21  O   UNL     1      -5.146  11.767  69.765  1.00  0.00    -0.064 OA 
HETATM   22  C   UNL     1      -9.340   9.112  70.146  1.00  0.00    -0.209 C  
HETATM   23  C   UNL     1      -6.410  13.819  68.268  1.00  0.00    -0.108 C  
HETATM   24  C   UNL     1      -8.568   8.328  71.209  1.00  0.00    -0.179 C  
HETATM   25  O   UNL     1      -7.163   7.307  69.464  1.00  0.00    -0.075 OA 
HETATM   26  H   UNL     1      -4.695  12.555  69.486  1.00  0.00     0.000 HD 
HETATM   27  O   UNL     1      -5.192  13.929  68.348  1.00  0.00    -0.087 OA 
HETATM   28  H   UNL     1      -7.649   6.495  69.549  1.00  0.00     0.000 HD 
BRANCH  19  29
HETATM   29  C   UNL     1      -6.464   7.075  71.736  1.00  0.00    -0.048 C  
HETATM   30  O   UNL     1      -6.265   7.420  72.906  1.00  0.00    -0.054 OA 
BRANCH  29  31
HETATM   31  C   UNL     1      -5.943   5.730  71.232  1.00  0.00    -0.029 C  
HETATM   32  O   UNL     1      -6.886   4.685  71.436  1.00  0.00    -0.033 OA 
HETATM   33  H   UNL     1      -6.561   3.849  71.122  1.00  0.00     0.000 HD 
ENDBRANCH  29  31
ENDBRANCH  19  29
BRANCH  22  34
HETATM   34  O   UNL     1      -9.648   8.290  69.007  1.00  0.00    -0.154 OA 
BRANCH  34  35
HETATM   35  C   UNL     1     -10.907   7.603  69.045  1.00  0.00    -0.040 C  
HETATM   36  C   UNL     1     -10.857   6.191  69.632  1.00  0.00    -0.424 C  
HETATM   37  C   UNL     1     -10.528   6.262  71.119  1.00  0.00    -0.223 C  
HETATM   38  C   UNL     1     -11.597   7.128  71.825  1.00  0.00    -0.280 C  
HETATM   39  N   UNL     1     -10.427   4.919  71.709  1.00  0.00    -0.180 NA 
HETATM   40  C   UNL     1     -11.670   8.506  71.141  1.00  0.00    -0.281 C  
HETATM   41  H2  UNL     1      -9.758   4.338  71.205  1.00  0.00     0.000 HD 
HETATM   42  O   UNL     1     -11.316   7.287  73.217  1.00  0.00    -0.580 OA 
HETATM   43  H1  UNL     1     -10.207   4.968  72.703  1.00  0.00     0.000 HD 
HETATM   44  C   UNL     1     -12.830   9.324  71.703  1.00  0.00    -0.447 C  
HETATM   45  H   UNL     1     -11.973   7.819  73.650  1.00  0.00     0.000 HD 
HETATM   46  O   UNL     1     -11.883   8.392  69.730  1.00  0.00     0.392 OA 
ENDBRANCH  34  35
ENDBRANCH  22  34
ENDBRANCH   2   3
TORSDOF 5
ENDMDL
MODEL       97
REMARK 921   NORMALIZED FREE ENERGY PREDICTED BY IDOCK:   -2.78 KCAL/MOL
REMARK 922        TOTAL FREE ENERGY PREDICTED BY IDOCK:   -4.64 KCAL/MOL
REMARK 923 INTER-LIGAND FREE ENERGY PREDICTED BY IDOCK:   -4.50 KCAL/MOL
REMARK 924 INTRA-LIGAND FREE ENERGY PREDICTED BY IDOCK:   -0.14 KCAL/MOL
REMARK 927      BINDING AFFINITY PREDICTED BY RF-SCORE:    0.00 PKD
ROOT
HETATM    1  C   UNL     1     -10.138   6.178  70.245  1.00  0.00    -0.188 C  
HETATM    2  O   UNL     1     -11.533   6.202  69.955  1.00  0.00    -0.421 OA 
ENDROOT
BRANCH   2   3
HETATM    3  C   UNL     1     -12.350   6.790  70.884  1.00  0.00    -0.280 A  
HETATM    4  C   UNL     1     -13.123   6.027  71.775  1.00  0.00     0.806 A  
HETATM    5  C   UNL     1     -13.941   6.641  72.718  1.00  0.00     1.048 A  
HETATM    6  C   UNL     1     -13.994   8.025  72.780  1.00  0.00     0.294 A  
HETATM    7  C   UNL     1     -13.247   8.806  71.885  1.00  0.00    -0.424 A  
HETATM    8  C   UNL     1     -12.436   8.202  70.921  1.00  0.00    -0.006 A  
HETATM    9  C   UNL     1     -11.693   9.078  69.976  1.00  0.00     0.192 C  
HETATM   10  O   UNL     1     -11.052   8.627  69.032  1.00  0.00     0.019 OA 
HETATM   11  C   UNL     1     -11.716  10.555  70.147  1.00  0.00    -0.410 A  
HETATM   12  C   UNL     1     -10.921  11.378  69.319  1.00  0.00    -0.229 A  
HETATM   13  O   UNL     1     -10.085  10.841  68.365  1.00  0.00    -0.158 OA 
HETATM   14  C   UNL     1     -10.925  12.783  69.436  1.00  0.00    -0.041 A  
HETATM   15  H   UNL     1      -9.550  11.395  67.808  1.00  0.00     0.000 HD 
HETATM   16  C   UNL     1     -11.757  13.381  70.413  1.00  0.00    -0.184 A  
HETATM   17  C   UNL     1     -12.506  12.547  71.273  1.00  0.00    -0.170 A  
HETATM   18  C   UNL     1     -11.810  14.895  70.575  1.00  0.00    -0.358 C  
HETATM   19  C   UNL     1     -11.179  15.669  69.414  1.00  0.00    -0.313 C  
HETATM   20  C   UNL     1     -12.508  11.142  71.129  1.00  0.00    -0.498 A  
HETATM   21  O   UNL     1     -13.218  13.091  72.307  1.00  0.00    -0.471 OA 
HETATM   22  C   UNL     1     -10.023  13.615  68.526  1.00  0.00    -0.208 C  
HETATM   23  C   UNL     1     -13.354  10.274  71.992  1.00  0.00    -0.361 C  
HETATM   24  C   UNL     1      -9.828  15.026  69.085  1.00  0.00    -0.223 C  
HETATM   25  O   UNL     1     -12.070  15.670  68.297  1.00  0.00    -0.447 OA 
HETATM   26  H   UNL     1     -13.722  12.531  72.885  1.00  0.00     0.000 HD 
HETATM   27  O   UNL     1     -14.156  10.732  72.797  1.00  0.00     0.750 OA 
HETATM   28  H   UNL     1     -11.678  16.150  67.577  1.00  0.00     0.000 HD 
BRANCH  19  29
HETATM   29  C   UNL     1     -10.960  17.136  69.822  1.00  0.00     0.357 C  
HETATM   30  O   UNL     1     -11.027  17.510  70.998  1.00  0.00     0.905 OA 
BRANCH  29  31
HETATM   31  C   UNL     1     -10.737  18.152  68.703  1.00  0.00     0.122 C  
HETATM   32  O   UNL     1      -9.703  19.076  69.023  1.00  0.00    -0.380 OA 
HETATM   33  H   UNL     1      -9.565  19.707  68.327  1.00  0.00     0.000 HD 
ENDBRANCH  29  31
ENDBRANCH  19  29
BRANCH  22  34
HETATM   34  O   UNL     1     -10.623  13.646  67.219  1.00  0.00    -0.264 OA 
BRANCH  34  35
HETATM   35  C   UNL     1      -9.731  13.878  66.119  1.00  0.00    -0.272 C  
HETATM   36  C   UNL     1     -10.207  13.326  64.773  1.00  0.00    -0.323 C  
HETATM   37  C   UNL     1     -11.438  14.095  64.307  1.00  0.00    -0.272 C  
HETATM   38  C   UNL     1     -11.080  15.596  64.206  1.00  0.00     0.018 C  
HETATM   39  N   UNL     1     -11.951  13.562  63.036  1.00  0.00    -0.741 NA 
HETATM   40  C   UNL     1     -10.524  16.079  65.558  1.00  0.00    -0.405 C  
HETATM   41  H2  UNL     1     -12.135  12.561  63.096  1.00  0.00     0.000 HD 
HETATM   42  O   UNL     1     -12.209  16.386  63.829  1.00  0.00    -1.135 OA 
HETATM   43  H1  UNL     1     -12.774  14.077  62.724  1.00  0.00     0.000 HD 
HETATM   44  C   UNL     1     -10.004  17.510  65.444  1.00  0.00     0.471 C  
HETATM   45  H   UNL     1     -11.988  17.308  63.767  1.00  0.00     0.000 HD 
HETATM   46  O   UNL     1      -9.432  15.271  66.007  1.00  0.00    -0.303 OA 
ENDBRANCH  34  35
ENDBRANCH  22  34
ENDBRANCH   2   3
TORSDOF 5
ENDMDL
MODEL       98
REMARK 921   NORMALIZED FREE ENERGY PREDICTED BY IDOCK:   -2.76 KCAL/MOL
REMARK 922        TOTAL FREE ENERGY PREDICTED BY IDOCK:   -4.61 KCAL/MOL
REMARK 923 INTER-LIGAND FREE ENERGY PREDICTED BY IDOCK:   -4.65 KCAL/MOL
REMARK 924 INTRA-LIGAND FREE ENERGY PREDICTED BY IDOCK:    0.04 KCAL/MOL
REMARK 927      BINDING AFFINITY PREDICTED BY RF-SCORE:    0.00 PKD
ROOT
HETATM    1  C   UNL     1      -7.554  16.981  68.267  1.00  0.00    -0.213 C  
HETATM    2  O   UNL     1      -7.517  16.476  66.935  1.00  0.00    -0.173 OA 
ENDROOT
BRANCH   2   3
HETATM    3  C   UNL     1      -8.717  16.152  66.360  1.00  0.00    -0.325 A  
HETATM    4  C   UNL     1      -9.612  17.139  65.913  1.00  0.00    -0.110 A  
HETATM    5  C   UNL     1     -10.822  16.792  65.322  1.00  0.00    -0.148 A  
HETATM    6  C   UNL     1     -11.151  15.453  65.172  1.00  0.00    -0.402 A  
HETATM    7  C   UNL     1     -10.282  14.452  65.630  1.00  0.00    -0.371 A  
HETATM    8  C   UNL     1      -9.071  14.787  66.242  1.00  0.00    -0.231 A  
HETATM    9  C   UNL     1      -8.204  13.686  66.740  1.00  0.00     0.212 C  
HETATM   10  O   UNL     1      -7.184  13.897  67.388  1.00  0.00    -0.174 OA 
HETATM   11  C   UNL     1      -8.564  12.268  66.470  1.00  0.00    -0.039 A  
HETATM   12  C   UNL     1      -7.684  11.229  66.845  1.00  0.00    -0.152 A  
HETATM   13  O   UNL     1      -6.467  11.497  67.432  1.00  0.00    -0.074 OA 
HETATM   14  C   UNL     1      -7.992   9.871  66.623  1.00  0.00    -0.113 A  
HETATM   15  H   UNL     1      -5.876  10.797  67.684  1.00  0.00     0.000 HD 
HETATM   16  C   UNL     1      -9.226   9.546  66.008  1.00  0.00    -0.248 A  
HETATM   17  C   UNL     1     -10.074  10.595  65.587  1.00  0.00    -0.272 A  
HETATM   18  C   UNL     1      -9.616   8.096  65.756  1.00  0.00     0.111 C  
HETATM   19  C   UNL     1      -8.751   7.077  66.504  1.00  0.00    -0.134 C  
HETATM   20  C   UNL     1      -9.761  11.949  65.836  1.00  0.00    -0.258 A  
HETATM   21  O   UNL     1     -11.210  10.315  64.877  1.00  0.00     0.699 OA 
HETATM   22  C   UNL     1      -6.986   8.796  67.030  1.00  0.00    -0.074 C  
HETATM   23  C   UNL     1     -10.692  13.045  65.453  1.00  0.00    -0.291 C  
HETATM   24  C   UNL     1      -7.282   7.470  66.324  1.00  0.00    -0.074 C  
HETATM   25  O   UNL     1      -9.141   7.034  67.878  1.00  0.00    -0.128 OA 
HETATM   26  H   UNL     1     -11.781  11.020  64.594  1.00  0.00     0.000 HD 
HETATM   27  O   UNL     1     -11.808  12.828  64.996  1.00  0.00    -0.341 OA 
HETATM   28  H   UNL     1      -8.604   6.402  68.341  1.00  0.00     0.000 HD 
BRANCH  19  29
HETATM   29  C   UNL     1      -8.978   5.672  65.923  1.00  0.00    -0.155 C  
HETATM   30  O   UNL     1      -8.419   5.287  64.890  1.00  0.00    -0.142 OA 
BRANCH  29  31
HETATM   31  C   UNL     1      -9.999   4.777  66.624  1.00  0.00    -0.235 C  
HETATM   32  O   UNL     1      -9.413   4.031  67.684  1.00  0.00    -0.168 OA 
HETATM   33  H   UNL     1     -10.048   3.475  68.120  1.00  0.00     0.000 HD 
ENDBRANCH  29  31
ENDBRANCH  19  29
BRANCH  22  34
HETATM   34  O   UNL     1      -7.047   8.654  68.460  1.00  0.00    -0.070 OA 
BRANCH  34  35
HETATM   35  C   UNL     1      -7.597   9.765  69.182  1.00  0.00    -0.085 C  
HETATM   36  C   UNL     1      -8.848   9.447  70.004  1.00  0.00    -0.231 C  
HETATM   37  C   UNL     1      -8.486   8.512  71.154  1.00  0.00    -0.156 C  
HETATM   38  C   UNL     1      -7.400   9.187  72.021  1.00  0.00     0.353 C  
HETATM   39  N   UNL     1      -9.674   8.148  71.940  1.00  0.00    -0.185 NA 
HETATM   40  C   UNL     1      -6.201   9.566  71.132  1.00  0.00    -0.068 C  
HETATM   41  H2  UNL     1     -10.407   7.751  71.351  1.00  0.00     0.000 HD 
HETATM   42  O   UNL     1      -6.970   8.338  73.087  1.00  0.00    -0.112 OA 
HETATM   43  H1  UNL     1      -9.432   7.523  72.708  1.00  0.00     0.000 HD 
HETATM   44  C   UNL     1      -5.183  10.385  71.924  1.00  0.00     0.029 C  
HETATM   45  H   UNL     1      -6.301   8.753  73.620  1.00  0.00     0.000 HD 
HETATM   46  O   UNL     1      -6.597  10.363  70.011  1.00  0.00    -0.103 OA 
ENDBRANCH  34  35
ENDBRANCH  22  34
ENDBRANCH   2   3
TORSDOF 5
ENDMDL
MODEL       99
REMARK 921   NORMALIZED FREE ENERGY PREDICTED BY IDOCK:   -2.73 KCAL/MOL
REMARK 922        TOTAL FREE ENERGY PREDICTED BY IDOCK:   -4.58 KCAL/MOL
REMARK 923 INTER-LIGAND FREE ENERGY PREDICTED BY IDOCK:   -4.73 KCAL/MOL
REMARK 924 INTRA-LIGAND FREE ENERGY PREDICTED BY IDOCK:    0.15 KCAL/MOL
REMARK 927      BINDING AFFINITY PREDICTED BY RF-SCORE:    0.00 PKD
ROOT
HETATM    1  C   UNL     1      -7.041   1.640  71.189  1.00  0.00    -0.032 C  
HETATM    2  O   UNL     1      -8.018   2.390  70.472  1.00  0.00    -0.042 OA 
ENDROOT
BRANCH   2   3
HETATM    3  C   UNL     1      -8.851   3.190  71.209  1.00  0.00    -0.082 A  
HETATM    4  C   UNL     1      -9.750   2.654  72.146  1.00  0.00    -0.216 A  
HETATM    5  C   UNL     1     -10.582   3.481  72.892  1.00  0.00    -0.218 A  
HETATM    6  C   UNL     1     -10.524   4.854  72.709  1.00  0.00    -0.257 A  
HETATM    7  C   UNL     1      -9.649   5.409  71.764  1.00  0.00    -0.186 A  
HETATM    8  C   UNL     1      -8.820   4.588  70.995  1.00  0.00    -0.151 A  
HETATM    9  C   UNL     1      -7.937   5.227  69.982  1.00  0.00    -0.080 C  
HETATM   10  O   UNL     1      -7.267   4.572  69.191  1.00  0.00    -0.051 OA 
HETATM   11  C   UNL     1      -7.849   6.709  69.893  1.00  0.00    -0.115 A  
HETATM   12  C   UNL     1      -6.928   7.313  69.010  1.00  0.00    -0.077 A  
HETATM   13  O   UNL     1      -6.070   6.558  68.242  1.00  0.00    -0.025 OA 
HETATM   14  C   UNL     1      -6.822   8.714  68.882  1.00  0.00    -0.061 A  
HETATM   15  H   UNL     1      -5.450   6.965  67.647  1.00  0.00     0.000 HD 
HETATM   16  C   UNL     1      -7.673   9.533  69.663  1.00  0.00    -0.112 A  
HETATM   17  C   UNL     1      -8.553   8.920  70.583  1.00  0.00    -0.194 A  
HETATM   18  C   UNL     1      -7.611  11.051  69.556  1.00  0.00    -0.001 C  
HETATM   19  C   UNL     1      -6.831  11.560  68.339  1.00  0.00    -0.070 C  
HETATM   20  C   UNL     1      -8.661   7.516  70.685  1.00  0.00    -0.141 A  
HETATM   21  O   UNL     1      -9.293   9.689  71.441  1.00  0.00    -0.292 OA 
HETATM   22  C   UNL     1      -5.788   9.305  67.926  1.00  0.00    -0.041 C  
HETATM   23  C   UNL     1      -9.640   6.877  71.605  1.00  0.00    -0.161 C  
HETATM   24  C   UNL     1      -5.519  10.777  68.248  1.00  0.00    -0.039 C  
HETATM   25  O   UNL     1      -7.632  11.422  67.164  1.00  0.00    -0.129 OA 
HETATM   26  H   UNL     1      -9.884   9.277  72.060  1.00  0.00     0.000 HD 
HETATM   27  O   UNL     1     -10.459   7.526  72.245  1.00  0.00    -0.210 OA 
HETATM   28  H   UNL     1      -7.149  11.738  66.411  1.00  0.00     0.000 HD 
BRANCH  19  29
HETATM   29  C   UNL     1      -6.522  13.057  68.506  1.00  0.00    -0.084 C  
HETATM   30  O   UNL     1      -5.367  13.496  68.507  1.00  0.00    -0.076 OA 
BRANCH  29  31
HETATM   31  C   UNL     1      -7.702  13.995  68.760  1.00  0.00    -0.112 C  
HETATM   32  O   UNL     1      -8.803  13.706  67.908  1.00  0.00    -0.168 OA 
HETATM   33  H   UNL     1      -9.536  14.290  68.066  1.00  0.00     0.000 HD 
ENDBRANCH  29  31
ENDBRANCH  19  29
BRANCH  22  34
HETATM   34  O   UNL     1      -6.283   9.144  66.585  1.00  0.00    -0.063 OA 
BRANCH  34  35
HETATM   35  C   UNL     1      -7.278   8.127  66.397  1.00  0.00    -0.079 C  
HETATM   36  C   UNL     1      -8.688   8.647  66.107  1.00  0.00    -0.180 C  
HETATM   37  C   UNL     1      -8.715   9.326  64.742  1.00  0.00    -0.188 C  
HETATM   38  C   UNL     1      -8.257   8.311  63.670  1.00  0.00    -0.082 C  
HETATM   39  N   UNL     1     -10.046   9.879  64.447  1.00  0.00    -0.405 NA 
HETATM   40  C   UNL     1      -6.875   7.753  64.054  1.00  0.00    -0.061 C  
HETATM   41  H2  UNL     1     -10.363  10.507  65.186  1.00  0.00     0.000 HD 
HETATM   42  O   UNL     1      -8.203   8.901  62.370  1.00  0.00    -0.153 OA 
HETATM   43  H1  UNL     1     -10.064  10.333  63.535  1.00  0.00     0.000 HD 
HETATM   44  C   UNL     1      -6.468   6.625  63.109  1.00  0.00    -0.042 C  
HETATM   45  H   UNL     1      -7.921   8.277  61.711  1.00  0.00     0.000 HD 
HETATM   46  O   UNL     1      -6.866   7.211  65.379  1.00  0.00    -0.050 OA 
ENDBRANCH  34  35
ENDBRANCH  22  34
ENDBRANCH   2   3
TORSDOF 5
ENDMDL
MODEL      100
REMARK 921   NORMALIZED FREE ENERGY PREDICTED BY IDOCK:   -2.64 KCAL/MOL
REMARK 922        TOTAL FREE ENERGY PREDICTED BY IDOCK:   -4.45 KCAL/MOL
REMARK 923 INTER-LIGAND FREE ENERGY PREDICTED BY IDOCK:   -7.78 KCAL/MOL
REMARK 924 INTRA-LIGAND FREE ENERGY PREDICTED BY IDOCK:    3.32 KCAL/MOL
REMARK 927      BINDING AFFINITY PREDICTED BY RF-SCORE:    0.00 PKD
ROOT
HETATM    1  C   UNL     1      -9.730   7.921  70.749  1.00  0.00    -0.172 C  
HETATM    2  O   UNL     1     -10.571   8.799  70.006  1.00  0.00    -0.215 OA 
ENDROOT
BRANCH   2   3
HETATM    3  C   UNL     1     -10.426   8.792  68.643  1.00  0.00    -0.183 A  
HETATM    4  C   UNL     1     -10.363   7.593  67.914  1.00  0.00    -0.270 A  
HETATM    5  C   UNL     1     -10.226   7.605  66.530  1.00  0.00    -0.178 A  
HETATM    6  C   UNL     1     -10.150   8.817  65.860  1.00  0.00     0.123 A  
HETATM    7  C   UNL     1     -10.190  10.026  66.571  1.00  0.00    -0.291 A  
HETATM    8  C   UNL     1     -10.309  10.027  67.963  1.00  0.00    -0.238 A  
HETATM    9  C   UNL     1     -10.312  11.337  68.669  1.00  0.00    -0.201 C  
HETATM   10  O   UNL     1     -10.297  11.421  69.893  1.00  0.00     0.291 OA 
HETATM   11  C   UNL     1     -10.320  12.606  67.894  1.00  0.00    -0.221 A  
HETATM   12  C   UNL     1     -10.435  13.845  68.563  1.00  0.00    -0.250 A  
HETATM   13  O   UNL     1     -10.578  13.911  69.931  1.00  0.00    -0.360 OA 
HETATM   14  C   UNL     1     -10.432  15.073  67.868  1.00  0.00    -0.247 A  
HETATM   15  H   UNL     1     -10.656  14.745  70.380  1.00  0.00     0.000 HD 
HETATM   16  C   UNL     1     -10.303  15.055  66.458  1.00  0.00    -0.287 A  
HETATM   17  C   UNL     1     -10.244  13.809  65.795  1.00  0.00    -0.311 A  
HETATM   18  C   UNL     1     -10.281  16.352  65.660  1.00  0.00    -0.349 C  
HETATM   19  C   UNL     1     -10.071  17.607  66.512  1.00  0.00    -0.350 C  
HETATM   20  C   UNL     1     -10.228  12.589  66.506  1.00  0.00    -0.255 A  
HETATM   21  O   UNL     1     -10.249  13.760  64.427  1.00  0.00    -0.644 OA 
HETATM   22  C   UNL     1     -10.585  16.377  68.649  1.00  0.00    -0.305 C  
HETATM   23  C   UNL     1     -10.094  11.284  65.805  1.00  0.00    -0.247 C  
HETATM   24  C   UNL     1     -11.001  17.525  67.726  1.00  0.00    -0.126 C  
HETATM   25  O   UNL     1      -8.695  17.710  66.883  1.00  0.00    -0.231 OA 
HETATM   26  H   UNL     1     -10.208  12.922  63.981  1.00  0.00     0.000 HD 
HETATM   27  O   UNL     1      -9.895  11.204  64.598  1.00  0.00    -0.244 OA 
HETATM   28  H   UNL     1      -8.565  18.488  67.412  1.00  0.00     0.000 HD 
BRANCH  19  29
HETATM   29  C   UNL     1     -10.414  18.860  65.689  1.00  0.00    -0.140 C  
HETATM   30  O   UNL     1     -11.063  18.802  64.639  1.00  0.00    -0.057 OA 
BRANCH  29  31
HETATM   31  C   UNL     1      -9.849  20.196  66.171  1.00  0.00    -0.399 C  
HETATM   32  O   UNL     1      -8.613  20.033  66.856  1.00  0.00    -0.313 OA 
HETATM   33  H   UNL     1      -8.262  20.864  67.155  1.00  0.00     0.000 HD 
ENDBRANCH  29  31
ENDBRANCH  19  29
BRANCH  22  34
HETATM   34  O   UNL     1      -9.331  16.653  69.298  1.00  0.00    -0.212 OA 
BRANCH  34  35
HETATM   35  C   UNL     1      -8.170  16.652  68.455  1.00  0.00    -0.231 C  
HETATM   36  C   UNL     1      -6.993  17.480  68.975  1.00  0.00    -0.237 C  
HETATM   37  C   UNL     1      -6.428  16.837  70.237  1.00  0.00     0.483 C  
HETATM   38  C   UNL     1      -5.997  15.389  69.910  1.00  0.00    -0.146 C  
HETATM   39  N   UNL     1      -5.321  17.631  70.792  1.00  0.00    -0.258 NA 
HETATM   40  C   UNL     1      -7.192  14.625  69.309  1.00  0.00    -0.156 C  
HETATM   41  H2  UNL     1      -5.599  18.598  70.956  1.00  0.00     0.000 HD 
HETATM   42  O   UNL     1      -5.511  14.705  71.067  1.00  0.00    -0.137 OA 
HETATM   43  H1  UNL     1      -4.944  17.201  71.636  1.00  0.00     0.000 HD 
HETATM   44  C   UNL     1      -6.757  13.246  68.818  1.00  0.00    -0.099 C  
HETATM   45  H   UNL     1      -5.247  13.815  70.865  1.00  0.00     0.000 HD 
HETATM   46  O   UNL     1      -7.754  15.311  68.185  1.00  0.00    -0.111 OA 
ENDBRANCH  34  35
ENDBRANCH  22  34
ENDBRANCH   2   3
TORSDOF 5
ENDMDL
MODEL      101
REMARK 921   NORMALIZED FREE ENERGY PREDICTED BY IDOCK:   -2.44 KCAL/MOL
REMARK 922        TOTAL FREE ENERGY PREDICTED BY IDOCK:   -4.20 KCAL/MOL
REMARK 923 INTER-LIGAND FREE ENERGY PREDICTED BY IDOCK:   -5.27 KCAL/MOL
REMARK 924 INTRA-LIGAND FREE ENERGY PREDICTED BY IDOCK:    1.06 KCAL/MOL
REMARK 927      BINDING AFFINITY PREDICTED BY RF-SCORE:    0.00 PKD
ROOT
HETATM    1  C   UNL     1     -12.711  11.823  64.048  1.00  0.00    -0.139 C  
HETATM    2  O   UNL     1     -12.447  11.981  65.439  1.00  0.00    -0.421 OA 
ENDROOT
BRANCH   2   3
HETATM    3  C   UNL     1     -11.321  12.683  65.782  1.00  0.00    -0.333 A  
HETATM    4  C   UNL     1     -11.017  13.922  65.194  1.00  0.00    -0.352 A  
HETATM    5  C   UNL     1      -9.875  14.626  65.561  1.00  0.00    -0.327 A  
HETATM    6  C   UNL     1      -9.025  14.099  66.520  1.00  0.00    -0.140 A  
HETATM    7  C   UNL     1      -9.298  12.853  67.105  1.00  0.00    -0.229 A  
HETATM    8  C   UNL     1     -10.433  12.127  66.732  1.00  0.00    -0.245 A  
HETATM    9  C   UNL     1     -10.656  10.796  67.360  1.00  0.00    -0.242 C  
HETATM   10  O   UNL     1     -11.561  10.049  67.005  1.00  0.00     0.253 OA 
HETATM   11  C   UNL     1      -9.761  10.322  68.449  1.00  0.00    -0.165 A  
HETATM   12  C   UNL     1     -10.040   9.110  69.119  1.00  0.00    -0.194 A  
HETATM   13  O   UNL     1     -11.154   8.361  68.812  1.00  0.00    -0.420 OA 
HETATM   14  C   UNL     1      -9.210   8.615  70.146  1.00  0.00    -0.165 A  
HETATM   15  H   UNL     1     -11.341   7.546  69.263  1.00  0.00     0.000 HD 
HETATM   16  C   UNL     1      -8.060   9.359  70.508  1.00  0.00    -0.212 A  
HETATM   17  C   UNL     1      -7.820  10.596  69.870  1.00  0.00     0.163 A  
HETATM   18  C   UNL     1      -7.123   8.865  71.601  1.00  0.00    -0.056 C  
HETATM   19  C   UNL     1      -7.343   7.402  72.000  1.00  0.00    -0.072 C  
HETATM   20  C   UNL     1      -8.649  11.068  68.829  1.00  0.00    -0.144 A  
HETATM   21  O   UNL     1      -6.791  11.395  70.288  1.00  0.00    -0.475 OA 
HETATM   22  C   UNL     1      -9.581   7.310  70.848  1.00  0.00    -0.170 C  
HETATM   23  C   UNL     1      -8.351  12.338  68.113  1.00  0.00    -0.174 C  
HETATM   24  C   UNL     1      -8.847   7.176  72.184  1.00  0.00    -0.140 C  
HETATM   25  O   UNL     1      -6.779   6.544  71.007  1.00  0.00    -0.052 OA 
HETATM   26  H   UNL     1      -6.629  12.227  69.859  1.00  0.00     0.000 HD 
HETATM   27  O   UNL     1      -7.330  12.983  68.320  1.00  0.00    -0.097 OA 
HETATM   28  H   UNL     1      -6.916   5.637  71.255  1.00  0.00     0.000 HD 
BRANCH  19  29
HETATM   29  C   UNL     1      -6.616   7.106  73.323  1.00  0.00    -0.065 C  
HETATM   30  O   UNL     1      -5.861   7.925  73.858  1.00  0.00    -0.066 OA 
BRANCH  29  31
HETATM   31  C   UNL     1      -6.792   5.714  73.926  1.00  0.00    -0.081 C  
HETATM   32  O   UNL     1      -6.373   4.690  73.032  1.00  0.00    -0.034 OA 
HETATM   33  H   UNL     1      -6.482   3.824  73.408  1.00  0.00     0.000 HD 
ENDBRANCH  29  31
ENDBRANCH  19  29
BRANCH  22  34
HETATM   34  O   UNL     1      -9.259   6.225  69.961  1.00  0.00    -0.150 OA 
BRANCH  34  35
HETATM   35  C   UNL     1      -8.377   6.538  68.874  1.00  0.00    -0.122 C  
HETATM   36  C   UNL     1      -7.343   5.457  68.547  1.00  0.00    -0.075 C  
HETATM   37  C   UNL     1      -8.046   4.221  67.996  1.00  0.00    -0.090 C  
HETATM   38  C   UNL     1      -8.854   4.625  66.741  1.00  0.00    -0.111 C  
HETATM   39  N   UNL     1      -7.087   3.144  67.712  1.00  0.00    -0.050 NA 
HETATM   40  C   UNL     1      -9.815   5.773  67.101  1.00  0.00    -0.146 C  
HETATM   41  H2  UNL     1      -6.522   2.919  68.532  1.00  0.00     0.000 HD 
HETATM   42  O   UNL     1      -9.588   3.523  66.205  1.00  0.00    -0.308 OA 
HETATM   43  H1  UNL     1      -7.557   2.317  67.344  1.00  0.00     0.000 HD 
HETATM   44  C   UNL     1     -10.505   6.310  65.849  1.00  0.00     0.700 C  
HETATM   45  H   UNL     1     -10.084   3.771  65.434  1.00  0.00     0.000 HD 
HETATM   46  O   UNL     1      -9.129   6.875  67.705  1.00  0.00    -0.120 OA 
ENDBRANCH  34  35
ENDBRANCH  22  34
ENDBRANCH   2   3
TORSDOF 5
ENDMDL
MODEL      102
REMARK 921   NORMALIZED FREE ENERGY PREDICTED BY IDOCK:   -2.08 KCAL/MOL
REMARK 922        TOTAL FREE ENERGY PREDICTED BY IDOCK:   -3.74 KCAL/MOL
REMARK 923 INTER-LIGAND FREE ENERGY PREDICTED BY IDOCK:   -5.15 KCAL/MOL
REMARK 924 INTRA-LIGAND FREE ENERGY PREDICTED BY IDOCK:    1.41 KCAL/MOL
REMARK 927      BINDING AFFINITY PREDICTED BY RF-SCORE:    0.00 PKD
ROOT
HETATM    1  C   UNL     1      -9.392   4.685  65.970  1.00  0.00    -0.156 C  
HETATM    2  O   UNL     1      -8.711   5.898  66.281  1.00  0.00    -0.126 OA 
ENDROOT
BRANCH   2   3
HETATM    3  C   UNL     1      -7.884   5.883  67.373  1.00  0.00    -0.102 A  
HETATM    4  C   UNL     1      -7.383   4.682  67.904  1.00  0.00    -0.066 A  
HETATM    5  C   UNL     1      -6.538   4.687  69.008  1.00  0.00    -0.045 A  
HETATM    6  C   UNL     1      -6.183   5.893  69.594  1.00  0.00    -0.030 A  
HETATM    7  C   UNL     1      -6.689   7.102  69.093  1.00  0.00    -0.049 A  
HETATM    8  C   UNL     1      -7.553   7.110  67.995  1.00  0.00    -0.111 A  
HETATM    9  C   UNL     1      -8.087   8.418  67.528  1.00  0.00    -0.110 C  
HETATM   10  O   UNL     1      -8.937   8.501  66.647  1.00  0.00    -0.134 OA 
HETATM   11  C   UNL     1      -7.601   9.686  68.135  1.00  0.00    -0.082 A  
HETATM   12  C   UNL     1      -8.023  10.929  67.615  1.00  0.00    -0.114 A  
HETATM   13  O   UNL     1      -8.857  11.003  66.521  1.00  0.00    -0.158 OA 
HETATM   14  C   UNL     1      -7.600  12.155  68.169  1.00  0.00    -0.125 A  
HETATM   15  H   UNL     1      -9.141  11.839  66.172  1.00  0.00     0.000 HD 
HETATM   16  C   UNL     1      -6.729  12.130  69.286  1.00  0.00    -0.084 A  
HETATM   17  C   UNL     1      -6.269  10.883  69.764  1.00  0.00    -0.103 A  
HETATM   18  C   UNL     1      -6.251  13.423  69.932  1.00  0.00    -0.102 C  
HETATM   19  C   UNL     1      -7.037  14.665  69.501  1.00  0.00    -0.152 C  
HETATM   20  C   UNL     1      -6.718   9.664  69.211  1.00  0.00    -0.049 A  
HETATM   21  O   UNL     1      -5.328  10.834  70.757  1.00  0.00    -0.086 OA 
HETATM   22  C   UNL     1      -8.074  13.466  67.544  1.00  0.00    -0.181 C  
HETATM   23  C   UNL     1      -6.285   8.353  69.765  1.00  0.00    -0.032 C  
HETATM   24  C   UNL     1      -7.186  14.634  67.977  1.00  0.00    -0.147 C  
HETATM   25  O   UNL     1      -8.297  14.693  70.173  1.00  0.00    -0.114 OA 
HETATM   26  H   UNL     1      -5.019   9.995  71.078  1.00  0.00     0.000 HD 
HETATM   27  O   UNL     1      -5.601   8.262  70.778  1.00  0.00    -0.029 OA 
HETATM   28  H   UNL     1      -8.784  15.463  69.905  1.00  0.00     0.000 HD 
BRANCH  19  29
HETATM   29  C   UNL     1      -6.274  15.935  69.914  1.00  0.00    -0.157 C  
HETATM   30  O   UNL     1      -6.088  16.876  69.134  1.00  0.00    -0.162 OA 
BRANCH  29  31
HETATM   31  C   UNL     1      -5.667  15.968  71.316  1.00  0.00     0.441 C  
HETATM   32  O   UNL     1      -5.609  14.672  71.900  1.00  0.00    -0.085 OA 
HETATM   33  H   UNL     1      -5.232  14.693  72.771  1.00  0.00     0.000 HD 
ENDBRANCH  29  31
ENDBRANCH  19  29
BRANCH  22  34
HETATM   34  O   UNL     1      -9.442  13.673  67.937  1.00  0.00    -0.198 OA 
BRANCH  34  35
HETATM   35  C   UNL     1     -10.236  14.482  67.058  1.00  0.00    -0.262 C  
HETATM   36  C   UNL     1     -11.552  14.986  67.655  1.00  0.00    -0.327 C  
HETATM   37  C   UNL     1     -11.262  15.982  68.773  1.00  0.00    -0.360 C  
HETATM   38  C   UNL     1     -10.422  17.146  68.198  1.00  0.00    -0.366 C  
HETATM   39  N   UNL     1     -12.505  16.456  69.401  1.00  0.00    -0.199 NA 
HETATM   40  C   UNL     1      -9.154  16.578  67.532  1.00  0.00    -0.197 C  
HETATM   41  H2  UNL     1     -13.078  15.679  69.731  1.00  0.00     0.000 HD 
HETATM   42  O   UNL     1     -10.063  18.090  69.209  1.00  0.00    -0.282 OA 
HETATM   43  H1  UNL     1     -12.310  17.122  70.149  1.00  0.00     0.000 HD 
HETATM   44  C   UNL     1      -8.387  17.682  66.809  1.00  0.00    -0.276 C  
HETATM   45  H   UNL     1      -9.546  18.804  68.856  1.00  0.00     0.000 HD 
HETATM   46  O   UNL     1      -9.465  15.577  66.558  1.00  0.00    -0.235 OA 
ENDBRANCH  34  35
ENDBRANCH  22  34
ENDBRANCH   2   3
TORSDOF 5
ENDMDL
MODEL      103
REMARK 921   NORMALIZED FREE ENERGY PREDICTED BY IDOCK:   -2.01 KCAL/MOL
REMARK 922        TOTAL FREE ENERGY PREDICTED BY IDOCK:   -3.64 KCAL/MOL
REMARK 923 INTER-LIGAND FREE ENERGY PREDICTED BY IDOCK:   -6.25 KCAL/MOL
REMARK 924 INTRA-LIGAND FREE ENERGY PREDICTED BY IDOCK:    2.61 KCAL/MOL
REMARK 927      BINDING AFFINITY PREDICTED BY RF-SCORE:    0.00 PKD
ROOT
HETATM    1  C   UNL     1      -7.258  16.517  67.442  1.00  0.00    -0.149 C  
HETATM    2  O   UNL     1      -7.445  15.238  66.842  1.00  0.00    -0.153 OA 
ENDROOT
BRANCH   2   3
HETATM    3  C   UNL     1      -8.736  14.802  66.697  1.00  0.00    -0.194 A  
HETATM    4  C   UNL     1      -9.762  15.663  66.273  1.00  0.00    -0.328 A  
HETATM    5  C   UNL     1     -11.065  15.202  66.122  1.00  0.00    -0.311 A  
HETATM    6  C   UNL     1     -11.357  13.874  66.394  1.00  0.00    -0.335 A  
HETATM    7  C   UNL     1     -10.352  13.002  66.839  1.00  0.00    -0.246 A  
HETATM    8  C   UNL     1      -9.042  13.457  67.012  1.00  0.00    -0.245 A  
HETATM    9  C   UNL     1      -8.024  12.498  67.519  1.00  0.00    -0.175 C  
HETATM   10  O   UNL     1      -6.883  12.846  67.806  1.00  0.00    -0.105 OA 
HETATM   11  C   UNL     1      -8.372  11.064  67.706  1.00  0.00    -0.118 A  
HETATM   12  C   UNL     1      -7.376  10.136  68.079  1.00  0.00    -0.086 A  
HETATM   13  O   UNL     1      -6.063  10.519  68.243  1.00  0.00    -0.047 OA 
HETATM   14  C   UNL     1      -7.665   8.770  68.282  1.00  0.00    -0.100 A  
HETATM   15  H   UNL     1      -5.394   9.893  68.495  1.00  0.00     0.000 HD 
HETATM   16  C   UNL     1      -8.998   8.325  68.110  1.00  0.00    -0.139 A  
HETATM   17  C   UNL     1      -9.976   9.252  67.683  1.00  0.00    -0.196 A  
HETATM   18  C   UNL     1      -9.369   6.864  68.328  1.00  0.00    -0.125 C  
HETATM   19  C   UNL     1      -8.292   6.048  69.049  1.00  0.00    -0.111 C  
HETATM   20  C   UNL     1      -9.675  10.619  67.503  1.00  0.00    -0.189 A  
HETATM   21  O   UNL     1     -11.241   8.824  67.384  1.00  0.00    -0.330 OA 
HETATM   22  C   UNL     1      -6.537   7.812  68.661  1.00  0.00    -0.057 C  
HETATM   23  C   UNL     1     -10.725  11.602  67.122  1.00  0.00    -0.247 C  
HETATM   24  C   UNL     1      -6.940   6.358  68.402  1.00  0.00    -0.080 C  
HETATM   25  O   UNL     1      -8.313   6.353  70.445  1.00  0.00    -0.123 OA 
HETATM   26  H   UNL     1     -11.899   9.447  67.098  1.00  0.00     0.000 HD 
HETATM   27  O   UNL     1     -11.909  11.299  67.039  1.00  0.00    -0.484 OA 
HETATM   28  H   UNL     1      -7.646   5.846  70.891  1.00  0.00     0.000 HD 
BRANCH  19  29
HETATM   29  C   UNL     1      -8.594   4.546  68.908  1.00  0.00    -0.084 C  
HETATM   30  O   UNL     1      -9.403   4.111  68.081  1.00  0.00    -0.137 OA 
BRANCH  29  31
HETATM   31  C   UNL     1      -7.914   3.596  69.892  1.00  0.00    -0.050 C  
HETATM   32  O   UNL     1      -8.524   3.636  71.177  1.00  0.00    -0.066 OA 
HETATM   33  H   UNL     1      -8.102   3.045  71.789  1.00  0.00     0.000 HD 
ENDBRANCH  29  31
ENDBRANCH  19  29
BRANCH  22  34
HETATM   34  O   UNL     1      -6.220   8.029  70.047  1.00  0.00    -0.032 OA 
BRANCH  34  35
HETATM   35  C   UNL     1      -6.885   9.132  70.682  1.00  0.00    -0.084 C  
HETATM   36  C   UNL     1      -8.312   8.843  71.151  1.00  0.00    -0.232 C  
HETATM   37  C   UNL     1      -8.285   7.833  72.294  1.00  0.00    -0.118 C  
HETATM   38  C   UNL     1      -7.418   8.402  73.441  1.00  0.00    -0.063 C  
HETATM   39  N   UNL     1      -9.644   7.497  72.742  1.00  0.00    -0.162 NA 
HETATM   40  C   UNL     1      -6.022   8.758  72.897  1.00  0.00    -0.065 C  
HETATM   41  H2  UNL     1     -10.225   7.173  71.969  1.00  0.00     0.000 HD 
HETATM   42  O   UNL     1      -7.301   7.478  74.524  1.00  0.00    -0.116 OA 
HETATM   43  H1  UNL     1      -9.625   6.822  73.506  1.00  0.00     0.000 HD 
HETATM   44  C   UNL     1      -5.198   9.477  73.962  1.00  0.00    -0.101 C  
HETATM   45  H   UNL     1      -6.768   7.827  75.229  1.00  0.00     0.000 HD 
HETATM   46  O   UNL     1      -6.096   9.630  71.765  1.00  0.00    -0.265 OA 
ENDBRANCH  34  35
ENDBRANCH  22  34
ENDBRANCH   2   3
TORSDOF 5
ENDMDL
MODEL      104
REMARK 921   NORMALIZED FREE ENERGY PREDICTED BY IDOCK:   -1.97 KCAL/MOL
REMARK 922        TOTAL FREE ENERGY PREDICTED BY IDOCK:   -3.60 KCAL/MOL
REMARK 923 INTER-LIGAND FREE ENERGY PREDICTED BY IDOCK:   -3.78 KCAL/MOL
REMARK 924 INTRA-LIGAND FREE ENERGY PREDICTED BY IDOCK:    0.18 KCAL/MOL
REMARK 927      BINDING AFFINITY PREDICTED BY RF-SCORE:    0.00 PKD
ROOT
HETATM    1  C   UNL     1      -5.732  13.865  72.374  1.00  0.00     0.034 C  
HETATM    2  O   UNL     1      -5.451  12.910  71.355  1.00  0.00    -0.311 OA 
ENDROOT
BRANCH   2   3
HETATM    3  C   UNL     1      -6.033  13.117  70.132  1.00  0.00    -0.138 A  
HETATM    4  C   UNL     1      -6.257  14.411  69.632  1.00  0.00    -0.126 A  
HETATM    5  C   UNL     1      -6.841  14.603  68.384  1.00  0.00    -0.102 A  
HETATM    6  C   UNL     1      -7.206  13.503  67.623  1.00  0.00    -0.175 A  
HETATM    7  C   UNL     1      -7.009  12.203  68.112  1.00  0.00    -0.082 A  
HETATM    8  C   UNL     1      -6.441  11.996  69.372  1.00  0.00    -0.115 A  
HETATM    9  C   UNL     1      -6.288  10.597  69.856  1.00  0.00    -0.110 C  
HETATM   10  O   UNL     1      -5.906  10.336  70.992  1.00  0.00    -0.149 OA 
HETATM   11  C   UNL     1      -6.612   9.455  68.960  1.00  0.00    -0.046 A  
HETATM   12  C   UNL     1      -6.360   8.131  69.381  1.00  0.00    -0.034 A  
HETATM   13  O   UNL     1      -5.782   7.864  70.602  1.00  0.00    -0.029 OA 
HETATM   14  C   UNL     1      -6.666   7.017  68.570  1.00  0.00    -0.064 A  
HETATM   15  H   UNL     1      -5.613   6.972  70.884  1.00  0.00     0.000 HD 
HETATM   16  C   UNL     1      -7.248   7.242  67.299  1.00  0.00    -0.093 A  
HETATM   17  C   UNL     1      -7.445   8.572  66.866  1.00  0.00    -0.084 A  
HETATM   18  C   UNL     1      -7.610   6.077  66.388  1.00  0.00    -0.094 C  
HETATM   19  C   UNL     1      -7.606   4.714  67.087  1.00  0.00    -0.086 C  
HETATM   20  C   UNL     1      -7.152   9.676  67.697  1.00  0.00    -0.088 A  
HETATM   21  O   UNL     1      -7.884   8.821  65.593  1.00  0.00    -0.092 OA 
HETATM   22  C   UNL     1      -6.346   5.611  69.074  1.00  0.00    -0.037 C  
HETATM   23  C   UNL     1      -7.428  11.071  67.261  1.00  0.00    -0.107 C  
HETATM   24  C   UNL     1      -6.327   4.605  67.921  1.00  0.00    -0.037 C  
HETATM   25  O   UNL     1      -8.788   4.576  67.877  1.00  0.00    -0.103 OA 
HETATM   26  H   UNL     1      -8.017   9.715  65.302  1.00  0.00     0.000 HD 
HETATM   27  O   UNL     1      -8.005  11.329  66.211  1.00  0.00    -0.155 OA 
HETATM   28  H   UNL     1      -8.785   3.731  68.310  1.00  0.00     0.000 HD 
BRANCH  19  29
HETATM   29  C   UNL     1      -7.628   3.589  66.037  1.00  0.00    -0.081 C  
HETATM   30  O   UNL     1      -7.848   3.808  64.841  1.00  0.00    -0.084 OA 
BRANCH  29  31
HETATM   31  C   UNL     1      -7.450   2.156  66.537  1.00  0.00    -0.065 C  
HETATM   32  O   UNL     1      -8.688   1.569  66.918  1.00  0.00    -0.099 OA 
HETATM   33  H   UNL     1      -8.577   0.678  67.228  1.00  0.00     0.000 HD 
ENDBRANCH  29  31
ENDBRANCH  19  29
BRANCH  22  34
HETATM   34  O   UNL     1      -7.333   5.261  70.060  1.00  0.00    -0.061 OA 
BRANCH  34  35
HETATM   35  C   UNL     1      -7.247   5.953  71.314  1.00  0.00    -0.078 C  
HETATM   36  C   UNL     1      -8.545   6.619  71.775  1.00  0.00    -0.126 C  
HETATM   37  C   UNL     1      -9.581   5.551  72.112  1.00  0.00    -0.150 C  
HETATM   38  C   UNL     1      -9.004   4.624  73.205  1.00  0.00    -0.112 C  
HETATM   39  N   UNL     1     -10.859   6.155  72.517  1.00  0.00    -0.227 NA 
HETATM   40  C   UNL     1      -7.657   4.050  72.728  1.00  0.00    -0.074 C  
HETATM   41  H2  UNL     1     -11.206   6.806  71.813  1.00  0.00     0.000 HD 
HETATM   42  O   UNL     1      -9.902   3.561  73.528  1.00  0.00    -0.106 OA 
HETATM   43  H1  UNL     1     -11.551   5.441  72.742  1.00  0.00     0.000 HD 
HETATM   44  C   UNL     1      -6.979   3.265  73.849  1.00  0.00    -0.041 C  
HETATM   45  H   UNL     1      -9.547   2.990  74.199  1.00  0.00     0.000 HD 
HETATM   46  O   UNL     1      -6.747   5.081  72.330  1.00  0.00    -0.052 OA 
ENDBRANCH  34  35
ENDBRANCH  22  34
ENDBRANCH   2   3
TORSDOF 5
ENDMDL
MODEL      105
REMARK 921   NORMALIZED FREE ENERGY PREDICTED BY IDOCK:   -1.25 KCAL/MOL
REMARK 922        TOTAL FREE ENERGY PREDICTED BY IDOCK:   -2.66 KCAL/MOL
REMARK 923 INTER-LIGAND FREE ENERGY PREDICTED BY IDOCK:   -3.70 KCAL/MOL
REMARK 924 INTRA-LIGAND FREE ENERGY PREDICTED BY IDOCK:    1.04 KCAL/MOL
REMARK 927      BINDING AFFINITY PREDICTED BY RF-SCORE:    0.00 PKD
ROOT
HETATM    1  C   UNL     1     -11.246  15.783  65.381  1.00  0.00    -0.142 C  
HETATM    2  O   UNL     1     -11.204  16.294  66.710  1.00  0.00    -0.009 OA 
ENDROOT
BRANCH   2   3
HETATM    3  C   UNL     1      -9.975  16.649  67.201  1.00  0.00    -0.268 A  
HETATM    4  C   UNL     1      -9.523  17.978  67.166  1.00  0.00    -0.264 A  
HETATM    5  C   UNL     1      -8.276  18.323  67.677  1.00  0.00    -0.254 A  
HETATM    6  C   UNL     1      -7.467  17.340  68.228  1.00  0.00    -0.224 A  
HETATM    7  C   UNL     1      -7.890  16.003  68.254  1.00  0.00    -0.144 A  
HETATM    8  C   UNL     1      -9.133  15.641  67.728  1.00  0.00    -0.181 A  
HETATM    9  C   UNL     1      -9.516  14.203  67.750  1.00  0.00    -0.207 C  
HETATM   10  O   UNL     1     -10.535  13.789  67.206  1.00  0.00    -0.261 OA 
HETATM   11  C   UNL     1      -8.651  13.207  68.435  1.00  0.00    -0.124 A  
HETATM   12  C   UNL     1      -9.070  11.864  68.553  1.00  0.00    -0.123 A  
HETATM   13  O   UNL     1     -10.294  11.451  68.074  1.00  0.00    -0.176 OA 
HETATM   14  C   UNL     1      -8.274  10.884  69.181  1.00  0.00    -0.090 A  
HETATM   15  H   UNL     1     -10.575  10.547  68.153  1.00  0.00     0.000 HD 
HETATM   16  C   UNL     1      -7.015  11.264  69.703  1.00  0.00    -0.057 A  
HETATM   17  C   UNL     1      -6.628  12.621  69.629  1.00  0.00     0.010 A  
HETATM   18  C   UNL     1      -6.109  10.244  70.380  1.00  0.00    -0.110 C  
HETATM   19  C   UNL     1      -6.519   8.788  70.141  1.00  0.00    -0.038 C  
HETATM   20  C   UNL     1      -7.427  13.587  68.979  1.00  0.00     0.046 A  
HETATM   21  O   UNL     1      -5.477  13.041  70.239  1.00  0.00    -0.106 OA 
HETATM   22  C   UNL     1      -8.797   9.453  69.297  1.00  0.00    -0.150 C  
HETATM   23  C   UNL     1      -6.982  15.000  68.843  1.00  0.00    -0.114 C  
HETATM   24  C   UNL     1      -8.029   8.672  70.365  1.00  0.00    -0.101 C  
HETATM   25  O   UNL     1      -6.130   8.390  68.825  1.00  0.00    -0.043 OA 
HETATM   26  H   UNL     1      -5.216  13.953  70.189  1.00  0.00     0.000 HD 
HETATM   27  O   UNL     1      -5.870  15.375  69.198  1.00  0.00    -0.101 OA 
HETATM   28  H   UNL     1      -6.385   7.488  68.677  1.00  0.00     0.000 HD 
BRANCH  19  29
HETATM   29  C   UNL     1      -5.783   7.869  71.130  1.00  0.00    -0.034 C  
HETATM   30  O   UNL     1      -5.298   8.290  72.185  1.00  0.00    -0.035 OA 
BRANCH  29  31
HETATM   31  C   UNL     1      -5.592   6.408  70.725  1.00  0.00    -0.019 C  
HETATM   32  O   UNL     1      -6.732   5.890  70.050  1.00  0.00    -0.048 OA 
HETATM   33  H   UNL     1      -6.613   4.982  69.798  1.00  0.00     0.000 HD 
ENDBRANCH  29  31
ENDBRANCH  19  29
BRANCH  22  34
HETATM   34  O   UNL     1      -8.676   8.833  68.004  1.00  0.00    -0.138 OA 
BRANCH  34  35
HETATM   35  C   UNL     1      -9.875   8.770  67.219  1.00  0.00    -0.201 C  
HETATM   36  C   UNL     1      -9.944   9.771  66.063  1.00  0.00    -0.342 C  
HETATM   37  C   UNL     1      -8.897   9.418  65.012  1.00  0.00    -0.196 C  
HETATM   38  C   UNL     1      -9.150   7.973  64.522  1.00  0.00     0.900 C  
HETATM   39  N   UNL     1      -8.904  10.386  63.905  1.00  0.00    -0.196 NA 
HETATM   40  C   UNL     1      -9.158   7.019  65.731  1.00  0.00     0.058 C  
HETATM   41  H2  UNL     1      -8.789  11.342  64.242  1.00  0.00     0.000 HD 
HETATM   42  O   UNL     1      -8.166   7.555  63.575  1.00  0.00    -0.323 OA 
HETATM   43  H1  UNL     1      -8.204  10.149  63.203  1.00  0.00     0.000 HD 
HETATM   44  C   UNL     1      -9.572   5.613  65.304  1.00  0.00     0.339 C  
HETATM   45  H   UNL     1      -8.321   6.667  63.275  1.00  0.00     0.000 HD 
HETATM   46  O   UNL     1     -10.085   7.440  66.738  1.00  0.00    -0.234 OA 
ENDBRANCH  34  35
ENDBRANCH  22  34
ENDBRANCH   2   3
TORSDOF 5
ENDMDL
MODEL      106
REMARK 921   NORMALIZED FREE ENERGY PREDICTED BY IDOCK:   -1.07 KCAL/MOL
REMARK 922        TOTAL FREE ENERGY PREDICTED BY IDOCK:   -2.44 KCAL/MOL
REMARK 923 INTER-LIGAND FREE ENERGY PREDICTED BY IDOCK:   -4.19 KCAL/MOL
REMARK 924 INTRA-LIGAND FREE ENERGY PREDICTED BY IDOCK:    1.75 KCAL/MOL
REMARK 927      BINDING AFFINITY PREDICTED BY RF-SCORE:    0.00 PKD
ROOT
HETATM    1  C   UNL     1      -7.023  15.362  66.555  1.00  0.00     1.315 C  
HETATM    2  O   UNL     1      -8.368  15.630  66.168  1.00  0.00    -0.196 OA 
ENDROOT
BRANCH   2   3
HETATM    3  C   UNL     1      -9.220  16.071  67.146  1.00  0.00    -0.207 A  
HETATM    4  C   UNL     1      -9.451  17.440  67.361  1.00  0.00    -0.246 A  
HETATM    5  C   UNL     1     -10.326  17.870  68.353  1.00  0.00    -0.380 A  
HETATM    6  C   UNL     1     -10.980  16.935  69.141  1.00  0.00    -0.151 A  
HETATM    7  C   UNL     1     -10.748  15.564  68.957  1.00  0.00    -0.243 A  
HETATM    8  C   UNL     1      -9.857  15.119  67.976  1.00  0.00    -0.213 A  
HETATM    9  C   UNL     1      -9.623  13.656  67.848  1.00  0.00    -0.223 C  
HETATM   10  O   UNL     1      -8.774  13.192  67.093  1.00  0.00    -0.205 OA 
HETATM   11  C   UNL     1     -10.420  12.695  68.657  1.00  0.00    -0.224 A  
HETATM   12  C   UNL     1     -10.275  11.305  68.453  1.00  0.00    -0.195 A  
HETATM   13  O   UNL     1      -9.430  10.806  67.487  1.00  0.00    -0.153 OA 
HETATM   14  C   UNL     1     -11.000  10.359  69.208  1.00  0.00    -0.287 A  
HETATM   15  H   UNL     1      -9.333   9.871  67.351  1.00  0.00     0.000 HD 
HETATM   16  C   UNL     1     -11.893  10.825  70.203  1.00  0.00    -0.427 A  
HETATM   17  C   UNL     1     -12.071  12.217  70.361  1.00  0.00    -0.300 A  
HETATM   18  C   UNL     1     -12.690   9.848  71.057  1.00  0.00    -0.425 C  
HETATM   19  C   UNL     1     -12.197   8.400  70.975  1.00  0.00    -0.164 C  
HETATM   20  C   UNL     1     -11.323  13.152  69.612  1.00  0.00    -0.182 A  
HETATM   21  O   UNL     1     -13.021  12.694  71.224  1.00  0.00    -0.322 OA 
HETATM   22  C   UNL     1     -10.816   8.870  68.922  1.00  0.00    -0.022 C  
HETATM   23  C   UNL     1     -11.464  14.616  69.833  1.00  0.00    -0.274 C  
HETATM   24  C   UNL     1     -11.972   8.052  69.500  1.00  0.00     1.224 C  
HETATM   25  O   UNL     1     -11.011   8.252  71.758  1.00  0.00    -0.247 OA 
HETATM   26  H   UNL     1     -13.140  13.630  71.331  1.00  0.00     0.000 HD 
HETATM   27  O   UNL     1     -12.156  15.080  70.732  1.00  0.00    -0.277 OA 
HETATM   28  H   UNL     1     -10.706   7.354  71.707  1.00  0.00     0.000 HD 
BRANCH  19  29
HETATM   29  C   UNL     1     -13.254   7.453  71.568  1.00  0.00    -0.372 C  
HETATM   30  O   UNL     1     -14.336   7.863  72.002  1.00  0.00    -0.388 OA 
BRANCH  29  31
HETATM   31  C   UNL     1     -12.890   5.974  71.683  1.00  0.00     0.791 C  
HETATM   32  O   UNL     1     -13.821   5.258  72.486  1.00  0.00     0.190 OA 
HETATM   33  H   UNL     1     -13.594   4.339  72.557  1.00  0.00     0.000 HD 
ENDBRANCH  29  31
ENDBRANCH  19  29
BRANCH  22  34
HETATM   34  O   UNL     1      -9.554   8.465  69.482  1.00  0.00    -0.168 OA 
BRANCH  34  35
HETATM   35  C   UNL     1      -9.133   7.125  69.189  1.00  0.00    -0.137 C  
HETATM   36  C   UNL     1     -10.194   6.245  68.524  1.00  0.00    -0.205 C  
HETATM   37  C   UNL     1     -10.489   6.764  67.120  1.00  0.00    -0.293 C  
HETATM   38  C   UNL     1      -9.174   6.774  66.307  1.00  0.00    -0.127 C  
HETATM   39  N   UNL     1     -11.537   5.967  66.466  1.00  0.00    -0.258 NA 
HETATM   40  C   UNL     1      -8.114   7.598  67.060  1.00  0.00    -0.117 C  
HETATM   41  H2  UNL     1     -12.383   5.923  67.034  1.00  0.00     0.000 HD 
HETATM   42  O   UNL     1      -9.367   7.306  64.995  1.00  0.00     0.100 OA 
HETATM   43  H1  UNL     1     -11.734   6.315  65.528  1.00  0.00     0.000 HD 
HETATM   44  C   UNL     1      -6.757   7.489  66.370  1.00  0.00    -0.057 C  
HETATM   45  H   UNL     1      -8.559   7.313  64.495  1.00  0.00     0.000 HD 
HETATM   46  O   UNL     1      -7.938   7.140  68.405  1.00  0.00    -0.119 OA 
ENDBRANCH  34  35
ENDBRANCH  22  34
ENDBRANCH   2   3
TORSDOF 5
ENDMDL
MODEL      107
REMARK 921   NORMALIZED FREE ENERGY PREDICTED BY IDOCK:   -0.77 KCAL/MOL
REMARK 922        TOTAL FREE ENERGY PREDICTED BY IDOCK:   -2.04 KCAL/MOL
REMARK 923 INTER-LIGAND FREE ENERGY PREDICTED BY IDOCK:   -1.42 KCAL/MOL
REMARK 924 INTRA-LIGAND FREE ENERGY PREDICTED BY IDOCK:   -0.62 KCAL/MOL
REMARK 927      BINDING AFFINITY PREDICTED BY RF-SCORE:    0.00 PKD
ROOT
HETATM    1  C   UNL     1     -13.004  11.484  63.615  1.00  0.00     0.289 C  
HETATM    2  O   UNL     1     -11.804  12.087  63.139  1.00  0.00    -0.355 OA 
ENDROOT
BRANCH   2   3
HETATM    3  C   UNL     1     -10.642  11.384  63.317  1.00  0.00    -0.305 A  
HETATM    4  C   UNL     1     -10.294  10.311  62.480  1.00  0.00     0.991 A  
HETATM    5  C   UNL     1      -9.105   9.613  62.669  1.00  0.00    -0.267 A  
HETATM    6  C   UNL     1      -8.252   9.982  63.698  1.00  0.00    -0.160 A  
HETATM    7  C   UNL     1      -8.591  11.037  64.559  1.00  0.00     0.129 A  
HETATM    8  C   UNL     1      -9.790  11.734  64.390  1.00  0.00    -0.227 A  
HETATM    9  C   UNL     1     -10.115  12.821  65.353  1.00  0.00    -0.259 C  
HETATM   10  O   UNL     1     -11.195  13.402  65.345  1.00  0.00    -0.287 OA 
HETATM   11  C   UNL     1      -9.122  13.234  66.381  1.00  0.00    -0.062 A  
HETATM   12  C   UNL     1      -9.386  14.338  67.219  1.00  0.00    -0.213 A  
HETATM   13  O   UNL     1     -10.540  15.079  67.088  1.00  0.00    -0.283 OA 
HETATM   14  C   UNL     1      -8.479  14.755  68.217  1.00  0.00    -0.151 A  
HETATM   15  H   UNL     1     -10.718  15.822  67.653  1.00  0.00     0.000 HD 
HETATM   16  C   UNL     1      -7.271  14.034  68.379  1.00  0.00    -0.108 A  
HETATM   17  C   UNL     1      -6.992  12.965  67.499  1.00  0.00    -0.149 A  
HETATM   18  C   UNL     1      -6.263  14.431  69.449  1.00  0.00    -0.113 C  
HETATM   19  C   UNL     1      -6.812  15.408  70.494  1.00  0.00     0.398 C  
HETATM   20  C   UNL     1      -7.919  12.548  66.519  1.00  0.00     0.332 A  
HETATM   21  O   UNL     1      -5.778  12.335  67.550  1.00  0.00    -0.099 OA 
HETATM   22  C   UNL     1      -8.814  15.973  69.075  1.00  0.00    -0.244 C  
HETATM   23  C   UNL     1      -7.648  11.377  65.643  1.00  0.00     0.477 C  
HETATM   24  C   UNL     1      -7.562  16.524  69.761  1.00  0.00     0.498 C  
HETATM   25  O   UNL     1      -7.644  14.704  71.417  1.00  0.00     1.347 OA 
HETATM   26  H   UNL     1      -5.590  11.616  66.958  1.00  0.00     0.000 HD 
HETATM   27  O   UNL     1      -6.663  10.662  65.788  1.00  0.00    -0.127 OA 
HETATM   28  H   UNL     1      -7.984  15.309  72.065  1.00  0.00     0.000 HD 
BRANCH  19  29
HETATM   29  C   UNL     1      -5.652  16.016  71.300  1.00  0.00     0.290 C  
HETATM   30  O   UNL     1      -5.158  15.446  72.279  1.00  0.00    -0.139 OA 
BRANCH  29  31
HETATM   31  C   UNL     1      -5.172  17.411  70.901  1.00  0.00    -0.225 C  
HETATM   32  O   UNL     1      -5.148  18.302  72.010  1.00  0.00    -0.693 OA 
HETATM   33  H   UNL     1      -4.849  19.169  71.761  1.00  0.00     0.000 HD 
ENDBRANCH  29  31
ENDBRANCH  19  29
BRANCH  22  34
HETATM   34  O   UNL     1      -9.808  15.576  70.036  1.00  0.00    -0.283 OA 
BRANCH  34  35
HETATM   35  C   UNL     1     -11.049  16.295  69.996  1.00  0.00    -0.348 C  
HETATM   36  C   UNL     1     -12.276  15.449  69.650  1.00  0.00    -0.312 C  
HETATM   37  C   UNL     1     -12.557  14.463  70.779  1.00  0.00    -0.357 C  
HETATM   38  C   UNL     1     -12.769  15.254  72.090  1.00  0.00    -0.352 C  
HETATM   39  N   UNL     1     -13.705  13.600  70.462  1.00  0.00     0.445 NA 
HETATM   40  C   UNL     1     -11.546  16.154  72.346  1.00  0.00    -0.296 C  
HETATM   41  H2  UNL     1     -13.579  13.122  69.570  1.00  0.00     0.000 HD 
HETATM   42  O   UNL     1     -12.979  14.385  73.206  1.00  0.00    -0.518 OA 
HETATM   43  H1  UNL     1     -13.892  12.941  71.217  1.00  0.00     0.000 HD 
HETATM   44  C   UNL     1     -11.795  17.073  73.540  1.00  0.00     0.099 C  
HETATM   45  H   UNL     1     -13.108  14.871  74.011  1.00  0.00     0.000 HD 
HETATM   46  O   UNL     1     -11.258  16.996  71.224  1.00  0.00     0.215 OA 
ENDBRANCH  34  35
ENDBRANCH  22  34
ENDBRANCH   2   3
TORSDOF 5
ENDMDL
MODEL      108
REMARK 921   NORMALIZED FREE ENERGY PREDICTED BY IDOCK:   -0.74 KCAL/MOL
REMARK 922        TOTAL FREE ENERGY PREDICTED BY IDOCK:   -2.00 KCAL/MOL
REMARK 923 INTER-LIGAND FREE ENERGY PREDICTED BY IDOCK:   -2.26 KCAL/MOL
REMARK 924 INTRA-LIGAND FREE ENERGY PREDICTED BY IDOCK:    0.26 KCAL/MOL
REMARK 927      BINDING AFFINITY PREDICTED BY RF-SCORE:    0.00 PKD
ROOT
HETATM    1  C   UNL     1      -8.193  18.522  69.062  1.00  0.00    -0.078 C  
HETATM    2  O   UNL     1      -8.073  17.110  68.907  1.00  0.00    -0.259 OA 
ENDROOT
BRANCH   2   3
HETATM    3  C   UNL     1      -7.137  16.478  69.683  1.00  0.00     0.038 A  
HETATM    4  C   UNL     1      -6.198  17.198  70.441  1.00  0.00     0.416 A  
HETATM    5  C   UNL     1      -5.261  16.540  71.230  1.00  0.00    -0.012 A  
HETATM    6  C   UNL     1      -5.252  15.154  71.269  1.00  0.00    -0.110 A  
HETATM    7  C   UNL     1      -6.166  14.415  70.504  1.00  0.00    -0.164 A  
HETATM    8  C   UNL     1      -7.101  15.064  69.693  1.00  0.00    -0.193 A  
HETATM    9  C   UNL     1      -8.024  14.230  68.876  1.00  0.00    -0.080 C  
HETATM   10  O   UNL     1      -8.794  14.719  68.054  1.00  0.00    -0.161 OA 
HETATM   11  C   UNL     1      -8.031  12.751  69.027  1.00  0.00     0.308 A  
HETATM   12  C   UNL     1      -8.983  11.971  68.334  1.00  0.00    -0.153 A  
HETATM   13  O   UNL     1      -9.943  12.553  67.537  1.00  0.00    -0.197 OA 
HETATM   14  C   UNL     1      -9.015  10.565  68.436  1.00  0.00    -0.141 A  
HETATM   15  H   UNL     1     -10.583  12.028  67.071  1.00  0.00     0.000 HD 
HETATM   16  C   UNL     1      -8.057   9.921  69.256  1.00  0.00    -0.128 A  
HETATM   17  C   UNL     1      -7.144  10.714  69.988  1.00  0.00    -0.087 A  
HETATM   18  C   UNL     1      -8.037   8.405  69.393  1.00  0.00    -0.114 C  
HETATM   19  C   UNL     1      -8.881   7.672  68.345  1.00  0.00    -0.130 C  
HETATM   20  C   UNL     1      -7.111  12.119  69.859  1.00  0.00     0.623 A  
HETATM   21  O   UNL     1      -6.293  10.128  70.885  1.00  0.00    -0.245 OA 
HETATM   22  C   UNL     1     -10.086   9.781  67.680  1.00  0.00    -0.190 C  
HETATM   23  C   UNL     1      -6.101  12.942  70.578  1.00  0.00     0.020 C  
HETATM   24  C   UNL     1     -10.241   8.370  68.251  1.00  0.00    -0.244 C  
HETATM   25  O   UNL     1      -8.187   7.656  67.097  1.00  0.00    -0.115 OA 
HETATM   26  H   UNL     1      -5.679  10.660  71.377  1.00  0.00     0.000 HD 
HETATM   27  O   UNL     1      -5.195  12.443  71.235  1.00  0.00    -0.189 OA 
HETATM   28  H   UNL     1      -8.710   7.202  66.447  1.00  0.00     0.000 HD 
BRANCH  19  29
HETATM   29  C   UNL     1      -9.086   6.209  68.771  1.00  0.00    -0.126 C  
HETATM   30  O   UNL     1      -8.205   5.353  68.634  1.00  0.00    -0.094 OA 
BRANCH  29  31
HETATM   31  C   UNL     1     -10.465   5.816  69.300  1.00  0.00    -0.287 C  
HETATM   32  O   UNL     1     -10.441   4.556  69.961  1.00  0.00    -0.019 OA 
HETATM   33  H   UNL     1     -11.298   4.313  70.290  1.00  0.00     0.000 HD 
ENDBRANCH  29  31
ENDBRANCH  19  29
BRANCH  22  34
HETATM   34  O   UNL     1      -9.712   9.748  66.292  1.00  0.00    -0.199 OA 
BRANCH  34  35
HETATM   35  C   UNL     1     -10.779   9.899  65.345  1.00  0.00     0.753 C  
HETATM   36  C   UNL     1     -11.781  11.010  65.671  1.00  0.00     0.939 C  
HETATM   37  C   UNL     1     -11.100  12.369  65.550  1.00  0.00    -0.300 C  
HETATM   38  C   UNL     1     -10.538  12.519  64.117  1.00  0.00    -0.398 C  
HETATM   39  N   UNL     1     -12.021  13.460  65.899  1.00  0.00    -0.386 NA 
HETATM   40  C   UNL     1      -9.607  11.332  63.808  1.00  0.00    -0.259 C  
HETATM   41  H2  UNL     1     -12.427  13.326  66.826  1.00  0.00     0.000 HD 
HETATM   42  O   UNL     1      -9.833  13.751  63.951  1.00  0.00    -0.341 OA 
HETATM   43  H1  UNL     1     -11.566  14.369  65.818  1.00  0.00     0.000 HD 
HETATM   44  C   UNL     1      -9.169  11.360  62.345  1.00  0.00    -0.053 C  
HETATM   45  H   UNL     1      -9.488  13.843  63.071  1.00  0.00     0.000 HD 
HETATM   46  O   UNL     1     -10.254  10.074  64.027  1.00  0.00     0.095 OA 
ENDBRANCH  34  35
ENDBRANCH  22  34
ENDBRANCH   2   3
TORSDOF 5
ENDMDL
MODEL      109
REMARK 921   NORMALIZED FREE ENERGY PREDICTED BY IDOCK:   -0.53 KCAL/MOL
REMARK 922        TOTAL FREE ENERGY PREDICTED BY IDOCK:   -1.74 KCAL/MOL
REMARK 923 INTER-LIGAND FREE ENERGY PREDICTED BY IDOCK:   -1.99 KCAL/MOL
REMARK 924 INTRA-LIGAND FREE ENERGY PREDICTED BY IDOCK:    0.25 KCAL/MOL
REMARK 927      BINDING AFFINITY PREDICTED BY RF-SCORE:    0.00 PKD
ROOT
HETATM    1  C   UNL     1      -8.396   1.753  69.169  1.00  0.00    -0.048 C  
HETATM    2  O   UNL     1      -9.214   2.874  69.493  1.00  0.00    -0.119 OA 
ENDROOT
BRANCH   2   3
HETATM    3  C   UNL     1      -9.028   3.442  70.726  1.00  0.00    -0.095 A  
HETATM    4  C   UNL     1      -9.096   2.684  71.907  1.00  0.00    -0.144 A  
HETATM    5  C   UNL     1      -8.896   3.275  73.149  1.00  0.00    -0.086 A  
HETATM    6  C   UNL     1      -8.625   4.633  73.224  1.00  0.00    -0.102 A  
HETATM    7  C   UNL     1      -8.574   5.414  72.060  1.00  0.00    -0.131 A  
HETATM    8  C   UNL     1      -8.791   4.835  70.807  1.00  0.00    -0.153 A  
HETATM    9  C   UNL     1      -8.759   5.716  69.608  1.00  0.00    -0.110 C  
HETATM   10  O   UNL     1      -9.053   5.309  68.488  1.00  0.00    -0.107 OA 
HETATM   11  C   UNL     1      -8.374   7.146  69.739  1.00  0.00    -0.132 A  
HETATM   12  C   UNL     1      -8.236   7.952  68.588  1.00  0.00    -0.127 A  
HETATM   13  O   UNL     1      -8.416   7.434  67.324  1.00  0.00    -0.117 OA 
HETATM   14  C   UNL     1      -7.887   9.316  68.667  1.00  0.00    -0.089 A  
HETATM   15  H   UNL     1      -8.322   7.977  66.550  1.00  0.00     0.000 HD 
HETATM   16  C   UNL     1      -7.677   9.890  69.944  1.00  0.00    -0.177 A  
HETATM   17  C   UNL     1      -7.764   9.063  71.086  1.00  0.00    -0.110 A  
HETATM   18  C   UNL     1      -7.312  11.362  70.089  1.00  0.00     0.996 C  
HETATM   19  C   UNL     1      -7.527  12.187  68.817  1.00  0.00    -0.075 C  
HETATM   20  C   UNL     1      -8.134   7.703  70.991  1.00  0.00    -0.095 A  
HETATM   21  O   UNL     1      -7.440   9.560  72.319  1.00  0.00     0.238 OA 
HETATM   22  C   UNL     1      -7.730  10.127  67.382  1.00  0.00    -0.095 C  
HETATM   23  C   UNL     1      -8.293   6.856  72.204  1.00  0.00    -0.105 C  
HETATM   24  C   UNL     1      -6.937  11.411  67.635  1.00  0.00    -0.081 C  
HETATM   25  O   UNL     1      -8.920  12.459  68.651  1.00  0.00    -0.360 OA 
HETATM   26  H   UNL     1      -7.499   9.004  73.087  1.00  0.00     0.000 HD 
HETATM   27  O   UNL     1      -8.207   7.310  73.338  1.00  0.00    -0.105 OA 
HETATM   28  H   UNL     1      -9.052  12.971  67.862  1.00  0.00     0.000 HD 
BRANCH  19  29
HETATM   29  C   UNL     1      -6.811  13.542  68.946  1.00  0.00    -0.111 C  
HETATM   30  O   UNL     1      -5.697  13.652  69.468  1.00  0.00    -0.087 OA 
BRANCH  29  31
HETATM   31  C   UNL     1      -7.567  14.785  68.478  1.00  0.00    -0.120 C  
HETATM   32  O   UNL     1      -8.524  15.218  69.437  1.00  0.00    -0.237 OA 
HETATM   33  H   UNL     1      -8.994  15.991  69.146  1.00  0.00     0.000 HD 
ENDBRANCH  29  31
ENDBRANCH  19  29
BRANCH  22  34
HETATM   34  O   UNL     1      -9.046  10.414  66.876  1.00  0.00    -0.142 OA 
BRANCH  34  35
HETATM   35  C   UNL     1      -9.106  10.999  65.568  1.00  0.00    -0.207 C  
HETATM   36  C   UNL     1     -10.419  10.767  64.815  1.00  0.00    -0.335 C  
HETATM   37  C   UNL     1     -11.551  11.514  65.513  1.00  0.00     0.097 C  
HETATM   38  C   UNL     1     -11.194  13.017  65.573  1.00  0.00    -0.288 C  
HETATM   39  N   UNL     1     -12.838  11.278  64.842  1.00  0.00     1.691 NA 
HETATM   40  C   UNL     1      -9.826  13.188  66.259  1.00  0.00    -0.283 C  
HETATM   41  H2  UNL     1     -13.041  10.282  64.760  1.00  0.00     0.000 HD 
HETATM   42  O   UNL     1     -12.188  13.770  66.269  1.00  0.00    -0.425 OA 
HETATM   43  H1  UNL     1     -13.595  11.778  65.309  1.00  0.00     0.000 HD 
HETATM   44  C   UNL     1      -9.366  14.643  66.185  1.00  0.00    -0.265 C  
HETATM   45  H   UNL     1     -11.969  14.694  66.307  1.00  0.00     0.000 HD 
HETATM   46  O   UNL     1      -8.811  12.396  65.634  1.00  0.00     0.256 OA 
ENDBRANCH  34  35
ENDBRANCH  22  34
ENDBRANCH   2   3
TORSDOF 5
ENDMDL
MODEL      110
REMARK 921   NORMALIZED FREE ENERGY PREDICTED BY IDOCK:   -0.41 KCAL/MOL
REMARK 922        TOTAL FREE ENERGY PREDICTED BY IDOCK:   -1.57 KCAL/MOL
REMARK 923 INTER-LIGAND FREE ENERGY PREDICTED BY IDOCK:   -3.31 KCAL/MOL
REMARK 924 INTRA-LIGAND FREE ENERGY PREDICTED BY IDOCK:    1.73 KCAL/MOL
REMARK 927      BINDING AFFINITY PREDICTED BY RF-SCORE:    0.00 PKD
ROOT
HETATM    1  C   UNL     1      -9.109   1.468  68.708  1.00  0.00    -0.123 C  
HETATM    2  O   UNL     1      -9.960   2.584  68.953  1.00  0.00     0.238 OA 
ENDROOT
BRANCH   2   3
HETATM    3  C   UNL     1      -9.890   3.156  70.196  1.00  0.00     0.166 A  
HETATM    4  C   UNL     1     -10.140   2.416  71.364  1.00  0.00     0.057 A  
HETATM    5  C   UNL     1     -10.056   3.011  72.619  1.00  0.00    -0.231 A  
HETATM    6  C   UNL     1      -9.722   4.353  72.718  1.00  0.00    -0.185 A  
HETATM    7  C   UNL     1      -9.490   5.116  71.564  1.00  0.00    -0.197 A  
HETATM    8  C   UNL     1      -9.588   4.534  70.297  1.00  0.00    -0.263 A  
HETATM    9  C   UNL     1      -9.366   5.398  69.106  1.00  0.00    -0.120 C  
HETATM   10  O   UNL     1      -9.546   4.994  67.961  1.00  0.00    -0.129 OA 
HETATM   11  C   UNL     1      -8.921   6.807  69.274  1.00  0.00    -0.137 A  
HETATM   12  C   UNL     1      -8.602   7.590  68.143  1.00  0.00    -0.123 A  
HETATM   13  O   UNL     1      -8.659   7.068  66.870  1.00  0.00    -0.116 OA 
HETATM   14  C   UNL     1      -8.191   8.935  68.256  1.00  0.00    -0.121 A  
HETATM   15  H   UNL     1      -8.444   7.595  66.109  1.00  0.00     0.000 HD 
HETATM   16  C   UNL     1      -8.102   9.512  69.546  1.00  0.00    -0.117 A  
HETATM   17  C   UNL     1      -8.370   8.704  70.674  1.00  0.00    -0.143 A  
HETATM   18  C   UNL     1      -7.676  10.963  69.725  1.00  0.00     0.166 C  
HETATM   19  C   UNL     1      -7.693  11.783  68.432  1.00  0.00    -0.131 C  
HETATM   20  C   UNL     1      -8.800   7.366  70.543  1.00  0.00    -0.148 A  
HETATM   21  O   UNL     1      -8.168   9.197  71.934  1.00  0.00    -0.336 OA 
HETATM   22  C   UNL     1      -7.837   9.721  66.994  1.00  0.00    -0.102 C  
HETATM   23  C   UNL     1      -9.148   6.542  71.732  1.00  0.00    -0.142 C  
HETATM   24  C   UNL     1      -7.010  10.963  67.334  1.00  0.00    -0.084 C  
HETATM   25  O   UNL     1      -9.039  12.128  68.100  1.00  0.00    -0.186 OA 
HETATM   26  H   UNL     1      -8.348   8.655  72.693  1.00  0.00     0.000 HD 
HETATM   27  O   UNL     1      -9.173   7.005  72.867  1.00  0.00    -0.136 OA 
HETATM   28  H   UNL     1      -9.049  12.637  67.298  1.00  0.00     0.000 HD 
BRANCH  19  29
HETATM   29  C   UNL     1      -6.924  13.099  68.639  1.00  0.00    -0.102 C  
HETATM   30  O   UNL     1      -5.774  13.128  69.090  1.00  0.00    -0.071 OA 
BRANCH  29  31
HETATM   31  C   UNL     1      -7.666  14.402  68.343  1.00  0.00    -0.132 C  
HETATM   32  O   UNL     1      -8.473  14.814  69.440  1.00  0.00    -0.366 OA 
HETATM   33  H   UNL     1      -8.934  15.625  69.256  1.00  0.00     0.000 HD 
ENDBRANCH  29  31
ENDBRANCH  19  29
BRANCH  22  34
HETATM   34  O   UNL     1      -9.066  10.072  66.334  1.00  0.00    -0.145 OA 
BRANCH  34  35
HETATM   35  C   UNL     1      -8.939  10.631  65.019  1.00  0.00    -0.199 C  
HETATM   36  C   UNL     1      -7.594  11.302  64.728  1.00  0.00     0.986 C  
HETATM   37  C   UNL     1      -6.490  10.250  64.697  1.00  0.00    -0.101 C  
HETATM   38  C   UNL     1      -6.838   9.195  63.622  1.00  0.00    -0.090 C  
HETATM   39  N   UNL     1      -5.174  10.863  64.464  1.00  0.00    -0.400 NA 
HETATM   40  C   UNL     1      -8.235   8.615  63.909  1.00  0.00    -0.146 C  
HETATM   41  H2  UNL     1      -4.975  11.595  65.146  1.00  0.00     0.000 HD 
HETATM   42  O   UNL     1      -5.871   8.143  63.579  1.00  0.00    -0.064 OA 
HETATM   43  H1  UNL     1      -4.437  10.160  64.443  1.00  0.00     0.000 HD 
HETATM   44  C   UNL     1      -8.680   7.696  62.774  1.00  0.00     0.415 C  
HETATM   45  H   UNL     1      -6.085   7.495  62.918  1.00  0.00     0.000 HD 
HETATM   46  O   UNL     1      -9.225   9.642  64.028  1.00  0.00    -0.250 OA 
ENDBRANCH  34  35
ENDBRANCH  22  34
ENDBRANCH   2   3
TORSDOF 5
ENDMDL
MODEL      111
REMARK 921   NORMALIZED FREE ENERGY PREDICTED BY IDOCK:   -0.28 KCAL/MOL
REMARK 922        TOTAL FREE ENERGY PREDICTED BY IDOCK:   -1.41 KCAL/MOL
REMARK 923 INTER-LIGAND FREE ENERGY PREDICTED BY IDOCK:   -5.00 KCAL/MOL
REMARK 924 INTRA-LIGAND FREE ENERGY PREDICTED BY IDOCK:    3.59 KCAL/MOL
REMARK 927      BINDING AFFINITY PREDICTED BY RF-SCORE:    0.00 PKD
ROOT
HETATM    1  C   UNL     1      -8.008  11.322  62.625  1.00  0.00     0.197 C  
HETATM    2  O   UNL     1      -6.930  10.391  62.621  1.00  0.00    -0.134 OA 
ENDROOT
BRANCH   2   3
HETATM    3  C   UNL     1      -7.205   9.120  63.054  1.00  0.00    -0.094 A  
HETATM    4  C   UNL     1      -6.712   7.989  62.384  1.00  0.00    -0.086 A  
HETATM    5  C   UNL     1      -6.994   6.707  62.843  1.00  0.00    -0.044 A  
HETATM    6  C   UNL     1      -7.773   6.542  63.978  1.00  0.00    -0.105 A  
HETATM    7  C   UNL     1      -8.293   7.658  64.651  1.00  0.00    -0.005 A  
HETATM    8  C   UNL     1      -8.033   8.951  64.190  1.00  0.00    -0.148 A  
HETATM    9  C   UNL     1      -8.639  10.096  64.922  1.00  0.00    -0.178 C  
HETATM   10  O   UNL     1      -8.554  11.251  64.516  1.00  0.00     0.136 OA 
HETATM   11  C   UNL     1      -9.389   9.865  66.185  1.00  0.00    -0.232 A  
HETATM   12  C   UNL     1      -9.867  10.961  66.936  1.00  0.00    -0.189 A  
HETATM   13  O   UNL     1      -9.623  12.259  66.545  1.00  0.00    -0.226 OA 
HETATM   14  C   UNL     1     -10.596  10.788  68.131  1.00  0.00    -0.238 A  
HETATM   15  H   UNL     1      -9.945  12.996  67.051  1.00  0.00     0.000 HD 
HETATM   16  C   UNL     1     -10.858   9.472  68.582  1.00  0.00    -0.177 A  
HETATM   17  C   UNL     1     -10.329   8.384  67.852  1.00  0.00    -0.221 A  
HETATM   18  C   UNL     1     -11.652   9.226  69.858  1.00  0.00     0.076 C  
HETATM   19  C   UNL     1     -12.391  10.462  70.381  1.00  0.00    -0.286 C  
HETATM   20  C   UNL     1      -9.618   8.573  66.647  1.00  0.00    -0.292 A  
HETATM   21  O   UNL     1     -10.457   7.109  68.333  1.00  0.00    -0.189 OA 
HETATM   22  C   UNL     1     -11.064  12.016  68.910  1.00  0.00    -0.247 C  
HETATM   23  C   UNL     1      -9.125   7.420  65.847  1.00  0.00    -0.028 C  
HETATM   24  C   UNL     1     -11.424  11.649  70.351  1.00  0.00     0.001 C  
HETATM   25  O   UNL     1     -13.561  10.690  69.594  1.00  0.00    -0.014 OA 
HETATM   26  H   UNL     1     -10.101   6.377  67.843  1.00  0.00     0.000 HD 
HETATM   27  O   UNL     1      -9.390   6.259  66.137  1.00  0.00    -0.155 OA 
HETATM   28  H   UNL     1     -14.019  11.456  69.919  1.00  0.00     0.000 HD 
BRANCH  19  29
HETATM   29  C   UNL     1     -12.856  10.218  71.827  1.00  0.00    -0.460 C  
HETATM   30  O   UNL     1     -13.074  11.145  72.615  1.00  0.00     0.223 OA 
BRANCH  29  31
HETATM   31  C   UNL     1     -12.965   8.768  72.297  1.00  0.00    -0.408 C  
HETATM   32  O   UNL     1     -13.509   8.674  73.608  1.00  0.00    -0.237 OA 
HETATM   33  H   UNL     1     -13.576   7.772  73.899  1.00  0.00     0.000 HD 
ENDBRANCH  29  31
ENDBRANCH  19  29
BRANCH  22  34
HETATM   34  O   UNL     1     -12.190  12.578  68.214  1.00  0.00    -0.228 OA 
BRANCH  34  35
HETATM   35  C   UNL     1     -12.121  13.983  67.931  1.00  0.00    -0.279 C  
HETATM   36  C   UNL     1     -12.884  14.879  68.910  1.00  0.00     0.775 C  
HETATM   37  C   UNL     1     -12.215  14.832  70.280  1.00  0.00    -0.338 C  
HETATM   38  C   UNL     1     -10.744  15.284  70.131  1.00  0.00    -0.271 C  
HETATM   39  N   UNL     1     -12.948  15.647  71.259  1.00  0.00    -0.496 NA 
HETATM   40  C   UNL     1     -10.046  14.410  69.073  1.00  0.00    -0.155 C  
HETATM   41  H2  UNL     1     -13.930  15.377  71.312  1.00  0.00     0.000 HD 
HETATM   42  O   UNL     1     -10.039  15.208  71.372  1.00  0.00     0.165 OA 
HETATM   43  H1  UNL     1     -12.501  15.616  72.175  1.00  0.00     0.000 HD 
HETATM   44  C   UNL     1      -8.643  14.937  68.781  1.00  0.00    -0.177 C  
HETATM   45  H   UNL     1      -9.135  15.485  71.281  1.00  0.00     0.000 HD 
HETATM   46  O   UNL     1     -10.758  14.403  67.831  1.00  0.00    -0.241 OA 
ENDBRANCH  34  35
ENDBRANCH  22  34
ENDBRANCH   2   3
TORSDOF 5
ENDMDL
MODEL      112
REMARK 921   NORMALIZED FREE ENERGY PREDICTED BY IDOCK:   -0.18 KCAL/MOL
REMARK 922        TOTAL FREE ENERGY PREDICTED BY IDOCK:   -1.28 KCAL/MOL
REMARK 923 INTER-LIGAND FREE ENERGY PREDICTED BY IDOCK:   -2.67 KCAL/MOL
REMARK 924 INTRA-LIGAND FREE ENERGY PREDICTED BY IDOCK:    1.39 KCAL/MOL
REMARK 927      BINDING AFFINITY PREDICTED BY RF-SCORE:    0.00 PKD
ROOT
HETATM    1  C   UNL     1     -10.341  17.861  66.298  1.00  0.00    -0.364 C  
HETATM    2  O   UNL     1      -9.853  16.534  66.122  1.00  0.00    -0.297 OA 
ENDROOT
BRANCH   2   3
HETATM    3  C   UNL     1     -10.775  15.568  65.818  1.00  0.00    -0.353 A  
HETATM    4  C   UNL     1     -12.081  15.894  65.416  1.00  0.00     0.963 A  
HETATM    5  C   UNL     1     -13.002  14.901  65.103  1.00  0.00     0.448 A  
HETATM    6  C   UNL     1     -12.627  13.569  65.187  1.00  0.00    -0.485 A  
HETATM    7  C   UNL     1     -11.335  13.219  65.606  1.00  0.00    -0.325 A  
HETATM    8  C   UNL     1     -10.406  14.208  65.942  1.00  0.00    -0.326 A  
HETATM    9  C   UNL     1      -9.061  13.780  66.413  1.00  0.00    -0.059 C  
HETATM   10  O   UNL     1      -8.230  14.578  66.835  1.00  0.00    -0.171 OA 
HETATM   11  C   UNL     1      -8.683  12.341  66.397  1.00  0.00    -0.019 A  
HETATM   12  C   UNL     1      -7.370  11.949  66.737  1.00  0.00    -0.011 A  
HETATM   13  O   UNL     1      -6.404  12.877  67.056  1.00  0.00    -0.477 OA 
HETATM   14  C   UNL     1      -6.974  10.595  66.750  1.00  0.00    -0.110 A  
HETATM   15  H   UNL     1      -5.521  12.612  67.285  1.00  0.00     0.000 HD 
HETATM   16  C   UNL     1      -7.928   9.605  66.415  1.00  0.00    -0.108 A  
HETATM   17  C   UNL     1      -9.223  10.012  66.022  1.00  0.00    -0.162 A  
HETATM   18  C   UNL     1      -7.558   8.127  66.424  1.00  0.00    -0.091 C  
HETATM   19  C   UNL     1      -6.234   7.820  67.129  1.00  0.00    -0.054 C  
HETATM   20  C   UNL     1      -9.611  11.369  66.034  1.00  0.00    -0.247 A  
HETATM   21  O   UNL     1     -10.125   9.087  65.570  1.00  0.00    -0.369 OA 
HETATM   22  C   UNL     1      -5.531  10.238  67.104  1.00  0.00    -0.041 C  
HETATM   23  C   UNL     1     -10.997  11.785  65.688  1.00  0.00    -0.295 C  
HETATM   24  C   UNL     1      -5.185   8.822  66.639  1.00  0.00    -0.035 C  
HETATM   25  O   UNL     1      -6.420   7.872  68.545  1.00  0.00    -0.050 OA 
HETATM   26  H   UNL     1     -10.996   9.360  65.306  1.00  0.00     0.000 HD 
HETATM   27  O   UNL     1     -11.890  10.974  65.470  1.00  0.00     0.380 OA 
HETATM   28  H   UNL     1      -5.599   7.681  68.981  1.00  0.00     0.000 HD 
BRANCH  19  29
HETATM   29  C   UNL     1      -5.778   6.392  66.783  1.00  0.00    -0.013 C  
HETATM   30  O   UNL     1      -5.298   5.630  67.629  1.00  0.00    -0.004 OA 
BRANCH  29  31
HETATM   31  C   UNL     1      -5.858   5.963  65.319  1.00  0.00    -0.025 C  
HETATM   32  O   UNL     1      -5.675   4.560  65.166  1.00  0.00    -0.014 OA 
HETATM   33  H   UNL     1      -5.725   4.294  64.255  1.00  0.00     0.000 HD 
ENDBRANCH  29  31
ENDBRANCH  19  29
BRANCH  22  34
HETATM   34  O   UNL     1      -5.379  10.375  68.528  1.00  0.00    -0.038 OA 
BRANCH  34  35
HETATM   35  C   UNL     1      -6.528  10.854  69.243  1.00  0.00    -0.071 C  
HETATM   36  C   UNL     1      -7.354   9.770  69.940  1.00  0.00    -0.134 C  
HETATM   37  C   UNL     1      -6.544   9.160  71.080  1.00  0.00    -0.088 C  
HETATM   38  C   UNL     1      -6.142  10.283  72.063  1.00  0.00     0.796 C  
HETATM   39  N   UNL     1      -7.290   8.082  71.747  1.00  0.00    -0.073 NA 
HETATM   40  C   UNL     1      -5.393  11.388  71.296  1.00  0.00    -0.012 C  
HETATM   41  H2  UNL     1      -7.597   7.372  71.082  1.00  0.00     0.000 HD 
HETATM   42  O   UNL     1      -5.329   9.789  73.129  1.00  0.00    -0.274 OA 
HETATM   43  H1  UNL     1      -6.749   7.674  72.508  1.00  0.00     0.000 HD 
HETATM   44  C   UNL     1      -5.130  12.588  72.203  1.00  0.00     0.090 C  
HETATM   45  H   UNL     1      -5.082  10.479  73.733  1.00  0.00     0.000 HD 
HETATM   46  O   UNL     1      -6.145  11.866  70.177  1.00  0.00    -0.152 OA 
ENDBRANCH  34  35
ENDBRANCH  22  34
ENDBRANCH   2   3
TORSDOF 5
ENDMDL
MODEL      113
REMARK 921   NORMALIZED FREE ENERGY PREDICTED BY IDOCK:    0.09 KCAL/MOL
REMARK 922        TOTAL FREE ENERGY PREDICTED BY IDOCK:   -0.93 KCAL/MOL
REMARK 923 INTER-LIGAND FREE ENERGY PREDICTED BY IDOCK:   -5.44 KCAL/MOL
REMARK 924 INTRA-LIGAND FREE ENERGY PREDICTED BY IDOCK:    4.50 KCAL/MOL
REMARK 927      BINDING AFFINITY PREDICTED BY RF-SCORE:    0.00 PKD
ROOT
HETATM    1  C   UNL     1      -8.622  16.190  66.527  1.00  0.00    -0.306 C  
HETATM    2  O   UNL     1      -9.820  15.483  66.835  1.00  0.00    -0.230 OA 
ENDROOT
BRANCH   2   3
HETATM    3  C   UNL     1     -10.527  14.969  65.779  1.00  0.00    -0.337 A  
HETATM    4  C   UNL     1     -11.557  15.695  65.158  1.00  0.00     0.009 A  
HETATM    5  C   UNL     1     -12.258  15.162  64.082  1.00  0.00    -0.182 A  
HETATM    6  C   UNL     1     -11.936  13.896  63.615  1.00  0.00    -0.207 A  
HETATM    7  C   UNL     1     -10.925  13.146  64.234  1.00  0.00    -0.428 A  
HETATM    8  C   UNL     1     -10.226  13.663  65.327  1.00  0.00    -0.341 A  
HETATM    9  C   UNL     1      -9.187  12.810  65.967  1.00  0.00     0.037 C  
HETATM   10  O   UNL     1      -8.611  13.142  66.998  1.00  0.00    -0.205 OA 
HETATM   11  C   UNL     1      -8.821  11.499  65.368  1.00  0.00     0.088 A  
HETATM   12  C   UNL     1      -7.759  10.743  65.910  1.00  0.00    -0.118 A  
HETATM   13  O   UNL     1      -7.018  11.208  66.974  1.00  0.00    -0.106 OA 
HETATM   14  C   UNL     1      -7.388   9.488  65.383  1.00  0.00    -0.099 A  
HETATM   15  H   UNL     1      -6.303  10.699  67.339  1.00  0.00     0.000 HD 
HETATM   16  C   UNL     1      -8.110   8.975  64.279  1.00  0.00    -0.151 A  
HETATM   17  C   UNL     1      -9.135   9.763  63.709  1.00  0.00    -0.230 A  
HETATM   18  C   UNL     1      -7.761   7.620  63.679  1.00  0.00    -0.123 C  
HETATM   19  C   UNL     1      -6.838   6.767  64.555  1.00  0.00    -0.043 C  
HETATM   20  C   UNL     1      -9.508  11.008  64.261  1.00  0.00    -0.270 A  
HETATM   21  O   UNL     1      -9.762   9.350  62.565  1.00  0.00    -0.486 OA 
HETATM   22  C   UNL     1      -6.213   8.732  66.002  1.00  0.00    -0.056 C  
HETATM   23  C   UNL     1     -10.635  11.801  63.699  1.00  0.00    -0.439 C  
HETATM   24  C   UNL     1      -5.691   7.653  65.049  1.00  0.00    -0.037 C  
HETATM   25  O   UNL     1      -7.589   6.196  65.628  1.00  0.00    -0.080 OA 
HETATM   26  H   UNL     1     -10.451   9.880  62.182  1.00  0.00     0.000 HD 
HETATM   27  O   UNL     1     -11.351  11.376  62.800  1.00  0.00     0.276 OA 
HETATM   28  H   UNL     1      -7.017   5.667  66.171  1.00  0.00     0.000 HD 
BRANCH  19  29
HETATM   29  C   UNL     1      -6.265   5.602  63.730  1.00  0.00    -0.025 C  
HETATM   30  O   UNL     1      -6.465   5.493  62.516  1.00  0.00    -0.027 OA 
BRANCH  29  31
HETATM   31  C   UNL     1      -5.496   4.518  64.484  1.00  0.00    -0.013 C  
HETATM   32  O   UNL     1      -5.886   4.441  65.850  1.00  0.00    -0.021 OA 
HETATM   33  H   UNL     1      -5.408   3.767  66.317  1.00  0.00     0.000 HD 
ENDBRANCH  29  31
ENDBRANCH  19  29
BRANCH  22  34
HETATM   34  O   UNL     1      -6.660   8.163  67.245  1.00  0.00    -0.056 OA 
BRANCH  34  35
HETATM   35  C   UNL     1      -7.694   7.174  67.152  1.00  0.00    -0.108 C  
HETATM   36  C   UNL     1      -7.838   6.270  68.379  1.00  0.00    -0.105 C  
HETATM   37  C   UNL     1      -8.334   7.088  69.566  1.00  0.00    -0.133 C  
HETATM   38  C   UNL     1      -9.681   7.746  69.191  1.00  0.00    -0.161 C  
HETATM   39  N   UNL     1      -8.441   6.260  70.777  1.00  0.00    -0.133 NA 
HETATM   40  C   UNL     1      -9.504   8.571  67.903  1.00  0.00    -0.139 C  
HETATM   41  H2  UNL     1      -7.561   5.788  70.988  1.00  0.00     0.000 HD 
HETATM   42  O   UNL     1     -10.176   8.578  70.241  1.00  0.00    -0.187 OA 
HETATM   43  H1  UNL     1      -8.772   6.808  71.571  1.00  0.00     0.000 HD 
HETATM   44  C   UNL     1     -10.851   9.096  67.411  1.00  0.00    -0.140 C  
HETATM   45  H   UNL     1     -11.004   8.983  70.010  1.00  0.00     0.000 HD 
HETATM   46  O   UNL     1      -8.946   7.791  66.840  1.00  0.00    -0.124 OA 
ENDBRANCH  34  35
ENDBRANCH  22  34
ENDBRANCH   2   3
TORSDOF 5
ENDMDL
MODEL      114
REMARK 921   NORMALIZED FREE ENERGY PREDICTED BY IDOCK:    0.31 KCAL/MOL
REMARK 922        TOTAL FREE ENERGY PREDICTED BY IDOCK:   -0.65 KCAL/MOL
REMARK 923 INTER-LIGAND FREE ENERGY PREDICTED BY IDOCK:   -2.82 KCAL/MOL
REMARK 924 INTRA-LIGAND FREE ENERGY PREDICTED BY IDOCK:    2.18 KCAL/MOL
REMARK 927      BINDING AFFINITY PREDICTED BY RF-SCORE:    0.00 PKD
ROOT
HETATM    1  C   UNL     1      -7.483   8.260  62.923  1.00  0.00    -0.114 C  
HETATM    2  O   UNL     1      -7.840   7.079  63.637  1.00  0.00    -0.127 OA 
ENDROOT
BRANCH   2   3
HETATM    3  C   UNL     1      -7.339   6.945  64.905  1.00  0.00    -0.087 A  
HETATM    4  C   UNL     1      -6.455   5.907  65.243  1.00  0.00    -0.042 A  
HETATM    5  C   UNL     1      -5.949   5.791  66.533  1.00  0.00    -0.022 A  
HETATM    6  C   UNL     1      -6.322   6.712  67.500  1.00  0.00    -0.044 A  
HETATM    7  C   UNL     1      -7.221   7.744  67.189  1.00  0.00    -0.090 A  
HETATM    8  C   UNL     1      -7.750   7.861  65.902  1.00  0.00    -0.093 A  
HETATM    9  C   UNL     1      -8.725   8.954  65.637  1.00  0.00    -0.182 C  
HETATM   10  O   UNL     1      -9.321   9.055  64.569  1.00  0.00     0.053 OA 
HETATM   11  C   UNL     1      -9.019   9.967  66.685  1.00  0.00    -0.157 A  
HETATM   12  C   UNL     1      -9.857  11.065  66.395  1.00  0.00    -0.212 A  
HETATM   13  O   UNL     1     -10.392  11.247  65.139  1.00  0.00    -0.269 OA 
HETATM   14  C   UNL     1     -10.174  12.041  67.363  1.00  0.00    -0.216 A  
HETATM   15  H   UNL     1     -10.956  11.987  64.944  1.00  0.00     0.000 HD 
HETATM   16  C   UNL     1      -9.636  11.905  68.666  1.00  0.00    -0.101 A  
HETATM   17  C   UNL     1      -8.754  10.833  68.930  1.00  0.00    -0.152 A  
HETATM   18  C   UNL     1      -9.955  12.922  69.753  1.00  0.00     1.694 C  
HETATM   19  C   UNL     1     -11.125  13.851  69.415  1.00  0.00    -0.180 C  
HETATM   20  C   UNL     1      -8.463   9.853  67.956  1.00  0.00    -0.117 A  
HETATM   21  O   UNL     1      -8.119  10.750  70.140  1.00  0.00    -0.308 OA 
HETATM   22  C   UNL     1     -11.068  13.218  66.979  1.00  0.00    -0.282 C  
HETATM   23  C   UNL     1      -7.590   8.688  68.263  1.00  0.00    -0.097 C  
HETATM   24  C   UNL     1     -10.933  14.363  67.985  1.00  0.00    -0.268 C  
HETATM   25  O   UNL     1     -12.359  13.152  69.585  1.00  0.00    -0.207 OA 
HETATM   26  H   UNL     1      -7.526  10.029  70.318  1.00  0.00     0.000 HD 
HETATM   27  O   UNL     1      -7.161   8.468  69.389  1.00  0.00    -0.052 OA 
HETATM   28  H   UNL     1     -13.083  13.729  69.376  1.00  0.00     0.000 HD 
BRANCH  19  29
HETATM   29  C   UNL     1     -11.141  15.044  70.387  1.00  0.00    -0.229 C  
HETATM   30  O   UNL     1     -10.162  15.783  70.541  1.00  0.00    -0.106 OA 
BRANCH  29  31
HETATM   31  C   UNL     1     -12.397  15.245  71.234  1.00  0.00    -0.361 C  
HETATM   32  O   UNL     1     -13.380  16.014  70.553  1.00  0.00    -0.626 OA 
HETATM   33  H   UNL     1     -14.161  16.138  71.080  1.00  0.00     0.000 HD 
ENDBRANCH  29  31
ENDBRANCH  19  29
BRANCH  22  34
HETATM   34  O   UNL     1     -12.423  12.739  66.906  1.00  0.00    -0.307 OA 
BRANCH  34  35
HETATM   35  C   UNL     1     -13.272  13.388  65.949  1.00  0.00     0.717 C  
HETATM   36  C   UNL     1     -12.766  14.742  65.447  1.00  0.00     0.063 C  
HETATM   37  C   UNL     1     -11.502  14.544  64.617  1.00  0.00    -0.387 C  
HETATM   38  C   UNL     1     -11.822  13.591  63.442  1.00  0.00    -0.169 C  
HETATM   39  N   UNL     1     -10.960  15.830  64.154  1.00  0.00    -0.696 NA 
HETATM   40  C   UNL     1     -12.410  12.280  63.995  1.00  0.00    -0.475 C  
HETATM   41  H2  UNL     1     -10.801  16.472  64.931  1.00  0.00     0.000 HD 
HETATM   42  O   UNL     1     -10.663  13.314  62.654  1.00  0.00     1.003 OA 
HETATM   43  H1  UNL     1     -10.116  15.697  63.599  1.00  0.00     0.000 HD 
HETATM   44  C   UNL     1     -12.893  11.385  62.856  1.00  0.00     0.981 C  
HETATM   45  H   UNL     1     -10.860  12.729  61.932  1.00  0.00     0.000 HD 
HETATM   46  O   UNL     1     -13.535  12.516  64.847  1.00  0.00    -0.564 OA 
ENDBRANCH  34  35
ENDBRANCH  22  34
ENDBRANCH   2   3
TORSDOF 5
ENDMDL
MODEL      115
REMARK 921   NORMALIZED FREE ENERGY PREDICTED BY IDOCK:    0.39 KCAL/MOL
REMARK 922        TOTAL FREE ENERGY PREDICTED BY IDOCK:   -0.54 KCAL/MOL
REMARK 923 INTER-LIGAND FREE ENERGY PREDICTED BY IDOCK:   -4.09 KCAL/MOL
REMARK 924 INTRA-LIGAND FREE ENERGY PREDICTED BY IDOCK:    3.55 KCAL/MOL
REMARK 927      BINDING AFFINITY PREDICTED BY RF-SCORE:    0.00 PKD
ROOT
HETATM    1  C   UNL     1     -11.742  10.471  70.553  1.00  0.00    -0.350 C  
HETATM    2  O   UNL     1     -11.260   9.151  70.324  1.00  0.00    -0.245 OA 
ENDROOT
BRANCH   2   3
HETATM    3  C   UNL     1      -9.900   8.985  70.279  1.00  0.00    -0.194 A  
HETATM    4  C   UNL     1      -9.287   7.796  70.708  1.00  0.00    -0.162 A  
HETATM    5  C   UNL     1      -7.906   7.642  70.647  1.00  0.00    -0.097 A  
HETATM    6  C   UNL     1      -7.123   8.676  70.157  1.00  0.00    -0.044 A  
HETATM    7  C   UNL     1      -7.713   9.880  69.744  1.00  0.00    -0.159 A  
HETATM    8  C   UNL     1      -9.097  10.054  69.817  1.00  0.00    -0.219 A  
HETATM    9  C   UNL     1      -9.666  11.364  69.398  1.00  0.00     0.360 C  
HETATM   10  O   UNL     1     -10.854  11.638  69.539  1.00  0.00    -0.160 OA 
HETATM   11  C   UNL     1      -8.789  12.403  68.795  1.00  0.00     0.152 A  
HETATM   12  C   UNL     1      -9.348  13.600  68.296  1.00  0.00    -0.204 A  
HETATM   13  O   UNL     1     -10.707  13.822  68.319  1.00  0.00    -0.239 OA 
HETATM   14  C   UNL     1      -8.552  14.618  67.730  1.00  0.00    -0.175 A  
HETATM   15  H   UNL     1     -11.083  14.627  67.984  1.00  0.00     0.000 HD 
HETATM   16  C   UNL     1      -7.150  14.430  67.670  1.00  0.00    -0.202 A  
HETATM   17  C   UNL     1      -6.607  13.207  68.122  1.00  0.00    -0.107 A  
HETATM   18  C   UNL     1      -6.243  15.502  67.082  1.00  0.00     0.202 C  
HETATM   19  C   UNL     1      -6.921  16.863  66.897  1.00  0.00    -0.216 C  
HETATM   20  C   UNL     1      -7.415  12.205  68.704  1.00  0.00    -0.105 A  
HETATM   21  O   UNL     1      -5.274  12.946  67.957  1.00  0.00    -0.078 OA 
HETATM   22  C   UNL     1      -9.221  15.880  67.186  1.00  0.00    -0.209 C  
HETATM   23  C   UNL     1      -6.827  10.949  69.242  1.00  0.00    -0.105 C  
HETATM   24  C   UNL     1      -8.285  16.634  66.240  1.00  0.00    -0.365 C  
HETATM   25  O   UNL     1      -7.026  17.522  68.160  1.00  0.00    -0.188 OA 
HETATM   26  H   UNL     1      -4.908  12.123  68.261  1.00  0.00     0.000 HD 
HETATM   27  O   UNL     1      -5.617  10.760  69.295  1.00  0.00    -0.041 OA 
HETATM   28  H   UNL     1      -7.447  18.365  68.045  1.00  0.00     0.000 HD 
BRANCH  19  29
HETATM   29  C   UNL     1      -6.060  17.756  65.988  1.00  0.00    -0.220 C  
HETATM   30  O   UNL     1      -5.253  17.289  65.177  1.00  0.00     0.178 OA 
BRANCH  29  31
HETATM   31  C   UNL     1      -6.171  19.268  66.178  1.00  0.00    -0.176 C  
HETATM   32  O   UNL     1      -6.709  19.910  65.028  1.00  0.00    -0.289 OA 
HETATM   33  H   UNL     1      -6.778  20.850  65.147  1.00  0.00     0.000 HD 
ENDBRANCH  29  31
ENDBRANCH  19  29
BRANCH  22  34
HETATM   34  O   UNL     1      -9.604  16.695  68.307  1.00  0.00    -0.222 OA 
BRANCH  34  35
HETATM   35  C   UNL     1     -10.876  17.350  68.207  1.00  0.00    -0.256 C  
HETATM   36  C   UNL     1     -11.157  18.389  69.296  1.00  0.00     1.790 C  
HETATM   37  C   UNL     1     -10.214  19.575  69.132  1.00  0.00    -0.185 C  
HETATM   38  C   UNL     1     -10.406  20.174  67.720  1.00  0.00    -0.320 C  
HETATM   39  N   UNL     1     -10.425  20.575  70.190  1.00  0.00    -0.409 NA 
HETATM   40  C   UNL     1     -10.199  19.070  66.666  1.00  0.00    -0.407 C  
HETATM   41  H2  UNL     1     -10.348  20.160  71.119  1.00  0.00     0.000 HD 
HETATM   42  O   UNL     1      -9.507  21.258  67.477  1.00  0.00    -0.466 OA 
HETATM   43  H1  UNL     1      -9.793  21.368  70.080  1.00  0.00     0.000 HD 
HETATM   44  C   UNL     1     -10.547  19.587  65.272  1.00  0.00     0.174 C  
HETATM   45  H   UNL     1      -9.625  21.625  66.609  1.00  0.00     0.000 HD 
HETATM   46  O   UNL     1     -11.034  17.934  66.911  1.00  0.00    -0.138 OA 
ENDBRANCH  34  35
ENDBRANCH  22  34
ENDBRANCH   2   3
TORSDOF 5
ENDMDL
MODEL      116
REMARK 921   NORMALIZED FREE ENERGY PREDICTED BY IDOCK:    0.45 KCAL/MOL
REMARK 922        TOTAL FREE ENERGY PREDICTED BY IDOCK:   -0.46 KCAL/MOL
REMARK 923 INTER-LIGAND FREE ENERGY PREDICTED BY IDOCK:   -2.32 KCAL/MOL
REMARK 924 INTRA-LIGAND FREE ENERGY PREDICTED BY IDOCK:    1.86 KCAL/MOL
REMARK 927      BINDING AFFINITY PREDICTED BY RF-SCORE:    0.00 PKD
ROOT
HETATM    1  C   UNL     1      -9.687   8.291  70.048  1.00  0.00    -0.176 C  
HETATM    2  O   UNL     1     -10.966   8.578  69.491  1.00  0.00    -0.173 OA 
ENDROOT
BRANCH   2   3
HETATM    3  C   UNL     1     -11.872   9.206  70.304  1.00  0.00     0.064 A  
HETATM    4  C   UNL     1     -12.784   8.482  71.090  1.00  0.00    -0.127 A  
HETATM    5  C   UNL     1     -13.691   9.136  71.917  1.00  0.00    -0.485 A  
HETATM    6  C   UNL     1     -13.695  10.521  71.969  1.00  0.00    -0.077 A  
HETATM    7  C   UNL     1     -12.806  11.264  71.177  1.00  0.00    -0.452 A  
HETATM    8  C   UNL     1     -11.903  10.620  70.328  1.00  0.00    -0.430 A  
HETATM    9  C   UNL     1     -11.007  11.458  69.485  1.00  0.00    -0.166 C  
HETATM   10  O   UNL     1     -10.269  10.975  68.633  1.00  0.00    -0.183 OA 
HETATM   11  C   UNL     1     -10.991  12.936  69.649  1.00  0.00     0.151 A  
HETATM   12  C   UNL     1     -10.062  13.720  68.929  1.00  0.00    -0.066 A  
HETATM   13  O   UNL     1      -9.132  13.142  68.093  1.00  0.00    -0.193 OA 
HETATM   14  C   UNL     1     -10.022  15.125  69.042  1.00  0.00    -0.239 A  
HETATM   15  H   UNL     1      -8.508  13.669  67.609  1.00  0.00     0.000 HD 
HETATM   16  C   UNL     1     -10.949  15.764  69.902  1.00  0.00    -0.335 A  
HETATM   17  C   UNL     1     -11.837  14.967  70.658  1.00  0.00    -0.313 A  
HETATM   18  C   UNL     1     -10.959  17.279  70.052  1.00  0.00     0.686 C  
HETATM   19  C   UNL     1     -10.151  18.019  68.981  1.00  0.00    -0.293 C  
HETATM   20  C   UNL     1     -11.879  13.563  70.519  1.00  0.00    -0.254 A  
HETATM   21  O   UNL     1     -12.654  15.548  71.591  1.00  0.00    -0.356 OA 
HETATM   22  C   UNL     1      -8.976  15.913  68.255  1.00  0.00    -0.184 C  
HETATM   23  C   UNL     1     -12.864  12.737  71.266  1.00  0.00    -0.262 C  
HETATM   24  C   UNL     1      -8.797  17.319  68.832  1.00  0.00    -0.173 C  
HETATM   25  O   UNL     1     -10.889  18.048  67.758  1.00  0.00    -0.383 OA 
HETATM   26  H   UNL     1     -13.252  15.013  72.100  1.00  0.00     0.000 HD 
HETATM   27  O   UNL     1     -13.745  13.233  71.960  1.00  0.00    -0.462 OA 
HETATM   28  H   UNL     1     -10.388  18.506  67.095  1.00  0.00     0.000 HD 
BRANCH  19  29
HETATM   29  C   UNL     1      -9.927  19.478  69.412  1.00  0.00    -0.166 C  
HETATM   30  O   UNL     1     -10.703  20.386  69.095  1.00  0.00     0.070 OA 
BRANCH  29  31
HETATM   31  C   UNL     1      -8.649  19.795  70.187  1.00  0.00     1.211 C  
HETATM   32  O   UNL     1      -7.588  20.189  69.325  1.00  0.00    -0.054 OA 
HETATM   33  H   UNL     1      -6.794  20.386  69.808  1.00  0.00     0.000 HD 
ENDBRANCH  29  31
ENDBRANCH  19  29
BRANCH  22  34
HETATM   34  O   UNL     1      -9.401  15.959  66.881  1.00  0.00    -0.211 OA 
BRANCH  34  35
HETATM   35  C   UNL     1      -8.356  16.026  65.900  1.00  0.00     0.331 C  
HETATM   36  C   UNL     1      -8.247  17.362  65.162  1.00  0.00     2.690 C  
HETATM   37  C   UNL     1      -7.796  18.450  66.131  1.00  0.00    -0.207 C  
HETATM   38  C   UNL     1      -6.441  18.036  66.750  1.00  0.00    -0.186 C  
HETATM   39  N   UNL     1      -7.722  19.760  65.466  1.00  0.00    -0.382 NA 
HETATM   40  C   UNL     1      -6.582  16.648  67.402  1.00  0.00    -0.168 C  
HETATM   41  H2  UNL     1      -8.605  20.002  65.015  1.00  0.00     0.000 HD 
HETATM   42  O   UNL     1      -5.987  18.986  67.715  1.00  0.00    -0.197 OA 
HETATM   43  H1  UNL     1      -7.421  20.487  66.114  1.00  0.00     0.000 HD 
HETATM   44  C   UNL     1      -5.224  16.135  67.874  1.00  0.00    -0.135 C  
HETATM   45  H   UNL     1      -5.155  18.731  68.096  1.00  0.00     0.000 HD 
HETATM   46  O   UNL     1      -7.100  15.677  66.486  1.00  0.00    -0.034 OA 
ENDBRANCH  34  35
ENDBRANCH  22  34
ENDBRANCH   2   3
TORSDOF 5
ENDMDL
MODEL      117
REMARK 921   NORMALIZED FREE ENERGY PREDICTED BY IDOCK:    0.83 KCAL/MOL
REMARK 922        TOTAL FREE ENERGY PREDICTED BY IDOCK:    0.03 KCAL/MOL
REMARK 923 INTER-LIGAND FREE ENERGY PREDICTED BY IDOCK:   -0.23 KCAL/MOL
REMARK 924 INTRA-LIGAND FREE ENERGY PREDICTED BY IDOCK:    0.26 KCAL/MOL
REMARK 927      BINDING AFFINITY PREDICTED BY RF-SCORE:    0.00 PKD
ROOT
HETATM    1  C   UNL     1     -12.549  13.306  71.631  1.00  0.00    -0.154 C  
HETATM    2  O   UNL     1     -11.419  13.755  70.888  1.00  0.00     0.079 OA 
ENDROOT
BRANCH   2   3
HETATM    3  C   UNL     1     -11.645  14.156  69.598  1.00  0.00    -0.292 A  
HETATM    4  C   UNL     1     -12.406  15.299  69.302  1.00  0.00    -0.128 A  
HETATM    5  C   UNL     1     -12.617  15.697  67.986  1.00  0.00     1.344 A  
HETATM    6  C   UNL     1     -12.069  14.955  66.951  1.00  0.00    -0.001 A  
HETATM    7  C   UNL     1     -11.322  13.799  67.223  1.00  0.00    -0.343 A  
HETATM    8  C   UNL     1     -11.118  13.378  68.540  1.00  0.00    -0.299 A  
HETATM    9  C   UNL     1     -10.349  12.125  68.768  1.00  0.00    -0.147 C  
HETATM   10  O   UNL     1     -10.224  11.628  69.883  1.00  0.00     0.614 OA 
HETATM   11  C   UNL     1      -9.706  11.421  67.627  1.00  0.00    -0.183 A  
HETATM   12  C   UNL     1      -8.884  10.297  67.859  1.00  0.00    -0.122 A  
HETATM   13  O   UNL     1      -8.627   9.847  69.135  1.00  0.00    -0.135 OA 
HETATM   14  C   UNL     1      -8.268   9.590  66.805  1.00  0.00    -0.113 A  
HETATM   15  H   UNL     1      -8.074   9.091  69.290  1.00  0.00     0.000 HD 
HETATM   16  C   UNL     1      -8.490  10.024  65.475  1.00  0.00    -0.155 A  
HETATM   17  C   UNL     1      -9.269  11.183  65.258  1.00  0.00    -0.198 A  
HETATM   18  C   UNL     1      -7.860   9.291  64.298  1.00  0.00    -0.125 C  
HETATM   19  C   UNL     1      -7.287   7.916  64.654  1.00  0.00    -0.084 C  
HETATM   20  C   UNL     1      -9.896  11.867  66.322  1.00  0.00    -0.246 A  
HETATM   21  O   UNL     1      -9.394  11.698  63.996  1.00  0.00    -0.431 OA 
HETATM   22  C   UNL     1      -7.370   8.396  67.125  1.00  0.00    -0.085 C  
HETATM   23  C   UNL     1     -10.773  13.044  66.079  1.00  0.00    -0.274 C  
HETATM   24  C   UNL     1      -6.465   8.055  65.939  1.00  0.00    -0.045 C  
HETATM   25  O   UNL     1      -8.351   6.972  64.785  1.00  0.00    -0.286 OA 
HETATM   26  H   UNL     1      -9.918  12.477  63.849  1.00  0.00     0.000 HD 
HETATM   27  O   UNL     1     -11.071  13.419  64.951  1.00  0.00    -0.310 OA 
HETATM   28  H   UNL     1      -7.995   6.119  65.005  1.00  0.00     0.000 HD 
BRANCH  19  29
HETATM   29  C   UNL     1      -6.377   7.420  63.517  1.00  0.00    -0.053 C  
HETATM   30  O   UNL     1      -5.617   8.176  62.903  1.00  0.00    -0.069 OA 
BRANCH  29  31
HETATM   31  C   UNL     1      -6.502   5.954  63.104  1.00  0.00    -0.028 C  
HETATM   32  O   UNL     1      -6.139   5.072  64.159  1.00  0.00    -0.021 OA 
HETATM   33  H   UNL     1      -6.217   4.161  63.902  1.00  0.00     0.000 HD 
ENDBRANCH  29  31
ENDBRANCH  19  29
BRANCH  22  34
HETATM   34  O   UNL     1      -8.218   7.288  67.474  1.00  0.00    -0.112 OA 
BRANCH  34  35
HETATM   35  C   UNL     1      -9.627   7.556  67.508  1.00  0.00    -0.142 C  
HETATM   36  C   UNL     1     -10.466   6.728  66.532  1.00  0.00    -0.101 C  
HETATM   37  C   UNL     1     -10.446   5.261  66.951  1.00  0.00    -0.254 C  
HETATM   38  C   UNL     1     -10.986   5.149  68.395  1.00  0.00     0.676 C  
HETATM   39  N   UNL     1     -11.207   4.427  66.009  1.00  0.00    -0.133 NA 
HETATM   40  C   UNL     1     -10.165   6.067  69.320  1.00  0.00    -0.207 C  
HETATM   41  H2  UNL     1     -10.878   4.547  65.051  1.00  0.00     0.000 HD 
HETATM   42  O   UNL     1     -10.940   3.803  68.874  1.00  0.00     2.835 OA 
HETATM   43  H1  UNL     1     -11.193   3.447  66.290  1.00  0.00     0.000 HD 
HETATM   44  C   UNL     1     -10.777   6.108  70.718  1.00  0.00    -0.326 C  
HETATM   45  H   UNL     1     -11.271   3.734  69.762  1.00  0.00     0.000 HD 
HETATM   46  O   UNL     1     -10.128   7.414  68.839  1.00  0.00    -0.175 OA 
ENDBRANCH  34  35
ENDBRANCH  22  34
ENDBRANCH   2   3
TORSDOF 5
ENDMDL
MODEL      118
REMARK 921   NORMALIZED FREE ENERGY PREDICTED BY IDOCK:    0.90 KCAL/MOL
REMARK 922        TOTAL FREE ENERGY PREDICTED BY IDOCK:    0.11 KCAL/MOL
REMARK 923 INTER-LIGAND FREE ENERGY PREDICTED BY IDOCK:   -4.48 KCAL/MOL
REMARK 924 INTRA-LIGAND FREE ENERGY PREDICTED BY IDOCK:    4.59 KCAL/MOL
REMARK 927      BINDING AFFINITY PREDICTED BY RF-SCORE:    0.00 PKD
ROOT
HETATM    1  C   UNL     1     -11.746  15.596  63.852  1.00  0.00     0.281 C  
HETATM    2  O   UNL     1     -11.837  16.617  64.842  1.00  0.00     0.220 OA 
ENDROOT
BRANCH   2   3
HETATM    3  C   UNL     1     -10.677  16.968  65.480  1.00  0.00    -0.138 A  
HETATM    4  C   UNL     1     -10.166  18.275  65.417  1.00  0.00     0.517 A  
HETATM    5  C   UNL     1      -8.991  18.616  66.079  1.00  0.00     0.012 A  
HETATM    6  C   UNL     1      -8.315  17.653  66.812  1.00  0.00    -0.276 A  
HETATM    7  C   UNL     1      -8.796  16.337  66.871  1.00  0.00    -0.242 A  
HETATM    8  C   UNL     1      -9.965  15.977  66.196  1.00  0.00    -0.347 A  
HETATM    9  C   UNL     1     -10.410  14.559  66.265  1.00  0.00    -0.294 C  
HETATM   10  O   UNL     1     -11.358  14.138  65.609  1.00  0.00    -0.309 OA 
HETATM   11  C   UNL     1      -9.697  13.590  67.139  1.00  0.00    -0.244 A  
HETATM   12  C   UNL     1     -10.188  12.275  67.290  1.00  0.00    -0.210 A  
HETATM   13  O   UNL     1     -11.347  11.867  66.668  1.00  0.00    -0.319 OA 
HETATM   14  C   UNL     1      -9.535  11.320  68.097  1.00  0.00    -0.184 A  
HETATM   15  H   UNL     1     -11.677  10.982  66.769  1.00  0.00     0.000 HD 
HETATM   16  C   UNL     1      -8.348  11.698  68.769  1.00  0.00    -0.040 A  
HETATM   17  C   UNL     1      -7.895  13.032  68.656  1.00  0.00    -0.050 A  
HETATM   18  C   UNL     1      -7.594  10.704  69.643  1.00  0.00    -0.100 C  
HETATM   19  C   UNL     1      -8.030   9.248  69.451  1.00  0.00    -0.099 C  
HETATM   20  C   UNL     1      -8.549  13.970  67.828  1.00  0.00    -0.183 A  
HETATM   21  O   UNL     1      -6.826  13.458  69.396  1.00  0.00    -0.237 OA 
HETATM   22  C   UNL     1     -10.132   9.921  68.237  1.00  0.00    -0.161 C  
HETATM   23  C   UNL     1      -8.027  15.353  67.658  1.00  0.00    -0.155 C  
HETATM   24  C   UNL     1      -9.561   9.200  69.460  1.00  0.00    -0.171 C  
HETATM   25  O   UNL     1      -7.474   8.737  68.239  1.00  0.00    -0.089 OA 
HETATM   26  H   UNL     1      -6.521  14.355  69.320  1.00  0.00     0.000 HD 
HETATM   27  O   UNL     1      -6.962  15.717  68.144  1.00  0.00    -0.109 OA 
HETATM   28  H   UNL     1      -7.744   7.834  68.120  1.00  0.00     0.000 HD 
BRANCH  19  29
HETATM   29  C   UNL     1      -7.485   8.384  70.601  1.00  0.00    -0.065 C  
HETATM   30  O   UNL     1      -6.954   8.877  71.602  1.00  0.00    -0.146 OA 
BRANCH  29  31
HETATM   31  C   UNL     1      -7.545   6.867  70.431  1.00  0.00    -0.088 C  
HETATM   32  O   UNL     1      -6.719   6.193  71.373  1.00  0.00    -0.052 OA 
HETATM   33  H   UNL     1      -6.757   5.250  71.267  1.00  0.00     0.000 HD 
ENDBRANCH  29  31
ENDBRANCH  19  29
BRANCH  22  34
HETATM   34  O   UNL     1      -9.853   9.199  67.024  1.00  0.00    -0.176 OA 
BRANCH  34  35
HETATM   35  C   UNL     1      -8.534   9.356  66.484  1.00  0.00    -0.133 C  
HETATM   36  C   UNL     1      -7.982   8.128  65.756  1.00  0.00    -0.105 C  
HETATM   37  C   UNL     1      -8.783   7.881  64.482  1.00  0.00     0.329 C  
HETATM   38  C   UNL     1      -8.708   9.144  63.593  1.00  0.00    -0.125 C  
HETATM   39  N   UNL     1      -8.309   6.681  63.777  1.00  0.00    -0.334 NA 
HETATM   40  C   UNL     1      -9.190  10.364  64.400  1.00  0.00    -0.251 C  
HETATM   41  H2  UNL     1      -8.312   5.863  64.387  1.00  0.00     0.000 HD 
HETATM   42  O   UNL     1      -9.488   9.003  62.405  1.00  0.00    -0.529 OA 
HETATM   43  H1  UNL     1      -8.845   6.516  62.926  1.00  0.00     0.000 HD 
HETATM   44  C   UNL     1      -8.970  11.652  63.609  1.00  0.00     0.284 C  
HETATM   45  H   UNL     1      -9.442   9.779  61.859  1.00  0.00     0.000 HD 
HETATM   46  O   UNL     1      -8.479  10.504  65.634  1.00  0.00    -0.165 OA 
ENDBRANCH  34  35
ENDBRANCH  22  34
ENDBRANCH   2   3
TORSDOF 5
ENDMDL
MODEL      119
REMARK 921   NORMALIZED FREE ENERGY PREDICTED BY IDOCK:    1.48 KCAL/MOL
REMARK 922        TOTAL FREE ENERGY PREDICTED BY IDOCK:    0.86 KCAL/MOL
REMARK 923 INTER-LIGAND FREE ENERGY PREDICTED BY IDOCK:   -4.33 KCAL/MOL
REMARK 924 INTRA-LIGAND FREE ENERGY PREDICTED BY IDOCK:    5.19 KCAL/MOL
REMARK 927      BINDING AFFINITY PREDICTED BY RF-SCORE:    0.00 PKD
ROOT
HETATM    1  C   UNL     1     -10.940   4.014  71.307  1.00  0.00     1.435 C  
HETATM    2  O   UNL     1      -9.658   3.574  70.869  1.00  0.00    -0.156 OA 
ENDROOT
BRANCH   2   3
HETATM    3  C   UNL     1      -9.473   3.449  69.517  1.00  0.00    -0.149 A  
HETATM    4  C   UNL     1      -9.285   2.195  68.911  1.00  0.00    -0.215 A  
HETATM    5  C   UNL     1      -9.108   2.086  67.536  1.00  0.00    -0.187 A  
HETATM    6  C   UNL     1      -9.117   3.229  66.752  1.00  0.00    -0.186 A  
HETATM    7  C   UNL     1      -9.282   4.492  67.338  1.00  0.00    -0.154 A  
HETATM    8  C   UNL     1      -9.443   4.618  68.721  1.00  0.00    -0.214 A  
HETATM    9  C   UNL     1      -9.579   5.985  69.293  1.00  0.00    -0.136 C  
HETATM   10  O   UNL     1      -9.608   6.188  70.503  1.00  0.00    -0.166 OA 
HETATM   11  C   UNL     1      -9.674   7.167  68.396  1.00  0.00    -0.143 A  
HETATM   12  C   UNL     1      -9.915   8.449  68.936  1.00  0.00    -0.187 A  
HETATM   13  O   UNL     1     -10.104   8.635  70.288  1.00  0.00    -0.181 OA 
HETATM   14  C   UNL     1      -9.997   9.600  68.124  1.00  0.00    -0.185 A  
HETATM   15  H   UNL     1     -10.266   9.498  70.650  1.00  0.00     0.000 HD 
HETATM   16  C   UNL     1      -9.825   9.457  66.726  1.00  0.00    -0.280 A  
HETATM   17  C   UNL     1      -9.639   8.163  66.190  1.00  0.00    -0.118 A  
HETATM   18  C   UNL     1      -9.891  10.667  65.803  1.00  0.00    -0.296 C  
HETATM   19  C   UNL     1      -9.815  12.013  66.531  1.00  0.00    -0.209 C  
HETATM   20  C   UNL     1      -9.539   7.024  67.018  1.00  0.00    -0.199 A  
HETATM   21  O   UNL     1      -9.599   7.981  64.834  1.00  0.00     0.427 OA 
HETATM   22  C   UNL     1     -10.285  10.955  68.768  1.00  0.00    -0.196 C  
HETATM   23  C   UNL     1      -9.272   5.674  66.454  1.00  0.00    -0.152 C  
HETATM   24  C   UNL     1     -10.771  11.966  67.727  1.00  0.00    -0.243 C  
HETATM   25  O   UNL     1      -8.465  12.273  66.920  1.00  0.00    -0.187 OA 
HETATM   26  H   UNL     1      -9.473   7.111  64.474  1.00  0.00     0.000 HD 
HETATM   27  O   UNL     1      -9.031   5.496  65.265  1.00  0.00    -0.146 OA 
HETATM   28  H   UNL     1      -8.419  13.107  67.371  1.00  0.00     0.000 HD 
BRANCH  19  29
HETATM   29  C   UNL     1     -10.241  13.145  65.581  1.00  0.00    -0.286 C  
HETATM   30  O   UNL     1     -10.121  14.338  65.881  1.00  0.00    -0.300 OA 
BRANCH  29  31
HETATM   31  C   UNL     1     -10.906  12.746  64.264  1.00  0.00    -0.390 C  
HETATM   32  O   UNL     1     -11.771  13.765  63.776  1.00  0.00    -0.642 OA 
HETATM   33  H   UNL     1     -12.184  13.516  62.958  1.00  0.00     0.000 HD 
ENDBRANCH  29  31
ENDBRANCH  19  29
BRANCH  22  34
HETATM   34  O   UNL     1      -9.080  11.402  69.413  1.00  0.00     0.226 OA 
BRANCH  34  35
HETATM   35  C   UNL     1      -7.857  11.168  68.700  1.00  0.00    -0.138 C  
HETATM   36  C   UNL     1      -6.660  11.993  69.178  1.00  0.00    -0.107 C  
HETATM   37  C   UNL     1      -6.259  11.553  70.582  1.00  0.00     0.222 C  
HETATM   38  C   UNL     1      -5.928  10.043  70.555  1.00  0.00    -0.092 C  
HETATM   39  N   UNL     1      -5.138  12.356  71.093  1.00  0.00    -0.142 NA 
HETATM   40  C   UNL     1      -7.130   9.267  69.984  1.00  0.00    -0.070 C  
HETATM   41  H2  UNL     1      -5.345  13.354  71.058  1.00  0.00     0.000 HD 
HETATM   42  O   UNL     1      -5.599   9.549  71.855  1.00  0.00    -0.076 OA 
HETATM   43  H1  UNL     1      -4.870  12.061  72.032  1.00  0.00     0.000 HD 
HETATM   44  C   UNL     1      -6.775   7.795  69.787  1.00  0.00    -0.039 C  
HETATM   45  H   UNL     1      -5.396   8.622  71.839  1.00  0.00     0.000 HD 
HETATM   46  O   UNL     1      -7.536   9.774  68.709  1.00  0.00    -0.074 OA 
ENDBRANCH  34  35
ENDBRANCH  22  34
ENDBRANCH   2   3
TORSDOF 5
ENDMDL
MODEL      120
REMARK 921   NORMALIZED FREE ENERGY PREDICTED BY IDOCK:    2.21 KCAL/MOL
REMARK 922        TOTAL FREE ENERGY PREDICTED BY IDOCK:    1.81 KCAL/MOL
REMARK 923 INTER-LIGAND FREE ENERGY PREDICTED BY IDOCK:   -3.62 KCAL/MOL
REMARK 924 INTRA-LIGAND FREE ENERGY PREDICTED BY IDOCK:    5.43 KCAL/MOL
REMARK 927      BINDING AFFINITY PREDICTED BY RF-SCORE:    0.00 PKD
ROOT
HETATM    1  C   UNL     1     -10.766   4.521  67.349  1.00  0.00     0.778 C  
HETATM    2  O   UNL     1     -10.034   3.652  66.489  1.00  0.00    -0.071 OA 
ENDROOT
BRANCH   2   3
HETATM    3  C   UNL     1      -9.478   4.212  65.368  1.00  0.00    -0.173 A  
HETATM    4  C   UNL     1      -9.489   3.548  64.130  1.00  0.00    -0.142 A  
HETATM    5  C   UNL     1      -8.928   4.135  63.000  1.00  0.00    -0.118 A  
HETATM    6  C   UNL     1      -8.352   5.393  63.096  1.00  0.00    -0.101 A  
HETATM    7  C   UNL     1      -8.312   6.064  64.328  1.00  0.00    -0.003 A  
HETATM    8  C   UNL     1      -8.855   5.478  65.474  1.00  0.00    -0.147 A  
HETATM    9  C   UNL     1      -8.755   6.219  66.760  1.00  0.00    -0.117 C  
HETATM   10  O   UNL     1      -9.102   5.726  67.829  1.00  0.00    -0.109 OA 
HETATM   11  C   UNL     1      -8.208   7.602  66.788  1.00  0.00    -0.124 A  
HETATM   12  C   UNL     1      -8.217   8.345  67.988  1.00  0.00    -0.127 A  
HETATM   13  O   UNL     1      -8.758   7.830  69.146  1.00  0.00    -0.137 OA 
HETATM   14  C   UNL     1      -7.696   9.653  68.063  1.00  0.00    -0.086 A  
HETATM   15  H   UNL     1      -8.764   8.330  69.954  1.00  0.00     0.000 HD 
HETATM   16  C   UNL     1      -7.143  10.231  66.894  1.00  0.00    -0.092 A  
HETATM   17  C   UNL     1      -7.188   9.501  65.686  1.00  0.00    -0.094 A  
HETATM   18  C   UNL     1      -6.554  11.635  66.921  1.00  0.00    -0.129 C  
HETATM   19  C   UNL     1      -6.317  12.187  68.330  1.00  0.00    -0.053 C  
HETATM   20  C   UNL     1      -7.695   8.184  65.632  1.00  0.00    -0.090 A  
HETATM   21  O   UNL     1      -6.779  10.083  64.517  1.00  0.00    -0.120 OA 
HETATM   22  C   UNL     1      -7.758  10.413  69.387  1.00  0.00    -0.158 C  
HETATM   23  C   UNL     1      -7.676   7.395  64.371  1.00  0.00    -0.120 C  
HETATM   24  C   UNL     1      -7.569  11.915  69.169  1.00  0.00     0.115 C  
HETATM   25  O   UNL     1      -5.145  11.591  68.888  1.00  0.00    -0.044 OA 
HETATM   26  H   UNL     1      -6.810   9.593  63.704  1.00  0.00     0.000 HD 
HETATM   27  O   UNL     1      -7.137   7.804  63.349  1.00  0.00    -0.069 OA 
HETATM   28  H   UNL     1      -4.999  11.934  69.762  1.00  0.00     0.000 HD 
BRANCH  19  29
HETATM   29  C   UNL     1      -6.068  13.703  68.262  1.00  0.00    -0.108 C  
HETATM   30  O   UNL     1      -5.252  14.203  67.479  1.00  0.00    -0.329 OA 
BRANCH  29  31
HETATM   31  C   UNL     1      -6.810  14.585  69.265  1.00  0.00    -0.134 C  
HETATM   32  O   UNL     1      -6.033  14.833  70.431  1.00  0.00    -0.143 OA 
HETATM   33  H   UNL     1      -6.495  15.381  71.054  1.00  0.00     0.000 HD 
ENDBRANCH  29  31
ENDBRANCH  19  29
BRANCH  22  34
HETATM   34  O   UNL     1      -6.741   9.876  70.252  1.00  0.00    -0.094 OA 
BRANCH  34  35
HETATM   35  C   UNL     1      -6.824   8.470  70.528  1.00  0.00    -0.039 C  
HETATM   36  C   UNL     1      -5.818   7.953  71.558  1.00  0.00    -0.035 C  
HETATM   37  C   UNL     1      -6.142   8.532  72.932  1.00  0.00    -0.084 C  
HETATM   38  C   UNL     1      -7.589   8.137  73.309  1.00  0.00    -0.146 C  
HETATM   39  N   UNL     1      -5.168   8.091  73.941  1.00  0.00    -0.048 NA 
HETATM   40  C   UNL     1      -8.550   8.602  72.200  1.00  0.00    -0.120 C  
HETATM   41  H2  UNL     1      -4.212   8.308  73.659  1.00  0.00     0.000 HD 
HETATM   42  O   UNL     1      -7.981   8.698  74.563  1.00  0.00    -0.384 OA 
HETATM   43  H1  UNL     1      -5.385   8.478  74.858  1.00  0.00     0.000 HD 
HETATM   44  C   UNL     1      -9.962   8.082  72.459  1.00  0.00    -0.338 C  
HETATM   45  H   UNL     1      -8.870   8.456  74.795  1.00  0.00     0.000 HD 
HETATM   46  O   UNL     1      -8.155   8.117  70.912  1.00  0.00    -0.090 OA 
ENDBRANCH  34  35
ENDBRANCH  22  34
ENDBRANCH   2   3
TORSDOF 5
ENDMDL
MODEL      121
REMARK 921   NORMALIZED FREE ENERGY PREDICTED BY IDOCK:    2.43 KCAL/MOL
REMARK 922        TOTAL FREE ENERGY PREDICTED BY IDOCK:    2.09 KCAL/MOL
REMARK 923 INTER-LIGAND FREE ENERGY PREDICTED BY IDOCK:    0.56 KCAL/MOL
REMARK 924 INTRA-LIGAND FREE ENERGY PREDICTED BY IDOCK:    1.53 KCAL/MOL
REMARK 927      BINDING AFFINITY PREDICTED BY RF-SCORE:    0.00 PKD
ROOT
HETATM    1  C   UNL     1     -11.158  17.449  65.382  1.00  0.00     0.312 C  
HETATM    2  O   UNL     1     -10.578  16.167  65.161  1.00  0.00    -0.538 OA 
ENDROOT
BRANCH   2   3
HETATM    3  C   UNL     1     -11.415  15.085  65.236  1.00  0.00    -0.308 A  
HETATM    4  C   UNL     1     -12.771  15.175  64.879  1.00  0.00     0.346 A  
HETATM    5  C   UNL     1     -13.605  14.064  64.952  1.00  0.00     1.406 A  
HETATM    6  C   UNL     1     -13.092  12.851  65.384  1.00  0.00     0.390 A  
HETATM    7  C   UNL     1     -11.746  12.744  65.766  1.00  0.00    -0.449 A  
HETATM    8  C   UNL     1     -10.902  13.856  65.714  1.00  0.00    -0.289 A  
HETATM    9  C   UNL     1      -9.493  13.694  66.164  1.00  0.00    -0.146 C  
HETATM   10  O   UNL     1      -8.722  14.643  66.258  1.00  0.00    -0.093 OA 
HETATM   11  C   UNL     1      -8.973  12.349  66.530  1.00  0.00    -0.145 A  
HETATM   12  C   UNL     1      -7.608  12.179  66.848  1.00  0.00    -0.029 A  
HETATM   13  O   UNL     1      -6.722  13.232  66.794  1.00  0.00    -0.293 OA 
HETATM   14  C   UNL     1      -7.076  10.925  67.216  1.00  0.00    -0.097 A  
HETATM   15  H   UNL     1      -5.804  13.117  67.008  1.00  0.00     0.000 HD 
HETATM   16  C   UNL     1      -7.945   9.809  67.271  1.00  0.00    -0.106 A  
HETATM   17  C   UNL     1      -9.297   9.979  66.897  1.00  0.00    -0.159 A  
HETATM   18  C   UNL     1      -7.427   8.435  67.674  1.00  0.00    -0.094 C  
HETATM   19  C   UNL     1      -6.036   8.454  68.313  1.00  0.00    -0.046 C  
HETATM   20  C   UNL     1      -9.819  11.244  66.551  1.00  0.00    -0.239 A  
HETATM   21  O   UNL     1     -10.128   8.894  66.817  1.00  0.00    -0.237 OA 
HETATM   22  C   UNL     1      -5.585  10.803  67.525  1.00  0.00    -0.044 C  
HETATM   23  C   UNL     1     -11.259  11.429  66.228  1.00  0.00    -0.161 C  
HETATM   24  C   UNL     1      -5.128   9.344  67.460  1.00  0.00    -0.037 C  
HETATM   25  O   UNL     1      -6.135   8.910  69.664  1.00  0.00    -0.038 OA 
HETATM   26  H   UNL     1     -11.037   9.008  66.566  1.00  0.00     0.000 HD 
HETATM   27  O   UNL     1     -12.078  10.523  66.337  1.00  0.00     1.551 OA 
HETATM   28  H   UNL     1      -5.272   8.922  70.060  1.00  0.00     0.000 HD 
BRANCH  19  29
HETATM   29  C   UNL     1      -5.460   7.029  68.355  1.00  0.00    -0.020 C  
HETATM   30  O   UNL     1      -5.131   6.420  67.332  1.00  0.00    -0.004 OA 
BRANCH  29  31
HETATM   31  C   UNL     1      -5.383   6.340  69.717  1.00  0.00    -0.013 C  
HETATM   32  O   UNL     1      -6.672   5.997  70.213  1.00  0.00    -0.046 OA 
HETATM   33  H   UNL     1      -6.623   5.569  71.060  1.00  0.00     0.000 HD 
ENDBRANCH  29  31
ENDBRANCH  19  29
BRANCH  22  34
HETATM   34  O   UNL     1      -5.356  11.368  68.827  1.00  0.00    -0.044 OA 
BRANCH  34  35
HETATM   35  C   UNL     1      -6.523  11.599  69.630  1.00  0.00    -0.124 C  
HETATM   36  C   UNL     1      -6.311  11.449  71.138  1.00  0.00     1.177 C  
HETATM   37  C   UNL     1      -5.396  12.561  71.642  1.00  0.00     0.050 C  
HETATM   38  C   UNL     1      -6.032  13.926  71.295  1.00  0.00    -0.110 C  
HETATM   39  N   UNL     1      -5.133  12.423  73.082  1.00  0.00    -0.322 NA 
HETATM   40  C   UNL     1      -6.306  13.991  69.781  1.00  0.00    -0.134 C  
HETATM   41  H2  UNL     1      -4.762  11.500  73.310  1.00  0.00     0.000 HD 
HETATM   42  O   UNL     1      -5.195  15.016  71.688  1.00  0.00    -0.145 OA 
HETATM   43  H1  UNL     1      -4.521  13.166  73.419  1.00  0.00     0.000 HD 
HETATM   44  C   UNL     1      -7.087  15.255  69.430  1.00  0.00    -0.191 C  
HETATM   45  H   UNL     1      -5.586  15.855  71.474  1.00  0.00     0.000 HD 
HETATM   46  O   UNL     1      -7.087  12.878  69.331  1.00  0.00     0.027 OA 
ENDBRANCH  34  35
ENDBRANCH  22  34
ENDBRANCH   2   3
TORSDOF 5
ENDMDL
MODEL      122
REMARK 921   NORMALIZED FREE ENERGY PREDICTED BY IDOCK:    2.53 KCAL/MOL
REMARK 922        TOTAL FREE ENERGY PREDICTED BY IDOCK:    2.23 KCAL/MOL
REMARK 923 INTER-LIGAND FREE ENERGY PREDICTED BY IDOCK:   -5.33 KCAL/MOL
REMARK 924 INTRA-LIGAND FREE ENERGY PREDICTED BY IDOCK:    7.56 KCAL/MOL
REMARK 927      BINDING AFFINITY PREDICTED BY RF-SCORE:    0.00 PKD
ROOT
HETATM    1  C   UNL     1     -11.138  15.471  64.393  1.00  0.00    -0.156 C  
HETATM    2  O   UNL     1     -10.295  14.366  64.706  1.00  0.00    -0.431 OA 
ENDROOT
BRANCH   2   3
HETATM    3  C   UNL     1      -9.389  14.543  65.718  1.00  0.00     0.000 A  
HETATM    4  C   UNL     1      -8.773  15.785  65.948  1.00  0.00     0.009 A  
HETATM    5  C   UNL     1      -7.862  15.949  66.986  1.00  0.00    -0.267 A  
HETATM    6  C   UNL     1      -7.556  14.873  67.805  1.00  0.00    -0.171 A  
HETATM    7  C   UNL     1      -8.143  13.619  67.580  1.00  0.00    -0.190 A  
HETATM    8  C   UNL     1      -9.046  13.436  66.529  1.00  0.00    -0.128 A  
HETATM    9  C   UNL     1      -9.612  12.076  66.315  1.00  0.00    -0.231 C  
HETATM   10  O   UNL     1     -10.319  11.806  65.349  1.00  0.00    -0.247 OA 
HETATM   11  C   UNL     1      -9.319  10.982  67.279  1.00  0.00    -0.167 A  
HETATM   12  C   UNL     1      -9.946   9.725  67.136  1.00  0.00    -0.198 A  
HETATM   13  O   UNL     1     -10.861   9.489  66.134  1.00  0.00     0.158 OA 
HETATM   14  C   UNL     1      -9.686   8.655  68.018  1.00  0.00    -0.184 A  
HETATM   15  H   UNL     1     -11.282   8.643  66.039  1.00  0.00     0.000 HD 
HETATM   16  C   UNL     1      -8.763   8.854  69.073  1.00  0.00    -0.136 A  
HETATM   17  C   UNL     1      -8.184  10.131  69.240  1.00  0.00    -0.156 A  
HETATM   18  C   UNL     1      -8.435   7.729  70.047  1.00  0.00    -0.135 C  
HETATM   19  C   UNL     1      -8.908   6.347  69.587  1.00  0.00    -0.137 C  
HETATM   20  C   UNL     1      -8.439  11.186  68.337  1.00  0.00    -0.151 A  
HETATM   21  O   UNL     1      -7.390  10.388  70.325  1.00  0.00    -0.338 OA 
HETATM   22  C   UNL     1     -10.415   7.326  67.823  1.00  0.00    -0.228 C  
HETATM   23  C   UNL     1      -7.770  12.508  68.478  1.00  0.00    -0.113 C  
HETATM   24  C   UNL     1     -10.352   6.473  69.091  1.00  0.00    -0.226 C  
HETATM   25  O   UNL     1      -8.026   5.849  68.579  1.00  0.00    -0.100 OA 
HETATM   26  H   UNL     1      -7.000  11.247  70.437  1.00  0.00     0.000 HD 
HETATM   27  O   UNL     1      -6.902  12.718  69.316  1.00  0.00    -0.089 OA 
HETATM   28  H   UNL     1      -8.319   4.992  68.294  1.00  0.00     0.000 HD 
BRANCH  19  29
HETATM   29  C   UNL     1      -8.856   5.359  70.764  1.00  0.00    -0.133 C  
HETATM   30  O   UNL     1      -8.299   5.634  71.832  1.00  0.00    -0.118 OA 
BRANCH  29  31
HETATM   31  C   UNL     1      -9.452   3.969  70.544  1.00  0.00    -0.178 C  
HETATM   32  O   UNL     1      -9.290   3.528  69.201  1.00  0.00    -0.150 OA 
HETATM   33  H   UNL     1      -9.661   2.664  69.065  1.00  0.00     0.000 HD 
ENDBRANCH  29  31
ENDBRANCH  19  29
BRANCH  22  34
HETATM   34  O   UNL     1      -9.813   6.652  66.705  1.00  0.00    -0.173 OA 
BRANCH  34  35
HETATM   35  C   UNL     1      -8.921   7.436  65.900  1.00  0.00    -0.077 C  
HETATM   36  C   UNL     1      -7.814   8.156  66.674  1.00  0.00    -0.094 C  
HETATM   37  C   UNL     1      -6.845   7.134  67.258  1.00  0.00    -0.073 C  
HETATM   38  C   UNL     1      -6.264   6.283  66.105  1.00  0.00    -0.037 C  
HETATM   39  N   UNL     1      -5.791   7.788  68.047  1.00  0.00    -0.039 NA 
HETATM   40  C   UNL     1      -7.419   5.652  65.305  1.00  0.00    -0.074 C  
HETATM   41  H2  UNL     1      -6.184   8.389  68.772  1.00  0.00     0.000 HD 
HETATM   42  O   UNL     1      -5.389   5.262  66.589  1.00  0.00    -0.008 OA 
HETATM   43  H1  UNL     1      -5.143   7.104  68.437  1.00  0.00     0.000 HD 
HETATM   44  C   UNL     1      -6.887   4.944  64.061  1.00  0.00    -0.048 C  
HETATM   45  H   UNL     1      -5.033   4.739  65.880  1.00  0.00     0.000 HD 
HETATM   46  O   UNL     1      -8.358   6.635  64.857  1.00  0.00    -0.120 OA 
ENDBRANCH  34  35
ENDBRANCH  22  34
ENDBRANCH   2   3
TORSDOF 5
ENDMDL
MODEL      123
REMARK 921   NORMALIZED FREE ENERGY PREDICTED BY IDOCK:    3.13 KCAL/MOL
REMARK 922        TOTAL FREE ENERGY PREDICTED BY IDOCK:    3.00 KCAL/MOL
REMARK 923 INTER-LIGAND FREE ENERGY PREDICTED BY IDOCK:    0.53 KCAL/MOL
REMARK 924 INTRA-LIGAND FREE ENERGY PREDICTED BY IDOCK:    2.47 KCAL/MOL
REMARK 927      BINDING AFFINITY PREDICTED BY RF-SCORE:    0.00 PKD
ROOT
HETATM    1  C   UNL     1      -8.664  14.025  69.477  1.00  0.00     0.795 C  
HETATM    2  O   UNL     1      -9.678  13.466  68.647  1.00  0.00    -0.183 OA 
ENDROOT
BRANCH   2   3
HETATM    3  C   UNL     1      -9.262  12.720  67.576  1.00  0.00    -0.191 A  
HETATM    4  C   UNL     1      -9.147  13.274  66.290  1.00  0.00     0.011 A  
HETATM    5  C   UNL     1      -8.715  12.504  65.216  1.00  0.00     1.249 A  
HETATM    6  C   UNL     1      -8.393  11.170  65.416  1.00  0.00     0.096 A  
HETATM    7  C   UNL     1      -8.521  10.591  66.687  1.00  0.00    -0.129 A  
HETATM    8  C   UNL     1      -8.971  11.349  67.771  1.00  0.00    -0.147 A  
HETATM    9  C   UNL     1      -9.121  10.675  69.089  1.00  0.00    -0.139 C  
HETATM   10  O   UNL     1      -9.618  11.237  70.060  1.00  0.00     0.971 OA 
HETATM   11  C   UNL     1      -8.674   9.267  69.266  1.00  0.00    -0.141 A  
HETATM   12  C   UNL     1      -8.713   8.666  70.544  1.00  0.00    -0.162 A  
HETATM   13  O   UNL     1      -9.127   9.368  71.654  1.00  0.00    -0.254 OA 
HETATM   14  C   UNL     1      -8.314   7.330  70.754  1.00  0.00    -0.124 A  
HETATM   15  H   UNL     1      -9.153   8.963  72.513  1.00  0.00     0.000 HD 
HETATM   16  C   UNL     1      -7.866   6.572  69.645  1.00  0.00    -0.111 A  
HETATM   17  C   UNL     1      -7.779   7.200  68.382  1.00  0.00    -0.120 A  
HETATM   18  C   UNL     1      -7.436   5.121  69.812  1.00  0.00    -0.061 C  
HETATM   19  C   UNL     1      -7.843   4.499  71.151  1.00  0.00    -0.077 C  
HETATM   20  C   UNL     1      -8.202   8.532  68.183  1.00  0.00    -0.120 A  
HETATM   21  O   UNL     1      -7.230   6.532  67.321  1.00  0.00    -0.074 OA 
HETATM   22  C   UNL     1      -8.357   6.746  72.165  1.00  0.00    -0.107 C  
HETATM   23  C   UNL     1      -8.174   9.164  66.837  1.00  0.00    -0.116 C  
HETATM   24  C   UNL     1      -7.492   5.488  72.267  1.00  0.00    -0.096 C  
HETATM   25  O   UNL     1      -9.234   4.174  71.125  1.00  0.00    -0.114 OA 
HETATM   26  H   UNL     1      -7.171   6.953  66.471  1.00  0.00     0.000 HD 
HETATM   27  O   UNL     1      -7.877   8.539  65.825  1.00  0.00    -0.094 OA 
HETATM   28  H   UNL     1      -9.486   3.788  71.956  1.00  0.00     0.000 HD 
BRANCH  19  29
HETATM   29  C   UNL     1      -7.073   3.186  71.372  1.00  0.00    -0.032 C  
HETATM   30  O   UNL     1      -5.871   3.074  71.110  1.00  0.00    -0.013 OA 
BRANCH  29  31
HETATM   31  C   UNL     1      -7.871   1.975  71.855  1.00  0.00    -0.045 C  
HETATM   32  O   UNL     1      -8.267   2.108  73.215  1.00  0.00    -0.050 OA 
HETATM   33  H   UNL     1      -8.763   1.356  73.515  1.00  0.00     0.000 HD 
ENDBRANCH  29  31
ENDBRANCH  19  29
BRANCH  22  34
HETATM   34  O   UNL     1      -9.731   6.466  72.485  1.00  0.00    -0.163 OA 
BRANCH  34  35
HETATM   35  C   UNL     1     -10.594   6.183  71.374  1.00  0.00    -0.243 C  
HETATM   36  C   UNL     1     -11.782   5.272  71.693  1.00  0.00     0.655 C  
HETATM   37  C   UNL     1     -12.749   5.994  72.626  1.00  0.00     0.470 C  
HETATM   38  C   UNL     1     -13.210   7.305  71.949  1.00  0.00    -0.233 C  
HETATM   39  N   UNL     1     -13.883   5.131  72.990  1.00  0.00     0.833 NA 
HETATM   40  C   UNL     1     -11.975   8.144  71.569  1.00  0.00    -0.298 C  
HETATM   41  H2  UNL     1     -13.568   4.246  73.388  1.00  0.00     0.000 HD 
HETATM   42  O   UNL     1     -14.075   8.063  72.796  1.00  0.00    -0.478 OA 
HETATM   43  H1  UNL     1     -14.529   5.614  73.614  1.00  0.00     0.000 HD 
HETATM   44  C   UNL     1     -12.387   9.364  70.749  1.00  0.00    -0.185 C  
HETATM   45  H   UNL     1     -14.358   8.869  72.380  1.00  0.00     0.000 HD 
HETATM   46  O   UNL     1     -11.047   7.399  70.774  1.00  0.00    -0.253 OA 
ENDBRANCH  34  35
ENDBRANCH  22  34
ENDBRANCH   2   3
TORSDOF 5
ENDMDL
MODEL      124
REMARK 921   NORMALIZED FREE ENERGY PREDICTED BY IDOCK:    3.21 KCAL/MOL
REMARK 922        TOTAL FREE ENERGY PREDICTED BY IDOCK:    3.10 KCAL/MOL
REMARK 923 INTER-LIGAND FREE ENERGY PREDICTED BY IDOCK:   -3.40 KCAL/MOL
REMARK 924 INTRA-LIGAND FREE ENERGY PREDICTED BY IDOCK:    6.50 KCAL/MOL
REMARK 927      BINDING AFFINITY PREDICTED BY RF-SCORE:    0.00 PKD
ROOT
HETATM    1  C   UNL     1     -10.956   4.643  65.844  1.00  0.00     0.228 C  
HETATM    2  O   UNL     1      -9.810   4.975  65.066  1.00  0.00     0.032 OA 
ENDROOT
BRANCH   2   3
HETATM    3  C   UNL     1      -8.596   4.938  65.700  1.00  0.00    -0.131 A  
HETATM    4  C   UNL     1      -7.847   3.753  65.792  1.00  0.00    -0.090 A  
HETATM    5  C   UNL     1      -6.612   3.736  66.432  1.00  0.00    -0.041 A  
HETATM    6  C   UNL     1      -6.113   4.904  66.988  1.00  0.00    -0.031 A  
HETATM    7  C   UNL     1      -6.854   6.093  66.926  1.00  0.00    -0.062 A  
HETATM    8  C   UNL     1      -8.104   6.120  66.302  1.00  0.00    -0.113 A  
HETATM    9  C   UNL     1      -8.862   7.401  66.296  1.00  0.00    -0.159 C  
HETATM   10  O   UNL     1     -10.010   7.480  65.872  1.00  0.00     0.249 OA 
HETATM   11  C   UNL     1      -8.238   8.643  66.826  1.00  0.00    -0.108 A  
HETATM   12  C   UNL     1      -8.915   9.878  66.717  1.00  0.00    -0.138 A  
HETATM   13  O   UNL     1     -10.139   9.973  66.094  1.00  0.00    -0.245 OA 
HETATM   14  C   UNL     1      -8.368  11.077  67.220  1.00  0.00    -0.125 A  
HETATM   15  H   UNL     1     -10.594  10.804  66.021  1.00  0.00     0.000 HD 
HETATM   16  C   UNL     1      -7.103  11.033  67.856  1.00  0.00    -0.081 A  
HETATM   17  C   UNL     1      -6.411   9.802  67.910  1.00  0.00    -0.056 A  
HETATM   18  C   UNL     1      -6.472  12.295  68.428  1.00  0.00    -0.057 C  
HETATM   19  C   UNL     1      -7.438  13.477  68.550  1.00  0.00    -0.122 C  
HETATM   20  C   UNL     1      -6.981   8.607  67.421  1.00  0.00    -0.078 A  
HETATM   21  O   UNL     1      -5.135   9.755  68.403  1.00  0.00    -0.034 OA 
HETATM   22  C   UNL     1      -9.140  12.384  67.049  1.00  0.00    -0.207 C  
HETATM   23  C   UNL     1      -6.276   7.303  67.545  1.00  0.00    -0.046 C  
HETATM   24  C   UNL     1      -8.222  13.594  67.239  1.00  0.00    -0.164 C  
HETATM   25  O   UNL     1      -8.289  13.286  69.681  1.00  0.00     0.481 OA 
HETATM   26  H   UNL     1      -4.669   8.928  68.439  1.00  0.00     0.000 HD 
HETATM   27  O   UNL     1      -5.221   7.182  68.157  1.00  0.00    -0.018 OA 
HETATM   28  H   UNL     1      -8.888  14.019  69.756  1.00  0.00     0.000 HD 
BRANCH  19  29
HETATM   29  C   UNL     1      -6.648  14.774  68.790  1.00  0.00    -0.088 C  
HETATM   30  O   UNL     1      -6.423  15.587  67.886  1.00  0.00    -0.126 OA 
BRANCH  29  31
HETATM   31  C   UNL     1      -6.065  14.996  70.185  1.00  0.00    -0.156 C  
HETATM   32  O   UNL     1      -6.366  13.919  71.064  1.00  0.00    -0.432 OA 
HETATM   33  H   UNL     1      -6.004  14.057  71.931  1.00  0.00     0.000 HD 
ENDBRANCH  29  31
ENDBRANCH  19  29
BRANCH  22  34
HETATM   34  O   UNL     1     -10.218  12.388  68.001  1.00  0.00    -0.206 OA 
BRANCH  34  35
HETATM   35  C   UNL     1     -11.231  11.390  67.811  1.00  0.00    -0.283 C  
HETATM   36  C   UNL     1     -10.769   9.948  68.038  1.00  0.00    -0.296 C  
HETATM   37  C   UNL     1     -10.437   9.739  69.512  1.00  0.00    -0.232 C  
HETATM   38  C   UNL     1     -11.689  10.070  70.357  1.00  0.00    -0.286 C  
HETATM   39  N   UNL     1      -9.947   8.376  69.761  1.00  0.00    -0.188 NA 
HETATM   40  C   UNL     1     -12.165  11.497  70.027  1.00  0.00    -0.278 C  
HETATM   41  H2  UNL     1      -9.153   8.148  69.161  1.00  0.00     0.000 HD 
HETATM   42  O   UNL     1     -11.430   9.952  71.757  1.00  0.00    -0.265 OA 
HETATM   43  H1  UNL     1      -9.725   8.237  70.746  1.00  0.00     0.000 HD 
HETATM   44  C   UNL     1     -13.494  11.793  70.716  1.00  0.00     0.949 C  
HETATM   45  H   UNL     1     -12.199  10.155  72.276  1.00  0.00     0.000 HD 
HETATM   46  O   UNL     1     -12.372  11.680  68.622  1.00  0.00    -0.394 OA 
ENDBRANCH  34  35
ENDBRANCH  22  34
ENDBRANCH   2   3
TORSDOF 5
ENDMDL
MODEL      125
REMARK 921   NORMALIZED FREE ENERGY PREDICTED BY IDOCK:    3.78 KCAL/MOL
REMARK 922        TOTAL FREE ENERGY PREDICTED BY IDOCK:    3.83 KCAL/MOL
REMARK 923 INTER-LIGAND FREE ENERGY PREDICTED BY IDOCK:    1.81 KCAL/MOL
REMARK 924 INTRA-LIGAND FREE ENERGY PREDICTED BY IDOCK:    2.02 KCAL/MOL
REMARK 927      BINDING AFFINITY PREDICTED BY RF-SCORE:    0.00 PKD
ROOT
HETATM    1  C   UNL     1     -10.130  15.719  68.362  1.00  0.00    -0.222 C  
HETATM    2  O   UNL     1     -10.217  15.179  69.678  1.00  0.00    -0.236 OA 
ENDROOT
BRANCH   2   3
HETATM    3  C   UNL     1     -11.415  14.623  70.042  1.00  0.00    -0.265 A  
HETATM    4  C   UNL     1     -12.533  15.415  70.352  1.00  0.00    -0.447 A  
HETATM    5  C   UNL     1     -13.744  14.833  70.712  1.00  0.00    -0.092 A  
HETATM    6  C   UNL     1     -13.850  13.452  70.766  1.00  0.00     1.009 A  
HETATM    7  C   UNL     1     -12.740  12.642  70.481  1.00  0.00    -0.066 A  
HETATM    8  C   UNL     1     -11.513  13.215  70.136  1.00  0.00    -0.020 A  
HETATM    9  C   UNL     1     -10.360  12.309  69.878  1.00  0.00     1.429 C  
HETATM   10  O   UNL     1      -9.226  12.733  69.683  1.00  0.00     1.408 OA 
HETATM   11  C   UNL     1     -10.554  10.835  69.861  1.00  0.00    -0.130 A  
HETATM   12  C   UNL     1      -9.486   9.983  69.506  1.00  0.00    -0.226 A  
HETATM   13  O   UNL     1      -8.259  10.488  69.135  1.00  0.00    -0.138 OA 
HETATM   14  C   UNL     1      -9.621   8.579  69.491  1.00  0.00    -0.170 A  
HETATM   15  H   UNL     1      -7.540   9.914  68.897  1.00  0.00     0.000 HD 
HETATM   16  C   UNL     1     -10.869   8.014  69.849  1.00  0.00    -0.217 A  
HETATM   17  C   UNL     1     -11.947   8.876  70.150  1.00  0.00     0.349 A  
HETATM   18  C   UNL     1     -11.068   6.504  69.863  1.00  0.00    -0.430 C  
HETATM   19  C   UNL     1      -9.765   5.702  69.796  1.00  0.00    -0.167 C  
HETATM   20  C   UNL     1     -11.790  10.279  70.180  1.00  0.00    -0.343 A  
HETATM   21  O   UNL     1     -13.195   8.362  70.373  1.00  0.00     0.181 OA 
HETATM   22  C   UNL     1      -8.433   7.714  69.074  1.00  0.00    -0.132 C  
HETATM   23  C   UNL     1     -12.910  11.178  70.566  1.00  0.00    -0.132 C  
HETATM   24  C   UNL     1      -8.887   6.303  68.694  1.00  0.00    -0.119 C  
HETATM   25  O   UNL     1      -9.125   5.717  71.073  1.00  0.00    -0.142 OA 
HETATM   26  H   UNL     1     -13.920   8.941  70.575  1.00  0.00     0.000 HD 
HETATM   27  O   UNL     1     -13.987  10.751  70.966  1.00  0.00     0.720 OA 
HETATM   28  H   UNL     1      -8.317   5.219  71.031  1.00  0.00     0.000 HD 
BRANCH  19  29
HETATM   29  C   UNL     1     -10.073   4.233  69.459  1.00  0.00     0.102 C  
HETATM   30  O   UNL     1     -10.422   3.418  70.320  1.00  0.00     0.922 OA 
BRANCH  29  31
HETATM   31  C   UNL     1      -9.849   3.779  68.017  1.00  0.00     0.049 C  
HETATM   32  O   UNL     1      -8.691   2.963  67.890  1.00  0.00    -0.089 OA 
HETATM   33  H   UNL     1      -8.553   2.682  66.993  1.00  0.00     0.000 HD 
ENDBRANCH  29  31
ENDBRANCH  19  29
BRANCH  22  34
HETATM   34  O   UNL     1      -7.500   7.689  70.168  1.00  0.00    -0.080 OA 
BRANCH  34  35
HETATM   35  C   UNL     1      -6.115   7.828  69.820  1.00  0.00    -0.027 C  
HETATM   36  C   UNL     1      -5.839   8.021  68.327  1.00  0.00    -0.037 C  
HETATM   37  C   UNL     1      -6.382   9.372  67.874  1.00  0.00    -0.054 C  
HETATM   38  C   UNL     1      -5.719  10.485  68.718  1.00  0.00    -0.040 C  
HETATM   39  N   UNL     1      -6.174   9.575  66.432  1.00  0.00    -0.063 NA 
HETATM   40  C   UNL     1      -5.951  10.196  70.213  1.00  0.00    -0.081 C  
HETATM   41  H2  UNL     1      -6.569   8.809  65.885  1.00  0.00     0.000 HD 
HETATM   42  O   UNL     1      -6.228  11.778  68.385  1.00  0.00    -0.049 OA 
HETATM   43  H1  UNL     1      -6.538  10.478  66.129  1.00  0.00     0.000 HD 
HETATM   44  C   UNL     1      -5.167  11.181  71.078  1.00  0.00    -0.114 C  
HETATM   45  H   UNL     1      -5.821  12.461  68.904  1.00  0.00     0.000 HD 
HETATM   46  O   UNL     1      -5.516   8.882  70.577  1.00  0.00    -0.027 OA 
ENDBRANCH  34  35
ENDBRANCH  22  34
ENDBRANCH   2   3
TORSDOF 5
ENDMDL
MODEL      126
REMARK 921   NORMALIZED FREE ENERGY PREDICTED BY IDOCK:    5.66 KCAL/MOL
REMARK 922        TOTAL FREE ENERGY PREDICTED BY IDOCK:    6.27 KCAL/MOL
REMARK 923 INTER-LIGAND FREE ENERGY PREDICTED BY IDOCK:    7.11 KCAL/MOL
REMARK 924 INTRA-LIGAND FREE ENERGY PREDICTED BY IDOCK:   -0.84 KCAL/MOL
REMARK 927      BINDING AFFINITY PREDICTED BY RF-SCORE:    0.00 PKD
ROOT
HETATM    1  C   UNL     1     -10.192  15.206  72.878  1.00  0.00     4.178 C  
HETATM    2  O   UNL     1     -10.967  14.248  72.165  1.00  0.00     1.545 OA 
ENDROOT
BRANCH   2   3
HETATM    3  C   UNL     1     -11.616  14.686  71.040  1.00  0.00    -0.227 A  
HETATM    4  C   UNL     1     -12.544  15.740  71.088  1.00  0.00    -0.487 A  
HETATM    5  C   UNL     1     -13.187  16.178  69.935  1.00  0.00     1.925 A  
HETATM    6  C   UNL     1     -12.908  15.568  68.722  1.00  0.00     1.136 A  
HETATM    7  C   UNL     1     -12.000  14.500  68.655  1.00  0.00    -0.320 A  
HETATM    8  C   UNL     1     -11.361  14.038  69.809  1.00  0.00    -0.239 A  
HETATM    9  C   UNL     1     -10.434  12.881  69.686  1.00  0.00     0.766 C  
HETATM   10  O   UNL     1      -9.925  12.343  70.664  1.00  0.00     4.304 OA 
HETATM   11  C   UNL     1     -10.103  12.325  68.347  1.00  0.00    -0.215 A  
HETATM   12  C   UNL     1      -9.139  11.301  68.223  1.00  0.00    -0.173 A  
HETATM   13  O   UNL     1      -8.459  10.819  69.320  1.00  0.00    -0.291 OA 
HETATM   14  C   UNL     1      -8.805  10.734  66.975  1.00  0.00    -0.137 A  
HETATM   15  H   UNL     1      -7.811  10.130  69.236  1.00  0.00     0.000 HD 
HETATM   16  C   UNL     1      -9.466  11.208  65.816  1.00  0.00    -0.248 A  
HETATM   17  C   UNL     1     -10.389  12.270  65.944  1.00  0.00    -0.252 A  
HETATM   18  C   UNL     1      -9.154  10.624  64.444  1.00  0.00    -0.240 C  
HETATM   19  C   UNL     1      -8.362   9.314  64.489  1.00  0.00    -0.164 C  
HETATM   20  C   UNL     1     -10.727  12.813  67.203  1.00  0.00    -0.264 A  
HETATM   21  O   UNL     1     -10.945  12.834  64.827  1.00  0.00    -0.284 OA 
HETATM   22  C   UNL     1      -7.735   9.646  66.905  1.00  0.00    -0.098 C  
HETATM   23  C   UNL     1     -11.752  13.883  67.337  1.00  0.00    -0.389 C  
HETATM   24  C   UNL     1      -7.206   9.485  65.479  1.00  0.00    -0.091 C  
HETATM   25  O   UNL     1      -9.232   8.239  64.846  1.00  0.00    -0.335 OA 
HETATM   26  H   UNL     1     -11.566  13.548  64.913  1.00  0.00     0.000 HD 
HETATM   27  O   UNL     1     -12.418  14.277  66.387  1.00  0.00    -0.441 OA 
HETATM   28  H   UNL     1      -8.741   7.426  64.874  1.00  0.00     0.000 HD 
BRANCH  19  29
HETATM   29  C   UNL     1      -7.797   8.997  63.094  1.00  0.00    -0.133 C  
HETATM   30  O   UNL     1      -8.332   8.181  62.335  1.00  0.00    -0.180 OA 
BRANCH  29  31
HETATM   31  C   UNL     1      -6.484   9.670  62.696  1.00  0.00    -0.101 C  
HETATM   32  O   UNL     1      -5.370   8.800  62.860  1.00  0.00    -0.068 OA 
HETATM   33  H   UNL     1      -4.554   9.219  62.612  1.00  0.00     0.000 HD 
ENDBRANCH  29  31
ENDBRANCH  19  29
BRANCH  22  34
HETATM   34  O   UNL     1      -8.316   8.423  67.391  1.00  0.00    -0.122 OA 
BRANCH  34  35
HETATM   35  C   UNL     1      -7.539   7.691  68.349  1.00  0.00    -0.113 C  
HETATM   36  C   UNL     1      -7.998   7.837  69.802  1.00  0.00    -0.115 C  
HETATM   37  C   UNL     1      -9.362   7.179  69.981  1.00  0.00    -0.154 C  
HETATM   38  C   UNL     1      -9.255   5.692  69.570  1.00  0.00    -0.129 C  
HETATM   39  N   UNL     1      -9.855   7.338  71.356  1.00  0.00    -0.185 NA 
HETATM   40  C   UNL     1      -8.707   5.598  68.134  1.00  0.00    -0.102 C  
HETATM   41  H2  UNL     1      -9.873   8.319  71.637  1.00  0.00     0.000 HD 
HETATM   42  O   UNL     1     -10.517   5.027  69.657  1.00  0.00    -0.255 OA 
HETATM   43  H1  UNL     1     -10.767   6.898  71.475  1.00  0.00     0.000 HD 
HETATM   44  C   UNL     1      -8.431   4.144  67.759  1.00  0.00    -0.104 C  
HETATM   45  H   UNL     1     -10.451   4.113  69.404  1.00  0.00     0.000 HD 
HETATM   46  O   UNL     1      -7.474   6.310  67.985  1.00  0.00    -0.086 OA 
ENDBRANCH  34  35
ENDBRANCH  22  34
ENDBRANCH   2   3
TORSDOF 5
ENDMDL
MODEL      127
REMARK 921   NORMALIZED FREE ENERGY PREDICTED BY IDOCK:    6.40 KCAL/MOL
REMARK 922        TOTAL FREE ENERGY PREDICTED BY IDOCK:    7.22 KCAL/MOL
REMARK 923 INTER-LIGAND FREE ENERGY PREDICTED BY IDOCK:   -4.81 KCAL/MOL
REMARK 924 INTRA-LIGAND FREE ENERGY PREDICTED BY IDOCK:   12.04 KCAL/MOL
REMARK 927      BINDING AFFINITY PREDICTED BY RF-SCORE:    0.00 PKD
ROOT
HETATM    1  C   UNL     1      -5.190  16.790  67.180  1.00  0.00    -0.137 C  
HETATM    2  O   UNL     1      -5.780  18.072  66.987  1.00  0.00    -0.130 OA 
ENDROOT
BRANCH   2   3
HETATM    3  C   UNL     1      -7.138  18.161  67.142  1.00  0.00    -0.194 A  
HETATM    4  C   UNL     1      -7.802  19.399  67.136  1.00  0.00    -0.279 A  
HETATM    5  C   UNL     1      -9.183  19.469  67.285  1.00  0.00    -0.391 A  
HETATM    6  C   UNL     1      -9.915  18.302  67.443  1.00  0.00    -0.344 A  
HETATM    7  C   UNL     1      -9.270  17.057  67.473  1.00  0.00    -0.231 A  
HETATM    8  C   UNL     1      -7.881  16.974  67.342  1.00  0.00    -0.191 A  
HETATM    9  C   UNL     1      -7.245  15.630  67.417  1.00  0.00    -0.208 C  
HETATM   10  O   UNL     1      -6.028  15.481  67.426  1.00  0.00    -0.294 OA 
HETATM   11  C   UNL     1      -8.087  14.406  67.495  1.00  0.00    -0.204 A  
HETATM   12  C   UNL     1      -7.486  13.129  67.452  1.00  0.00    -0.124 A  
HETATM   13  O   UNL     1      -6.125  12.981  67.303  1.00  0.00    -0.335 OA 
HETATM   14  C   UNL     1      -8.245  11.943  67.539  1.00  0.00    -0.155 A  
HETATM   15  H   UNL     1      -5.722  12.121  67.274  1.00  0.00     0.000 HD 
HETATM   16  C   UNL     1      -9.650  12.044  67.679  1.00  0.00    -0.188 A  
HETATM   17  C   UNL     1     -10.246  13.325  67.665  1.00  0.00    -0.228 A  
HETATM   18  C   UNL     1     -10.516  10.796  67.790  1.00  0.00    -0.243 C  
HETATM   19  C   UNL     1      -9.729   9.512  68.071  1.00  0.00    -0.147 C  
HETATM   20  C   UNL     1      -9.471  14.503  67.598  1.00  0.00    -0.209 A  
HETATM   21  O   UNL     1     -11.609  13.447  67.668  1.00  0.00    -0.300 OA 
HETATM   22  C   UNL     1      -7.536  10.591  67.462  1.00  0.00    -0.093 C  
HETATM   23  C   UNL     1     -10.100  15.850  67.655  1.00  0.00    -0.242 C  
HETATM   24  C   UNL     1      -8.524   9.471  67.127  1.00  0.00    -0.131 C  
HETATM   25  O   UNL     1      -9.347   9.476  69.447  1.00  0.00    -0.161 OA 
HETATM   26  H   UNL     1     -12.010  14.308  67.659  1.00  0.00     0.000 HD 
HETATM   27  O   UNL     1     -11.299  16.007  67.858  1.00  0.00    -0.314 OA 
HETATM   28  H   UNL     1      -8.859   8.680  69.621  1.00  0.00     0.000 HD 
BRANCH  19  29
HETATM   29  C   UNL     1     -10.621   8.286  67.814  1.00  0.00    -0.168 C  
HETATM   30  O   UNL     1     -10.817   7.839  66.679  1.00  0.00    -0.143 OA 
BRANCH  29  31
HETATM   31  C   UNL     1     -11.339   7.673  69.016  1.00  0.00     0.475 C  
HETATM   32  O   UNL     1     -11.193   6.259  69.058  1.00  0.00    -0.395 OA 
HETATM   33  H   UNL     1     -11.639   5.879  69.806  1.00  0.00     0.000 HD 
ENDBRANCH  29  31
ENDBRANCH  19  29
BRANCH  22  34
HETATM   34  O   UNL     1      -6.888  10.360  68.725  1.00  0.00    -0.056 OA 
BRANCH  34  35
HETATM   35  C   UNL     1      -7.668  10.639  69.896  1.00  0.00     0.100 C  
HETATM   36  C   UNL     1      -8.396   9.432  70.493  1.00  0.00    -0.233 C  
HETATM   37  C   UNL     1      -7.379   8.446  71.058  1.00  0.00    -0.069 C  
HETATM   38  C   UNL     1      -6.521   9.169  72.122  1.00  0.00     0.137 C  
HETATM   39  N   UNL     1      -8.040   7.250  71.601  1.00  0.00    -0.100 NA 
HETATM   40  C   UNL     1      -5.883  10.423  71.496  1.00  0.00     0.244 C  
HETATM   41  H2  UNL     1      -8.645   6.809  70.908  1.00  0.00     0.000 HD 
HETATM   42  O   UNL     1      -5.505   8.316  72.653  1.00  0.00    -0.037 OA 
HETATM   43  H1  UNL     1      -7.360   6.591  71.979  1.00  0.00     0.000 HD 
HETATM   44  C   UNL     1      -5.168  11.251  72.561  1.00  0.00     0.479 C  
HETATM   45  H   UNL     1      -4.978   8.761  73.306  1.00  0.00     0.000 HD 
HETATM   46  O   UNL     1      -6.862  11.275  70.891  1.00  0.00     0.428 OA 
ENDBRANCH  34  35
ENDBRANCH  22  34
ENDBRANCH   2   3
TORSDOF 5
ENDMDL
MODEL      128
REMARK 921   NORMALIZED FREE ENERGY PREDICTED BY IDOCK:    6.59 KCAL/MOL
REMARK 922        TOTAL FREE ENERGY PREDICTED BY IDOCK:    7.47 KCAL/MOL
REMARK 923 INTER-LIGAND FREE ENERGY PREDICTED BY IDOCK:    5.11 KCAL/MOL
REMARK 924 INTRA-LIGAND FREE ENERGY PREDICTED BY IDOCK:    2.36 KCAL/MOL
REMARK 927      BINDING AFFINITY PREDICTED BY RF-SCORE:    0.00 PKD
ROOT
HETATM    1  C   UNL     1     -10.245   9.411  72.663  1.00  0.00     1.981 C  
HETATM    2  O   UNL     1     -10.008  10.636  71.977  1.00  0.00     4.601 OA 
ENDROOT
BRANCH   2   3
HETATM    3  C   UNL     1     -10.692  10.835  70.806  1.00  0.00     0.898 A  
HETATM    4  C   UNL     1     -11.800  11.695  70.736  1.00  0.00    -0.119 A  
HETATM    5  C   UNL     1     -12.477  11.892  69.537  1.00  0.00     0.067 A  
HETATM    6  C   UNL     1     -12.052  11.231  68.395  1.00  0.00    -0.110 A  
HETATM    7  C   UNL     1     -10.961  10.351  68.447  1.00  0.00    -0.312 A  
HETATM    8  C   UNL     1     -10.283  10.131  69.649  1.00  0.00    -0.272 A  
HETATM    9  C   UNL     1      -9.154   9.161  69.654  1.00  0.00    -0.160 C  
HETATM   10  O   UNL     1      -8.584   8.826  70.688  1.00  0.00    -0.144 OA 
HETATM   11  C   UNL     1      -8.684   8.551  68.382  1.00  0.00    -0.143 A  
HETATM   12  C   UNL     1      -7.543   7.719  68.373  1.00  0.00    -0.109 A  
HETATM   13  O   UNL     1      -6.821   7.481  69.521  1.00  0.00    -0.043 OA 
HETATM   14  C   UNL     1      -7.072   7.108  67.193  1.00  0.00    -0.087 A  
HETATM   15  H   UNL     1      -6.053   6.921  69.515  1.00  0.00     0.000 HD 
HETATM   16  C   UNL     1      -7.773   7.335  65.984  1.00  0.00    -0.095 A  
HETATM   17  C   UNL     1      -8.880   8.213  65.993  1.00  0.00    -0.172 A  
HETATM   18  C   UNL     1      -7.316   6.690  64.682  1.00  0.00    -0.085 C  
HETATM   19  C   UNL     1      -6.296   5.563  64.868  1.00  0.00    -0.037 C  
HETATM   20  C   UNL     1      -9.352   8.801  67.187  1.00  0.00    -0.188 A  
HETATM   21  O   UNL     1      -9.497   8.552  64.819  1.00  0.00    -0.097 OA 
HETATM   22  C   UNL     1      -5.817   6.238  67.247  1.00  0.00    -0.017 C  
HETATM   23  C   UNL     1     -10.561   9.668  67.201  1.00  0.00    -0.228 C  
HETATM   24  C   UNL     1      -5.223   6.043  65.850  1.00  0.00    -0.013 C  
HETATM   25  O   UNL     1      -6.963   4.383  65.321  1.00  0.00    -0.056 OA 
HETATM   26  H   UNL     1     -10.242   9.141  64.825  1.00  0.00     0.000 HD 
HETATM   27  O   UNL     1     -11.259   9.836  66.208  1.00  0.00     0.492 OA 
HETATM   28  H   UNL     1      -6.330   3.684  65.436  1.00  0.00     0.000 HD 
BRANCH  19  29
HETATM   29  C   UNL     1      -5.640   5.225  63.519  1.00  0.00    -0.014 C  
HETATM   30  O   UNL     1      -5.572   6.043  62.595  1.00  0.00    -0.020 OA 
BRANCH  29  31
HETATM   31  C   UNL     1      -5.138   3.796  63.319  1.00  0.00    -0.005 C  
HETATM   32  O   UNL     1      -5.956   3.068  62.410  1.00  0.00    -0.008 OA 
HETATM   33  H   UNL     1      -5.643   2.179  62.286  1.00  0.00     0.000 HD 
ENDBRANCH  29  31
ENDBRANCH  19  29
BRANCH  22  34
HETATM   34  O   UNL     1      -6.176   4.981  67.845  1.00  0.00    -0.032 OA 
BRANCH  34  35
HETATM   35  C   UNL     1      -5.403   4.580  68.985  1.00  0.00    -0.011 C  
HETATM   36  C   UNL     1      -5.458   5.541  70.175  1.00  0.00    -0.005 C  
HETATM   37  C   UNL     1      -6.862   5.542  70.771  1.00  0.00    -0.052 C  
HETATM   38  C   UNL     1      -7.226   4.100  71.194  1.00  0.00    -0.040 C  
HETATM   39  N   UNL     1      -6.966   6.489  71.892  1.00  0.00    -0.071 NA 
HETATM   40  C   UNL     1      -7.069   3.160  69.984  1.00  0.00    -0.041 C  
HETATM   41  H2  UNL     1      -6.674   7.427  71.617  1.00  0.00     0.000 HD 
HETATM   42  O   UNL     1      -8.556   4.018  71.708  1.00  0.00    -0.096 OA 
HETATM   43  H1  UNL     1      -7.904   6.490  72.290  1.00  0.00     0.000 HD 
HETATM   44  C   UNL     1      -7.257   1.705  70.407  1.00  0.00    -0.033 C  
HETATM   45  H   UNL     1      -8.780   3.132  71.968  1.00  0.00     0.000 HD 
HETATM   46  O   UNL     1      -5.769   3.260  69.395  1.00  0.00    -0.020 OA 
ENDBRANCH  34  35
ENDBRANCH  22  34
ENDBRANCH   2   3
TORSDOF 5
ENDMDL
MODEL      129
REMARK 921   NORMALIZED FREE ENERGY PREDICTED BY IDOCK:    7.17 KCAL/MOL
REMARK 922        TOTAL FREE ENERGY PREDICTED BY IDOCK:    8.22 KCAL/MOL
REMARK 923 INTER-LIGAND FREE ENERGY PREDICTED BY IDOCK:    6.32 KCAL/MOL
REMARK 924 INTRA-LIGAND FREE ENERGY PREDICTED BY IDOCK:    1.91 KCAL/MOL
REMARK 927      BINDING AFFINITY PREDICTED BY RF-SCORE:    0.00 PKD
ROOT
HETATM    1  C   UNL     1      -8.937  13.975  65.524  1.00  0.00     1.140 C  
HETATM    2  O   UNL     1      -8.604  12.602  65.337  1.00  0.00     0.998 OA 
ENDROOT
BRANCH   2   3
HETATM    3  C   UNL     1      -9.642  11.707  65.334  1.00  0.00    -0.205 A  
HETATM    4  C   UNL     1     -10.865  11.997  64.707  1.00  0.00    -0.354 A  
HETATM    5  C   UNL     1     -11.904  11.073  64.705  1.00  0.00     0.993 A  
HETATM    6  C   UNL     1     -11.731   9.847  65.331  1.00  0.00     4.577 A  
HETATM    7  C   UNL     1     -10.525   9.546  65.982  1.00  0.00     0.011 A  
HETATM    8  C   UNL     1      -9.480  10.473  66.006  1.00  0.00    -0.227 A  
HETATM    9  C   UNL     1      -8.236  10.113  66.740  1.00  0.00    -0.122 C  
HETATM   10  O   UNL     1      -7.320  10.913  66.906  1.00  0.00    -0.113 OA 
HETATM   11  C   UNL     1      -8.071   8.751  67.314  1.00  0.00    -0.101 A  
HETATM   12  C   UNL     1      -6.848   8.377  67.911  1.00  0.00    -0.067 A  
HETATM   13  O   UNL     1      -5.774   9.238  67.947  1.00  0.00    -0.038 OA 
HETATM   14  C   UNL     1      -6.653   7.101  68.481  1.00  0.00    -0.048 A  
HETATM   15  H   UNL     1      -4.951   8.986  68.349  1.00  0.00     0.000 HD 
HETATM   16  C   UNL     1      -7.724   6.175  68.455  1.00  0.00    -0.100 A  
HETATM   17  C   UNL     1      -8.925   6.541  67.807  1.00  0.00    -0.114 A  
HETATM   18  C   UNL     1      -7.574   4.789  69.068  1.00  0.00    -0.067 C  
HETATM   19  C   UNL     1      -6.344   4.634  69.968  1.00  0.00    -0.030 C  
HETATM   20  C   UNL     1      -9.111   7.828  67.259  1.00  0.00    -0.147 A  
HETATM   21  O   UNL     1      -9.928   5.622  67.653  1.00  0.00    -0.130 OA 
HETATM   22  C   UNL     1      -5.297   6.750  69.091  1.00  0.00    -0.014 C  
HETATM   23  C   UNL     1     -10.403   8.230  66.640  1.00  0.00    -0.223 C  
HETATM   24  C   UNL     1      -5.138   5.235  69.241  1.00  0.00     0.000 C  
HETATM   25  O   UNL     1      -6.591   5.259  71.228  1.00  0.00    -0.039 OA 
HETATM   26  H   UNL     1     -10.736   5.868  67.218  1.00  0.00     0.000 HD 
HETATM   27  O   UNL     1     -11.393   7.507  66.659  1.00  0.00     0.533 OA 
HETATM   28  H   UNL     1      -5.828   5.163  71.786  1.00  0.00     0.000 HD 
BRANCH  19  29
HETATM   29  C   UNL     1      -6.084   3.143  70.243  1.00  0.00    -0.023 C  
HETATM   30  O   UNL     1      -5.369   2.452  69.509  1.00  0.00    -0.011 OA 
BRANCH  29  31
HETATM   31  C   UNL     1      -6.813   2.508  71.426  1.00  0.00    -0.031 C  
HETATM   32  O   UNL     1      -6.230   2.877  72.670  1.00  0.00    -0.009 OA 
HETATM   33  H   UNL     1      -6.684   2.482  73.405  1.00  0.00     0.000 HD 
ENDBRANCH  29  31
ENDBRANCH  19  29
BRANCH  22  34
HETATM   34  O   UNL     1      -5.197   7.417  70.361  1.00  0.00    -0.023 OA 
BRANCH  34  35
HETATM   35  C   UNL     1      -6.436   7.827  70.958  1.00  0.00    -0.038 C  
HETATM   36  C   UNL     1      -6.429   7.886  72.488  1.00  0.00    -0.068 C  
HETATM   37  C   UNL     1      -5.504   9.005  72.956  1.00  0.00    -0.082 C  
HETATM   38  C   UNL     1      -5.987  10.339  72.343  1.00  0.00     0.907 C  
HETATM   39  N   UNL     1      -5.437   9.063  74.424  1.00  0.00    -0.119 NA 
HETATM   40  C   UNL     1      -6.061  10.199  70.811  1.00  0.00    -0.084 C  
HETATM   41  H2  UNL     1      -5.168   8.163  74.822  1.00  0.00     0.000 HD 
HETATM   42  O   UNL     1      -5.127  11.426  72.694  1.00  0.00    -0.330 OA 
HETATM   43  H1  UNL     1      -4.818   9.811  74.736  1.00  0.00     0.000 HD 
HETATM   44  C   UNL     1      -6.694  11.442  70.188  1.00  0.00     0.156 C  
HETATM   45  H   UNL     1      -5.424  12.246  72.317  1.00  0.00     0.000 HD 
HETATM   46  O   UNL     1      -6.859   9.080  70.415  1.00  0.00    -0.043 OA 
ENDBRANCH  34  35
ENDBRANCH  22  34
ENDBRANCH   2   3
TORSDOF 5
ENDMDL
MODEL      130
REMARK 921   NORMALIZED FREE ENERGY PREDICTED BY IDOCK:    7.54 KCAL/MOL
REMARK 922        TOTAL FREE ENERGY PREDICTED BY IDOCK:    8.69 KCAL/MOL
REMARK 923 INTER-LIGAND FREE ENERGY PREDICTED BY IDOCK:    2.62 KCAL/MOL
REMARK 924 INTRA-LIGAND FREE ENERGY PREDICTED BY IDOCK:    6.07 KCAL/MOL
REMARK 927      BINDING AFFINITY PREDICTED BY RF-SCORE:    0.00 PKD
ROOT
HETATM    1  C   UNL     1     -14.411  14.838  72.778  1.00  0.00     0.368 C  
HETATM    2  O   UNL     1     -13.515  14.491  71.725  1.00  0.00    -0.330 OA 
ENDROOT
BRANCH   2   3
HETATM    3  C   UNL     1     -12.462  15.338  71.502  1.00  0.00    -0.361 A  
HETATM    4  C   UNL     1     -12.375  16.590  72.133  1.00  0.00     0.042 A  
HETATM    5  C   UNL     1     -11.294  17.434  71.901  1.00  0.00     1.587 A  
HETATM    6  C   UNL     1     -10.287  17.034  71.036  1.00  0.00     2.136 A  
HETATM    7  C   UNL     1     -10.364  15.796  70.380  1.00  0.00    -0.061 A  
HETATM    8  C   UNL     1     -11.454  14.948  70.589  1.00  0.00    -0.313 A  
HETATM    9  C   UNL     1     -11.501  13.663  69.840  1.00  0.00    -0.136 C  
HETATM   10  O   UNL     1     -12.474  12.917  69.880  1.00  0.00    -0.128 OA 
HETATM   11  C   UNL     1     -10.350  13.244  68.996  1.00  0.00     0.014 A  
HETATM   12  C   UNL     1     -10.349  11.976  68.377  1.00  0.00    -0.214 A  
HETATM   13  O   UNL     1     -11.384  11.086  68.562  1.00  0.00    -0.241 OA 
HETATM   14  C   UNL     1      -9.286  11.545  67.556  1.00  0.00    -0.166 A  
HETATM   15  H   UNL     1     -11.383  10.232  68.145  1.00  0.00     0.000 HD 
HETATM   16  C   UNL     1      -8.192  12.419  67.347  1.00  0.00    -0.180 A  
HETATM   17  C   UNL     1      -8.177  13.663  68.016  1.00  0.00    -0.162 A  
HETATM   18  C   UNL     1      -7.023  12.010  66.460  1.00  0.00     0.294 C  
HETATM   19  C   UNL     1      -7.299  10.779  65.592  1.00  0.00    -0.026 C  
HETATM   20  C   UNL     1      -9.258  14.089  68.818  1.00  0.00    -0.050 A  
HETATM   21  O   UNL     1      -7.075  14.472  67.935  1.00  0.00    -0.122 OA 
HETATM   22  C   UNL     1      -9.334  10.150  66.934  1.00  0.00    -0.158 C  
HETATM   23  C   UNL     1      -9.267  15.430  69.462  1.00  0.00    -0.240 C  
HETATM   24  C   UNL     1      -7.945   9.705  66.471  1.00  0.00    -0.112 C  
HETATM   25  O   UNL     1      -8.123  11.148  64.485  1.00  0.00    -0.303 OA 
HETATM   26  H   UNL     1      -7.065  15.309  68.384  1.00  0.00     0.000 HD 
HETATM   27  O   UNL     1      -8.393  16.263  69.254  1.00  0.00    -0.228 OA 
HETATM   28  H   UNL     1      -8.293  10.385  63.946  1.00  0.00     0.000 HD 
BRANCH  19  29
HETATM   29  C   UNL     1      -5.978  10.240  65.015  1.00  0.00    -0.133 C  
HETATM   30  O   UNL     1      -5.354  10.834  64.129  1.00  0.00    -0.151 OA 
BRANCH  29  31
HETATM   31  C   UNL     1      -5.492   8.883  65.520  1.00  0.00    -0.038 C  
HETATM   32  O   UNL     1      -5.545   7.888  64.504  1.00  0.00    -0.039 OA 
HETATM   33  H   UNL     1      -5.243   7.044  64.818  1.00  0.00     0.000 HD 
ENDBRANCH  29  31
ENDBRANCH  19  29
BRANCH  22  34
HETATM   34  O   UNL     1     -10.266  10.187  65.839  1.00  0.00    -0.254 OA 
BRANCH  34  35
HETATM   35  C   UNL     1     -11.380  11.078  65.987  1.00  0.00     0.269 C  
HETATM   36  C   UNL     1     -11.009  12.542  66.238  1.00  0.00    -0.311 C  
HETATM   37  C   UNL     1     -10.343  13.125  64.995  1.00  0.00    -0.330 C  
HETATM   38  C   UNL     1     -11.313  12.986  63.799  1.00  0.00    -0.383 C  
HETATM   39  N   UNL     1      -9.932  14.519  65.215  1.00  0.00    -0.507 NA 
HETATM   40  C   UNL     1     -11.724  11.510  63.645  1.00  0.00    -0.177 C  
HETATM   41  H2  UNL     1      -9.335  14.609  66.037  1.00  0.00     0.000 HD 
HETATM   42  O   UNL     1     -10.727  13.460  62.585  1.00  0.00     1.358 OA 
HETATM   43  H1  UNL     1      -9.487  14.908  64.384  1.00  0.00     0.000 HD 
HETATM   44  C   UNL     1     -12.809  11.363  62.581  1.00  0.00     1.567 C  
HETATM   45  H   UNL     1     -11.323  13.375  61.850  1.00  0.00     0.000 HD 
HETATM   46  O   UNL     1     -12.254  10.973  64.861  1.00  0.00     0.837 OA 
ENDBRANCH  34  35
ENDBRANCH  22  34
ENDBRANCH   2   3
TORSDOF 5
ENDMDL
MODEL      131
REMARK 921   NORMALIZED FREE ENERGY PREDICTED BY IDOCK:    8.30 KCAL/MOL
REMARK 922        TOTAL FREE ENERGY PREDICTED BY IDOCK:    9.67 KCAL/MOL
REMARK 923 INTER-LIGAND FREE ENERGY PREDICTED BY IDOCK:    5.69 KCAL/MOL
REMARK 924 INTRA-LIGAND FREE ENERGY PREDICTED BY IDOCK:    3.99 KCAL/MOL
REMARK 927      BINDING AFFINITY PREDICTED BY RF-SCORE:    0.00 PKD
ROOT
HETATM    1  C   UNL     1      -9.863  15.537  64.947  1.00  0.00     0.348 C  
HETATM    2  O   UNL     1      -9.457  14.178  64.808  1.00  0.00     0.347 OA 
ENDROOT
BRANCH   2   3
HETATM    3  C   UNL     1     -10.439  13.225  64.880  1.00  0.00    -0.371 A  
HETATM    4  C   UNL     1     -11.737  13.466  64.398  1.00  0.00    -0.435 A  
HETATM    5  C   UNL     1     -12.719  12.484  64.470  1.00  0.00    -0.440 A  
HETATM    6  C   UNL     1     -12.415  11.251  65.027  1.00  0.00     1.931 A  
HETATM    7  C   UNL     1     -11.132  10.997  65.534  1.00  0.00     0.001 A  
HETATM    8  C   UNL     1     -10.141  11.981  65.484  1.00  0.00    -0.281 A  
HETATM    9  C   UNL     1      -8.808  11.670  66.068  1.00  0.00    -0.105 C  
HETATM   10  O   UNL     1      -7.923  12.514  66.167  1.00  0.00     0.547 OA 
HETATM   11  C   UNL     1      -8.510  10.301  66.568  1.00  0.00    -0.126 A  
HETATM   12  C   UNL     1      -7.211   9.978  67.018  1.00  0.00    -0.090 A  
HETATM   13  O   UNL     1      -6.187  10.897  66.973  1.00  0.00    -0.062 OA 
HETATM   14  C   UNL     1      -6.889   8.698  67.515  1.00  0.00    -0.071 A  
HETATM   15  H   UNL     1      -5.313  10.679  67.276  1.00  0.00     0.000 HD 
HETATM   16  C   UNL     1      -7.906   7.713  67.567  1.00  0.00    -0.119 A  
HETATM   17  C   UNL     1      -9.187   8.031  67.063  1.00  0.00    -0.147 A  
HETATM   18  C   UNL     1      -7.617   6.319  68.106  1.00  0.00    -0.102 C  
HETATM   19  C   UNL     1      -6.291   6.205  68.864  1.00  0.00    -0.041 C  
HETATM   20  C   UNL     1      -9.499   9.323  66.588  1.00  0.00    -0.246 A  
HETATM   21  O   UNL     1     -10.151   7.062  66.981  1.00  0.00    -0.189 OA 
HETATM   22  C   UNL     1      -5.458   8.404  67.964  1.00  0.00    -0.035 C  
HETATM   23  C   UNL     1     -10.870   9.670  66.125  1.00  0.00     0.463 C  
HETATM   24  C   UNL     1      -5.203   6.897  68.038  1.00  0.00    -0.015 C  
HETATM   25  O   UNL     1      -6.433   6.774  70.167  1.00  0.00    -0.038 OA 
HETATM   26  H   UNL     1     -11.012   7.275  66.643  1.00  0.00     0.000 HD 
HETATM   27  O   UNL     1     -11.812   8.892  66.221  1.00  0.00     3.975 OA 
HETATM   28  H   UNL     1      -5.611   6.703  70.637  1.00  0.00     0.000 HD 
BRANCH  19  29
HETATM   29  C   UNL     1      -5.923   4.723  69.053  1.00  0.00    -0.025 C  
HETATM   30  O   UNL     1      -5.289   4.321  70.034  1.00  0.00    -0.007 OA 
BRANCH  29  31
HETATM   31  C   UNL     1      -6.299   3.756  67.931  1.00  0.00    -0.037 C  
HETATM   32  O   UNL     1      -5.296   2.769  67.723  1.00  0.00    -0.012 OA 
HETATM   33  H   UNL     1      -5.530   2.168  67.025  1.00  0.00     0.000 HD 
ENDBRANCH  29  31
ENDBRANCH  19  29
BRANCH  22  34
HETATM   34  O   UNL     1      -5.258   9.035  69.241  1.00  0.00    -0.035 OA 
BRANCH  34  35
HETATM   35  C   UNL     1      -6.435   9.242  70.035  1.00  0.00    -0.049 C  
HETATM   36  C   UNL     1      -6.179   9.457  71.528  1.00  0.00    -0.011 C  
HETATM   37  C   UNL     1      -5.457  10.784  71.741  1.00  0.00     0.233 C  
HETATM   38  C   UNL     1      -6.319  11.921  71.146  1.00  0.00     1.539 C  
HETATM   39  N   UNL     1      -5.154  11.005  73.162  1.00  0.00    -0.303 NA 
HETATM   40  C   UNL     1      -6.622  11.613  69.669  1.00  0.00    -0.096 C  
HETATM   41  H2  UNL     1      -4.630  10.225  73.560  1.00  0.00     0.000 HD 
HETATM   42  O   UNL     1      -5.672  13.190  71.259  1.00  0.00    -0.374 OA 
HETATM   43  H1  UNL     1      -4.671  11.891  73.304  1.00  0.00     0.000 HD 
HETATM   44  C   UNL     1      -7.609  12.629  69.099  1.00  0.00     0.254 C  
HETATM   45  H   UNL     1      -6.201  13.889  70.893  1.00  0.00     0.000 HD 
HETATM   46  O   UNL     1      -7.210  10.319  69.503  1.00  0.00    -0.090 OA 
ENDBRANCH  34  35
ENDBRANCH  22  34
ENDBRANCH   2   3
TORSDOF 5
ENDMDL
MODEL      132
REMARK 921   NORMALIZED FREE ENERGY PREDICTED BY IDOCK:    8.40 KCAL/MOL
REMARK 922        TOTAL FREE ENERGY PREDICTED BY IDOCK:    9.81 KCAL/MOL
REMARK 923 INTER-LIGAND FREE ENERGY PREDICTED BY IDOCK:    1.12 KCAL/MOL
REMARK 924 INTRA-LIGAND FREE ENERGY PREDICTED BY IDOCK:    8.69 KCAL/MOL
REMARK 927      BINDING AFFINITY PREDICTED BY RF-SCORE:    0.00 PKD
ROOT
HETATM    1  C   UNL     1     -10.716  19.699  71.397  1.00  0.00     3.818 C  
HETATM    2  O   UNL     1     -10.348  19.537  70.030  1.00  0.00     0.229 OA 
ENDROOT
BRANCH   2   3
HETATM    3  C   UNL     1      -9.013  19.394  69.759  1.00  0.00     0.639 A  
HETATM    4  C   UNL     1      -8.110  20.459  69.916  1.00  0.00     1.254 A  
HETATM    5  C   UNL     1      -6.756  20.293  69.645  1.00  0.00    -0.149 A  
HETATM    6  C   UNL     1      -6.290  19.060  69.214  1.00  0.00    -0.314 A  
HETATM    7  C   UNL     1      -7.177  17.990  69.031  1.00  0.00    -0.216 A  
HETATM    8  C   UNL     1      -8.543  18.148  69.282  1.00  0.00     0.272 A  
HETATM    9  C   UNL     1      -9.443  16.989  69.037  1.00  0.00    -0.177 C  
HETATM   10  O   UNL     1     -10.664  17.079  69.122  1.00  0.00    -0.324 OA 
HETATM   11  C   UNL     1      -8.877  15.665  68.663  1.00  0.00    -0.201 A  
HETATM   12  C   UNL     1      -9.723  14.541  68.540  1.00  0.00    -0.224 A  
HETATM   13  O   UNL     1     -11.073  14.628  68.796  1.00  0.00    -0.239 OA 
HETATM   14  C   UNL     1      -9.230  13.271  68.173  1.00  0.00    -0.212 A  
HETATM   15  H   UNL     1     -11.642  13.871  68.713  1.00  0.00     0.000 HD 
HETATM   16  C   UNL     1      -7.846  13.128  67.915  1.00  0.00    -0.151 A  
HETATM   17  C   UNL     1      -7.000  14.246  68.094  1.00  0.00    -0.129 A  
HETATM   18  C   UNL     1      -7.262  11.783  67.502  1.00  0.00    -0.123 C  
HETATM   19  C   UNL     1      -8.311  10.751  67.080  1.00  0.00    -0.126 C  
HETATM   20  C   UNL     1      -7.511  15.516  68.442  1.00  0.00    -0.115 A  
HETATM   21  O   UNL     1      -5.644  14.106  67.977  1.00  0.00    -0.116 OA 
HETATM   22  C   UNL     1     -10.194  12.089  68.082  1.00  0.00    -0.201 C  
HETATM   23  C   UNL     1      -6.624  16.704  68.559  1.00  0.00    -0.142 C  
HETATM   24  C   UNL     1      -9.439  10.759  68.116  1.00  0.00    -0.161 C  
HETATM   25  O   UNL     1      -8.777  11.051  65.763  1.00  0.00    -0.186 OA 
HETATM   26  H   UNL     1      -5.075  14.857  68.097  1.00  0.00     0.000 HD 
HETATM   27  O   UNL     1      -5.434  16.667  68.269  1.00  0.00    -0.110 OA 
HETATM   28  H   UNL     1      -9.427  10.410  65.502  1.00  0.00     0.000 HD 
BRANCH  19  29
HETATM   29  C   UNL     1      -7.675   9.351  67.029  1.00  0.00    -0.091 C  
HETATM   30  O   UNL     1      -7.161   8.824  68.021  1.00  0.00    -0.081 OA 
BRANCH  29  31
HETATM   31  C   UNL     1      -7.621   8.652  65.672  1.00  0.00    -0.086 C  
HETATM   32  O   UNL     1      -7.975   7.277  65.768  1.00  0.00    -0.108 OA 
HETATM   33  H   UNL     1      -7.941   6.843  64.923  1.00  0.00     0.000 HD 
ENDBRANCH  29  31
ENDBRANCH  19  29
BRANCH  22  34
HETATM   34  O   UNL     1     -10.953  12.231  66.868  1.00  0.00    -0.245 OA 
BRANCH  34  35
HETATM   35  C   UNL     1     -12.021  13.189  66.899  1.00  0.00    -0.362 C  
HETATM   36  C   UNL     1     -11.592  14.627  67.202  1.00  0.00    -0.394 C  
HETATM   37  C   UNL     1     -10.757  15.169  66.046  1.00  0.00    -0.329 C  
HETATM   38  C   UNL     1     -11.593  15.092  64.748  1.00  0.00    -0.395 C  
HETATM   39  N   UNL     1     -10.288  16.536  66.322  1.00  0.00    -0.319 NA 
HETATM   40  C   UNL     1     -12.073  13.644  64.537  1.00  0.00    -0.419 C  
HETATM   41  H2  UNL     1      -9.783  16.587  67.206  1.00  0.00     0.000 HD 
HETATM   42  O   UNL     1     -10.847  15.531  63.611  1.00  0.00     0.491 OA 
HETATM   43  H1  UNL     1      -9.730  16.898  65.549  1.00  0.00     0.000 HD 
HETATM   44  C   UNL     1     -13.040  13.566  63.357  1.00  0.00     1.330 C  
HETATM   45  H   UNL     1     -11.361  15.483  62.813  1.00  0.00     0.000 HD 
HETATM   46  O   UNL     1     -12.768  13.139  65.681  1.00  0.00    -0.469 OA 
ENDBRANCH  34  35
ENDBRANCH  22  34
ENDBRANCH   2   3
TORSDOF 5
ENDMDL
MODEL      133
REMARK 921   NORMALIZED FREE ENERGY PREDICTED BY IDOCK:    9.91 KCAL/MOL
REMARK 922        TOTAL FREE ENERGY PREDICTED BY IDOCK:   11.75 KCAL/MOL
REMARK 923 INTER-LIGAND FREE ENERGY PREDICTED BY IDOCK:    9.61 KCAL/MOL
REMARK 924 INTRA-LIGAND FREE ENERGY PREDICTED BY IDOCK:    2.14 KCAL/MOL
REMARK 927      BINDING AFFINITY PREDICTED BY RF-SCORE:    0.00 PKD
ROOT
HETATM    1  C   UNL     1      -9.055   3.221  66.686  1.00  0.00    -0.165 C  
HETATM    2  O   UNL     1      -9.092   4.644  66.729  1.00  0.00    -0.114 OA 
ENDROOT
BRANCH   2   3
HETATM    3  C   UNL     1      -9.210   5.299  65.531  1.00  0.00    -0.112 A  
HETATM    4  C   UNL     1      -9.058   4.629  64.306  1.00  0.00    -0.112 A  
HETATM    5  C   UNL     1      -9.190   5.307  63.099  1.00  0.00     0.344 A  
HETATM    6  C   UNL     1      -9.476   6.664  63.105  1.00  0.00     2.499 A  
HETATM    7  C   UNL     1      -9.610   7.357  64.317  1.00  0.00     3.050 A  
HETATM    8  C   UNL     1      -9.462   6.691  65.536  1.00  0.00     0.470 A  
HETATM    9  C   UNL     1      -9.580   7.482  66.791  1.00  0.00    -0.206 C  
HETATM   10  O   UNL     1      -9.350   6.998  67.895  1.00  0.00    -0.125 OA 
HETATM   11  C   UNL     1      -9.977   8.915  66.739  1.00  0.00    -0.338 A  
HETATM   12  C   UNL     1     -10.198   9.633  67.935  1.00  0.00    -0.198 A  
HETATM   13  O   UNL     1     -10.089   9.027  69.166  1.00  0.00    -0.184 OA 
HETATM   14  C   UNL     1     -10.561  10.996  67.932  1.00  0.00    -0.244 A  
HETATM   15  H   UNL     1     -10.238   9.511  69.970  1.00  0.00     0.000 HD 
HETATM   16  C   UNL     1     -10.701  11.659  66.689  1.00  0.00    -0.310 A  
HETATM   17  C   UNL     1     -10.531  10.918  65.498  1.00  0.00    -0.219 A  
HETATM   18  C   UNL     1     -11.078  13.133  66.628  1.00  0.00    -0.316 C  
HETATM   19  C   UNL     1     -10.954  13.866  67.967  1.00  0.00    -0.251 C  
HETATM   20  C   UNL     1     -10.148   9.559  65.517  1.00  0.00    -0.072 A  
HETATM   21  O   UNL     1     -10.786  11.500  64.286  1.00  0.00    -0.327 OA 
HETATM   22  C   UNL     1     -10.810  11.710  69.260  1.00  0.00    -0.152 C  
HETATM   23  C   UNL     1      -9.903   8.803  64.260  1.00  0.00     2.286 C  
HETATM   24  C   UNL     1     -11.604  13.001  69.050  1.00  0.00    -0.367 C  
HETATM   25  O   UNL     1      -9.578  14.140  68.238  1.00  0.00    -0.214 OA 
HETATM   26  H   UNL     1     -10.672  11.001  63.485  1.00  0.00     0.000 HD 
HETATM   27  O   UNL     1      -9.925   9.338  63.158  1.00  0.00     1.477 OA 
HETATM   28  H   UNL     1      -9.502  14.594  69.069  1.00  0.00     0.000 HD 
BRANCH  19  29
HETATM   29  C   UNL     1     -11.680  15.220  67.891  1.00  0.00    -0.217 C  
HETATM   30  O   UNL     1     -12.843  15.323  67.485  1.00  0.00     1.305 OA 
BRANCH  29  31
HETATM   31  C   UNL     1     -10.881  16.469  68.258  1.00  0.00    -0.352 C  
HETATM   32  O   UNL     1     -10.979  16.775  69.644  1.00  0.00    -0.349 OA 
HETATM   33  H   UNL     1     -10.482  17.551  69.872  1.00  0.00     0.000 HD 
ENDBRANCH  29  31
ENDBRANCH  19  29
BRANCH  22  34
HETATM   34  O   UNL     1      -9.532  11.972  69.866  1.00  0.00     1.703 OA 
BRANCH  34  35
HETATM   35  C   UNL     1      -8.449  12.243  68.965  1.00  0.00     0.398 C  
HETATM   36  C   UNL     1      -7.585  13.451  69.335  1.00  0.00     0.452 C  
HETATM   37  C   UNL     1      -6.819  13.161  70.621  1.00  0.00     1.521 C  
HETATM   38  C   UNL     1      -5.957  11.895  70.414  1.00  0.00    -0.115 C  
HETATM   39  N   UNL     1      -6.010  14.319  71.033  1.00  0.00    -0.257 NA 
HETATM   40  C   UNL     1      -6.859  10.733  69.957  1.00  0.00    -0.122 C  
HETATM   41  H2  UNL     1      -6.579  15.162  71.117  1.00  0.00     0.000 HD 
HETATM   42  O   UNL     1      -5.254  11.531  71.603  1.00  0.00    -0.311 OA 
HETATM   43  H1  UNL     1      -5.498  14.125  71.893  1.00  0.00     0.000 HD 
HETATM   44  C   UNL     1      -6.018   9.515  69.581  1.00  0.00    -0.036 C  
HETATM   45  H   UNL     1      -4.725  10.753  71.476  1.00  0.00     0.000 HD 
HETATM   46  O   UNL     1      -7.633  11.079  68.805  1.00  0.00    -0.110 OA 
ENDBRANCH  34  35
ENDBRANCH  22  34
ENDBRANCH   2   3
TORSDOF 5
ENDMDL
MODEL      134
REMARK 921   NORMALIZED FREE ENERGY PREDICTED BY IDOCK:   10.33 KCAL/MOL
REMARK 922        TOTAL FREE ENERGY PREDICTED BY IDOCK:   12.31 KCAL/MOL
REMARK 923 INTER-LIGAND FREE ENERGY PREDICTED BY IDOCK:   11.84 KCAL/MOL
REMARK 924 INTRA-LIGAND FREE ENERGY PREDICTED BY IDOCK:    0.47 KCAL/MOL
REMARK 927      BINDING AFFINITY PREDICTED BY RF-SCORE:    0.00 PKD
ROOT
HETATM    1  C   UNL     1      -8.293  14.006  70.836  1.00  0.00     4.493 C  
HETATM    2  O   UNL     1      -8.896  13.743  69.573  1.00  0.00     0.670 OA 
ENDROOT
BRANCH   2   3
HETATM    3  C   UNL     1      -8.109  13.152  68.620  1.00  0.00    -0.014 A  
HETATM    4  C   UNL     1      -7.688  13.849  67.475  1.00  0.00    -0.192 A  
HETATM    5  C   UNL     1      -6.881  13.236  66.522  1.00  0.00     2.085 A  
HETATM    6  C   UNL     1      -6.486  11.920  66.704  1.00  0.00     0.065 A  
HETATM    7  C   UNL     1      -6.912  11.199  67.830  1.00  0.00    -0.078 A  
HETATM    8  C   UNL     1      -7.737  11.797  68.785  1.00  0.00    -0.091 A  
HETATM    9  C   UNL     1      -8.187  10.975  69.941  1.00  0.00     0.847 C  
HETATM   10  O   UNL     1      -9.002  11.388  70.760  1.00  0.00     3.774 OA 
HETATM   11  C   UNL     1      -7.659   9.598  70.133  1.00  0.00    -0.165 A  
HETATM   12  C   UNL     1      -8.000   8.862  71.289  1.00  0.00    -0.129 A  
HETATM   13  O   UNL     1      -8.791   9.405  72.277  1.00  0.00     0.130 OA 
HETATM   14  C   UNL     1      -7.534   7.548  71.504  1.00  0.00    -0.079 A  
HETATM   15  H   UNL     1      -9.020   8.909  73.055  1.00  0.00     0.000 HD 
HETATM   16  C   UNL     1      -6.704   6.954  70.523  1.00  0.00    -0.053 A  
HETATM   17  C   UNL     1      -6.324   7.718  69.397  1.00  0.00    -0.035 A  
HETATM   18  C   UNL     1      -6.183   5.533  70.698  1.00  0.00    -0.026 C  
HETATM   19  C   UNL     1      -6.889   4.740  71.801  1.00  0.00    -0.051 C  
HETATM   20  C   UNL     1      -6.815   9.024  69.187  1.00  0.00    -0.054 A  
HETATM   21  O   UNL     1      -5.421   7.215  68.500  1.00  0.00    -0.019 OA 
HETATM   22  C   UNL     1      -7.919   6.815  72.788  1.00  0.00    -0.099 C  
HETATM   23  C   UNL     1      -6.468   9.797  67.964  1.00  0.00    -0.056 C  
HETATM   24  C   UNL     1      -6.988   5.628  73.044  1.00  0.00    -0.080 C  
HETATM   25  O   UNL     1      -8.169   4.306  71.336  1.00  0.00    -0.080 OA 
HETATM   26  H   UNL     1      -5.166   7.728  67.743  1.00  0.00     0.000 HD 
HETATM   27  O   UNL     1      -5.825   9.311  67.041  1.00  0.00    -0.044 OA 
HETATM   28  H   UNL     1      -8.606   3.814  72.020  1.00  0.00     0.000 HD 
BRANCH  19  29
HETATM   29  C   UNL     1      -6.077   3.478  72.138  1.00  0.00    -0.013 C  
HETATM   30  O   UNL     1      -5.378   3.395  73.154  1.00  0.00     0.000 OA 
BRANCH  29  31
HETATM   31  C   UNL     1      -6.092   2.338  71.121  1.00  0.00    -0.018 C  
HETATM   32  O   UNL     1      -7.416   1.926  70.803  1.00  0.00    -0.033 OA 
HETATM   33  H   UNL     1      -7.425   1.218  70.171  1.00  0.00     0.000 HD 
ENDBRANCH  29  31
ENDBRANCH  19  29
BRANCH  22  34
HETATM   34  O   UNL     1      -9.287   6.391  72.660  1.00  0.00    -0.143 OA 
BRANCH  34  35
HETATM   35  C   UNL     1      -9.975   6.097  73.884  1.00  0.00    -0.227 C  
HETATM   36  C   UNL     1     -11.501   6.050  73.775  1.00  0.00     0.883 C  
HETATM   37  C   UNL     1     -11.919   4.857  72.921  1.00  0.00     0.093 C  
HETATM   38  C   UNL     1     -11.359   3.566  73.561  1.00  0.00    -0.123 C  
HETATM   39  N   UNL     1     -13.379   4.804  72.756  1.00  0.00     0.666 NA 
HETATM   40  C   UNL     1      -9.835   3.700  73.731  1.00  0.00    -0.110 C  
HETATM   41  H2  UNL     1     -13.746   5.679  72.382  1.00  0.00     0.000 HD 
HETATM   42  O   UNL     1     -11.665   2.410  72.778  1.00  0.00     0.361 OA 
HETATM   43  H1  UNL     1     -13.658   4.007  72.186  1.00  0.00     0.000 HD 
HETATM   44  C   UNL     1      -9.274   2.514  74.513  1.00  0.00    -0.098 C  
HETATM   45  H   UNL     1     -11.321   1.617  73.171  1.00  0.00     0.000 HD 
HETATM   46  O   UNL     1      -9.479   4.883  74.454  1.00  0.00    -0.120 OA 
ENDBRANCH  34  35
ENDBRANCH  22  34
ENDBRANCH   2   3
TORSDOF 5
ENDMDL
MODEL      135
REMARK 921   NORMALIZED FREE ENERGY PREDICTED BY IDOCK:   10.41 KCAL/MOL
REMARK 922        TOTAL FREE ENERGY PREDICTED BY IDOCK:   12.41 KCAL/MOL
REMARK 923 INTER-LIGAND FREE ENERGY PREDICTED BY IDOCK:   11.58 KCAL/MOL
REMARK 924 INTRA-LIGAND FREE ENERGY PREDICTED BY IDOCK:    0.83 KCAL/MOL
REMARK 927      BINDING AFFINITY PREDICTED BY RF-SCORE:    0.00 PKD
ROOT
HETATM    1  C   UNL     1      -9.368   8.069  72.724  1.00  0.00    -0.263 C  
HETATM    2  O   UNL     1      -9.619   9.329  72.107  1.00  0.00    -0.165 OA 
ENDROOT
BRANCH   2   3
HETATM    3  C   UNL     1     -10.910   9.591  71.732  1.00  0.00    -0.013 A  
HETATM    4  C   UNL     1     -11.971   8.746  72.099  1.00  0.00    -0.436 A  
HETATM    5  C   UNL     1     -13.277   9.032  71.717  1.00  0.00    -0.445 A  
HETATM    6  C   UNL     1     -13.537  10.167  70.964  1.00  0.00    -0.084 A  
HETATM    7  C   UNL     1     -12.490  11.013  70.569  1.00  0.00    -0.432 A  
HETATM    8  C   UNL     1     -11.171  10.727  70.931  1.00  0.00     0.235 A  
HETATM    9  C   UNL     1     -10.096  11.640  70.455  1.00  0.00     3.435 C  
HETATM   10  O   UNL     1      -8.906  11.398  70.631  1.00  0.00     3.203 OA 
HETATM   11  C   UNL     1     -10.442  12.891  69.729  1.00  0.00     0.961 A  
HETATM   12  C   UNL     1      -9.429  13.810  69.378  1.00  0.00     0.712 A  
HETATM   13  O   UNL     1      -8.114  13.595  69.725  1.00  0.00     0.287 OA 
HETATM   14  C   UNL     1      -9.710  15.001  68.675  1.00  0.00    -0.219 A  
HETATM   15  H   UNL     1      -7.433  14.214  69.488  1.00  0.00     0.000 HD 
HETATM   16  C   UNL     1     -11.051  15.273  68.310  1.00  0.00    -0.301 A  
HETATM   17  C   UNL     1     -12.063  14.374  68.714  1.00  0.00    -0.241 A  
HETATM   18  C   UNL     1     -11.409  16.537  67.540  1.00  0.00     0.143 C  
HETATM   19  C   UNL     1     -10.204  17.262  66.933  1.00  0.00    -0.322 C  
HETATM   20  C   UNL     1     -11.763  13.177  69.399  1.00  0.00    -0.386 A  
HETATM   21  O   UNL     1     -13.379  14.677  68.488  1.00  0.00     1.625 OA 
HETATM   22  C   UNL     1      -8.572  15.966  68.347  1.00  0.00    -0.178 C  
HETATM   23  C   UNL     1     -12.827  12.201  69.759  1.00  0.00     0.717 C  
HETATM   24  C   UNL     1      -9.112  17.355  68.002  1.00  0.00    -0.259 C  
HETATM   25  O   UNL     1      -9.766  16.569  65.763  1.00  0.00    -0.469 OA 
HETATM   26  H   UNL     1     -14.060  14.072  68.759  1.00  0.00     0.000 HD 
HETATM   27  O   UNL     1     -13.991  12.336  69.401  1.00  0.00     4.909 OA 
HETATM   28  H   UNL     1      -9.019  17.018  65.387  1.00  0.00     0.000 HD 
BRANCH  19  29
HETATM   29  C   UNL     1     -10.613  18.679  66.496  1.00  0.00    -0.358 C  
HETATM   30  O   UNL     1     -10.773  18.982  65.308  1.00  0.00    -0.500 OA 
BRANCH  29  31
HETATM   31  C   UNL     1     -10.737  19.743  67.584  1.00  0.00    -0.324 C  
HETATM   32  O   UNL     1      -9.957  20.896  67.292  1.00  0.00    -0.472 OA 
HETATM   33  H   UNL     1     -10.035  21.558  67.969  1.00  0.00     0.000 HD 
ENDBRANCH  29  31
ENDBRANCH  19  29
BRANCH  22  34
HETATM   34  O   UNL     1      -7.822  15.407  67.254  1.00  0.00    -0.171 OA 
BRANCH  34  35
HETATM   35  C   UNL     1      -6.395  15.516  67.346  1.00  0.00    -0.072 C  
HETATM   36  C   UNL     1      -5.844  15.617  68.771  1.00  0.00    -0.100 C  
HETATM   37  C   UNL     1      -6.077  14.301  69.507  1.00  0.00    -0.112 C  
HETATM   38  C   UNL     1      -5.394  13.161  68.718  1.00  0.00    -0.073 C  
HETATM   39  N   UNL     1      -5.600  14.375  70.896  1.00  0.00    -0.163 NA 
HETATM   40  C   UNL     1      -5.916  13.159  67.270  1.00  0.00     0.162 C  
HETATM   41  H2  UNL     1      -6.017  15.163  71.394  1.00  0.00     0.000 HD 
HETATM   42  O   UNL     1      -5.623  11.887  69.323  1.00  0.00    -0.055 OA 
HETATM   43  H1  UNL     1      -5.756  13.496  71.388  1.00  0.00     0.000 HD 
HETATM   44  C   UNL     1      -5.140  12.156  66.420  1.00  0.00     0.508 C  
HETATM   45  H   UNL     1      -5.203  11.186  68.838  1.00  0.00     0.000 HD 
HETATM   46  O   UNL     1      -5.768  14.439  66.646  1.00  0.00     1.295 OA 
ENDBRANCH  34  35
ENDBRANCH  22  34
ENDBRANCH   2   3
TORSDOF 5
ENDMDL
MODEL      136
REMARK 921   NORMALIZED FREE ENERGY PREDICTED BY IDOCK:   11.15 KCAL/MOL
REMARK 922        TOTAL FREE ENERGY PREDICTED BY IDOCK:   13.36 KCAL/MOL
REMARK 923 INTER-LIGAND FREE ENERGY PREDICTED BY IDOCK:    9.19 KCAL/MOL
REMARK 924 INTRA-LIGAND FREE ENERGY PREDICTED BY IDOCK:    4.17 KCAL/MOL
REMARK 927      BINDING AFFINITY PREDICTED BY RF-SCORE:    0.00 PKD
ROOT
HETATM    1  C   UNL     1      -5.975   8.100  63.817  1.00  0.00    -0.066 C  
HETATM    2  O   UNL     1      -7.354   7.760  63.711  1.00  0.00    -0.083 OA 
ENDROOT
BRANCH   2   3
HETATM    3  C   UNL     1      -7.926   7.139  64.790  1.00  0.00    -0.122 A  
HETATM    4  C   UNL     1      -8.538   5.879  64.678  1.00  0.00     0.036 A  
HETATM    5  C   UNL     1      -9.105   5.260  65.787  1.00  0.00    -0.161 A  
HETATM    6  C   UNL     1      -9.066   5.893  67.020  1.00  0.00    -0.116 A  
HETATM    7  C   UNL     1      -8.478   7.160  67.150  1.00  0.00    -0.121 A  
HETATM    8  C   UNL     1      -7.921   7.801  66.040  1.00  0.00    -0.108 A  
HETATM    9  C   UNL     1      -7.341   9.159  66.229  1.00  0.00    -0.092 C  
HETATM   10  O   UNL     1      -6.938   9.835  65.288  1.00  0.00    -0.099 OA 
HETATM   11  C   UNL     1      -7.244   9.750  67.590  1.00  0.00    -0.089 A  
HETATM   12  C   UNL     1      -6.593  10.989  67.780  1.00  0.00    -0.063 A  
HETATM   13  O   UNL     1      -6.006  11.659  66.731  1.00  0.00    -0.138 OA 
HETATM   14  C   UNL     1      -6.492  11.593  69.051  1.00  0.00    -0.082 A  
HETATM   15  H   UNL     1      -5.568  12.493  66.859  1.00  0.00     0.000 HD 
HETATM   16  C   UNL     1      -7.068  10.934  70.164  1.00  0.00     0.176 A  
HETATM   17  C   UNL     1      -7.668   9.670  69.972  1.00  0.00    -0.157 A  
HETATM   18  C   UNL     1      -6.999  11.547  71.556  1.00  0.00     4.634 C  
HETATM   19  C   UNL     1      -6.580  13.020  71.570  1.00  0.00     2.838 C  
HETATM   20  C   UNL     1      -7.780   9.088  68.690  1.00  0.00    -0.096 A  
HETATM   21  O   UNL     1      -8.117   8.953  71.048  1.00  0.00    -0.143 OA 
HETATM   22  C   UNL     1      -5.753  12.923  69.194  1.00  0.00    -0.076 C  
HETATM   23  C   UNL     1      -8.476   7.789  68.485  1.00  0.00    -0.129 C  
HETATM   24  C   UNL     1      -5.366  13.184  70.651  1.00  0.00    -0.151 C  
HETATM   25  O   UNL     1      -7.682  13.836  71.171  1.00  0.00     2.364 OA 
HETATM   26  H   UNL     1      -8.521   8.103  70.919  1.00  0.00     0.000 HD 
HETATM   27  O   UNL     1      -9.066   7.210  69.390  1.00  0.00    -0.145 OA 
HETATM   28  H   UNL     1      -7.422  14.750  71.179  1.00  0.00     0.000 HD 
BRANCH  19  29
HETATM   29  C   UNL     1      -6.198  13.441  73.000  1.00  0.00     1.991 C  
HETATM   30  O   UNL     1      -6.669  14.448  73.539  1.00  0.00     0.833 OA 
BRANCH  29  31
HETATM   31  C   UNL     1      -5.137  12.609  73.719  1.00  0.00     0.262 C  
HETATM   32  O   UNL     1      -5.393  11.214  73.612  1.00  0.00    -0.108 OA 
HETATM   33  H   UNL     1      -4.732  10.698  74.059  1.00  0.00     0.000 HD 
ENDBRANCH  29  31
ENDBRANCH  19  29
BRANCH  22  34
HETATM   34  O   UNL     1      -6.609  13.960  68.684  1.00  0.00    -0.082 OA 
BRANCH  34  35
HETATM   35  C   UNL     1      -7.209  13.713  67.404  1.00  0.00    -0.091 C  
HETATM   36  C   UNL     1      -8.602  13.079  67.454  1.00  0.00    -0.199 C  
HETATM   37  C   UNL     1      -9.598  14.070  68.047  1.00  0.00    -0.217 C  
HETATM   38  C   UNL     1      -9.593  15.356  67.188  1.00  0.00    -0.212 C  
HETATM   39  N   UNL     1     -10.940  13.480  68.152  1.00  0.00    -0.246 NA 
HETATM   40  C   UNL     1      -8.157  15.903  67.097  1.00  0.00    -0.207 C  
HETATM   41  H2  UNL     1     -10.925  12.605  68.676  1.00  0.00     0.000 HD 
HETATM   42  O   UNL     1     -10.465  16.354  67.723  1.00  0.00    -0.283 OA 
HETATM   43  H1  UNL     1     -11.606  14.143  68.549  1.00  0.00     0.000 HD 
HETATM   44  C   UNL     1      -8.089  17.074  66.119  1.00  0.00    -0.292 C  
HETATM   45  H   UNL     1     -10.462  17.144  67.196  1.00  0.00     0.000 HD 
HETATM   46  O   UNL     1      -7.236  14.913  66.628  1.00  0.00     0.234 OA 
ENDBRANCH  34  35
ENDBRANCH  22  34
ENDBRANCH   2   3
TORSDOF 5
ENDMDL
MODEL      137
REMARK 921   NORMALIZED FREE ENERGY PREDICTED BY IDOCK:   11.45 KCAL/MOL
REMARK 922        TOTAL FREE ENERGY PREDICTED BY IDOCK:   13.75 KCAL/MOL
REMARK 923 INTER-LIGAND FREE ENERGY PREDICTED BY IDOCK:   11.95 KCAL/MOL
REMARK 924 INTRA-LIGAND FREE ENERGY PREDICTED BY IDOCK:    1.80 KCAL/MOL
REMARK 927      BINDING AFFINITY PREDICTED BY RF-SCORE:    0.00 PKD
ROOT
HETATM    1  C   UNL     1      -9.115   7.350  68.072  1.00  0.00    -0.130 C  
HETATM    2  O   UNL     1     -10.518   7.115  68.160  1.00  0.00    -0.188 OA 
ENDROOT
BRANCH   2   3
HETATM    3  C   UNL     1     -11.136   7.477  69.328  1.00  0.00     0.050 A  
HETATM    4  C   UNL     1     -11.749   6.527  70.163  1.00  0.00    -0.419 A  
HETATM    5  C   UNL     1     -12.364   6.911  71.350  1.00  0.00    -0.421 A  
HETATM    6  C   UNL     1     -12.374   8.249  71.714  1.00  0.00    -0.366 A  
HETATM    7  C   UNL     1     -11.787   9.216  70.884  1.00  0.00    -0.327 A  
HETATM    8  C   UNL     1     -11.182   8.846  69.680  1.00  0.00     0.035 A  
HETATM    9  C   UNL     1     -10.606   9.917  68.823  1.00  0.00    -0.222 C  
HETATM   10  O   UNL     1     -10.160   9.690  67.702  1.00  0.00    -0.171 OA 
HETATM   11  C   UNL     1     -10.563  11.323  69.306  1.00  0.00    -0.187 A  
HETATM   12  C   UNL     1      -9.916  12.317  68.540  1.00  0.00    -0.170 A  
HETATM   13  O   UNL     1      -9.283  12.011  67.356  1.00  0.00    -0.172 OA 
HETATM   14  C   UNL     1      -9.866  13.665  68.953  1.00  0.00     0.019 A  
HETATM   15  H   UNL     1      -8.848  12.680  66.841  1.00  0.00     0.000 HD 
HETATM   16  C   UNL     1     -10.490  14.026  70.171  1.00  0.00     0.842 A  
HETATM   17  C   UNL     1     -11.087  13.014  70.957  1.00  0.00     2.774 A  
HETATM   18  C   UNL     1     -10.478  15.468  70.659  1.00  0.00    -0.053 C  
HETATM   19  C   UNL     1     -10.054  16.484  69.593  1.00  0.00    -0.100 C  
HETATM   20  C   UNL     1     -11.147  11.673  70.520  1.00  0.00     0.906 A  
HETATM   21  O   UNL     1     -11.583  13.312  72.197  1.00  0.00     1.424 OA 
HETATM   22  C   UNL     1      -9.129  14.688  68.090  1.00  0.00    -0.187 C  
HETATM   23  C   UNL     1     -11.839  10.626  71.319  1.00  0.00    -0.161 C  
HETATM   24  C   UNL     1      -8.803  15.950  68.891  1.00  0.00    -0.225 C  
HETATM   25  O   UNL     1     -11.136  16.708  68.687  1.00  0.00    -0.341 OA 
HETATM   26  H   UNL     1     -11.985  12.632  72.725  1.00  0.00     0.000 HD 
HETATM   27  O   UNL     1     -12.468  10.887  72.338  1.00  0.00     0.415 OA 
HETATM   28  H   UNL     1     -10.873  17.338  68.027  1.00  0.00     0.000 HD 
BRANCH  19  29
HETATM   29  C   UNL     1      -9.731  17.833  70.257  1.00  0.00     1.973 C  
HETATM   30  O   UNL     1      -8.571  18.218  70.438  1.00  0.00     2.599 OA 
BRANCH  29  31
HETATM   31  C   UNL     1     -10.906  18.664  70.772  1.00  0.00     2.957 C  
HETATM   32  O   UNL     1     -11.002  19.918  70.107  1.00  0.00     0.451 OA 
HETATM   33  H   UNL     1     -11.733  20.433  70.428  1.00  0.00     0.000 HD 
ENDBRANCH  29  31
ENDBRANCH  19  29
BRANCH  22  34
HETATM   34  O   UNL     1      -9.959  14.987  66.954  1.00  0.00    -0.238 OA 
BRANCH  34  35
HETATM   35  C   UNL     1      -9.272  15.327  65.741  1.00  0.00    -0.098 C  
HETATM   36  C   UNL     1     -10.061  16.217  64.778  1.00  0.00     0.852 C  
HETATM   37  C   UNL     1     -10.252  17.600  65.393  1.00  0.00     0.291 C  
HETATM   38  C   UNL     1      -8.863  18.201  65.707  1.00  0.00     0.442 C  
HETATM   39  N   UNL     1     -11.046  18.471  64.514  1.00  0.00     0.842 NA 
HETATM   40  C   UNL     1      -8.077  17.228  66.606  1.00  0.00    -0.265 C  
HETATM   41  H2  UNL     1     -11.939  18.042  64.269  1.00  0.00     0.000 HD 
HETATM   42  O   UNL     1      -8.969  19.477  66.342  1.00  0.00    -0.342 OA 
HETATM   43  H1  UNL     1     -11.173  19.394  64.926  1.00  0.00     0.000 HD 
HETATM   44  C   UNL     1      -6.642  17.713  66.796  1.00  0.00    -0.226 C  
HETATM   45  H   UNL     1      -8.116  19.846  66.536  1.00  0.00     0.000 HD 
HETATM   46  O   UNL     1      -8.004  15.917  66.037  1.00  0.00     0.083 OA 
ENDBRANCH  34  35
ENDBRANCH  22  34
ENDBRANCH   2   3
TORSDOF 5
ENDMDL
MODEL      138
REMARK 921   NORMALIZED FREE ENERGY PREDICTED BY IDOCK:   11.99 KCAL/MOL
REMARK 922        TOTAL FREE ENERGY PREDICTED BY IDOCK:   14.45 KCAL/MOL
REMARK 923 INTER-LIGAND FREE ENERGY PREDICTED BY IDOCK:   10.02 KCAL/MOL
REMARK 924 INTRA-LIGAND FREE ENERGY PREDICTED BY IDOCK:    4.44 KCAL/MOL
REMARK 927      BINDING AFFINITY PREDICTED BY RF-SCORE:    0.00 PKD
ROOT
HETATM    1  C   UNL     1     -12.298  17.182  69.660  1.00  0.00     3.921 C  
HETATM    2  O   UNL     1     -13.170  16.055  69.675  1.00  0.00     0.435 OA 
ENDROOT
BRANCH   2   3
HETATM    3  C   UNL     1     -13.340  15.417  70.876  1.00  0.00    -0.418 A  
HETATM    4  C   UNL     1     -13.874  16.080  71.994  1.00  0.00     0.086 A  
HETATM    5  C   UNL     1     -14.048  15.414  73.203  1.00  0.00     0.308 A  
HETATM    6  C   UNL     1     -13.691  14.079  73.307  1.00  0.00     0.839 A  
HETATM    7  C   UNL     1     -13.136  13.404  72.209  1.00  0.00    -0.484 A  
HETATM    8  C   UNL     1     -12.939  14.066  70.994  1.00  0.00    -0.378 A  
HETATM    9  C   UNL     1     -12.315  13.312  69.873  1.00  0.00    -0.163 C  
HETATM   10  O   UNL     1     -12.003  13.849  68.815  1.00  0.00    -0.341 OA 
HETATM   11  C   UNL     1     -12.036  11.857  70.012  1.00  0.00    -0.366 A  
HETATM   12  C   UNL     1     -11.549  11.120  68.911  1.00  0.00    -0.317 A  
HETATM   13  O   UNL     1     -11.355  11.711  67.682  1.00  0.00    -0.260 OA 
HETATM   14  C   UNL     1     -11.256   9.743  69.002  1.00  0.00    -0.080 A  
HETATM   15  H   UNL     1     -11.027  11.215  66.941  1.00  0.00     0.000 HD 
HETATM   16  C   UNL     1     -11.455   9.088  70.242  1.00  0.00    -0.147 A  
HETATM   17  C   UNL     1     -11.994   9.822  71.322  1.00  0.00    -0.386 A  
HETATM   18  C   UNL     1     -11.143   7.606  70.401  1.00  0.00    -0.270 C  
HETATM   19  C   UNL     1     -10.315   7.016  69.256  1.00  0.00    -0.200 C  
HETATM   20  C   UNL     1     -12.263  11.204  71.220  1.00  0.00    -0.328 A  
HETATM   21  O   UNL     1     -12.317   9.186  72.490  1.00  0.00    -0.290 OA 
HETATM   22  C   UNL     1     -10.755   8.998  67.767  1.00  0.00    -0.151 C  
HETATM   23  C   UNL     1     -12.764  11.986  72.382  1.00  0.00     0.782 C  
HETATM   24  C   UNL     1     -10.922   7.486  67.931  1.00  0.00    -0.027 C  
HETATM   25  O   UNL     1      -8.948   7.407  69.401  1.00  0.00    -0.140 OA 
HETATM   26  H   UNL     1     -12.679   9.679  73.216  1.00  0.00     0.000 HD 
HETATM   27  O   UNL     1     -12.878  11.499  73.501  1.00  0.00     4.970 OA 
HETATM   28  H   UNL     1      -8.435   7.041  68.691  1.00  0.00     0.000 HD 
BRANCH  19  29
HETATM   29  C   UNL     1     -10.356   5.479  69.320  1.00  0.00    -0.265 C  
HETATM   30  O   UNL     1      -9.854   4.769  68.442  1.00  0.00    -0.152 OA 
BRANCH  29  31
HETATM   31  C   UNL     1     -11.122   4.843  70.479  1.00  0.00     1.028 C  
HETATM   32  O   UNL     1     -10.729   5.383  71.735  1.00  0.00    -0.232 OA 
HETATM   33  H   UNL     1     -11.206   4.987  72.456  1.00  0.00     0.000 HD 
ENDBRANCH  29  31
ENDBRANCH  19  29
BRANCH  22  34
HETATM   34  O   UNL     1      -9.376   9.356  67.565  1.00  0.00    -0.126 OA 
BRANCH  34  35
HETATM   35  C   UNL     1      -8.546   9.355  68.734  1.00  0.00    -0.127 C  
HETATM   36  C   UNL     1      -7.041   9.303  68.460  1.00  0.00    -0.071 C  
HETATM   37  C   UNL     1      -6.593  10.600  67.794  1.00  0.00    -0.060 C  
HETATM   38  C   UNL     1      -6.957  11.785  68.718  1.00  0.00    -0.103 C  
HETATM   39  N   UNL     1      -5.159  10.568  67.474  1.00  0.00    -0.037 NA 
HETATM   40  C   UNL     1      -8.463  11.741  69.035  1.00  0.00     0.217 C  
HETATM   41  H2  UNL     1      -4.919   9.754  66.908  1.00  0.00     0.000 HD 
HETATM   42  O   UNL     1      -6.617  13.041  68.127  1.00  0.00    -0.080 OA 
HETATM   43  H1  UNL     1      -4.860  11.436  67.029  1.00  0.00     0.000 HD 
HETATM   44  C   UNL     1      -8.823  12.797  70.078  1.00  0.00     3.565 C  
HETATM   45  H   UNL     1      -6.841  13.769  68.695  1.00  0.00     0.000 HD 
HETATM   46  O   UNL     1      -8.860  10.474  69.568  1.00  0.00    -0.134 OA 
ENDBRANCH  34  35
ENDBRANCH  22  34
ENDBRANCH   2   3
TORSDOF 5
ENDMDL
MODEL      139
REMARK 921   NORMALIZED FREE ENERGY PREDICTED BY IDOCK:   14.58 KCAL/MOL
REMARK 922        TOTAL FREE ENERGY PREDICTED BY IDOCK:   17.79 KCAL/MOL
REMARK 923 INTER-LIGAND FREE ENERGY PREDICTED BY IDOCK:   10.48 KCAL/MOL
REMARK 924 INTRA-LIGAND FREE ENERGY PREDICTED BY IDOCK:    7.31 KCAL/MOL
REMARK 927      BINDING AFFINITY PREDICTED BY RF-SCORE:    0.00 PKD
ROOT
HETATM    1  C   UNL     1      -9.959  17.791  69.595  1.00  0.00     0.326 C  
HETATM    2  O   UNL     1     -11.294  17.456  69.963  1.00  0.00     0.856 OA 
ENDROOT
BRANCH   2   3
HETATM    3  C   UNL     1     -11.451  16.594  71.017  1.00  0.00     0.166 A  
HETATM    4  C   UNL     1     -11.660  17.059  72.325  1.00  0.00     0.583 A  
HETATM    5  C   UNL     1     -11.826  16.170  73.382  1.00  0.00    -0.390 A  
HETATM    6  C   UNL     1     -11.784  14.805  73.141  1.00  0.00    -0.070 A  
HETATM    7  C   UNL     1     -11.555  14.319  71.845  1.00  0.00     0.551 A  
HETATM    8  C   UNL     1     -11.369  15.202  70.778  1.00  0.00    -0.341 A  
HETATM    9  C   UNL     1     -11.096  14.632  69.431  1.00  0.00    -0.268 C  
HETATM   10  O   UNL     1     -10.808  15.335  68.468  1.00  0.00    -0.238 OA 
HETATM   11  C   UNL     1     -11.153  13.161  69.213  1.00  0.00    -0.201 A  
HETATM   12  C   UNL     1     -11.004  12.630  67.914  1.00  0.00    -0.230 A  
HETATM   13  O   UNL     1     -10.840  13.449  66.819  1.00  0.00    -0.279 OA 
HETATM   14  C   UNL     1     -11.037  11.242  67.664  1.00  0.00    -0.336 A  
HETATM   15  H   UNL     1     -10.739  13.091  65.944  1.00  0.00     0.000 HD 
HETATM   16  C   UNL     1     -11.219  10.360  68.757  1.00  0.00    -0.295 A  
HETATM   17  C   UNL     1     -11.422  10.904  70.045  1.00  0.00    -0.329 A  
HETATM   18  C   UNL     1     -11.249   8.852  68.547  1.00  0.00     0.369 C  
HETATM   19  C   UNL     1     -10.743   8.402  67.173  1.00  0.00    -0.152 C  
HETATM   20  C   UNL     1     -11.366  12.295  70.281  1.00  0.00     0.299 A  
HETATM   21  O   UNL     1     -11.729  10.082  71.096  1.00  0.00    -0.345 OA 
HETATM   22  C   UNL     1     -10.894  10.733  66.231  1.00  0.00    -0.073 C  
HETATM   23  C   UNL     1     -11.511  12.856  71.652  1.00  0.00     3.071 C  
HETATM   24  C   UNL     1     -11.391   9.291  66.108  1.00  0.00     2.506 C  
HETATM   25  O   UNL     1      -9.316   8.466  67.144  1.00  0.00    -0.143 OA 
HETATM   26  H   UNL     1     -11.865  10.448  71.962  1.00  0.00     0.000 HD 
HETATM   27  O   UNL     1     -11.587  12.146  72.647  1.00  0.00     4.635 OA 
HETATM   28  H   UNL     1      -9.002   8.186  66.292  1.00  0.00     0.000 HD 
BRANCH  19  29
HETATM   29  C   UNL     1     -11.138   6.937  66.926  1.00  0.00    -0.149 C  
HETATM   30  O   UNL     1     -11.774   6.585  65.926  1.00  0.00     2.276 OA 
BRANCH  29  31
HETATM   31  C   UNL     1     -10.789   5.920  68.012  1.00  0.00    -0.232 C  
HETATM   32  O   UNL     1     -10.244   6.544  69.168  1.00  0.00    -0.164 OA 
HETATM   33  H   UNL     1     -10.027   5.911  69.843  1.00  0.00     0.000 HD 
ENDBRANCH  29  31
ENDBRANCH  19  29
BRANCH  22  34
HETATM   34  O   UNL     1      -9.509  10.845  65.859  1.00  0.00    -0.191 OA 
BRANCH  34  35
HETATM   35  C   UNL     1      -8.603   9.950  66.520  1.00  0.00    -0.124 C  
HETATM   36  C   UNL     1      -8.212   8.711  65.711  1.00  0.00    -0.126 C  
HETATM   37  C   UNL     1      -7.374   9.124  64.506  1.00  0.00    -0.099 C  
HETATM   38  C   UNL     1      -6.126   9.887  65.006  1.00  0.00    -0.100 C  
HETATM   39  N   UNL     1      -7.017   7.962  63.680  1.00  0.00    -0.073 NA 
HETATM   40  C   UNL     1      -6.570  11.071  65.885  1.00  0.00     0.016 C  
HETATM   41  H2  UNL     1      -7.844   7.434  63.398  1.00  0.00     0.000 HD 
HETATM   42  O   UNL     1      -5.323  10.357  63.921  1.00  0.00    -0.122 OA 
HETATM   43  H1  UNL     1      -6.457   8.239  62.874  1.00  0.00     0.000 HD 
HETATM   44  C   UNL     1      -5.361  11.744  66.531  1.00  0.00     0.007 C  
HETATM   45  H   UNL     1      -4.556  10.827  64.228  1.00  0.00     0.000 HD 
HETATM   46  O   UNL     1      -7.434  10.653  66.947  1.00  0.00    -0.104 OA 
ENDBRANCH  34  35
ENDBRANCH  22  34
ENDBRANCH   2   3
TORSDOF 5
ENDMDL
MODEL      140
REMARK 921   NORMALIZED FREE ENERGY PREDICTED BY IDOCK:   14.75 KCAL/MOL
REMARK 922        TOTAL FREE ENERGY PREDICTED BY IDOCK:   18.01 KCAL/MOL
REMARK 923 INTER-LIGAND FREE ENERGY PREDICTED BY IDOCK:    1.71 KCAL/MOL
REMARK 924 INTRA-LIGAND FREE ENERGY PREDICTED BY IDOCK:   16.31 KCAL/MOL
REMARK 927      BINDING AFFINITY PREDICTED BY RF-SCORE:    0.00 PKD
ROOT
HETATM    1  C   UNL     1      -9.838   5.629  67.635  1.00  0.00    -0.135 C  
HETATM    2  O   UNL     1      -8.920   5.092  66.687  1.00  0.00    -0.114 OA 
ENDROOT
BRANCH   2   3
HETATM    3  C   UNL     1      -8.721   5.811  65.538  1.00  0.00    -0.138 A  
HETATM    4  C   UNL     1      -8.802   5.214  64.270  1.00  0.00    -0.015 A  
HETATM    5  C   UNL     1      -8.606   5.961  63.113  1.00  0.00     0.171 A  
HETATM    6  C   UNL     1      -8.327   7.316  63.214  1.00  0.00     0.175 A  
HETATM    7  C   UNL     1      -8.220   7.928  64.471  1.00  0.00    -0.073 A  
HETATM    8  C   UNL     1      -8.397   7.185  65.641  1.00  0.00    -0.138 A  
HETATM    9  C   UNL     1      -8.239   7.878  66.948  1.00  0.00    -0.116 C  
HETATM   10  O   UNL     1      -8.264   7.275  68.016  1.00  0.00    -0.118 OA 
HETATM   11  C   UNL     1      -8.029   9.350  66.995  1.00  0.00    -0.102 A  
HETATM   12  C   UNL     1      -7.991  10.021  68.237  1.00  0.00    -0.097 A  
HETATM   13  O   UNL     1      -8.181   9.347  69.423  1.00  0.00    -0.104 OA 
HETATM   14  C   UNL     1      -7.780  11.413  68.329  1.00  0.00    -0.124 A  
HETATM   15  H   UNL     1      -8.155   9.799  70.258  1.00  0.00     0.000 HD 
HETATM   16  C   UNL     1      -7.596  12.152  67.135  1.00  0.00    -0.132 A  
HETATM   17  C   UNL     1      -7.690  11.479  65.896  1.00  0.00     0.354 A  
HETATM   18  C   UNL     1      -7.351  13.654  67.176  1.00  0.00     0.133 C  
HETATM   19  C   UNL     1      -6.997  14.192  68.566  1.00  0.00    -0.104 C  
HETATM   20  C   UNL     1      -7.882  10.083  65.821  1.00  0.00    -0.128 A  
HETATM   21  O   UNL     1      -7.645  12.188  64.726  1.00  0.00     2.239 OA 
HETATM   22  C   UNL     1      -7.774  12.083  69.702  1.00  0.00     0.898 C  
HETATM   23  C   UNL     1      -7.910   9.371  64.515  1.00  0.00    -0.121 C  
HETATM   24  C   UNL     1      -7.979  13.594  69.577  1.00  0.00     0.738 C  
HETATM   25  O   UNL     1      -5.638  13.874  68.871  1.00  0.00    -0.079 OA 
HETATM   26  H   UNL     1      -7.708  11.736  63.893  1.00  0.00     0.000 HD 
HETATM   27  O   UNL     1      -7.674   9.937  63.454  1.00  0.00    -0.134 OA 
HETATM   28  H   UNL     1      -5.418  14.208  69.733  1.00  0.00     0.000 HD 
BRANCH  19  29
HETATM   29  C   UNL     1      -7.119  15.725  68.579  1.00  0.00    -0.118 C  
HETATM   30  O   UNL     1      -8.135  16.302  68.981  1.00  0.00    -0.224 OA 
BRANCH  29  31
HETATM   31  C   UNL     1      -5.959  16.529  67.994  1.00  0.00    -0.120 C  
HETATM   32  O   UNL     1      -6.024  16.600  66.575  1.00  0.00    -0.313 OA 
HETATM   33  H   UNL     1      -5.303  17.100  66.212  1.00  0.00     0.000 HD 
ENDBRANCH  29  31
ENDBRANCH  19  29
BRANCH  22  34
HETATM   34  O   UNL     1      -6.522  11.773  70.339  1.00  0.00    -0.184 OA 
BRANCH  34  35
HETATM   35  C   UNL     1      -6.057  10.424  70.195  1.00  0.00    -0.097 C  
HETATM   36  C   UNL     1      -5.169   9.921  71.336  1.00  0.00    -0.075 C  
HETATM   37  C   UNL     1      -5.992   9.803  72.615  1.00  0.00     0.519 C  
HETATM   38  C   UNL     1      -7.178   8.844  72.358  1.00  0.00     0.206 C  
HETATM   39  N   UNL     1      -5.161   9.363  73.745  1.00  0.00    -0.114 NA 
HETATM   40  C   UNL     1      -7.986   9.346  71.148  1.00  0.00     0.131 C  
HETATM   41  H2  UNL     1      -4.352   9.971  73.875  1.00  0.00     0.000 HD 
HETATM   42  O   UNL     1      -8.026   8.733  73.502  1.00  0.00    -0.409 OA 
HETATM   43  H1  UNL     1      -5.711   9.285  74.600  1.00  0.00     0.000 HD 
HETATM   44  C   UNL     1      -9.063   8.334  70.764  1.00  0.00    -0.168 C  
HETATM   45  H   UNL     1      -8.755   8.145  73.345  1.00  0.00     0.000 HD 
HETATM   46  O   UNL     1      -7.160   9.537  69.995  1.00  0.00    -0.066 OA 
ENDBRANCH  34  35
ENDBRANCH  22  34
ENDBRANCH   2   3
TORSDOF 5
ENDMDL
MODEL      141
REMARK 921   NORMALIZED FREE ENERGY PREDICTED BY IDOCK:   15.50 KCAL/MOL
REMARK 922        TOTAL FREE ENERGY PREDICTED BY IDOCK:   18.98 KCAL/MOL
REMARK 923 INTER-LIGAND FREE ENERGY PREDICTED BY IDOCK:   11.43 KCAL/MOL
REMARK 924 INTRA-LIGAND FREE ENERGY PREDICTED BY IDOCK:    7.55 KCAL/MOL
REMARK 927      BINDING AFFINITY PREDICTED BY RF-SCORE:    0.00 PKD
ROOT
HETATM    1  C   UNL     1      -7.767  17.737  65.465  1.00  0.00     0.596 C  
HETATM    2  O   UNL     1      -8.100  18.758  66.401  1.00  0.00    -0.271 OA 
ENDROOT
BRANCH   2   3
HETATM    3  C   UNL     1      -9.343  18.695  66.973  1.00  0.00    -0.294 A  
HETATM    4  C   UNL     1     -10.074  19.854  67.279  1.00  0.00    -0.569 A  
HETATM    5  C   UNL     1     -11.339  19.771  67.852  1.00  0.00     0.651 A  
HETATM    6  C   UNL     1     -11.887  18.527  68.125  1.00  0.00     2.593 A  
HETATM    7  C   UNL     1     -11.165  17.357  67.847  1.00  0.00     0.151 A  
HETATM    8  C   UNL     1      -9.886  17.427  67.288  1.00  0.00    -0.278 A  
HETATM    9  C   UNL     1      -9.152  16.155  67.046  1.00  0.00    -0.209 C  
HETATM   10  O   UNL     1      -7.985  16.134  66.667  1.00  0.00    -0.235 OA 
HETATM   11  C   UNL     1      -9.823  14.847  67.272  1.00  0.00    -0.229 A  
HETATM   12  C   UNL     1      -9.164  13.644  66.936  1.00  0.00    -0.250 A  
HETATM   13  O   UNL     1      -7.912  13.648  66.362  1.00  0.00     0.098 OA 
HETATM   14  C   UNL     1      -9.757  12.382  67.148  1.00  0.00    -0.207 A  
HETATM   15  H   UNL     1      -7.469  12.839  66.136  1.00  0.00     0.000 HD 
HETATM   16  C   UNL     1     -11.051  12.327  67.721  1.00  0.00    -0.304 A  
HETATM   17  C   UNL     1     -11.723  13.537  68.003  1.00  0.00    -0.359 A  
HETATM   18  C   UNL     1     -11.733  10.991  67.984  1.00  0.00    -0.257 C  
HETATM   19  C   UNL     1     -10.795   9.783  67.897  1.00  0.00    -0.242 C  
HETATM   20  C   UNL     1     -11.108  14.793  67.804  1.00  0.00    -0.306 A  
HETATM   21  O   UNL     1     -13.021  13.516  68.436  1.00  0.00     0.633 OA 
HETATM   22  C   UNL     1      -9.001  11.119  66.739  1.00  0.00    -0.165 C  
HETATM   23  C   UNL     1     -11.795  16.061  68.169  1.00  0.00     0.071 C  
HETATM   24  C   UNL     1      -9.949   9.923  66.628  1.00  0.00    -0.277 C  
HETATM   25  O   UNL     1      -9.999   9.708  69.080  1.00  0.00    -0.170 OA 
HETATM   26  H   UNL     1     -13.473  14.330  68.626  1.00  0.00     0.000 HD 
HETATM   27  O   UNL     1     -12.877  16.079  68.744  1.00  0.00     0.802 OA 
HETATM   28  H   UNL     1      -9.418   8.959  69.026  1.00  0.00     0.000 HD 
BRANCH  19  29
HETATM   29  C   UNL     1     -11.620   8.487  67.821  1.00  0.00     1.946 C  
HETATM   30  O   UNL     1     -12.159   8.109  66.775  1.00  0.00     4.353 OA 
BRANCH  29  31
HETATM   31  C   UNL     1     -11.827   7.708  69.119  1.00  0.00     1.281 C  
HETATM   32  O   UNL     1     -10.877   8.070  70.114  1.00  0.00    -0.243 OA 
HETATM   33  H   UNL     1     -11.007   7.585  70.920  1.00  0.00     0.000 HD 
ENDBRANCH  29  31
ENDBRANCH  19  29
BRANCH  22  34
HETATM   34  O   UNL     1      -7.972  10.885  67.717  1.00  0.00    -0.108 OA 
BRANCH  34  35
HETATM   35  C   UNL     1      -8.396  10.865  69.087  1.00  0.00    -0.069 C  
HETATM   36  C   UNL     1      -7.414  10.205  70.058  1.00  0.00    -0.171 C  
HETATM   37  C   UNL     1      -6.148  11.049  70.164  1.00  0.00    -0.138 C  
HETATM   38  C   UNL     1      -6.535  12.470  70.633  1.00  0.00     0.898 C  
HETATM   39  N   UNL     1      -5.161  10.422  71.056  1.00  0.00    -0.077 NA 
HETATM   40  C   UNL     1      -7.589  13.055  69.675  1.00  0.00     0.915 C  
HETATM   41  H2  UNL     1      -4.951   9.466  70.769  1.00  0.00     0.000 HD 
HETATM   42  O   UNL     1      -5.399  13.335  70.698  1.00  0.00    -0.117 OA 
HETATM   43  H1  UNL     1      -4.315  10.987  71.127  1.00  0.00     0.000 HD 
HETATM   44  C   UNL     1      -8.116  14.387  70.203  1.00  0.00     1.064 C  
HETATM   45  H   UNL     1      -5.637  14.208  70.986  1.00  0.00     0.000 HD 
HETATM   46  O   UNL     1      -8.717  12.187  69.527  1.00  0.00     0.924 OA 
ENDBRANCH  34  35
ENDBRANCH  22  34
ENDBRANCH   2   3
TORSDOF 5
ENDMDL
MODEL      142
REMARK 921   NORMALIZED FREE ENERGY PREDICTED BY IDOCK:   16.84 KCAL/MOL
REMARK 922        TOTAL FREE ENERGY PREDICTED BY IDOCK:   20.71 KCAL/MOL
REMARK 923 INTER-LIGAND FREE ENERGY PREDICTED BY IDOCK:   13.79 KCAL/MOL
REMARK 924 INTRA-LIGAND FREE ENERGY PREDICTED BY IDOCK:    6.92 KCAL/MOL
REMARK 927      BINDING AFFINITY PREDICTED BY RF-SCORE:    0.00 PKD
ROOT
HETATM    1  C   UNL     1     -11.616  10.656  71.006  1.00  0.00    -0.129 C  
HETATM    2  O   UNL     1     -11.335   9.259  70.995  1.00  0.00    -0.271 OA 
ENDROOT
BRANCH   2   3
HETATM    3  C   UNL     1     -10.104   8.878  70.531  1.00  0.00    -0.205 A  
HETATM    4  C   UNL     1      -9.610   7.578  70.732  1.00  0.00    -0.166 A  
HETATM    5  C   UNL     1      -8.361   7.205  70.245  1.00  0.00    -0.136 A  
HETATM    6  C   UNL     1      -7.593   8.128  69.552  1.00  0.00    -0.100 A  
HETATM    7  C   UNL     1      -8.058   9.437  69.359  1.00  0.00    -0.105 A  
HETATM    8  C   UNL     1      -9.302   9.830  69.858  1.00  0.00    -0.262 A  
HETATM    9  C   UNL     1      -9.731  11.240  69.653  1.00  0.00     0.647 C  
HETATM   10  O   UNL     1     -10.753  11.694  70.158  1.00  0.00     0.408 OA 
HETATM   11  C   UNL     1      -8.908  12.161  68.824  1.00  0.00     0.108 A  
HETATM   12  C   UNL     1      -9.371  13.464  68.539  1.00  0.00    -0.097 A  
HETATM   13  O   UNL     1     -10.598  13.902  68.984  1.00  0.00    -0.308 OA 
HETATM   14  C   UNL     1      -8.617  14.374  67.770  1.00  0.00    -0.171 A  
HETATM   15  H   UNL     1     -10.910  14.779  68.792  1.00  0.00     0.000 HD 
HETATM   16  C   UNL     1      -7.354  13.964  67.277  1.00  0.00    -0.017 A  
HETATM   17  C   UNL     1      -6.925  12.640  67.521  1.00  0.00    -0.150 A  
HETATM   18  C   UNL     1      -6.492  14.910  66.452  1.00  0.00     3.266 C  
HETATM   19  C   UNL     1      -6.944  16.373  66.505  1.00  0.00     0.031 C  
HETATM   20  C   UNL     1      -7.682  11.747  68.310  1.00  0.00    -0.130 A  
HETATM   21  O   UNL     1      -5.771  12.177  66.949  1.00  0.00    -0.252 OA 
HETATM   22  C   UNL     1      -9.185  15.762  67.477  1.00  0.00    -0.204 C  
HETATM   23  C   UNL     1      -7.191  10.378  68.623  1.00  0.00    -0.082 C  
HETATM   24  C   UNL     1      -8.460  16.415  66.298  1.00  0.00    -0.372 C  
HETATM   25  O   UNL     1      -6.545  16.953  67.748  1.00  0.00    -0.133 OA 
HETATM   26  H   UNL     1      -5.482  11.287  67.114  1.00  0.00     0.000 HD 
HETATM   27  O   UNL     1      -6.074   9.992  68.298  1.00  0.00    -0.045 OA 
HETATM   28  H   UNL     1      -6.825  17.860  67.781  1.00  0.00     0.000 HD 
BRANCH  19  29
HETATM   29  C   UNL     1      -6.253  17.173  65.388  1.00  0.00     1.416 C  
HETATM   30  O   UNL     1      -5.538  16.635  64.536  1.00  0.00     4.094 OA 
BRANCH  29  31
HETATM   31  C   UNL     1      -6.412  18.693  65.409  1.00  0.00    -0.264 C  
HETATM   32  O   UNL     1      -5.704  19.286  66.491  1.00  0.00    -0.158 OA 
HETATM   33  H   UNL     1      -5.803  20.231  66.503  1.00  0.00     0.000 HD 
ENDBRANCH  29  31
ENDBRANCH  19  29
BRANCH  22  34
HETATM   34  O   UNL     1      -9.062  16.551  68.672  1.00  0.00    -0.221 OA 
BRANCH  34  35
HETATM   35  C   UNL     1     -10.080  17.540  68.884  1.00  0.00    -0.346 C  
HETATM   36  C   UNL     1     -10.336  18.470  67.696  1.00  0.00    -0.442 C  
HETATM   37  C   UNL     1     -10.946  17.677  66.544  1.00  0.00     0.251 C  
HETATM   38  C   UNL     1     -12.254  17.014  67.033  1.00  0.00     3.051 C  
HETATM   39  N   UNL     1     -11.166  18.530  65.367  1.00  0.00     0.086 NA 
HETATM   40  C   UNL     1     -11.957  16.161  68.281  1.00  0.00     0.274 C  
HETATM   41  H2  UNL     1     -10.309  19.005  65.083  1.00  0.00     0.000 HD 
HETATM   42  O   UNL     1     -12.849  16.204  66.017  1.00  0.00     2.690 OA 
HETATM   43  H1  UNL     1     -11.573  18.000  64.597  1.00  0.00     0.000 HD 
HETATM   44  C   UNL     1     -13.253  15.628  68.888  1.00  0.00     2.261 C  
HETATM   45  H   UNL     1     -13.653  15.796  66.318  1.00  0.00     0.000 HD 
HETATM   46  O   UNL     1     -11.298  16.918  69.301  1.00  0.00    -0.026 OA 
ENDBRANCH  34  35
ENDBRANCH  22  34
ENDBRANCH   2   3
TORSDOF 5
ENDMDL
MODEL      143
REMARK 921   NORMALIZED FREE ENERGY PREDICTED BY IDOCK:   17.20 KCAL/MOL
REMARK 922        TOTAL FREE ENERGY PREDICTED BY IDOCK:   21.17 KCAL/MOL
REMARK 923 INTER-LIGAND FREE ENERGY PREDICTED BY IDOCK:   14.94 KCAL/MOL
REMARK 924 INTRA-LIGAND FREE ENERGY PREDICTED BY IDOCK:    6.23 KCAL/MOL
REMARK 927      BINDING AFFINITY PREDICTED BY RF-SCORE:    0.00 PKD
ROOT
HETATM    1  C   UNL     1     -12.425  13.961  73.126  1.00  0.00     0.404 C  
HETATM    2  O   UNL     1     -11.701  15.038  72.537  1.00  0.00    -0.370 OA 
ENDROOT
BRANCH   2   3
HETATM    3  C   UNL     1     -12.038  15.385  71.255  1.00  0.00    -0.366 A  
HETATM    4  C   UNL     1     -12.908  16.454  70.985  1.00  0.00     1.523 A  
HETATM    5  C   UNL     1     -13.233  16.799  69.678  1.00  0.00     5.302 A  
HETATM    6  C   UNL     1     -12.690  16.079  68.625  1.00  0.00     1.478 A  
HETATM    7  C   UNL     1     -11.835  14.994  68.872  1.00  0.00    -0.337 A  
HETATM    8  C   UNL     1     -11.516  14.626  70.182  1.00  0.00    -0.310 A  
HETATM    9  C   UNL     1     -10.632  13.446  70.387  1.00  0.00     2.002 C  
HETATM   10  O   UNL     1     -10.397  12.989  71.501  1.00  0.00     6.590 OA 
HETATM   11  C   UNL     1     -10.006  12.767  69.221  1.00  0.00     0.564 A  
HETATM   12  C   UNL     1      -9.080  11.720  69.423  1.00  0.00     0.856 A  
HETATM   13  O   UNL     1      -8.708  11.326  70.689  1.00  0.00     2.178 OA 
HETATM   14  C   UNL     1      -8.474  11.039  68.347  1.00  0.00    -0.144 A  
HETATM   15  H   UNL     1      -8.086  10.621  70.825  1.00  0.00     0.000 HD 
HETATM   16  C   UNL     1      -8.814  11.419  67.026  1.00  0.00    -0.168 A  
HETATM   17  C   UNL     1      -9.698  12.504  66.834  1.00  0.00    -0.232 A  
HETATM   18  C   UNL     1      -8.200  10.709  65.826  1.00  0.00    -0.161 C  
HETATM   19  C   UNL     1      -7.493   9.395  66.173  1.00  0.00    -0.096 C  
HETATM   20  C   UNL     1     -10.312  13.162  67.922  1.00  0.00    -0.232 A  
HETATM   21  O   UNL     1      -9.943  12.975  65.573  1.00  0.00    -0.355 OA 
HETATM   22  C   UNL     1      -7.463   9.930  68.633  1.00  0.00    -0.075 C  
HETATM   23  C   UNL     1     -11.297  14.257  67.712  1.00  0.00    -0.307 C  
HETATM   24  C   UNL     1      -6.608   9.634  67.399  1.00  0.00    -0.070 C  
HETATM   25  O   UNL     1      -8.465   8.371  66.391  1.00  0.00    -0.114 OA 
HETATM   26  H   UNL     1     -10.538  13.704  65.444  1.00  0.00     0.000 HD 
HETATM   27  O   UNL     1     -11.695  14.577  66.598  1.00  0.00    -0.372 OA 
HETATM   28  H   UNL     1      -8.027   7.556  66.606  1.00  0.00     0.000 HD 
BRANCH  19  29
HETATM   29  C   UNL     1      -6.618   8.945  64.991  1.00  0.00    -0.069 C  
HETATM   30  O   UNL     1      -6.001   7.875  64.996  1.00  0.00    -0.041 OA 
BRANCH  29  31
HETATM   31  C   UNL     1      -6.462   9.916  63.821  1.00  0.00    -0.126 C  
HETATM   32  O   UNL     1      -7.674  10.069  63.092  1.00  0.00    -0.137 OA 
HETATM   33  H   UNL     1      -7.577  10.673  62.365  1.00  0.00     0.000 HD 
ENDBRANCH  29  31
ENDBRANCH  19  29
BRANCH  22  34
HETATM   34  O   UNL     1      -8.192   8.766  69.059  1.00  0.00    -0.114 OA 
BRANCH  34  35
HETATM   35  C   UNL     1      -9.561   8.689  68.637  1.00  0.00    -0.155 C  
HETATM   36  C   UNL     1      -9.793   7.924  67.331  1.00  0.00    -0.237 C  
HETATM   37  C   UNL     1      -9.474   6.447  67.536  1.00  0.00    -0.117 C  
HETATM   38  C   UNL     1     -10.364   5.898  68.675  1.00  0.00    -0.215 C  
HETATM   39  N   UNL     1      -9.643   5.687  66.288  1.00  0.00    -0.168 NA 
HETATM   40  C   UNL     1     -10.159   6.755  69.939  1.00  0.00    -0.180 C  
HETATM   41  H2  UNL     1      -9.093   6.087  65.528  1.00  0.00     0.000 HD 
HETATM   42  O   UNL     1     -10.075   4.529  68.961  1.00  0.00    -0.129 OA 
HETATM   43  H1  UNL     1      -9.430   4.699  66.425  1.00  0.00     0.000 HD 
HETATM   44  C   UNL     1     -11.145   6.346  71.030  1.00  0.00    -0.349 C  
HETATM   45  H   UNL     1     -10.621   4.192  69.661  1.00  0.00     0.000 HD 
HETATM   46  O   UNL     1     -10.373   8.147  69.681  1.00  0.00    -0.212 OA 
ENDBRANCH  34  35
ENDBRANCH  22  34
ENDBRANCH   2   3
TORSDOF 5
ENDMDL
MODEL      144
REMARK 921   NORMALIZED FREE ENERGY PREDICTED BY IDOCK:   17.84 KCAL/MOL
REMARK 922        TOTAL FREE ENERGY PREDICTED BY IDOCK:   22.01 KCAL/MOL
REMARK 923 INTER-LIGAND FREE ENERGY PREDICTED BY IDOCK:    9.24 KCAL/MOL
REMARK 924 INTRA-LIGAND FREE ENERGY PREDICTED BY IDOCK:   12.77 KCAL/MOL
REMARK 927      BINDING AFFINITY PREDICTED BY RF-SCORE:    0.00 PKD
ROOT
HETATM    1  C   UNL     1      -5.733   6.525  67.974  1.00  0.00    -0.012 C  
HETATM    2  O   UNL     1      -5.967   5.886  66.722  1.00  0.00    -0.017 OA 
ENDROOT
BRANCH   2   3
HETATM    3  C   UNL     1      -7.244   5.933  66.229  1.00  0.00    -0.080 A  
HETATM    4  C   UNL     1      -7.781   4.881  65.469  1.00  0.00    -0.086 A  
HETATM    5  C   UNL     1      -9.083   4.941  64.984  1.00  0.00    -0.133 A  
HETATM    6  C   UNL     1      -9.863   6.055  65.255  1.00  0.00     0.881 A  
HETATM    7  C   UNL     1      -9.340   7.126  65.994  1.00  0.00    -0.019 A  
HETATM    8  C   UNL     1      -8.027   7.086  66.472  1.00  0.00    -0.108 A  
HETATM    9  C   UNL     1      -7.513   8.265  67.220  1.00  0.00    -0.089 C  
HETATM   10  O   UNL     1      -6.341   8.357  67.572  1.00  0.00    -0.054 OA 
HETATM   11  C   UNL     1      -8.422   9.392  67.560  1.00  0.00    -0.122 A  
HETATM   12  C   UNL     1      -7.961  10.456  68.366  1.00  0.00    -0.110 A  
HETATM   13  O   UNL     1      -6.685  10.463  68.885  1.00  0.00    -0.055 OA 
HETATM   14  C   UNL     1      -8.784  11.552  68.700  1.00  0.00    -0.103 A  
HETATM   15  H   UNL     1      -6.376  11.179  69.427  1.00  0.00     0.000 HD 
HETATM   16  C   UNL     1     -10.110  11.582  68.203  1.00  0.00    -0.201 A  
HETATM   17  C   UNL     1     -10.578  10.486  67.443  1.00  0.00    -0.263 A  
HETATM   18  C   UNL     1     -11.037  12.747  68.521  1.00  0.00    -0.300 C  
HETATM   19  C   UNL     1     -10.325  13.972  69.103  1.00  0.00    -0.049 C  
HETATM   20  C   UNL     1      -9.735   9.406  67.101  1.00  0.00    -0.225 A  
HETATM   21  O   UNL     1     -11.890  10.428  67.060  1.00  0.00     0.098 OA 
HETATM   22  C   UNL     1      -8.233  12.659  69.597  1.00  0.00     1.690 C  
HETATM   23  C   UNL     1     -10.214   8.290  66.241  1.00  0.00     0.092 C  
HETATM   24  C   UNL     1      -9.366  13.495  70.197  1.00  0.00     3.144 C  
HETATM   25  O   UNL     1      -9.654  14.678  68.057  1.00  0.00    -0.204 OA 
HETATM   26  H   UNL     1     -12.205   9.692  66.549  1.00  0.00     0.000 HD 
HETATM   27  O   UNL     1     -11.319   8.297  65.712  1.00  0.00     3.735 OA 
HETATM   28  H   UNL     1      -9.213  15.437  68.418  1.00  0.00     0.000 HD 
BRANCH  19  29
HETATM   29  C   UNL     1     -11.357  14.936  69.712  1.00  0.00    -0.283 C  
HETATM   30  O   UNL     1     -12.342  15.332  69.081  1.00  0.00    -0.190 OA 
BRANCH  29  31
HETATM   31  C   UNL     1     -11.081  15.465  71.119  1.00  0.00    -0.312 C  
HETATM   32  O   UNL     1     -12.191  16.184  71.644  1.00  0.00    -0.550 OA 
HETATM   33  H   UNL     1     -12.019  16.512  72.518  1.00  0.00     0.000 HD 
ENDBRANCH  29  31
ENDBRANCH  19  29
BRANCH  22  34
HETATM   34  O   UNL     1      -7.346  13.468  68.805  1.00  0.00    -0.105 OA 
BRANCH  34  35
HETATM   35  C   UNL     1      -7.967  14.321  67.833  1.00  0.00    -0.153 C  
HETATM   36  C   UNL     1      -8.610  15.589  68.401  1.00  0.00    -0.168 C  
HETATM   37  C   UNL     1      -7.527  16.517  68.942  1.00  0.00    -0.225 C  
HETATM   38  C   UNL     1      -6.539  16.849  67.801  1.00  0.00    -0.143 C  
HETATM   39  N   UNL     1      -8.111  17.728  69.538  1.00  0.00     0.437 NA 
HETATM   40  C   UNL     1      -5.989  15.540  67.206  1.00  0.00     0.160 C  
HETATM   41  H2  UNL     1      -8.800  17.499  70.254  1.00  0.00     0.000 HD 
HETATM   42  O   UNL     1      -5.461  17.671  68.255  1.00  0.00    -0.145 OA 
HETATM   43  H1  UNL     1      -7.387  18.348  69.900  1.00  0.00     0.000 HD 
HETATM   44  C   UNL     1      -5.141  15.826  65.968  1.00  0.00     3.322 C  
HETATM   45  H   UNL     1      -4.854  17.874  67.554  1.00  0.00     0.000 HD 
HETATM   46  O   UNL     1      -7.038  14.656  66.799  1.00  0.00     0.186 OA 
ENDBRANCH  34  35
ENDBRANCH  22  34
ENDBRANCH   2   3
TORSDOF 5
ENDMDL
MODEL      145
REMARK 921   NORMALIZED FREE ENERGY PREDICTED BY IDOCK:   17.95 KCAL/MOL
REMARK 922        TOTAL FREE ENERGY PREDICTED BY IDOCK:   22.15 KCAL/MOL
REMARK 923 INTER-LIGAND FREE ENERGY PREDICTED BY IDOCK:   14.30 KCAL/MOL
REMARK 924 INTRA-LIGAND FREE ENERGY PREDICTED BY IDOCK:    7.86 KCAL/MOL
REMARK 927      BINDING AFFINITY PREDICTED BY RF-SCORE:    0.00 PKD
ROOT
HETATM    1  C   UNL     1     -10.403  12.986  66.675  1.00  0.00    -0.260 C  
HETATM    2  O   UNL     1     -10.091  14.164  67.414  1.00  0.00    -0.237 OA 
ENDROOT
BRANCH   2   3
HETATM    3  C   UNL     1      -9.461  13.992  68.619  1.00  0.00    -0.142 A  
HETATM    4  C   UNL     1      -9.371  15.032  69.559  1.00  0.00    -0.070 A  
HETATM    5  C   UNL     1      -8.736  14.837  70.781  1.00  0.00     2.356 A  
HETATM    6  C   UNL     1      -8.184  13.600  71.076  1.00  0.00     6.167 A  
HETATM    7  C   UNL     1      -8.245  12.554  70.143  1.00  0.00     3.593 A  
HETATM    8  C   UNL     1      -8.864  12.742  68.905  1.00  0.00     0.333 A  
HETATM    9  C   UNL     1      -8.868  11.609  67.940  1.00  0.00    -0.155 C  
HETATM   10  O   UNL     1      -9.287  11.727  66.793  1.00  0.00    -0.183 OA 
HETATM   11  C   UNL     1      -8.343  10.278  68.344  1.00  0.00    -0.119 A  
HETATM   12  C   UNL     1      -8.451   9.176  67.467  1.00  0.00    -0.116 A  
HETATM   13  O   UNL     1      -9.069   9.293  66.242  1.00  0.00    -0.151 OA 
HETATM   14  C   UNL     1      -7.953   7.900  67.804  1.00  0.00    -0.124 A  
HETATM   15  H   UNL     1      -9.141   8.551  65.652  1.00  0.00     0.000 HD 
HETATM   16  C   UNL     1      -7.322   7.727  69.059  1.00  0.00    -0.089 A  
HETATM   17  C   UNL     1      -7.268   8.821  69.952  1.00  0.00    -0.051 A  
HETATM   18  C   UNL     1      -6.754   6.375  69.469  1.00  0.00    -0.053 C  
HETATM   19  C   UNL     1      -6.630   5.374  68.316  1.00  0.00    -0.049 C  
HETATM   20  C   UNL     1      -7.753  10.098  69.592  1.00  0.00    -0.167 A  
HETATM   21  O   UNL     1      -6.781   8.649  71.219  1.00  0.00    -0.058 OA 
HETATM   22  C   UNL     1      -8.122   6.744  66.820  1.00  0.00    -0.109 C  
HETATM   23  C   UNL     1      -7.630  11.262  70.509  1.00  0.00     2.406 C  
HETATM   24  C   UNL     1      -7.937   5.395  67.519  1.00  0.00    -0.101 C  
HETATM   25  O   UNL     1      -5.495   5.705  67.514  1.00  0.00    -0.011 OA 
HETATM   26  H   UNL     1      -6.745   9.385  71.819  1.00  0.00     0.000 HD 
HETATM   27  O   UNL     1      -7.022  11.200  71.572  1.00  0.00     2.131 OA 
HETATM   28  H   UNL     1      -5.419   5.084  66.799  1.00  0.00     0.000 HD 
BRANCH  19  29
HETATM   29  C   UNL     1      -6.395   3.960  68.875  1.00  0.00    -0.032 C  
HETATM   30  O   UNL     1      -5.730   3.114  68.269  1.00  0.00    -0.021 OA 
BRANCH  29  31
HETATM   31  C   UNL     1      -7.091   3.597  70.186  1.00  0.00    -0.041 C  
HETATM   32  O   UNL     1      -8.147   2.665  69.987  1.00  0.00    -0.042 OA 
HETATM   33  H   UNL     1      -8.579   2.440  70.802  1.00  0.00     0.000 HD 
ENDBRANCH  29  31
ENDBRANCH  19  29
BRANCH  22  34
HETATM   34  O   UNL     1      -7.166   6.922  65.760  1.00  0.00    -0.070 OA 
BRANCH  34  35
HETATM   35  C   UNL     1      -7.691   6.900  64.425  1.00  0.00    -0.113 C  
HETATM   36  C   UNL     1      -9.018   7.641  64.239  1.00  0.00     0.962 C  
HETATM   37  C   UNL     1      -8.803   9.139  64.436  1.00  0.00    -0.116 C  
HETATM   38  C   UNL     1      -7.739   9.626  63.426  1.00  0.00    -0.128 C  
HETATM   39  N   UNL     1     -10.067   9.880  64.309  1.00  0.00    -0.403 NA 
HETATM   40  C   UNL     1      -6.456   8.791  63.594  1.00  0.00    -0.088 C  
HETATM   41  H2  UNL     1     -10.780   9.517  64.942  1.00  0.00     0.000 HD 
HETATM   42  O   UNL     1      -7.445  11.014  63.595  1.00  0.00    -0.216 OA 
HETATM   43  H1  UNL     1      -9.923  10.881  64.440  1.00  0.00     0.000 HD 
HETATM   44  C   UNL     1      -5.445   9.133  62.502  1.00  0.00    -0.085 C  
HETATM   45  H   UNL     1      -6.791  11.314  62.975  1.00  0.00     0.000 HD 
HETATM   46  O   UNL     1      -6.716   7.387  63.500  1.00  0.00    -0.052 OA 
ENDBRANCH  34  35
ENDBRANCH  22  34
ENDBRANCH   2   3
TORSDOF 5
ENDMDL
MODEL      146
REMARK 921   NORMALIZED FREE ENERGY PREDICTED BY IDOCK:   19.66 KCAL/MOL
REMARK 922        TOTAL FREE ENERGY PREDICTED BY IDOCK:   24.36 KCAL/MOL
REMARK 923 INTER-LIGAND FREE ENERGY PREDICTED BY IDOCK:   14.60 KCAL/MOL
REMARK 924 INTRA-LIGAND FREE ENERGY PREDICTED BY IDOCK:    9.76 KCAL/MOL
REMARK 927      BINDING AFFINITY PREDICTED BY RF-SCORE:    0.00 PKD
ROOT
HETATM    1  C   UNL     1      -7.867  18.527  66.199  1.00  0.00    -0.204 C  
HETATM    2  O   UNL     1      -9.209  18.572  66.675  1.00  0.00    -0.289 OA 
ENDROOT
BRANCH   2   3
HETATM    3  C   UNL     1     -10.168  17.995  65.883  1.00  0.00    -0.229 A  
HETATM    4  C   UNL     1     -11.273  18.724  65.414  1.00  0.00     0.963 A  
HETATM    5  C   UNL     1     -12.232  18.125  64.604  1.00  0.00     7.221 A  
HETATM    6  C   UNL     1     -12.096  16.791  64.255  1.00  0.00     1.877 A  
HETATM    7  C   UNL     1     -11.011  16.039  64.730  1.00  0.00    -0.373 A  
HETATM    8  C   UNL     1     -10.051  16.623  65.559  1.00  0.00    -0.163 A  
HETATM    9  C   UNL     1      -8.940  15.770  66.061  1.00  0.00    -0.287 C  
HETATM   10  O   UNL     1      -8.123  16.175  66.883  1.00  0.00    -0.189 OA 
HETATM   11  C   UNL     1      -8.793  14.370  65.581  1.00  0.00     1.112 A  
HETATM   12  C   UNL     1      -7.677  13.599  65.972  1.00  0.00     3.025 A  
HETATM   13  O   UNL     1      -6.685  14.126  66.770  1.00  0.00    -0.086 OA 
HETATM   14  C   UNL     1      -7.506  12.264  65.552  1.00  0.00     2.680 A  
HETATM   15  H   UNL     1      -5.934  13.607  67.032  1.00  0.00     0.000 HD 
HETATM   16  C   UNL     1      -8.492  11.683  64.718  1.00  0.00     0.850 A  
HETATM   17  C   UNL     1      -9.576  12.479  64.288  1.00  0.00     0.209 A  
HETATM   18  C   UNL     1      -8.365  10.240  64.246  1.00  0.00    -0.165 C  
HETATM   19  C   UNL     1      -7.311   9.426  65.003  1.00  0.00    -0.105 C  
HETATM   20  C   UNL     1      -9.744  13.809  64.733  1.00  0.00     0.270 A  
HETATM   21  O   UNL     1     -10.473  11.985  63.380  1.00  0.00    -0.434 OA 
HETATM   22  C   UNL     1      -6.263  11.491  65.991  1.00  0.00     0.330 C  
HETATM   23  C   UNL     1     -10.926  14.619  64.333  1.00  0.00    -0.080 C  
HETATM   24  C   UNL     1      -6.035  10.266  65.103  1.00  0.00    -0.130 C  
HETATM   25  O   UNL     1      -7.823   9.053  66.284  1.00  0.00    -0.097 OA 
HETATM   26  H   UNL     1     -11.203  12.520  63.091  1.00  0.00     0.000 HD 
HETATM   27  O   UNL     1     -11.853  14.151  63.683  1.00  0.00    -0.184 OA 
HETATM   28  H   UNL     1      -7.170   8.548  66.753  1.00  0.00     0.000 HD 
BRANCH  19  29
HETATM   29  C   UNL     1      -7.008   8.126  64.238  1.00  0.00    -0.069 C  
HETATM   30  O   UNL     1      -6.092   8.044  63.414  1.00  0.00    -0.069 OA 
BRANCH  29  31
HETATM   31  C   UNL     1      -7.943   6.939  64.470  1.00  0.00    -0.106 C  
HETATM   32  O   UNL     1      -7.414   6.025  65.424  1.00  0.00    -0.077 OA 
HETATM   33  H   UNL     1      -7.996   5.288  65.568  1.00  0.00     0.000 HD 
ENDBRANCH  29  31
ENDBRANCH  19  29
BRANCH  22  34
HETATM   34  O   UNL     1      -6.439  11.117  67.368  1.00  0.00    -0.062 OA 
BRANCH  34  35
HETATM   35  C   UNL     1      -7.105   9.868  67.603  1.00  0.00    -0.087 C  
HETATM   36  C   UNL     1      -7.027   9.354  69.043  1.00  0.00    -0.059 C  
HETATM   37  C   UNL     1      -7.820  10.276  69.963  1.00  0.00    -0.038 C  
HETATM   38  C   UNL     1      -9.283  10.338  69.465  1.00  0.00    -0.170 C  
HETATM   39  N   UNL     1      -7.731   9.838  71.364  1.00  0.00    -0.022 NA 
HETATM   40  C   UNL     1      -9.300  10.774  67.988  1.00  0.00    -0.150 C  
HETATM   41  H2  UNL     1      -6.762   9.748  71.668  1.00  0.00     0.000 HD 
HETATM   42  O   UNL     1     -10.072  11.234  70.250  1.00  0.00     0.432 OA 
HETATM   43  H1  UNL     1      -8.262  10.454  71.978  1.00  0.00     0.000 HD 
HETATM   44  C   UNL     1     -10.714  10.684  67.418  1.00  0.00    -0.326 C  
HETATM   45  H   UNL     1     -10.970  11.273  69.944  1.00  0.00     0.000 HD 
HETATM   46  O   UNL     1      -8.467   9.942  67.175  1.00  0.00    -0.121 OA 
ENDBRANCH  34  35
ENDBRANCH  22  34
ENDBRANCH   2   3
TORSDOF 5
ENDMDL
MODEL      147
REMARK 921   NORMALIZED FREE ENERGY PREDICTED BY IDOCK:   19.68 KCAL/MOL
REMARK 922        TOTAL FREE ENERGY PREDICTED BY IDOCK:   24.38 KCAL/MOL
REMARK 923 INTER-LIGAND FREE ENERGY PREDICTED BY IDOCK:   22.22 KCAL/MOL
REMARK 924 INTRA-LIGAND FREE ENERGY PREDICTED BY IDOCK:    2.16 KCAL/MOL
REMARK 927      BINDING AFFINITY PREDICTED BY RF-SCORE:    0.00 PKD
ROOT
HETATM    1  C   UNL     1      -8.154  19.015  66.299  1.00  0.00    -0.285 C  
HETATM    2  O   UNL     1      -9.524  19.315  66.549  1.00  0.00    -0.326 OA 
ENDROOT
BRANCH   2   3
HETATM    3  C   UNL     1     -10.456  18.567  65.879  1.00  0.00    -0.347 A  
HETATM    4  C   UNL     1     -11.556  19.161  65.238  1.00  0.00     2.329 A  
HETATM    5  C   UNL     1     -12.488  18.388  64.555  1.00  0.00    10.178 A  
HETATM    6  C   UNL     1     -12.330  17.011  64.505  1.00  0.00     3.702 A  
HETATM    7  C   UNL     1     -11.250  16.396  65.155  1.00  0.00    -0.070 A  
HETATM    8  C   UNL     1     -10.317  17.160  65.861  1.00  0.00    -0.294 A  
HETATM    9  C   UNL     1      -9.211  16.452  66.561  1.00  0.00    -0.277 C  
HETATM   10  O   UNL     1      -8.420  17.036  67.294  1.00  0.00    -0.188 OA 
HETATM   11  C   UNL     1      -9.038  14.984  66.397  1.00  0.00    -0.312 A  
HETATM   12  C   UNL     1      -7.925  14.332  66.971  1.00  0.00     0.017 A  
HETATM   13  O   UNL     1      -6.959  15.033  67.659  1.00  0.00    -0.153 OA 
HETATM   14  C   UNL     1      -7.730  12.940  66.853  1.00  0.00     0.156 A  
HETATM   15  H   UNL     1      -6.210  14.594  68.045  1.00  0.00     0.000 HD 
HETATM   16  C   UNL     1      -8.688  12.178  66.141  1.00  0.00     0.094 A  
HETATM   17  C   UNL     1      -9.769  12.847  65.524  1.00  0.00    -0.062 A  
HETATM   18  C   UNL     1      -8.534  10.670  65.994  1.00  0.00    -0.165 C  
HETATM   19  C   UNL     1      -7.493  10.054  66.933  1.00  0.00    -0.095 C  
HETATM   20  C   UNL     1      -9.961  14.239  65.669  1.00  0.00    -0.346 A  
HETATM   21  O   UNL     1     -10.637  12.155  64.724  1.00  0.00    -0.273 OA 
HETATM   22  C   UNL     1      -6.491  12.300  67.476  1.00  0.00    -0.137 C  
HETATM   23  C   UNL     1     -11.140  14.926  65.076  1.00  0.00    -0.414 C  
HETATM   24  C   UNL     1      -6.228  10.915  66.879  1.00  0.00    -0.087 C  
HETATM   25  O   UNL     1      -8.033   9.958  68.252  1.00  0.00    -0.098 OA 
HETATM   26  H   UNL     1     -11.364  12.605  64.310  1.00  0.00     0.000 HD 
HETATM   27  O   UNL     1     -12.045  14.314  64.521  1.00  0.00    -0.441 OA 
HETATM   28  H   UNL     1      -7.387   9.576  68.833  1.00  0.00     0.000 HD 
BRANCH  19  29
HETATM   29  C   UNL     1      -7.157   8.625  66.474  1.00  0.00    -0.080 C  
HETATM   30  O   UNL     1      -6.101   8.064  66.783  1.00  0.00    -0.050 OA 
BRANCH  29  31
HETATM   31  C   UNL     1      -8.149   7.935  65.538  1.00  0.00    -0.130 C  
HETATM   32  O   UNL     1      -9.332   7.534  66.219  1.00  0.00    -0.245 OA 
HETATM   33  H   UNL     1      -9.948   7.106  65.636  1.00  0.00     0.000 HD 
ENDBRANCH  29  31
ENDBRANCH  19  29
BRANCH  22  34
HETATM   34  O   UNL     1      -6.699  12.228  68.898  1.00  0.00    -0.084 OA 
BRANCH  34  35
HETATM   35  C   UNL     1      -5.534  11.971  69.694  1.00  0.00    -0.078 C  
HETATM   36  C   UNL     1      -5.669  12.334  71.175  1.00  0.00     0.150 C  
HETATM   37  C   UNL     1      -6.680  11.408  71.843  1.00  0.00     4.491 C  
HETATM   38  C   UNL     1      -6.211   9.946  71.662  1.00  0.00     0.292 C  
HETATM   39  N   UNL     1      -6.869  11.757  73.259  1.00  0.00     6.285 NA 
HETATM   40  C   UNL     1      -6.004   9.658  70.164  1.00  0.00    -0.050 C  
HETATM   41  H2  UNL     1      -7.128  12.737  73.372  1.00  0.00     0.000 HD 
HETATM   42  O   UNL     1      -7.145   9.017  72.216  1.00  0.00    -0.323 OA 
HETATM   43  H1  UNL     1      -7.545  11.137  73.705  1.00  0.00     0.000 HD 
HETATM   44  C   UNL     1      -5.381   8.279  69.962  1.00  0.00    -0.022 C  
HETATM   45  H   UNL     1      -6.857   8.119  72.104  1.00  0.00     0.000 HD 
HETATM   46  O   UNL     1      -5.125  10.608  69.553  1.00  0.00    -0.039 OA 
ENDBRANCH  34  35
ENDBRANCH  22  34
ENDBRANCH   2   3
TORSDOF 5
ENDMDL
MODEL      148
REMARK 921   NORMALIZED FREE ENERGY PREDICTED BY IDOCK:   21.09 KCAL/MOL
REMARK 922        TOTAL FREE ENERGY PREDICTED BY IDOCK:   26.21 KCAL/MOL
REMARK 923 INTER-LIGAND FREE ENERGY PREDICTED BY IDOCK:   26.42 KCAL/MOL
REMARK 924 INTRA-LIGAND FREE ENERGY PREDICTED BY IDOCK:   -0.21 KCAL/MOL
REMARK 927      BINDING AFFINITY PREDICTED BY RF-SCORE:    0.00 PKD
ROOT
HETATM    1  C   UNL     1      -9.259  15.313  73.515  1.00  0.00    10.490 C  
HETATM    2  O   UNL     1     -10.406  14.494  73.311  1.00  0.00     3.261 OA 
ENDROOT
BRANCH   2   3
HETATM    3  C   UNL     1     -11.399  15.001  72.514  1.00  0.00     0.000 A  
HETATM    4  C   UNL     1     -12.313  15.955  72.992  1.00  0.00    -0.605 A  
HETATM    5  C   UNL     1     -13.309  16.466  72.166  1.00  0.00     0.939 A  
HETATM    6  C   UNL     1     -13.401  16.028  70.853  1.00  0.00     0.777 A  
HETATM    7  C   UNL     1     -12.511  15.061  70.362  1.00  0.00    -0.407 A  
HETATM    8  C   UNL     1     -11.518  14.526  71.187  1.00  0.00    -0.102 A  
HETATM    9  C   UNL     1     -10.624  13.478  70.624  1.00  0.00     2.568 C  
HETATM   10  O   UNL     1      -9.805  12.878  71.313  1.00  0.00     8.057 OA 
HETATM   11  C   UNL     1     -10.708  13.114  69.185  1.00  0.00    -0.072 A  
HETATM   12  C   UNL     1      -9.785  12.202  68.629  1.00  0.00    -0.081 A  
HETATM   13  O   UNL     1      -8.771  11.657  69.384  1.00  0.00    -0.206 OA 
HETATM   14  C   UNL     1      -9.839  11.817  67.273  1.00  0.00    -0.198 A  
HETATM   15  H   UNL     1      -8.150  11.043  69.009  1.00  0.00     0.000 HD 
HETATM   16  C   UNL     1     -10.855  12.362  66.451  1.00  0.00    -0.291 A  
HETATM   17  C   UNL     1     -11.739  13.315  67.004  1.00  0.00    -0.389 A  
HETATM   18  C   UNL     1     -10.968  11.972  64.984  1.00  0.00    -0.355 C  
HETATM   19  C   UNL     1     -10.140  10.741  64.600  1.00  0.00    -0.344 C  
HETATM   20  C   UNL     1     -11.686  13.675  68.368  1.00  0.00    -0.393 A  
HETATM   21  O   UNL     1     -12.648  13.954  66.203  1.00  0.00    -0.452 OA 
HETATM   22  C   UNL     1      -8.795  10.844  66.726  1.00  0.00    -0.145 C  
HETATM   23  C   UNL     1     -12.665  14.627  68.960  1.00  0.00     0.465 C  
HETATM   24  C   UNL     1      -8.739  10.898  65.198  1.00  0.00    -0.130 C  
HETATM   25  O   UNL     1     -10.800   9.559  65.055  1.00  0.00     0.895 OA 
HETATM   26  H   UNL     1     -13.242  14.595  66.575  1.00  0.00     0.000 HD 
HETATM   27  O   UNL     1     -13.616  15.068  68.326  1.00  0.00     3.672 OA 
HETATM   28  H   UNL     1     -10.287   8.796  64.816  1.00  0.00     0.000 HD 
BRANCH  19  29
HETATM   29  C   UNL     1     -10.033  10.641  63.068  1.00  0.00    -0.187 C  
HETATM   30  O   UNL     1     -11.029  10.626  62.337  1.00  0.00     1.136 OA 
BRANCH  29  31
HETATM   31  C   UNL     1      -8.638  10.474  62.470  1.00  0.00    -0.221 C  
HETATM   32  O   UNL     1      -7.845   9.558  63.216  1.00  0.00    -0.126 OA 
HETATM   33  H   UNL     1      -6.978   9.455  62.843  1.00  0.00     0.000 HD 
ENDBRANCH  29  31
ENDBRANCH  19  29
BRANCH  22  34
HETATM   34  O   UNL     1      -9.133   9.526  67.193  1.00  0.00    -0.133 OA 
BRANCH  34  35
HETATM   35  C   UNL     1      -8.063   8.767  67.772  1.00  0.00    -0.107 C  
HETATM   36  C   UNL     1      -8.486   7.776  68.859  1.00  0.00    -0.129 C  
HETATM   37  C   UNL     1      -9.323   6.661  68.242  1.00  0.00    -0.119 C  
HETATM   38  C   UNL     1      -8.493   5.966  67.139  1.00  0.00    -0.107 C  
HETATM   39  N   UNL     1      -9.786   5.712  69.265  1.00  0.00    -0.161 NA 
HETATM   40  C   UNL     1      -8.017   7.018  66.120  1.00  0.00    -0.110 C  
HETATM   41  H2  UNL     1     -10.288   6.186  70.016  1.00  0.00     0.000 HD 
HETATM   42  O   UNL     1      -9.241   4.945  66.476  1.00  0.00    -0.126 OA 
HETATM   43  H1  UNL     1     -10.346   4.967  68.853  1.00  0.00     0.000 HD 
HETATM   44  C   UNL     1      -7.055   6.393  65.111  1.00  0.00    -0.060 C  
HETATM   45  H   UNL     1      -8.730   4.518  65.798  1.00  0.00     0.000 HD 
HETATM   46  O   UNL     1      -7.320   8.097  66.751  1.00  0.00    -0.080 OA 
ENDBRANCH  34  35
ENDBRANCH  22  34
ENDBRANCH   2   3
TORSDOF 5
ENDMDL
MODEL      149
REMARK 921   NORMALIZED FREE ENERGY PREDICTED BY IDOCK:   23.23 KCAL/MOL
REMARK 922        TOTAL FREE ENERGY PREDICTED BY IDOCK:   28.98 KCAL/MOL
REMARK 923 INTER-LIGAND FREE ENERGY PREDICTED BY IDOCK:   -0.96 KCAL/MOL
REMARK 924 INTRA-LIGAND FREE ENERGY PREDICTED BY IDOCK:   29.93 KCAL/MOL
REMARK 927      BINDING AFFINITY PREDICTED BY RF-SCORE:    0.00 PKD
ROOT
HETATM    1  C   UNL     1      -6.128   2.249  71.451  1.00  0.00    -0.014 C  
HETATM    2  O   UNL     1      -7.002   3.085  70.697  1.00  0.00    -0.033 OA 
ENDROOT
BRANCH   2   3
HETATM    3  C   UNL     1      -7.988   3.738  71.390  1.00  0.00    -0.064 A  
HETATM    4  C   UNL     1      -8.861   3.053  72.252  1.00  0.00    -0.112 A  
HETATM    5  C   UNL     1      -9.850   3.733  72.954  1.00  0.00    -0.194 A  
HETATM    6  C   UNL     1      -9.977   5.105  72.802  1.00  0.00    -0.195 A  
HETATM    7  C   UNL     1      -9.130   5.805  71.930  1.00  0.00    -0.145 A  
HETATM    8  C   UNL     1      -8.143   5.132  71.205  1.00  0.00    -0.113 A  
HETATM    9  C   UNL     1      -7.295   5.919  70.270  1.00  0.00    -0.080 C  
HETATM   10  O   UNL     1      -6.487   5.388  69.514  1.00  0.00    -0.035 OA 
HETATM   11  C   UNL     1      -7.415   7.400  70.215  1.00  0.00    -0.083 A  
HETATM   12  C   UNL     1      -6.533   8.153  69.410  1.00  0.00    -0.035 A  
HETATM   13  O   UNL     1      -5.526   7.550  68.689  1.00  0.00    -0.021 OA 
HETATM   14  C   UNL     1      -6.620   9.558  69.317  1.00  0.00    -0.048 A  
HETATM   15  H   UNL     1      -4.934   8.057  68.147  1.00  0.00     0.000 HD 
HETATM   16  C   UNL     1      -7.629  10.226  70.052  1.00  0.00    -0.116 A  
HETATM   17  C   UNL     1      -8.471   9.469  70.897  1.00  0.00     0.080 A  
HETATM   18  C   UNL     1      -7.777  11.740  69.979  1.00  0.00     1.663 C  
HETATM   19  C   UNL     1      -6.999  12.389  68.830  1.00  0.00    -0.094 C  
HETATM   20  C   UNL     1      -8.384   8.061  70.964  1.00  0.00    -0.120 A  
HETATM   21  O   UNL     1      -9.368  10.100  71.716  1.00  0.00     1.329 OA 
HETATM   22  C   UNL     1      -5.620  10.317  68.446  1.00  0.00    -0.037 C  
HETATM   23  C   UNL     1      -9.320   7.264  71.801  1.00  0.00    -0.149 C  
HETATM   24  C   UNL     1      -5.585  11.802  68.815  1.00  0.00    -0.049 C  
HETATM   25  O   UNL     1      -7.693  12.174  67.599  1.00  0.00    -0.127 OA 
HETATM   26  H   UNL     1      -9.934   9.590  72.284  1.00  0.00     0.000 HD 
HETATM   27  O   UNL     1     -10.264   7.771  72.395  1.00  0.00    -0.210 OA 
HETATM   28  H   UNL     1      -7.211  12.576  66.887  1.00  0.00     0.000 HD 
BRANCH  19  29
HETATM   29  C   UNL     1      -6.919  13.909  69.047  1.00  0.00    -0.109 C  
HETATM   30  O   UNL     1      -7.253  14.718  68.175  1.00  0.00    -0.103 OA 
BRANCH  29  31
HETATM   31  C   UNL     1      -6.326  14.402  70.365  1.00  0.00    -0.144 C  
HETATM   32  O   UNL     1      -6.106  15.808  70.357  1.00  0.00    -0.110 OA 
HETATM   33  H   UNL     1      -5.737  16.113  71.178  1.00  0.00     0.000 HD 
ENDBRANCH  29  31
ENDBRANCH  19  29
BRANCH  22  34
HETATM   34  O   UNL     1      -5.997  10.126  67.072  1.00  0.00    -0.050 OA 
BRANCH  34  35
HETATM   35  C   UNL     1      -6.741   8.935  66.780  1.00  0.00    -0.072 C  
HETATM   36  C   UNL     1      -7.521   8.354  67.962  1.00  0.00    -0.097 C  
HETATM   37  C   UNL     1      -8.649   9.305  68.352  1.00  0.00    -0.124 C  
HETATM   38  C   UNL     1      -9.563   9.523  67.125  1.00  0.00    -0.160 C  
HETATM   39  N   UNL     1      -9.394   8.800  69.515  1.00  0.00    -0.156 NA 
HETATM   40  C   UNL     1      -8.716  10.022  65.940  1.00  0.00    -0.140 C  
HETATM   41  H2  UNL     1      -8.775   8.609  70.303  1.00  0.00     0.000 HD 
HETATM   42  O   UNL     1     -10.612  10.453  67.404  1.00  0.00    -0.231 OA 
HETATM   43  H1  UNL     1     -10.147   9.436  69.775  1.00  0.00     0.000 HD 
HETATM   44  C   UNL     1      -9.558  10.086  64.667  1.00  0.00    -0.363 C  
HETATM   45  H   UNL     1     -11.173  10.587  66.650  1.00  0.00     0.000 HD 
HETATM   46  O   UNL     1      -7.612   9.152  65.668  1.00  0.00    -0.092 OA 
ENDBRANCH  34  35
ENDBRANCH  22  34
ENDBRANCH   2   3
TORSDOF 5
ENDMDL
MODEL      150
REMARK 921   NORMALIZED FREE ENERGY PREDICTED BY IDOCK:   23.27 KCAL/MOL
REMARK 922        TOTAL FREE ENERGY PREDICTED BY IDOCK:   29.03 KCAL/MOL
REMARK 923 INTER-LIGAND FREE ENERGY PREDICTED BY IDOCK:   23.65 KCAL/MOL
REMARK 924 INTRA-LIGAND FREE ENERGY PREDICTED BY IDOCK:    5.38 KCAL/MOL
REMARK 927      BINDING AFFINITY PREDICTED BY RF-SCORE:    0.00 PKD
ROOT
HETATM    1  C   UNL     1      -7.695  10.043  73.465  1.00  0.00     4.861 C  
HETATM    2  O   UNL     1      -8.338   9.199  72.515  1.00  0.00    -0.190 OA 
ENDROOT
BRANCH   2   3
HETATM    3  C   UNL     1      -7.709   9.027  71.310  1.00  0.00    -0.080 A  
HETATM    4  C   UNL     1      -6.709   8.057  71.130  1.00  0.00    -0.042 A  
HETATM    5  C   UNL     1      -6.087   7.890  69.898  1.00  0.00    -0.026 A  
HETATM    6  C   UNL     1      -6.459   8.694  68.830  1.00  0.00    -0.053 A  
HETATM    7  C   UNL     1      -7.440   9.683  68.993  1.00  0.00    -0.075 A  
HETATM    8  C   UNL     1      -8.059   9.873  70.231  1.00  0.00    -0.115 A  
HETATM    9  C   UNL     1      -9.068  10.960  70.355  1.00  0.00     2.192 C  
HETATM   10  O   UNL     1      -9.571  11.265  71.431  1.00  0.00     5.924 OA 
HETATM   11  C   UNL     1      -9.493  11.729  69.155  1.00  0.00     0.314 A  
HETATM   12  C   UNL     1     -10.530  12.682  69.255  1.00  0.00     0.237 A  
HETATM   13  O   UNL     1     -11.194  12.899  70.442  1.00  0.00    -0.237 OA 
HETATM   14  C   UNL     1     -10.954  13.444  68.147  1.00  0.00    -0.277 A  
HETATM   15  H   UNL     1     -11.891  13.541  70.508  1.00  0.00     0.000 HD 
HETATM   16  C   UNL     1     -10.312  13.246  66.900  1.00  0.00    -0.255 A  
HETATM   17  C   UNL     1      -9.314  12.252  66.799  1.00  0.00    -0.218 A  
HETATM   18  C   UNL     1     -10.721  14.051  65.674  1.00  0.00    -0.306 C  
HETATM   19  C   UNL     1     -11.599  15.266  65.988  1.00  0.00     0.006 C  
HETATM   20  C   UNL     1      -8.886  11.511  67.922  1.00  0.00    -0.152 A  
HETATM   21  O   UNL     1      -8.768  11.950  65.580  1.00  0.00    -0.400 OA 
HETATM   22  C   UNL     1     -12.098  14.443  68.315  1.00  0.00    -0.225 C  
HETATM   23  C   UNL     1      -7.786  10.515  67.823  1.00  0.00    -0.093 C  
HETATM   24  C   UNL     1     -12.697  14.827  66.960  1.00  0.00     0.989 C  
HETATM   25  O   UNL     1     -10.790  16.318  66.517  1.00  0.00    -0.240 OA 
HETATM   26  H   UNL     1      -8.097  11.281  65.512  1.00  0.00     0.000 HD 
HETATM   27  O   UNL     1      -7.135  10.356  66.797  1.00  0.00    -0.096 OA 
HETATM   28  H   UNL     1     -11.334  17.072  66.711  1.00  0.00     0.000 HD 
BRANCH  19  29
HETATM   29  C   UNL     1     -12.242  15.794  64.695  1.00  0.00     0.217 C  
HETATM   30  O   UNL     1     -13.224  16.545  64.705  1.00  0.00     2.529 OA 
BRANCH  29  31
HETATM   31  C   UNL     1     -11.676  15.288  63.369  1.00  0.00     1.697 C  
HETATM   32  O   UNL     1     -12.632  14.532  62.636  1.00  0.00     0.147 OA 
HETATM   33  H   UNL     1     -12.279  14.218  61.812  1.00  0.00     0.000 HD 
ENDBRANCH  29  31
ENDBRANCH  19  29
BRANCH  22  34
HETATM   34  O   UNL     1     -11.582  15.594  69.006  1.00  0.00    -0.342 OA 
BRANCH  34  35
HETATM   35  C   UNL     1     -11.013  16.622  68.183  1.00  0.00    -0.327 C  
HETATM   36  C   UNL     1     -11.235  18.050  68.687  1.00  0.00     0.953 C  
HETATM   37  C   UNL     1     -10.462  18.265  69.984  1.00  0.00     1.280 C  
HETATM   38  C   UNL     1      -8.964  17.986  69.724  1.00  0.00     1.248 C  
HETATM   39  N   UNL     1     -10.688  19.615  70.522  1.00  0.00     0.623 NA 
HETATM   40  C   UNL     1      -8.804  16.571  69.137  1.00  0.00    -0.159 C  
HETATM   41  H2  UNL     1     -11.682  19.810  70.641  1.00  0.00     0.000 HD 
HETATM   42  O   UNL     1      -8.187  18.111  70.917  1.00  0.00     4.752 OA 
HETATM   43  H1  UNL     1     -10.171  19.758  71.390  1.00  0.00     0.000 HD 
HETATM   44  C   UNL     1      -7.358  16.326  68.712  1.00  0.00    -0.191 C  
HETATM   45  H   UNL     1      -7.267  17.939  70.757  1.00  0.00     0.000 HD 
HETATM   46  O   UNL     1      -9.620  16.379  67.976  1.00  0.00    -0.221 OA 
ENDBRANCH  34  35
ENDBRANCH  22  34
ENDBRANCH   2   3
TORSDOF 5
ENDMDL
MODEL      151
REMARK 921   NORMALIZED FREE ENERGY PREDICTED BY IDOCK:   23.42 KCAL/MOL
REMARK 922        TOTAL FREE ENERGY PREDICTED BY IDOCK:   29.22 KCAL/MOL
REMARK 923 INTER-LIGAND FREE ENERGY PREDICTED BY IDOCK:   27.33 KCAL/MOL
REMARK 924 INTRA-LIGAND FREE ENERGY PREDICTED BY IDOCK:    1.89 KCAL/MOL
REMARK 927      BINDING AFFINITY PREDICTED BY RF-SCORE:    0.00 PKD
ROOT
HETATM    1  C   UNL     1     -11.073  15.900  69.688  1.00  0.00    -0.320 C  
HETATM    2  O   UNL     1     -11.060  16.892  68.665  1.00  0.00    -0.303 OA 
ENDROOT
BRANCH   2   3
HETATM    3  C   UNL     1     -11.482  16.506  67.420  1.00  0.00     0.354 A  
HETATM    4  C   UNL     1     -12.382  17.283  66.672  1.00  0.00     4.451 A  
HETATM    5  C   UNL     1     -12.793  16.881  65.406  1.00  0.00     6.348 A  
HETATM    6  C   UNL     1     -12.308  15.695  64.874  1.00  0.00     0.465 A  
HETATM    7  C   UNL     1     -11.425  14.894  65.613  1.00  0.00    -0.290 A  
HETATM    8  C   UNL     1     -11.019  15.278  66.893  1.00  0.00    -0.315 A  
HETATM    9  C   UNL     1     -10.108  14.372  67.645  1.00  0.00    -0.222 C  
HETATM   10  O   UNL     1      -9.798  14.579  68.814  1.00  0.00    -0.224 OA 
HETATM   11  C   UNL     1      -9.548  13.160  66.990  1.00  0.00    -0.241 A  
HETATM   12  C   UNL     1      -8.598  12.364  67.667  1.00  0.00    -0.172 A  
HETATM   13  O   UNL     1      -8.141  12.702  68.921  1.00  0.00    -0.332 OA 
HETATM   14  C   UNL     1      -8.052  11.199  67.090  1.00  0.00    -0.138 A  
HETATM   15  H   UNL     1      -7.502  12.166  69.376  1.00  0.00     0.000 HD 
HETATM   16  C   UNL     1      -8.478  10.818  65.794  1.00  0.00    -0.174 A  
HETATM   17  C   UNL     1      -9.388  11.651  65.105  1.00  0.00    -0.061 A  
HETATM   18  C   UNL     1      -7.932   9.562  65.129  1.00  0.00    -0.117 C  
HETATM   19  C   UNL     1      -7.188   8.623  66.083  1.00  0.00    -0.085 C  
HETATM   20  C   UNL     1      -9.940  12.804  65.704  1.00  0.00    -0.249 A  
HETATM   21  O   UNL     1      -9.718  11.378  63.805  1.00  0.00    -0.257 OA 
HETATM   22  C   UNL     1      -7.009  10.394  67.864  1.00  0.00    -0.082 C  
HETATM   23  C   UNL     1     -10.951  13.638  64.998  1.00  0.00    -0.346 C  
HETATM   24  C   UNL     1      -6.230   9.463  66.933  1.00  0.00    -0.065 C  
HETATM   25  O   UNL     1      -8.130   7.899  66.875  1.00  0.00    -0.112 OA 
HETATM   26  H   UNL     1     -10.329  11.938  63.341  1.00  0.00     0.000 HD 
HETATM   27  O   UNL     1     -11.423  13.319  63.913  1.00  0.00    -0.394 OA 
HETATM   28  H   UNL     1      -7.668   7.316  67.466  1.00  0.00     0.000 HD 
BRANCH  19  29
HETATM   29  C   UNL     1      -6.383   7.590  65.276  1.00  0.00    -0.038 C  
HETATM   30  O   UNL     1      -5.366   7.895  64.643  1.00  0.00    -0.032 OA 
BRANCH  29  31
HETATM   31  C   UNL     1      -6.932   6.166  65.209  1.00  0.00    -0.056 C  
HETATM   32  O   UNL     1      -6.486   5.478  64.046  1.00  0.00    -0.031 OA 
HETATM   33  H   UNL     1      -6.827   4.593  64.006  1.00  0.00     0.000 HD 
ENDBRANCH  29  31
ENDBRANCH  19  29
BRANCH  22  34
HETATM   34  O   UNL     1      -7.695   9.657  68.892  1.00  0.00    -0.074 OA 
BRANCH  34  35
HETATM   35  C   UNL     1      -6.876   9.136  69.949  1.00  0.00    -0.052 C  
HETATM   36  C   UNL     1      -6.249  10.192  70.861  1.00  0.00    -0.027 C  
HETATM   37  C   UNL     1      -7.339  10.892  71.665  1.00  0.00     4.870 C  
HETATM   38  C   UNL     1      -8.115   9.832  72.481  1.00  0.00     3.312 C  
HETATM   39  N   UNL     1      -6.777  11.947  72.523  1.00  0.00     4.849 NA 
HETATM   40  C   UNL     1      -8.650   8.747  71.528  1.00  0.00    -0.186 C  
HETATM   41  H2  UNL     1      -6.223  12.612  71.984  1.00  0.00     0.000 HD 
HETATM   42  O   UNL     1      -9.194  10.414  73.215  1.00  0.00     7.928 OA 
HETATM   43  H1  UNL     1      -7.507  12.414  73.060  1.00  0.00     0.000 HD 
HETATM   44  C   UNL     1      -9.275   7.600  72.317  1.00  0.00    -0.189 C  
HETATM   45  H   UNL     1      -9.671   9.763  73.716  1.00  0.00     0.000 HD 
HETATM   46  O   UNL     1      -7.610   8.184  70.722  1.00  0.00    -0.066 OA 
ENDBRANCH  34  35
ENDBRANCH  22  34
ENDBRANCH   2   3
TORSDOF 5
ENDMDL
MODEL      152
REMARK 921   NORMALIZED FREE ENERGY PREDICTED BY IDOCK:   25.56 KCAL/MOL
REMARK 922        TOTAL FREE ENERGY PREDICTED BY IDOCK:   31.99 KCAL/MOL
REMARK 923 INTER-LIGAND FREE ENERGY PREDICTED BY IDOCK:    8.82 KCAL/MOL
REMARK 924 INTRA-LIGAND FREE ENERGY PREDICTED BY IDOCK:   23.16 KCAL/MOL
REMARK 927      BINDING AFFINITY PREDICTED BY RF-SCORE:    0.00 PKD
ROOT
HETATM    1  C   UNL     1      -7.392  19.052  65.825  1.00  0.00    -0.200 C  
HETATM    2  O   UNL     1      -8.186  19.850  66.698  1.00  0.00    -0.297 OA 
ENDROOT
BRANCH   2   3
HETATM    3  C   UNL     1      -9.434  19.377  67.008  1.00  0.00    -0.323 A  
HETATM    4  C   UNL     1     -10.500  20.244  67.303  1.00  0.00    -0.328 A  
HETATM    5  C   UNL     1     -11.762  19.747  67.606  1.00  0.00     1.423 A  
HETATM    6  C   UNL     1     -11.973  18.376  67.619  1.00  0.00     2.636 A  
HETATM    7  C   UNL     1     -10.918  17.492  67.349  1.00  0.00    -0.053 A  
HETATM    8  C   UNL     1      -9.640  17.978  67.061  1.00  0.00    -0.287 A  
HETATM    9  C   UNL     1      -8.551  16.995  66.816  1.00  0.00    -0.237 C  
HETATM   10  O   UNL     1      -7.381  17.336  66.670  1.00  0.00    -0.194 OA 
HETATM   11  C   UNL     1      -8.854  15.540  66.752  1.00  0.00    -0.297 A  
HETATM   12  C   UNL     1      -7.841  14.619  66.410  1.00  0.00     1.139 A  
HETATM   13  O   UNL     1      -6.567  15.038  66.093  1.00  0.00     1.872 OA 
HETATM   14  C   UNL     1      -8.080  13.230  66.352  1.00  0.00     0.872 A  
HETATM   15  H   UNL     1      -5.886  14.417  65.863  1.00  0.00     0.000 HD 
HETATM   16  C   UNL     1      -9.379  12.752  66.655  1.00  0.00    -0.242 A  
HETATM   17  C   UNL     1     -10.399  13.686  66.943  1.00  0.00    -0.262 A  
HETATM   18  C   UNL     1      -9.690  11.262  66.621  1.00  0.00    -0.222 C  
HETATM   19  C   UNL     1      -8.449  10.365  66.574  1.00  0.00    -0.132 C  
HETATM   20  C   UNL     1     -10.138  15.072  67.016  1.00  0.00    -0.244 A  
HETATM   21  O   UNL     1     -11.689  13.262  67.111  1.00  0.00    -0.335 OA 
HETATM   22  C   UNL     1      -6.947  12.288  65.951  1.00  0.00     2.193 C  
HETATM   23  C   UNL     1     -11.201  16.044  67.389  1.00  0.00    -0.085 C  
HETATM   24  C   UNL     1      -7.491  10.925  65.519  1.00  0.00     0.095 C  
HETATM   25  O   UNL     1      -7.855  10.300  67.872  1.00  0.00    -0.099 OA 
HETATM   26  H   UNL     1     -12.375  13.890  67.305  1.00  0.00     0.000 HD 
HETATM   27  O   UNL     1     -12.320  15.689  67.742  1.00  0.00     0.469 OA 
HETATM   28  H   UNL     1      -7.086   9.744  67.843  1.00  0.00     0.000 HD 
BRANCH  19  29
HETATM   29  C   UNL     1      -8.854   8.932  66.188  1.00  0.00    -0.161 C  
HETATM   30  O   UNL     1      -8.989   8.579  65.012  1.00  0.00    -0.099 OA 
BRANCH  29  31
HETATM   31  C   UNL     1      -9.174   7.961  67.323  1.00  0.00    -0.142 C  
HETATM   32  O   UNL     1     -10.573   7.738  67.454  1.00  0.00    -0.308 OA 
HETATM   33  H   UNL     1     -10.771   7.134  68.160  1.00  0.00     0.000 HD 
ENDBRANCH  29  31
ENDBRANCH  19  29
BRANCH  22  34
HETATM   34  O   UNL     1      -6.056  12.165  67.074  1.00  0.00    -0.155 OA 
BRANCH  34  35
HETATM   35  C   UNL     1      -6.529  11.372  68.172  1.00  0.00    -0.056 C  
HETATM   36  C   UNL     1      -5.757  11.553  69.481  1.00  0.00    -0.069 C  
HETATM   37  C   UNL     1      -5.988  12.958  70.026  1.00  0.00    -0.139 C  
HETATM   38  C   UNL     1      -7.505  13.169  70.233  1.00  0.00     2.165 C  
HETATM   39  N   UNL     1      -5.224  13.184  71.262  1.00  0.00    -0.173 NA 
HETATM   40  C   UNL     1      -8.244  12.890  68.912  1.00  0.00     0.249 C  
HETATM   41  H2  UNL     1      -4.231  12.991  71.130  1.00  0.00     0.000 HD 
HETATM   42  O   UNL     1      -7.799  14.491  70.689  1.00  0.00     0.470 OA 
HETATM   43  H1  UNL     1      -5.379  14.124  71.626  1.00  0.00     0.000 HD 
HETATM   44  C   UNL     1      -9.756  12.925  69.123  1.00  0.00     0.506 C  
HETATM   45  H   UNL     1      -8.731  14.621  70.816  1.00  0.00     0.000 HD 
HETATM   46  O   UNL     1      -7.925  11.598  68.384  1.00  0.00    -0.128 OA 
ENDBRANCH  34  35
ENDBRANCH  22  34
ENDBRANCH   2   3
TORSDOF 5
ENDMDL
MODEL      153
REMARK 921   NORMALIZED FREE ENERGY PREDICTED BY IDOCK:   28.20 KCAL/MOL
REMARK 922        TOTAL FREE ENERGY PREDICTED BY IDOCK:   35.40 KCAL/MOL
REMARK 923 INTER-LIGAND FREE ENERGY PREDICTED BY IDOCK:   25.45 KCAL/MOL
REMARK 924 INTRA-LIGAND FREE ENERGY PREDICTED BY IDOCK:    9.95 KCAL/MOL
REMARK 927      BINDING AFFINITY PREDICTED BY RF-SCORE:    0.00 PKD
ROOT
HETATM    1  C   UNL     1     -10.461  17.790  64.048  1.00  0.00     6.358 C  
HETATM    2  O   UNL     1      -9.530  18.868  64.010  1.00  0.00     7.142 OA 
ENDROOT
BRANCH   2   3
HETATM    3  C   UNL     1      -9.163  19.415  65.211  1.00  0.00     1.440 A  
HETATM    4  C   UNL     1      -8.414  20.601  65.284  1.00  0.00     1.043 A  
HETATM    5  C   UNL     1      -8.058  21.148  66.513  1.00  0.00     0.680 A  
HETATM    6  C   UNL     1      -8.448  20.513  67.682  1.00  0.00    -0.249 A  
HETATM    7  C   UNL     1      -9.177  19.316  67.632  1.00  0.00    -0.362 A  
HETATM    8  C   UNL     1      -9.526  18.747  66.404  1.00  0.00    -0.336 A  
HETATM    9  C   UNL     1     -10.270  17.458  66.410  1.00  0.00    -0.338 C  
HETATM   10  O   UNL     1     -10.512  16.837  65.380  1.00  0.00    -0.592 OA 
HETATM   11  C   UNL     1     -10.740  16.870  67.693  1.00  0.00    -0.290 A  
HETATM   12  C   UNL     1     -11.542  15.708  67.688  1.00  0.00    -0.086 A  
HETATM   13  O   UNL     1     -11.937  15.113  66.510  1.00  0.00    -0.066 OA 
HETATM   14  C   UNL     1     -11.997  15.108  68.881  1.00  0.00    -0.284 A  
HETATM   15  H   UNL     1     -12.476  14.331  66.508  1.00  0.00     0.000 HD 
HETATM   16  C   UNL     1     -11.630  15.692  70.118  1.00  0.00    -0.366 A  
HETATM   17  C   UNL     1     -10.874  16.886  70.110  1.00  0.00     0.164 A  
HETATM   18  C   UNL     1     -12.083  15.079  71.436  1.00  0.00    -0.396 C  
HETATM   19  C   UNL     1     -12.643  13.660  71.305  1.00  0.00    -0.351 C  
HETATM   20  C   UNL     1     -10.409  17.462  68.908  1.00  0.00    -0.340 A  
HETATM   21  O   UNL     1     -10.615  17.541  71.283  1.00  0.00     1.265 OA 
HETATM   22  C   UNL     1     -12.882  13.865  68.807  1.00  0.00     1.219 C  
HETATM   23  C   UNL     1      -9.554  18.680  68.910  1.00  0.00    -0.293 C  
HETATM   24  C   UNL     1     -13.621  13.636  70.127  1.00  0.00     1.481 C  
HETATM   25  O   UNL     1     -11.569  12.733  71.143  1.00  0.00     0.178 OA 
HETATM   26  H   UNL     1     -10.107  18.344  71.278  1.00  0.00     0.000 HD 
HETATM   27  O   UNL     1      -9.133  19.184  69.945  1.00  0.00     0.539 OA 
HETATM   28  H   UNL     1     -11.917  11.853  71.062  1.00  0.00     0.000 HD 
BRANCH  19  29
HETATM   29  C   UNL     1     -13.388  13.272  72.594  1.00  0.00    -0.337 C  
HETATM   30  O   UNL     1     -13.448  12.104  72.995  1.00  0.00     0.586 OA 
BRANCH  29  31
HETATM   31  C   UNL     1     -14.136  14.379  73.336  1.00  0.00     2.191 C  
HETATM   32  O   UNL     1     -13.251  15.225  74.060  1.00  0.00    -0.589 OA 
HETATM   33  H   UNL     1     -13.716  15.913  74.521  1.00  0.00     0.000 HD 
ENDBRANCH  29  31
ENDBRANCH  19  29
BRANCH  22  34
HETATM   34  O   UNL     1     -12.043  12.745  68.474  1.00  0.00    -0.270 OA 
BRANCH  34  35
HETATM   35  C   UNL     1     -10.788  13.058  67.853  1.00  0.00    -0.242 C  
HETATM   36  C   UNL     1      -9.849  13.926  68.694  1.00  0.00    -0.175 C  
HETATM   37  C   UNL     1      -9.374  13.139  69.912  1.00  0.00     2.706 C  
HETATM   38  C   UNL     1      -8.671  11.850  69.430  1.00  0.00     0.950 C  
HETATM   39  N   UNL     1      -8.503  13.957  70.769  1.00  0.00     3.224 NA 
HETATM   40  C   UNL     1      -9.626  11.059  68.517  1.00  0.00    -0.187 C  
HETATM   41  H2  UNL     1      -8.956  14.830  71.040  1.00  0.00     0.000 HD 
HETATM   42  O   UNL     1      -8.251  11.034  70.525  1.00  0.00     0.759 OA 
HETATM   43  H1  UNL     1      -8.186  13.431  71.583  1.00  0.00     0.000 HD 
HETATM   44  C   UNL     1      -8.905   9.868  67.889  1.00  0.00    -0.129 C  
HETATM   45  H   UNL     1      -7.819  10.241  70.228  1.00  0.00     0.000 HD 
HETATM   46  O   UNL     1     -10.124  11.861  67.442  1.00  0.00    -0.194 OA 
ENDBRANCH  34  35
ENDBRANCH  22  34
ENDBRANCH   2   3
TORSDOF 5
ENDMDL
MODEL      154
REMARK 921   NORMALIZED FREE ENERGY PREDICTED BY IDOCK:   28.23 KCAL/MOL
REMARK 922        TOTAL FREE ENERGY PREDICTED BY IDOCK:   35.44 KCAL/MOL
REMARK 923 INTER-LIGAND FREE ENERGY PREDICTED BY IDOCK:   26.37 KCAL/MOL
REMARK 924 INTRA-LIGAND FREE ENERGY PREDICTED BY IDOCK:    9.07 KCAL/MOL
REMARK 927      BINDING AFFINITY PREDICTED BY RF-SCORE:    0.00 PKD
ROOT
HETATM    1  C   UNL     1     -12.509  14.021  73.185  1.00  0.00     0.208 C  
HETATM    2  O   UNL     1     -12.040  15.012  72.276  1.00  0.00    -0.345 OA 
ENDROOT
BRANCH   2   3
HETATM    3  C   UNL     1     -12.612  15.035  71.032  1.00  0.00    -0.350 A  
HETATM    4  C   UNL     1     -13.496  16.056  70.645  1.00  0.00     1.222 A  
HETATM    5  C   UNL     1     -14.061  16.069  69.374  1.00  0.00     4.846 A  
HETATM    6  C   UNL     1     -13.749  15.059  68.476  1.00  0.00     5.829 A  
HETATM    7  C   UNL     1     -12.886  14.018  68.849  1.00  0.00     1.062 A  
HETATM    8  C   UNL     1     -12.325  13.984  70.129  1.00  0.00    -0.409 A  
HETATM    9  C   UNL     1     -11.444  12.838  70.482  1.00  0.00     0.582 C  
HETATM   10  O   UNL     1     -11.007  12.674  71.617  1.00  0.00     4.417 OA 
HETATM   11  C   UNL     1     -11.071  11.833  69.451  1.00  0.00    -0.245 A  
HETATM   12  C   UNL     1     -10.147  10.811  69.759  1.00  0.00     0.093 A  
HETATM   13  O   UNL     1      -9.544  10.737  70.995  1.00  0.00     1.542 OA 
HETATM   14  C   UNL     1      -9.777   9.829  68.816  1.00  0.00    -0.165 A  
HETATM   15  H   UNL     1      -8.923  10.049  71.201  1.00  0.00     0.000 HD 
HETATM   16  C   UNL     1     -10.359   9.873  67.526  1.00  0.00    -0.289 A  
HETATM   17  C   UNL     1     -11.240  10.931  67.212  1.00  0.00    -0.233 A  
HETATM   18  C   UNL     1     -10.005   8.830  66.474  1.00  0.00    -0.360 C  
HETATM   19  C   UNL     1      -9.273   7.605  67.030  1.00  0.00    -0.138 C  
HETATM   20  C   UNL     1     -11.616  11.895  68.172  1.00  0.00    -0.400 A  
HETATM   21  O   UNL     1     -11.715  11.071  65.936  1.00  0.00     0.153 OA 
HETATM   22  C   UNL     1      -8.753   8.764  69.204  1.00  0.00    -0.136 C  
HETATM   23  C   UNL     1     -12.599  12.966  67.855  1.00  0.00     0.968 C  
HETATM   24  C   UNL     1      -8.161   8.092  67.963  1.00  0.00    -0.129 C  
HETATM   25  O   UNL     1     -10.206   6.748  67.691  1.00  0.00    -0.151 OA 
HETATM   26  H   UNL     1     -12.308  11.783  65.724  1.00  0.00     0.000 HD 
HETATM   27  O   UNL     1     -13.200  13.010  66.787  1.00  0.00     1.078 OA 
HETATM   28  H   UNL     1      -9.752   5.989  68.036  1.00  0.00     0.000 HD 
BRANCH  19  29
HETATM   29  C   UNL     1      -8.654   6.798  65.876  1.00  0.00    -0.147 C  
HETATM   30  O   UNL     1      -8.857   7.081  64.690  1.00  0.00     0.309 OA 
BRANCH  29  31
HETATM   31  C   UNL     1      -7.833   5.563  66.241  1.00  0.00    -0.100 C  
HETATM   32  O   UNL     1      -7.929   4.548  65.249  1.00  0.00    -0.096 OA 
HETATM   33  H   UNL     1      -7.418   3.780  65.477  1.00  0.00     0.000 HD 
ENDBRANCH  29  31
ENDBRANCH  19  29
BRANCH  22  34
HETATM   34  O   UNL     1      -9.410   7.809  70.056  1.00  0.00    -0.157 OA 
BRANCH  34  35
HETATM   35  C   UNL     1     -10.826   7.669  69.874  1.00  0.00    -0.235 C  
HETATM   36  C   UNL     1     -11.243   6.743  68.729  1.00  0.00    -0.178 C  
HETATM   37  C   UNL     1     -10.857   5.306  69.062  1.00  0.00     0.200 C  
HETATM   38  C   UNL     1     -11.538   4.902  70.390  1.00  0.00     3.196 C  
HETATM   39  N   UNL     1     -11.203   4.391  67.964  1.00  0.00     2.504 NA 
HETATM   40  C   UNL     1     -11.157   5.915  71.487  1.00  0.00    -0.250 C  
HETATM   41  H2  UNL     1     -10.792   4.695  67.081  1.00  0.00     0.000 HD 
HETATM   42  O   UNL     1     -11.171   3.582  70.794  1.00  0.00     3.022 OA 
HETATM   43  H1  UNL     1     -10.944   3.431  68.187  1.00  0.00     0.000 HD 
HETATM   44  C   UNL     1     -11.945   5.643  72.766  1.00  0.00    -0.088 C  
HETATM   45  H   UNL     1     -11.589   3.334  71.611  1.00  0.00     0.000 HD 
HETATM   46  O   UNL     1     -11.446   7.260  71.095  1.00  0.00    -0.265 OA 
ENDBRANCH  34  35
ENDBRANCH  22  34
ENDBRANCH   2   3
TORSDOF 5
ENDMDL
MODEL      155
REMARK 921   NORMALIZED FREE ENERGY PREDICTED BY IDOCK:   30.54 KCAL/MOL
REMARK 922        TOTAL FREE ENERGY PREDICTED BY IDOCK:   38.42 KCAL/MOL
REMARK 923 INTER-LIGAND FREE ENERGY PREDICTED BY IDOCK:   32.37 KCAL/MOL
REMARK 924 INTRA-LIGAND FREE ENERGY PREDICTED BY IDOCK:    6.04 KCAL/MOL
REMARK 927      BINDING AFFINITY PREDICTED BY RF-SCORE:    0.00 PKD
ROOT
HETATM    1  C   UNL     1     -10.138  13.707  70.718  1.00  0.00     4.149 C  
HETATM    2  O   UNL     1      -9.114  14.692  70.824  1.00  0.00     1.665 OA 
ENDROOT
BRANCH   2   3
HETATM    3  C   UNL     1      -8.591  15.172  69.652  1.00  0.00    -0.056 A  
HETATM    4  C   UNL     1      -8.358  16.544  69.455  1.00  0.00     0.270 A  
HETATM    5  C   UNL     1      -7.818  17.013  68.263  1.00  0.00    -0.216 A  
HETATM    6  C   UNL     1      -7.505  16.115  67.253  1.00  0.00    -0.219 A  
HETATM    7  C   UNL     1      -7.749  14.744  67.421  1.00  0.00    -0.230 A  
HETATM    8  C   UNL     1      -8.308  14.262  68.607  1.00  0.00    -0.135 A  
HETATM    9  C   UNL     1      -8.578  12.802  68.717  1.00  0.00     0.175 C  
HETATM   10  O   UNL     1      -9.170  12.316  69.675  1.00  0.00     1.292 OA 
HETATM   11  C   UNL     1      -8.138  11.875  67.640  1.00  0.00    -0.148 A  
HETATM   12  C   UNL     1      -8.294  10.481  67.797  1.00  0.00    -0.111 A  
HETATM   13  O   UNL     1      -8.818   9.943  68.952  1.00  0.00    -0.131 OA 
HETATM   14  C   UNL     1      -7.904   9.567  66.796  1.00  0.00    -0.101 A  
HETATM   15  H   UNL     1      -8.923   9.005  69.057  1.00  0.00     0.000 HD 
HETATM   16  C   UNL     1      -7.346  10.071  65.597  1.00  0.00    -0.127 A  
HETATM   17  C   UNL     1      -7.143  11.464  65.472  1.00  0.00     0.733 A  
HETATM   18  C   UNL     1      -6.920   9.131  64.477  1.00  0.00    -0.090 C  
HETATM   19  C   UNL     1      -7.449   7.701  64.627  1.00  0.00    -0.096 C  
HETATM   20  C   UNL     1      -7.557  12.367  66.475  1.00  0.00     0.453 A  
HETATM   21  O   UNL     1      -6.489  11.967  64.380  1.00  0.00     2.143 OA 
HETATM   22  C   UNL     1      -8.078   8.068  67.038  1.00  0.00    -0.116 C  
HETATM   23  C   UNL     1      -7.405  13.838  66.307  1.00  0.00     2.898 C  
HETATM   24  C   UNL     1      -7.215   7.252  66.073  1.00  0.00    -0.074 C  
HETATM   25  O   UNL     1      -8.828   7.658  64.257  1.00  0.00    -0.202 OA 
HETATM   26  H   UNL     1      -6.353  12.903  64.296  1.00  0.00     0.000 HD 
HETATM   27  O   UNL     1      -7.008  14.341  65.263  1.00  0.00     8.750 OA 
HETATM   28  H   UNL     1      -9.155   6.772  64.350  1.00  0.00     0.000 HD 
BRANCH  19  29
HETATM   29  C   UNL     1      -6.692   6.762  63.672  1.00  0.00    -0.045 C  
HETATM   30  O   UNL     1      -6.101   7.177  62.670  1.00  0.00    -0.047 OA 
BRANCH  29  31
HETATM   31  C   UNL     1      -6.763   5.263  63.957  1.00  0.00    -0.046 C  
HETATM   32  O   UNL     1      -5.651   4.814  64.723  1.00  0.00    -0.013 OA 
HETATM   33  H   UNL     1      -5.695   3.882  64.899  1.00  0.00     0.000 HD 
ENDBRANCH  29  31
ENDBRANCH  19  29
BRANCH  22  34
HETATM   34  O   UNL     1      -9.474   7.756  66.888  1.00  0.00    -0.164 OA 
BRANCH  34  35
HETATM   35  C   UNL     1      -9.776   6.488  66.288  1.00  0.00    -0.010 C  
HETATM   36  C   UNL     1      -8.739   5.390  66.537  1.00  0.00    -0.117 C  
HETATM   37  C   UNL     1      -8.734   5.011  68.014  1.00  0.00    -0.102 C  
HETATM   38  C   UNL     1     -10.153   4.546  68.414  1.00  0.00     0.040 C  
HETATM   39  N   UNL     1      -7.717   3.989  68.299  1.00  0.00    -0.066 NA 
HETATM   40  C   UNL     1     -11.169   5.649  68.063  1.00  0.00     0.596 C  
HETATM   41  H2  UNL     1      -6.792   4.282  67.984  1.00  0.00     0.000 HD 
HETATM   42  O   UNL     1     -10.235   4.231  69.805  1.00  0.00    -0.087 OA 
HETATM   43  H1  UNL     1      -7.713   3.735  69.286  1.00  0.00     0.000 HD 
HETATM   44  C   UNL     1     -12.596   5.157  68.289  1.00  0.00    12.222 C  
HETATM   45  H   UNL     1     -11.107   3.945  70.051  1.00  0.00     0.000 HD 
HETATM   46  O   UNL     1     -11.075   6.045  66.691  1.00  0.00    -0.263 OA 
ENDBRANCH  34  35
ENDBRANCH  22  34
ENDBRANCH   2   3
TORSDOF 5
ENDMDL
MODEL      156
REMARK 921   NORMALIZED FREE ENERGY PREDICTED BY IDOCK:   30.73 KCAL/MOL
REMARK 922        TOTAL FREE ENERGY PREDICTED BY IDOCK:   38.67 KCAL/MOL
REMARK 923 INTER-LIGAND FREE ENERGY PREDICTED BY IDOCK:   36.28 KCAL/MOL
REMARK 924 INTRA-LIGAND FREE ENERGY PREDICTED BY IDOCK:    2.39 KCAL/MOL
REMARK 927      BINDING AFFINITY PREDICTED BY RF-SCORE:    0.00 PKD
ROOT
HETATM    1  C   UNL     1     -11.038  15.194  64.168  1.00  0.00     0.319 C  
HETATM    2  O   UNL     1     -11.313  16.592  64.180  1.00  0.00    -1.060 OA 
ENDROOT
BRANCH   2   3
HETATM    3  C   UNL     1     -10.277  17.425  64.511  1.00  0.00     3.121 A  
HETATM    4  C   UNL     1     -10.044  18.624  63.816  1.00  0.00    11.721 A  
HETATM    5  C   UNL     1      -8.993  19.463  64.171  1.00  0.00     7.783 A  
HETATM    6  C   UNL     1      -8.164  19.113  65.226  1.00  0.00     1.236 A  
HETATM    7  C   UNL     1      -8.367  17.910  65.920  1.00  0.00     0.056 A  
HETATM    8  C   UNL     1      -9.408  17.050  65.562  1.00  0.00     0.492 A  
HETATM    9  C   UNL     1      -9.555  15.772  66.310  1.00  0.00    -0.313 C  
HETATM   10  O   UNL     1     -10.368  14.912  65.984  1.00  0.00    -0.272 OA 
HETATM   11  C   UNL     1      -8.696  15.491  67.490  1.00  0.00    -0.183 A  
HETATM   12  C   UNL     1      -8.912  14.331  68.265  1.00  0.00    -0.187 A  
HETATM   13  O   UNL     1      -9.935  13.455  67.976  1.00  0.00    -0.225 OA 
HETATM   14  C   UNL     1      -8.111  14.018  69.384  1.00  0.00     0.416 A  
HETATM   15  H   UNL     1     -10.080  12.675  68.497  1.00  0.00     0.000 HD 
HETATM   16  C   UNL     1      -7.056  14.896  69.730  1.00  0.00    -0.156 A  
HETATM   17  C   UNL     1      -6.883  16.081  68.982  1.00  0.00    -0.159 A  
HETATM   18  C   UNL     1      -6.152  14.600  70.920  1.00  0.00    -0.071 C  
HETATM   19  C   UNL     1      -6.271  13.170  71.454  1.00  0.00     1.110 C  
HETATM   20  C   UNL     1      -7.680  16.371  67.853  1.00  0.00    -0.161 A  
HETATM   21  O   UNL     1      -5.956  17.009  69.372  1.00  0.00    -0.188 OA 
HETATM   22  C   UNL     1      -8.413  12.759  70.195  1.00  0.00     3.973 C  
HETATM   23  C   UNL     1      -7.446  17.586  67.027  1.00  0.00    -0.200 C  
HETATM   24  C   UNL     1      -7.758  12.825  71.576  1.00  0.00     9.559 C  
HETATM   25  O   UNL     1      -5.572  12.274  70.589  1.00  0.00    -0.154 OA 
HETATM   26  H   UNL     1      -5.839  17.807  68.869  1.00  0.00     0.000 HD 
HETATM   27  O   UNL     1      -6.500  18.340  67.223  1.00  0.00    -0.175 OA 
HETATM   28  H   UNL     1      -5.646  11.387  70.921  1.00  0.00     0.000 HD 
BRANCH  19  29
HETATM   29  C   UNL     1      -5.609  13.073  72.840  1.00  0.00     0.770 C  
HETATM   30  O   UNL     1      -5.452  11.995  73.422  1.00  0.00     0.179 OA 
BRANCH  29  31
HETATM   31  C   UNL     1      -5.220  14.382  73.526  1.00  0.00    -0.290 C  
HETATM   32  O   UNL     1      -6.139  14.738  74.552  1.00  0.00     0.142 OA 
HETATM   33  H   UNL     1      -5.896  15.551  74.978  1.00  0.00     0.000 HD 
ENDBRANCH  29  31
ENDBRANCH  19  29
BRANCH  22  34
HETATM   34  O   UNL     1      -7.942  11.626  69.444  1.00  0.00     0.171 OA 
BRANCH  34  35
HETATM   35  C   UNL     1      -8.935  10.664  69.061  1.00  0.00    -0.157 C  
HETATM   36  C   UNL     1      -8.862  10.203  67.604  1.00  0.00    -0.125 C  
HETATM   37  C   UNL     1      -7.586   9.397  67.383  1.00  0.00    -0.095 C  
HETATM   38  C   UNL     1      -7.581   8.195  68.355  1.00  0.00    -0.105 C  
HETATM   39  N   UNL     1      -7.458   8.973  65.980  1.00  0.00    -0.093 NA 
HETATM   40  C   UNL     1      -7.746   8.706  69.798  1.00  0.00    -0.088 C  
HETATM   41  H2  UNL     1      -7.515   9.767  65.342  1.00  0.00     0.000 HD 
HETATM   42  O   UNL     1      -6.382   7.426  68.242  1.00  0.00    -0.038 OA 
HETATM   43  H1  UNL     1      -6.606   8.434  65.833  1.00  0.00     0.000 HD 
HETATM   44  C   UNL     1      -7.915   7.538  70.766  1.00  0.00    -0.103 C  
HETATM   45  H   UNL     1      -6.379   6.688  68.840  1.00  0.00     0.000 HD 
HETATM   46  O   UNL     1      -8.902   9.538  69.941  1.00  0.00    -0.175 OA 
ENDBRANCH  34  35
ENDBRANCH  22  34
ENDBRANCH   2   3
TORSDOF 5
ENDMDL
MODEL      157
REMARK 921   NORMALIZED FREE ENERGY PREDICTED BY IDOCK:   31.33 KCAL/MOL
REMARK 922        TOTAL FREE ENERGY PREDICTED BY IDOCK:   39.44 KCAL/MOL
REMARK 923 INTER-LIGAND FREE ENERGY PREDICTED BY IDOCK:   27.93 KCAL/MOL
REMARK 924 INTRA-LIGAND FREE ENERGY PREDICTED BY IDOCK:   11.51 KCAL/MOL
REMARK 927      BINDING AFFINITY PREDICTED BY RF-SCORE:    0.00 PKD
ROOT
HETATM    1  C   UNL     1     -11.892   3.693  66.003  1.00  0.00     7.006 C  
HETATM    2  O   UNL     1     -11.769   2.624  66.937  1.00  0.00     9.775 OA 
ENDROOT
BRANCH   2   3
HETATM    3  C   UNL     1     -10.706   2.674  67.801  1.00  0.00     4.660 A  
HETATM    4  C   UNL     1     -10.186   1.513  68.398  1.00  0.00     0.995 A  
HETATM    5  C   UNL     1      -9.101   1.581  69.266  1.00  0.00    -0.155 A  
HETATM    6  C   UNL     1      -8.525   2.811  69.546  1.00  0.00    -0.101 A  
HETATM    7  C   UNL     1      -9.041   3.984  68.977  1.00  0.00    -0.193 A  
HETATM    8  C   UNL     1     -10.142   3.932  68.118  1.00  0.00     0.278 A  
HETATM    9  C   UNL     1     -10.671   5.211  67.570  1.00  0.00     0.103 C  
HETATM   10  O   UNL     1     -11.700   5.262  66.904  1.00  0.00     1.784 OA 
HETATM   11  C   UNL     1      -9.957   6.489  67.831  1.00  0.00    -0.148 A  
HETATM   12  C   UNL     1     -10.396   7.684  67.219  1.00  0.00    -0.297 A  
HETATM   13  O   UNL     1     -11.461   7.693  66.346  1.00  0.00     0.820 OA 
HETATM   14  C   UNL     1      -9.758   8.921  67.450  1.00  0.00    -0.227 A  
HETATM   15  H   UNL     1     -11.756   8.497  65.935  1.00  0.00     0.000 HD 
HETATM   16  C   UNL     1      -8.648   8.959  68.328  1.00  0.00    -0.134 A  
HETATM   17  C   UNL     1      -8.184   7.750  68.892  1.00  0.00    -0.127 A  
HETATM   18  C   UNL     1      -7.931  10.269  68.624  1.00  0.00    -0.111 C  
HETATM   19  C   UNL     1      -8.700  11.517  68.180  1.00  0.00    -0.157 C  
HETATM   20  C   UNL     1      -8.845   6.523  68.667  1.00  0.00    -0.121 A  
HETATM   21  O   UNL     1      -7.038   7.737  69.640  1.00  0.00    -0.060 OA 
HETATM   22  C   UNL     1     -10.267  10.173  66.738  1.00  0.00    -0.228 C  
HETATM   23  C   UNL     1      -8.393   5.265  69.320  1.00  0.00    -0.091 C  
HETATM   24  C   UNL     1      -9.214  11.283  66.756  1.00  0.00    -0.186 C  
HETATM   25  O   UNL     1      -9.755  11.785  69.105  1.00  0.00    -0.409 OA 
HETATM   26  H   UNL     1      -6.725   6.925  70.020  1.00  0.00     0.000 HD 
HETATM   27  O   UNL     1      -7.494   5.244  70.153  1.00  0.00    -0.065 OA 
HETATM   28  H   UNL     1     -10.231  12.559  68.829  1.00  0.00     0.000 HD 
BRANCH  19  29
HETATM   29  C   UNL     1      -7.764  12.738  68.190  1.00  0.00    -0.137 C  
HETATM   30  O   UNL     1      -7.512  13.385  67.168  1.00  0.00    -0.095 OA 
BRANCH  29  31
HETATM   31  C   UNL     1      -7.076  13.086  69.510  1.00  0.00     0.274 C  
HETATM   32  O   UNL     1      -7.023  14.491  69.727  1.00  0.00    -0.237 OA 
HETATM   33  H   UNL     1      -6.595  14.706  70.547  1.00  0.00     0.000 HD 
ENDBRANCH  29  31
ENDBRANCH  19  29
BRANCH  22  34
HETATM   34  O   UNL     1     -11.480  10.589  67.389  1.00  0.00    -0.405 OA 
BRANCH  34  35
HETATM   35  C   UNL     1     -12.136  11.736  66.831  1.00  0.00     0.469 C  
HETATM   36  C   UNL     1     -13.232  12.346  67.707  1.00  0.00     4.922 C  
HETATM   37  C   UNL     1     -12.611  12.956  68.959  1.00  0.00     0.642 C  
HETATM   38  C   UNL     1     -11.573  14.020  68.533  1.00  0.00    -0.322 C  
HETATM   39  N   UNL     1     -13.640  13.513  69.849  1.00  0.00     1.287 NA 
HETATM   40  C   UNL     1     -10.545  13.378  67.583  1.00  0.00    -0.243 C  
HETATM   41  H2  UNL     1     -14.350  12.818  70.083  1.00  0.00     0.000 HD 
HETATM   42  O   UNL     1     -10.908  14.593  69.660  1.00  0.00    -0.303 OA 
HETATM   43  H1  UNL     1     -13.225  13.921  70.686  1.00  0.00     0.000 HD 
HETATM   44  C   UNL     1      -9.607  14.438  67.011  1.00  0.00    -0.251 C  
HETATM   45  H   UNL     1     -10.270  15.246  69.398  1.00  0.00     0.000 HD 
HETATM   46  O   UNL     1     -11.175  12.732  66.472  1.00  0.00    -0.283 OA 
ENDBRANCH  34  35
ENDBRANCH  22  34
ENDBRANCH   2   3
TORSDOF 5
ENDMDL
MODEL      158
REMARK 921   NORMALIZED FREE ENERGY PREDICTED BY IDOCK:   32.74 KCAL/MOL
REMARK 922        TOTAL FREE ENERGY PREDICTED BY IDOCK:   41.27 KCAL/MOL
REMARK 923 INTER-LIGAND FREE ENERGY PREDICTED BY IDOCK:   30.82 KCAL/MOL
REMARK 924 INTRA-LIGAND FREE ENERGY PREDICTED BY IDOCK:   10.45 KCAL/MOL
REMARK 927      BINDING AFFINITY PREDICTED BY RF-SCORE:    0.00 PKD
ROOT
HETATM    1  C   UNL     1     -10.004  13.659  67.064  1.00  0.00    -0.248 C  
HETATM    2  O   UNL     1      -9.700  14.833  67.813  1.00  0.00    -0.211 OA 
ENDROOT
BRANCH   2   3
HETATM    3  C   UNL     1      -9.099  14.654  69.031  1.00  0.00    -0.097 A  
HETATM    4  C   UNL     1      -8.988  15.702  69.960  1.00  0.00     0.380 A  
HETATM    5  C   UNL     1      -8.383  15.500  71.196  1.00  0.00     3.461 A  
HETATM    6  C   UNL     1      -7.881  14.247  71.516  1.00  0.00     4.585 A  
HETATM    7  C   UNL     1      -7.962  13.193  70.594  1.00  0.00     5.044 A  
HETATM    8  C   UNL     1      -8.552  13.387  69.342  1.00  0.00     1.005 A  
HETATM    9  C   UNL     1      -8.580  12.243  68.391  1.00  0.00    -0.136 C  
HETATM   10  O   UNL     1      -8.974  12.362  67.235  1.00  0.00    -0.175 OA 
HETATM   11  C   UNL     1      -8.110  10.899  68.821  1.00  0.00    -0.145 A  
HETATM   12  C   UNL     1      -8.241   9.791  67.955  1.00  0.00    -0.109 A  
HETATM   13  O   UNL     1      -8.833   9.914  66.718  1.00  0.00    -0.133 OA 
HETATM   14  C   UNL     1      -7.795   8.503  68.316  1.00  0.00    -0.106 A  
HETATM   15  H   UNL     1      -8.921   9.169  66.136  1.00  0.00     0.000 HD 
HETATM   16  C   UNL     1      -7.193   8.323  69.585  1.00  0.00    -0.061 A  
HETATM   17  C   UNL     1      -7.117   9.426  70.465  1.00  0.00    -0.112 A  
HETATM   18  C   UNL     1      -6.682   6.956  70.021  1.00  0.00    -0.052 C  
HETATM   19  C   UNL     1      -6.573   5.938  68.883  1.00  0.00    -0.055 C  
HETATM   20  C   UNL     1      -7.549  10.714  70.081  1.00  0.00     0.335 A  
HETATM   21  O   UNL     1      -6.659   9.253  71.743  1.00  0.00    -0.266 OA 
HETATM   22  C   UNL     1      -7.988   7.341  67.343  1.00  0.00    -0.112 C  
HETATM   23  C   UNL     1      -7.401  11.885  70.987  1.00  0.00     4.904 C  
HETATM   24  C   UNL     1      -7.864   5.995  68.061  1.00  0.00    -0.106 C  
HETATM   25  O   UNL     1      -5.413   6.218  68.098  1.00  0.00    -0.007 OA 
HETATM   26  H   UNL     1      -6.607   9.994  72.335  1.00  0.00     0.000 HD 
HETATM   27  O   UNL     1      -6.815  11.814  72.061  1.00  0.00     4.160 OA 
HETATM   28  H   UNL     1      -5.346   5.586  67.392  1.00  0.00     0.000 HD 
BRANCH  19  29
HETATM   29  C   UNL     1      -6.399   4.524  69.462  1.00  0.00    -0.028 C  
HETATM   30  O   UNL     1      -6.021   4.328  70.622  1.00  0.00    -0.013 OA 
BRANCH  29  31
HETATM   31  C   UNL     1      -6.632   3.343  68.520  1.00  0.00    -0.041 C  
HETATM   32  O   UNL     1      -5.921   3.491  67.297  1.00  0.00    -0.023 OA 
HETATM   33  H   UNL     1      -6.066   2.756  66.712  1.00  0.00     0.000 HD 
ENDBRANCH  29  31
ENDBRANCH  19  29
BRANCH  22  34
HETATM   34  O   UNL     1      -7.008   7.471  66.299  1.00  0.00    -0.063 OA 
BRANCH  34  35
HETATM   35  C   UNL     1      -7.509   7.452  64.955  1.00  0.00    -0.085 C  
HETATM   36  C   UNL     1      -8.467   6.301  64.638  1.00  0.00     0.047 C  
HETATM   37  C   UNL     1      -9.763   6.479  65.422  1.00  0.00     0.982 C  
HETATM   38  C   UNL     1     -10.384   7.847  65.055  1.00  0.00     4.305 C  
HETATM   39  N   UNL     1     -10.693   5.366  65.177  1.00  0.00     0.273 NA 
HETATM   40  C   UNL     1      -9.351   8.960  65.308  1.00  0.00    -0.025 C  
HETATM   41  H2  UNL     1     -10.257   4.465  65.372  1.00  0.00     0.000 HD 
HETATM   42  O   UNL     1     -11.575   8.105  65.800  1.00  0.00     4.285 OA 
HETATM   43  H1  UNL     1     -11.559   5.486  65.701  1.00  0.00     0.000 HD 
HETATM   44  C   UNL     1      -9.871  10.302  64.798  1.00  0.00    -0.403 C  
HETATM   45  H   UNL     1     -11.956   8.946  65.575  1.00  0.00     0.000 HD 
HETATM   46  O   UNL     1      -8.115   8.706  64.632  1.00  0.00    -0.139 OA 
ENDBRANCH  34  35
ENDBRANCH  22  34
ENDBRANCH   2   3
TORSDOF 5
ENDMDL
MODEL      159
REMARK 921   NORMALIZED FREE ENERGY PREDICTED BY IDOCK:   32.86 KCAL/MOL
REMARK 922        TOTAL FREE ENERGY PREDICTED BY IDOCK:   41.42 KCAL/MOL
REMARK 923 INTER-LIGAND FREE ENERGY PREDICTED BY IDOCK:   41.48 KCAL/MOL
REMARK 924 INTRA-LIGAND FREE ENERGY PREDICTED BY IDOCK:   -0.06 KCAL/MOL
REMARK 927      BINDING AFFINITY PREDICTED BY RF-SCORE:    0.00 PKD
ROOT
HETATM    1  C   UNL     1      -9.771  15.817  68.690  1.00  0.00    -0.205 C  
HETATM    2  O   UNL     1      -9.751  15.431  70.062  1.00  0.00    -0.241 OA 
ENDROOT
BRANCH   2   3
HETATM    3  C   UNL     1     -10.952  15.102  70.632  1.00  0.00    -0.225 A  
HETATM    4  C   UNL     1     -11.778  16.071  71.226  1.00  0.00    -0.516 A  
HETATM    5  C   UNL     1     -12.999  15.721  71.792  1.00  0.00    -0.505 A  
HETATM    6  C   UNL     1     -13.408  14.396  71.770  1.00  0.00    -0.446 A  
HETATM    7  C   UNL     1     -12.590  13.409  71.200  1.00  0.00    -0.430 A  
HETATM    8  C   UNL     1     -11.353  13.745  70.644  1.00  0.00     0.359 A  
HETATM    9  C   UNL     1     -10.511  12.653  70.085  1.00  0.00     2.021 C  
HETATM   10  O   UNL     1      -9.368  12.847  69.685  1.00  0.00     1.339 OA 
HETATM   11  C   UNL     1     -11.040  11.265  70.005  1.00  0.00    -0.114 A  
HETATM   12  C   UNL     1     -10.284  10.254  69.373  1.00  0.00    -0.235 A  
HETATM   13  O   UNL     1      -9.068  10.527  68.787  1.00  0.00    -0.150 OA 
HETATM   14  C   UNL     1     -10.740   8.922  69.288  1.00  0.00    -0.177 A  
HETATM   15  H   UNL     1      -8.560   9.846  68.362  1.00  0.00     0.000 HD 
HETATM   16  C   UNL     1     -11.993   8.595  69.862  1.00  0.00     0.684 A  
HETATM   17  C   UNL     1     -12.765   9.625  70.443  1.00  0.00     0.202 A  
HETATM   18  C   UNL     1     -12.528   7.170  69.811  1.00  0.00     0.987 C  
HETATM   19  C   UNL     1     -11.483   6.124  69.412  1.00  0.00    -0.186 C  
HETATM   20  C   UNL     1     -12.286  10.949  70.539  1.00  0.00    -0.459 A  
HETATM   21  O   UNL     1     -14.033   9.363  70.890  1.00  0.00    -0.515 OA 
HETATM   22  C   UNL     1      -9.886   7.879  68.569  1.00  0.00    -0.177 C  
HETATM   23  C   UNL     1     -13.074  12.014  71.215  1.00  0.00    -0.115 C  
HETATM   24  C   UNL     1     -10.717   6.650  68.195  1.00  0.00    -0.320 C  
HETATM   25  O   UNL     1     -10.625   5.855  70.523  1.00  0.00    -0.237 OA 
HETATM   26  H   UNL     1     -14.552  10.056  71.281  1.00  0.00     0.000 HD 
HETATM   27  O   UNL     1     -14.124  11.780  71.803  1.00  0.00     0.626 OA 
HETATM   28  H   UNL     1      -9.977   5.206  70.275  1.00  0.00     0.000 HD 
BRANCH  19  29
HETATM   29  C   UNL     1     -12.179   4.803  69.046  1.00  0.00    10.800 C  
HETATM   30  O   UNL     1     -12.560   3.998  69.902  1.00  0.00    14.404 OA 
BRANCH  29  31
HETATM   31  C   UNL     1     -12.317   4.467  67.561  1.00  0.00    12.986 C  
HETATM   32  O   UNL     1     -11.284   3.596  67.115  1.00  0.00     3.053 OA 
HETATM   33  H   UNL     1     -11.370   3.388  66.192  1.00  0.00     0.000 HD 
ENDBRANCH  29  31
ENDBRANCH  19  29
BRANCH  22  34
HETATM   34  O   UNL     1      -8.792   7.530  69.436  1.00  0.00    -0.136 OA 
BRANCH  34  35
HETATM   35  C   UNL     1      -7.477   7.663  68.878  1.00  0.00    -0.096 C  
HETATM   36  C   UNL     1      -6.845   9.049  69.034  1.00  0.00    -0.055 C  
HETATM   37  C   UNL     1      -6.558   9.321  70.507  1.00  0.00    -0.072 C  
HETATM   38  C   UNL     1      -5.626   8.213  71.047  1.00  0.00    -0.033 C  
HETATM   39  N   UNL     1      -5.990  10.664  70.701  1.00  0.00    -0.205 NA 
HETATM   40  C   UNL     1      -6.266   6.837  70.786  1.00  0.00    -0.035 C  
HETATM   41  H2  UNL     1      -6.587  11.385  70.295  1.00  0.00     0.000 HD 
HETATM   42  O   UNL     1      -5.362   8.374  72.442  1.00  0.00    -0.037 OA 
HETATM   43  H1  UNL     1      -5.799  10.846  71.685  1.00  0.00     0.000 HD 
HETATM   44  C   UNL     1      -5.297   5.715  71.154  1.00  0.00    -0.009 C  
HETATM   45  H   UNL     1      -4.790   7.693  72.773  1.00  0.00     0.000 HD 
HETATM   46  O   UNL     1      -6.609   6.659  69.408  1.00  0.00    -0.045 OA 
ENDBRANCH  34  35
ENDBRANCH  22  34
ENDBRANCH   2   3
TORSDOF 5
ENDMDL
MODEL      160
REMARK 921   NORMALIZED FREE ENERGY PREDICTED BY IDOCK:   33.03 KCAL/MOL
REMARK 922        TOTAL FREE ENERGY PREDICTED BY IDOCK:   41.64 KCAL/MOL
REMARK 923 INTER-LIGAND FREE ENERGY PREDICTED BY IDOCK:   11.52 KCAL/MOL
REMARK 924 INTRA-LIGAND FREE ENERGY PREDICTED BY IDOCK:   30.12 KCAL/MOL
REMARK 927      BINDING AFFINITY PREDICTED BY RF-SCORE:    0.00 PKD
ROOT
HETATM    1  C   UNL     1      -8.808   8.326  62.757  1.00  0.00     0.353 C  
HETATM    2  O   UNL     1      -8.811   7.096  63.477  1.00  0.00     0.594 OA 
ENDROOT
BRANCH   2   3
HETATM    3  C   UNL     1      -8.439   7.147  64.795  1.00  0.00     0.119 A  
HETATM    4  C   UNL     1      -8.043   5.995  65.494  1.00  0.00    -0.133 A  
HETATM    5  C   UNL     1      -7.660   6.066  66.829  1.00  0.00    -0.095 A  
HETATM    6  C   UNL     1      -7.668   7.291  67.479  1.00  0.00    -0.111 A  
HETATM    7  C   UNL     1      -8.080   8.450  66.805  1.00  0.00    -0.098 A  
HETATM    8  C   UNL     1      -8.485   8.390  65.469  1.00  0.00    -0.184 A  
HETATM    9  C   UNL     1      -8.945   9.644  64.814  1.00  0.00    -0.225 C  
HETATM   10  O   UNL     1      -9.423   9.655  63.685  1.00  0.00    -0.137 OA 
HETATM   11  C   UNL     1      -8.846  10.944  65.531  1.00  0.00    -0.199 A  
HETATM   12  C   UNL     1      -9.177  12.146  64.868  1.00  0.00     0.400 A  
HETATM   13  O   UNL     1      -9.562  12.153  63.546  1.00  0.00    -0.591 OA 
HETATM   14  C   UNL     1      -9.112  13.398  65.514  1.00  0.00     0.751 A  
HETATM   15  H   UNL     1      -9.785  12.963  63.101  1.00  0.00     0.000 HD 
HETATM   16  C   UNL     1      -8.707  13.443  66.870  1.00  0.00    -0.154 A  
HETATM   17  C   UNL     1      -8.325  12.241  67.507  1.00  0.00    -0.170 A  
HETATM   18  C   UNL     1      -8.632  14.766  67.620  1.00  0.00    -0.180 C  
HETATM   19  C   UNL     1      -9.332  15.928  66.908  1.00  0.00    -0.225 C  
HETATM   20  C   UNL     1      -8.415  10.993  66.853  1.00  0.00    -0.139 A  
HETATM   21  O   UNL     1      -7.807  12.271  68.773  1.00  0.00    -0.259 OA 
HETATM   22  C   UNL     1      -9.461  14.665  64.734  1.00  0.00     1.290 C  
HETATM   23  C   UNL     1      -8.078   9.724  67.552  1.00  0.00    -0.114 C  
HETATM   24  C   UNL     1      -8.915  15.910  65.435  1.00  0.00     0.801 C  
HETATM   25  O   UNL     1     -10.745  15.812  67.078  1.00  0.00    -0.315 OA 
HETATM   26  H   UNL     1      -7.550  11.463  69.202  1.00  0.00     0.000 HD 
HETATM   27  O   UNL     1      -7.802   9.685  68.746  1.00  0.00    -0.079 OA 
HETATM   28  H   UNL     1     -11.179  16.533  66.637  1.00  0.00     0.000 HD 
BRANCH  19  29
HETATM   29  C   UNL     1      -8.905  17.262  67.544  1.00  0.00    -0.218 C  
HETATM   30  O   UNL     1      -8.916  18.326  66.914  1.00  0.00    -0.264 OA 
BRANCH  29  31
HETATM   31  C   UNL     1      -8.379  17.223  68.978  1.00  0.00    -0.090 C  
HETATM   32  O   UNL     1      -8.735  18.392  69.707  1.00  0.00     0.760 OA 
HETATM   33  H   UNL     1      -8.408  18.366  70.598  1.00  0.00     0.000 HD 
ENDBRANCH  29  31
ENDBRANCH  19  29
BRANCH  22  34
HETATM   34  O   UNL     1     -10.892  14.721  64.601  1.00  0.00    -0.376 OA 
BRANCH  34  35
HETATM   35  C   UNL     1     -11.427  14.284  63.343  1.00  0.00     1.211 C  
HETATM   36  C   UNL     1     -10.477  13.435  62.495  1.00  0.00     6.180 C  
HETATM   37  C   UNL     1     -10.233  12.095  63.181  1.00  0.00    -0.147 C  
HETATM   38  C   UNL     1     -11.591  11.386  63.387  1.00  0.00     0.041 C  
HETATM   39  N   UNL     1      -9.288  11.269  62.416  1.00  0.00    -0.504 NA 
HETATM   40  C   UNL     1     -12.539  12.315  64.167  1.00  0.00    -0.394 C  
HETATM   41  H2  UNL     1      -8.414  11.764  62.239  1.00  0.00     0.000 HD 
HETATM   42  O   UNL     1     -11.441  10.145  64.080  1.00  0.00     1.874 OA 
HETATM   43  H1  UNL     1      -9.125  10.373  62.874  1.00  0.00     0.000 HD 
HETATM   44  C   UNL     1     -13.940  11.714  64.241  1.00  0.00     3.269 C  
HETATM   45  H   UNL     1     -12.276   9.709  64.206  1.00  0.00     0.000 HD 
HETATM   46  O   UNL     1     -12.665  13.597  63.542  1.00  0.00    -0.724 OA 
ENDBRANCH  34  35
ENDBRANCH  22  34
ENDBRANCH   2   3
TORSDOF 5
ENDMDL
MODEL      161
REMARK 921   NORMALIZED FREE ENERGY PREDICTED BY IDOCK:   33.90 KCAL/MOL
REMARK 922        TOTAL FREE ENERGY PREDICTED BY IDOCK:   42.76 KCAL/MOL
REMARK 923 INTER-LIGAND FREE ENERGY PREDICTED BY IDOCK:   36.91 KCAL/MOL
REMARK 924 INTRA-LIGAND FREE ENERGY PREDICTED BY IDOCK:    5.85 KCAL/MOL
REMARK 927      BINDING AFFINITY PREDICTED BY RF-SCORE:    0.00 PKD
ROOT
HETATM    1  C   UNL     1     -12.141  19.315  63.791  1.00  0.00    11.893 C  
HETATM    2  O   UNL     1     -11.381  18.516  64.694  1.00  0.00     0.208 OA 
ENDROOT
BRANCH   2   3
HETATM    3  C   UNL     1     -10.353  19.135  65.356  1.00  0.00     0.349 A  
HETATM    4  C   UNL     1     -10.082  20.502  65.185  1.00  0.00     0.757 A  
HETATM    5  C   UNL     1      -9.040  21.116  65.872  1.00  0.00     1.638 A  
HETATM    6  C   UNL     1      -8.258  20.368  66.739  1.00  0.00    -0.276 A  
HETATM    7  C   UNL     1      -8.498  18.996  66.909  1.00  0.00    -0.302 A  
HETATM    8  C   UNL     1      -9.530  18.364  66.211  1.00  0.00    -0.246 A  
HETATM    9  C   UNL     1      -9.718  16.900  66.403  1.00  0.00    -0.284 C  
HETATM   10  O   UNL     1     -10.523  16.251  65.743  1.00  0.00    -0.347 OA 
HETATM   11  C   UNL     1      -8.910  16.167  67.413  1.00  0.00    -0.199 A  
HETATM   12  C   UNL     1      -9.167  14.803  67.673  1.00  0.00    -0.191 A  
HETATM   13  O   UNL     1     -10.184  14.130  67.033  1.00  0.00    -0.256 OA 
HETATM   14  C   UNL     1      -8.415  14.066  68.611  1.00  0.00    -0.103 A  
HETATM   15  H   UNL     1     -10.356  13.212  67.208  1.00  0.00     0.000 HD 
HETATM   16  C   UNL     1      -7.368  14.718  69.306  1.00  0.00    -0.168 A  
HETATM   17  C   UNL     1      -7.155  16.096  69.079  1.00  0.00    -0.187 A  
HETATM   18  C   UNL     1      -6.516  13.967  70.320  1.00  0.00     0.004 C  
HETATM   19  C   UNL     1      -6.668  12.444  70.258  1.00  0.00     0.733 C  
HETATM   20  C   UNL     1      -7.903  16.816  68.122  1.00  0.00    -0.182 A  
HETATM   21  O   UNL     1      -6.237  16.781  69.829  1.00  0.00    -0.223 OA 
HETATM   22  C   UNL     1      -8.759  12.599  68.864  1.00  0.00     0.332 C  
HETATM   23  C   UNL     1      -7.626  18.250  67.837  1.00  0.00    -0.241 C  
HETATM   24  C   UNL     1      -8.161  12.113  70.186  1.00  0.00     3.372 C  
HETATM   25  O   UNL     1      -5.940  11.935  69.139  1.00  0.00    -0.062 OA 
HETATM   26  H   UNL     1      -6.094  17.708  69.676  1.00  0.00     0.000 HD 
HETATM   27  O   UNL     1      -6.683  18.849  68.341  1.00  0.00    -0.235 OA 
HETATM   28  H   UNL     1      -6.034  10.991  69.101  1.00  0.00     0.000 HD 
BRANCH  19  29
HETATM   29  C   UNL     1      -6.064  11.807  71.521  1.00  0.00     1.468 C  
HETATM   30  O   UNL     1      -5.928  12.435  72.576  1.00  0.00     0.989 OA 
BRANCH  29  31
HETATM   31  C   UNL     1      -5.549  10.373  71.409  1.00  0.00     0.035 C  
HETATM   32  O   UNL     1      -6.285   9.478  72.234  1.00  0.00    -0.295 OA 
HETATM   33  H   UNL     1      -5.965   8.586  72.163  1.00  0.00     0.000 HD 
ENDBRANCH  29  31
ENDBRANCH  19  29
BRANCH  22  34
HETATM   34  O   UNL     1      -8.267  11.832  67.751  1.00  0.00    -0.130 OA 
BRANCH  34  35
HETATM   35  C   UNL     1      -6.868  11.513  67.773  1.00  0.00    -0.077 C  
HETATM   36  C   UNL     1      -6.453  10.357  66.860  1.00  0.00    -0.076 C  
HETATM   37  C   UNL     1      -6.628  10.765  65.400  1.00  0.00     0.047 C  
HETATM   38  C   UNL     1      -5.780  12.028  65.130  1.00  0.00     3.431 C  
HETATM   39  N   UNL     1      -6.281   9.661  64.493  1.00  0.00    -0.084 NA 
HETATM   40  C   UNL     1      -6.174  13.130  66.131  1.00  0.00     4.146 C  
HETATM   41  H2  UNL     1      -6.808   8.815  64.712  1.00  0.00     0.000 HD 
HETATM   42  O   UNL     1      -5.944  12.501  63.792  1.00  0.00     5.473 OA 
HETATM   43  H1  UNL     1      -6.399   9.934  63.517  1.00  0.00     0.000 HD 
HETATM   44  C   UNL     1      -5.241  14.332  66.003  1.00  0.00     6.333 C  
HETATM   45  H   UNL     1      -5.423  13.278  63.626  1.00  0.00     0.000 HD 
HETATM   46  O   UNL     1      -6.089  12.677  67.486  1.00  0.00    -0.135 OA 
ENDBRANCH  34  35
ENDBRANCH  22  34
ENDBRANCH   2   3
TORSDOF 5
ENDMDL
MODEL      162
REMARK 921   NORMALIZED FREE ENERGY PREDICTED BY IDOCK:   36.43 KCAL/MOL
REMARK 922        TOTAL FREE ENERGY PREDICTED BY IDOCK:   46.03 KCAL/MOL
REMARK 923 INTER-LIGAND FREE ENERGY PREDICTED BY IDOCK:   18.39 KCAL/MOL
REMARK 924 INTRA-LIGAND FREE ENERGY PREDICTED BY IDOCK:   27.63 KCAL/MOL
REMARK 927      BINDING AFFINITY PREDICTED BY RF-SCORE:    0.00 PKD
ROOT
HETATM    1  C   UNL     1      -6.566  13.399  65.629  1.00  0.00     7.746 C  
HETATM    2  O   UNL     1      -6.545  12.017  65.280  1.00  0.00     1.916 OA 
ENDROOT
BRANCH   2   3
HETATM    3  C   UNL     1      -7.704  11.486  64.776  1.00  0.00     1.496 A  
HETATM    4  C   UNL     1      -8.360  12.060  63.675  1.00  0.00     1.980 A  
HETATM    5  C   UNL     1      -9.530  11.502  63.171  1.00  0.00    -0.332 A  
HETATM    6  C   UNL     1     -10.057  10.364  63.763  1.00  0.00    -0.134 A  
HETATM    7  C   UNL     1      -9.428   9.788  64.877  1.00  0.00    -0.331 A  
HETATM    8  C   UNL     1      -8.262  10.349  65.404  1.00  0.00    -0.159 A  
HETATM    9  C   UNL     1      -7.658   9.716  66.608  1.00  0.00    -0.098 C  
HETATM   10  O   UNL     1      -6.704  10.212  67.199  1.00  0.00    -0.072 OA 
HETATM   11  C   UNL     1      -8.213   8.445  67.145  1.00  0.00    -0.108 A  
HETATM   12  C   UNL     1      -7.570   7.788  68.217  1.00  0.00    -0.109 A  
HETATM   13  O   UNL     1      -6.406   8.279  68.766  1.00  0.00    -0.046 OA 
HETATM   14  C   UNL     1      -8.070   6.589  68.768  1.00  0.00    -0.118 A  
HETATM   15  H   UNL     1      -5.975   7.836  69.487  1.00  0.00     0.000 HD 
HETATM   16  C   UNL     1      -9.257   6.037  68.227  1.00  0.00    -0.117 A  
HETATM   17  C   UNL     1      -9.861   6.672  67.119  1.00  0.00    -0.151 A  
HETATM   18  C   UNL     1      -9.848   4.752  68.791  1.00  0.00    -0.218 C  
HETATM   19  C   UNL     1      -9.262   4.335  70.144  1.00  0.00    -0.135 C  
HETATM   20  C   UNL     1      -9.360   7.882  66.593  1.00  0.00    -0.244 A  
HETATM   21  O   UNL     1     -10.932   6.092  66.496  1.00  0.00    -0.631 OA 
HETATM   22  C   UNL     1      -7.314   5.915  69.911  1.00  0.00    -0.075 C  
HETATM   23  C   UNL     1     -10.041   8.583  65.471  1.00  0.00     1.075 C  
HETATM   24  C   UNL     1      -7.738   4.452  70.063  1.00  0.00    -0.053 C  
HETATM   25  O   UNL     1      -9.819   5.149  71.178  1.00  0.00    -0.168 OA 
HETATM   26  H   UNL     1     -11.339   6.519  65.751  1.00  0.00     0.000 HD 
HETATM   27  O   UNL     1     -11.114   8.204  65.015  1.00  0.00     6.447 OA 
HETATM   28  H   UNL     1      -9.456   4.890  72.016  1.00  0.00     0.000 HD 
BRANCH  19  29
HETATM   29  C   UNL     1      -9.648   2.879  70.453  1.00  0.00    -0.086 C  
HETATM   30  O   UNL     1      -9.651   1.999  69.586  1.00  0.00    -0.078 OA 
BRANCH  29  31
HETATM   31  C   UNL     1     -10.115   2.561  71.873  1.00  0.00    -0.093 C  
HETATM   32  O   UNL     1     -10.446   3.739  72.600  1.00  0.00    -0.164 OA 
HETATM   33  H   UNL     1     -10.737   3.540  73.482  1.00  0.00     0.000 HD 
ENDBRANCH  29  31
ENDBRANCH  19  29
BRANCH  22  34
HETATM   34  O   UNL     1      -7.571   6.663  71.112  1.00  0.00    -0.087 OA 
BRANCH  34  35
HETATM   35  C   UNL     1      -8.104   5.920  72.218  1.00  0.00    -0.107 C  
HETATM   36  C   UNL     1      -8.348   6.737  73.489  1.00  0.00    -0.130 C  
HETATM   37  C   UNL     1      -9.474   7.738  73.250  1.00  0.00    -0.283 C  
HETATM   38  C   UNL     1     -10.744   6.966  72.824  1.00  0.00    -0.255 C  
HETATM   39  N   UNL     1      -9.708   8.573  74.438  1.00  0.00     2.089 NA 
HETATM   40  C   UNL     1     -10.423   6.093  71.597  1.00  0.00    -0.222 C  
HETATM   41  H2  UNL     1      -8.852   9.037  74.744  1.00  0.00     0.000 HD 
HETATM   42  O   UNL     1     -11.827   7.850  72.526  1.00  0.00    -0.418 OA 
HETATM   43  H1  UNL     1     -10.460   9.241  74.278  1.00  0.00     0.000 HD 
HETATM   44  C   UNL     1     -11.606   5.192  71.253  1.00  0.00     1.010 C  
HETATM   45  H   UNL     1     -12.607   7.376  72.264  1.00  0.00     0.000 HD 
HETATM   46  O   UNL     1      -9.299   5.238  71.829  1.00  0.00    -0.143 OA 
ENDBRANCH  34  35
ENDBRANCH  22  34
ENDBRANCH   2   3
TORSDOF 5
ENDMDL
MODEL      163
REMARK 921   NORMALIZED FREE ENERGY PREDICTED BY IDOCK:   36.87 KCAL/MOL
REMARK 922        TOTAL FREE ENERGY PREDICTED BY IDOCK:   46.61 KCAL/MOL
REMARK 923 INTER-LIGAND FREE ENERGY PREDICTED BY IDOCK:    0.63 KCAL/MOL
REMARK 924 INTRA-LIGAND FREE ENERGY PREDICTED BY IDOCK:   45.97 KCAL/MOL
REMARK 927      BINDING AFFINITY PREDICTED BY RF-SCORE:    0.00 PKD
ROOT
HETATM    1  C   UNL     1      -7.893   2.284  68.041  1.00  0.00    -0.058 C  
HETATM    2  O   UNL     1      -7.737   2.621  69.417  1.00  0.00    -0.044 OA 
ENDROOT
BRANCH   2   3
HETATM    3  C   UNL     1      -8.836   3.126  70.061  1.00  0.00    -0.088 A  
HETATM    4  C   UNL     1      -9.676   2.309  70.837  1.00  0.00    -0.130 A  
HETATM    5  C   UNL     1     -10.782   2.839  71.492  1.00  0.00     1.148 A  
HETATM    6  C   UNL     1     -11.061   4.193  71.377  1.00  0.00     1.379 A  
HETATM    7  C   UNL     1     -10.249   5.022  70.590  1.00  0.00    -0.306 A  
HETATM    8  C   UNL     1      -9.144   4.498  69.913  1.00  0.00    -0.165 A  
HETATM    9  C   UNL     1      -8.338   5.417  69.064  1.00  0.00    -0.100 C  
HETATM   10  O   UNL     1      -7.425   5.015  68.349  1.00  0.00    -0.072 OA 
HETATM   11  C   UNL     1      -8.629   6.875  69.051  1.00  0.00    -0.128 A  
HETATM   12  C   UNL     1      -7.793   7.759  68.334  1.00  0.00    -0.121 A  
HETATM   13  O   UNL     1      -6.677   7.306  67.664  1.00  0.00    -0.060 OA 
HETATM   14  C   UNL     1      -8.040   9.146  68.282  1.00  0.00    -0.104 A  
HETATM   15  H   UNL     1      -6.115   7.901  67.182  1.00  0.00     0.000 HD 
HETATM   16  C   UNL     1      -9.167   9.661  68.968  1.00  0.00    -0.156 A  
HETATM   17  C   UNL     1      -9.965   8.777  69.727  1.00  0.00    -0.190 A  
HETATM   18  C   UNL     1      -9.489  11.149  68.934  1.00  0.00    -0.136 C  
HETATM   19  C   UNL     1      -8.722  11.931  67.864  1.00  0.00    -0.167 C  
HETATM   20  C   UNL     1      -9.716   7.387  69.752  1.00  0.00    -0.170 A  
HETATM   21  O   UNL     1     -10.982   9.264  70.502  1.00  0.00    -0.233 OA 
HETATM   22  C   UNL     1      -7.083  10.052  67.508  1.00  0.00    -0.087 C  
HETATM   23  C   UNL     1     -10.602   6.452  70.497  1.00  0.00    -0.239 C  
HETATM   24  C   UNL     1      -7.250  11.514  67.927  1.00  0.00    -0.085 C  
HETATM   25  O   UNL     1      -9.304  11.687  66.582  1.00  0.00    -0.183 OA 
HETATM   26  H   UNL     1     -11.519   8.670  71.013  1.00  0.00     0.000 HD 
HETATM   27  O   UNL     1     -11.637   6.821  71.040  1.00  0.00    -0.300 OA 
HETATM   28  H   UNL     1      -8.828  12.172  65.919  1.00  0.00     0.000 HD 
BRANCH  19  29
HETATM   29  C   UNL     1      -8.838  13.440  68.136  1.00  0.00    -0.180 C  
HETATM   30  O   UNL     1      -8.345  13.969  69.138  1.00  0.00     0.061 OA 
BRANCH  29  31
HETATM   31  C   UNL     1      -9.666  14.271  67.157  1.00  0.00    -0.254 C  
HETATM   32  O   UNL     1      -8.857  14.879  66.158  1.00  0.00    -0.474 OA 
HETATM   33  H   UNL     1      -9.373  15.395  65.550  1.00  0.00     0.000 HD 
ENDBRANCH  29  31
ENDBRANCH  19  29
BRANCH  22  34
HETATM   34  O   UNL     1      -7.346   9.875  66.105  1.00  0.00    -0.098 OA 
BRANCH  34  35
HETATM   35  C   UNL     1      -6.940  10.950  65.246  1.00  0.00     0.229 C  
HETATM   36  C   UNL     1      -7.736  11.074  63.944  1.00  0.00     0.612 C  
HETATM   37  C   UNL     1      -9.172  11.485  64.256  1.00  0.00     0.096 C  
HETATM   38  C   UNL     1      -9.149  12.822  65.032  1.00  0.00     0.985 C  
HETATM   39  N   UNL     1      -9.980  11.571  63.030  1.00  0.00    -0.586 NA 
HETATM   40  C   UNL     1      -8.265  12.670  66.284  1.00  0.00     0.604 C  
HETATM   41  H2  UNL     1      -9.946  10.702  62.497  1.00  0.00     0.000 HD 
HETATM   42  O   UNL     1     -10.464  13.237  65.409  1.00  0.00    -0.283 OA 
HETATM   43  H1  UNL     1     -10.939  11.846  63.239  1.00  0.00     0.000 HD 
HETATM   44  C   UNL     1      -8.085  14.016  66.982  1.00  0.00    -0.028 C  
HETATM   45  H   UNL     1     -10.450  14.058  65.886  1.00  0.00     0.000 HD 
HETATM   46  O   UNL     1      -6.957  12.189  65.958  1.00  0.00     0.743 OA 
ENDBRANCH  34  35
ENDBRANCH  22  34
ENDBRANCH   2   3
TORSDOF 5
ENDMDL
MODEL      164
REMARK 921   NORMALIZED FREE ENERGY PREDICTED BY IDOCK:   37.04 KCAL/MOL
REMARK 922        TOTAL FREE ENERGY PREDICTED BY IDOCK:   46.82 KCAL/MOL
REMARK 923 INTER-LIGAND FREE ENERGY PREDICTED BY IDOCK:    7.75 KCAL/MOL
REMARK 924 INTRA-LIGAND FREE ENERGY PREDICTED BY IDOCK:   39.07 KCAL/MOL
REMARK 927      BINDING AFFINITY PREDICTED BY RF-SCORE:    0.00 PKD
ROOT
HETATM    1  C   UNL     1      -9.270   4.438  66.056  1.00  0.00    -0.139 C  
HETATM    2  O   UNL     1      -7.861   4.633  65.970  1.00  0.00    -0.094 OA 
ENDROOT
BRANCH   2   3
HETATM    3  C   UNL     1      -7.207   4.958  67.130  1.00  0.00    -0.077 A  
HETATM    4  C   UNL     1      -6.692   3.973  67.988  1.00  0.00    -0.047 A  
HETATM    5  C   UNL     1      -6.023   4.321  69.156  1.00  0.00    -0.023 A  
HETATM    6  C   UNL     1      -5.862   5.660  69.479  1.00  0.00    -0.016 A  
HETATM    7  C   UNL     1      -6.387   6.660  68.647  1.00  0.00    -0.031 A  
HETATM    8  C   UNL     1      -7.077   6.323  67.480  1.00  0.00    -0.073 A  
HETATM    9  C   UNL     1      -7.642   7.423  66.652  1.00  0.00    -0.100 C  
HETATM   10  O   UNL     1      -8.357   7.209  65.678  1.00  0.00    -0.129 OA 
HETATM   11  C   UNL     1      -7.360   8.842  66.998  1.00  0.00    -0.080 A  
HETATM   12  C   UNL     1      -7.803   9.880  66.149  1.00  0.00    -0.110 A  
HETATM   13  O   UNL     1      -8.469   9.611  64.974  1.00  0.00    -0.133 OA 
HETATM   14  C   UNL     1      -7.570  11.239  66.446  1.00  0.00    -0.072 A  
HETATM   15  H   UNL     1      -8.767  10.310  64.404  1.00  0.00     0.000 HD 
HETATM   16  C   UNL     1      -6.876  11.565  67.636  1.00  0.00    -0.083 A  
HETATM   17  C   UNL     1      -6.389  10.518  68.449  1.00  0.00    -0.054 A  
HETATM   18  C   UNL     1      -6.609  13.017  68.012  1.00  0.00    -0.116 C  
HETATM   19  C   UNL     1      -7.423  14.031  67.204  1.00  0.00     0.113 C  
HETATM   20  C   UNL     1      -6.648   9.163  68.149  1.00  0.00    -0.060 A  
HETATM   21  O   UNL     1      -5.605  10.801  69.535  1.00  0.00    -0.038 OA 
HETATM   22  C   UNL     1      -8.055  12.314  65.474  1.00  0.00     1.680 C  
HETATM   23  C   UNL     1      -6.193   8.068  69.048  1.00  0.00    -0.039 C  
HETATM   24  C   UNL     1      -7.341  13.644  65.724  1.00  0.00     5.470 C  
HETATM   25  O   UNL     1      -8.767  14.062  67.687  1.00  0.00    -0.167 OA 
HETATM   26  H   UNL     1      -5.278  10.097  70.082  1.00  0.00     0.000 HD 
HETATM   27  O   UNL     1      -5.662   8.285  70.131  1.00  0.00    -0.022 OA 
HETATM   28  H   UNL     1      -9.271  14.692  67.186  1.00  0.00     0.000 HD 
BRANCH  19  29
HETATM   29  C   UNL     1      -6.838  15.441  67.396  1.00  0.00    -0.170 C  
HETATM   30  O   UNL     1      -7.523  16.391  67.790  1.00  0.00    -0.134 OA 
BRANCH  29  31
HETATM   31  C   UNL     1      -5.379  15.658  66.998  1.00  0.00     0.583 C  
HETATM   32  O   UNL     1      -5.212  15.690  65.586  1.00  0.00     3.636 OA 
HETATM   33  H   UNL     1      -4.305  15.826  65.339  1.00  0.00     0.000 HD 
ENDBRANCH  29  31
ENDBRANCH  19  29
BRANCH  22  34
HETATM   34  O   UNL     1      -9.478  12.443  65.632  1.00  0.00    -0.168 OA 
BRANCH  34  35
HETATM   35  C   UNL     1     -10.047  11.800  66.782  1.00  0.00    -0.209 C  
HETATM   36  C   UNL     1      -9.037  11.370  67.848  1.00  0.00    -0.164 C  
HETATM   37  C   UNL     1      -8.413  12.603  68.493  1.00  0.00    -0.051 C  
HETATM   38  C   UNL     1      -9.538  13.472  69.100  1.00  0.00     0.431 C  
HETATM   39  N   UNL     1      -7.403  12.228  69.495  1.00  0.00    -0.298 NA 
HETATM   40  C   UNL     1     -10.572  13.803  68.008  1.00  0.00    -0.252 C  
HETATM   41  H2  UNL     1      -6.693  11.612  69.098  1.00  0.00     0.000 HD 
HETATM   42  O   UNL     1      -9.027  14.678  69.672  1.00  0.00    -0.406 OA 
HETATM   43  H1  UNL     1      -6.986  13.053  69.925  1.00  0.00     0.000 HD 
HETATM   44  C   UNL     1     -11.781  14.516  68.610  1.00  0.00    -0.364 C  
HETATM   45  H   UNL     1      -9.719  15.212  70.044  1.00  0.00     0.000 HD 
HETATM   46  O   UNL     1     -11.062  12.624  67.361  1.00  0.00    -0.251 OA 
ENDBRANCH  34  35
ENDBRANCH  22  34
ENDBRANCH   2   3
TORSDOF 5
ENDMDL
MODEL      165
REMARK 921   NORMALIZED FREE ENERGY PREDICTED BY IDOCK:   37.38 KCAL/MOL
REMARK 922        TOTAL FREE ENERGY PREDICTED BY IDOCK:   47.26 KCAL/MOL
REMARK 923 INTER-LIGAND FREE ENERGY PREDICTED BY IDOCK:   -1.29 KCAL/MOL
REMARK 924 INTRA-LIGAND FREE ENERGY PREDICTED BY IDOCK:   48.56 KCAL/MOL
REMARK 927      BINDING AFFINITY PREDICTED BY RF-SCORE:    0.00 PKD
ROOT
HETATM    1  C   UNL     1      -8.881  14.560  65.692  1.00  0.00     1.111 C  
HETATM    2  O   UNL     1     -10.112  13.990  65.259  1.00  0.00    -0.343 OA 
ENDROOT
BRANCH   2   3
HETATM    3  C   UNL     1     -10.993  13.600  66.233  1.00  0.00    -0.299 A  
HETATM    4  C   UNL     1     -12.118  14.373  66.564  1.00  0.00    -0.395 A  
HETATM    5  C   UNL     1     -13.007  13.958  67.549  1.00  0.00     1.734 A  
HETATM    6  C   UNL     1     -12.780  12.763  68.216  1.00  0.00     1.403 A  
HETATM    7  C   UNL     1     -11.651  11.986  67.916  1.00  0.00    -0.405 A  
HETATM    8  C   UNL     1     -10.741  12.401  66.941  1.00  0.00    -0.269 A  
HETATM    9  C   UNL     1      -9.543  11.555  66.689  1.00  0.00    -0.197 C  
HETATM   10  O   UNL     1      -8.641  11.905  65.934  1.00  0.00     0.021 OA 
HETATM   11  C   UNL     1      -9.398  10.240  67.367  1.00  0.00    -0.163 A  
HETATM   12  C   UNL     1      -8.318   9.389  67.042  1.00  0.00    -0.127 A  
HETATM   13  O   UNL     1      -7.401   9.733  66.074  1.00  0.00    -0.096 OA 
HETATM   14  C   UNL     1      -8.134   8.141  67.672  1.00  0.00    -0.127 A  
HETATM   15  H   UNL     1      -6.675   9.160  65.856  1.00  0.00     0.000 HD 
HETATM   16  C   UNL     1      -9.061   7.737  68.663  1.00  0.00    -0.136 A  
HETATM   17  C   UNL     1     -10.167   8.570  68.942  1.00  0.00    -0.207 A  
HETATM   18  C   UNL     1      -8.902   6.405  69.385  1.00  0.00    -0.132 C  
HETATM   19  C   UNL     1      -7.532   5.749  69.192  1.00  0.00    -0.084 C  
HETATM   20  C   UNL     1     -10.327   9.826  68.317  1.00  0.00    -0.231 A  
HETATM   21  O   UNL     1     -11.146   8.146  69.800  1.00  0.00    -0.404 OA 
HETATM   22  C   UNL     1      -6.959   7.257  67.258  1.00  0.00    -0.079 C  
HETATM   23  C   UNL     1     -11.456  10.729  68.667  1.00  0.00    -0.295 C  
HETATM   24  C   UNL     1      -7.176   5.809  67.704  1.00  0.00    -0.076 C  
HETATM   25  O   UNL     1      -6.565   6.407  70.012  1.00  0.00    -0.045 OA 
HETATM   26  H   UNL     1     -11.890   8.707  69.987  1.00  0.00     0.000 HD 
HETATM   27  O   UNL     1     -12.243  10.477  69.572  1.00  0.00    -0.217 OA 
HETATM   28  H   UNL     1      -5.716   6.000  69.892  1.00  0.00     0.000 HD 
BRANCH  19  29
HETATM   29  C   UNL     1      -7.588   4.280  69.644  1.00  0.00    -0.054 C  
HETATM   30  O   UNL     1      -7.480   3.951  70.831  1.00  0.00    -0.040 OA 
BRANCH  29  31
HETATM   31  C   UNL     1      -7.699   3.212  68.557  1.00  0.00    -0.054 C  
HETATM   32  O   UNL     1      -6.624   3.285  67.628  1.00  0.00    -0.036 OA 
HETATM   33  H   UNL     1      -6.694   2.621  66.953  1.00  0.00     0.000 HD 
ENDBRANCH  29  31
ENDBRANCH  19  29
BRANCH  22  34
HETATM   34  O   UNL     1      -5.764   7.811  67.836  1.00  0.00    -0.034 OA 
BRANCH  34  35
HETATM   35  C   UNL     1      -5.799   9.213  68.137  1.00  0.00    -0.038 C  
HETATM   36  C   UNL     1      -7.187   9.855  68.065  1.00  0.00    -0.083 C  
HETATM   37  C   UNL     1      -8.068   9.303  69.181  1.00  0.00    -0.106 C  
HETATM   38  C   UNL     1      -7.386   9.584  70.540  1.00  0.00    -0.138 C  
HETATM   39  N   UNL     1      -9.425   9.865  69.117  1.00  0.00    -0.184 NA 
HETATM   40  C   UNL     1      -5.964   8.995  70.528  1.00  0.00    -0.038 C  
HETATM   41  H2  UNL     1      -9.848   9.721  68.199  1.00  0.00     0.000 HD 
HETATM   42  O   UNL     1      -8.133   9.039  71.630  1.00  0.00    -0.329 OA 
HETATM   43  H1  UNL     1     -10.014   9.496  69.863  1.00  0.00     0.000 HD 
HETATM   44  C   UNL     1      -5.203   9.400  71.788  1.00  0.00    -0.068 C  
HETATM   45  H   UNL     1      -7.713   9.212  72.465  1.00  0.00     0.000 HD 
HETATM   46  O   UNL     1      -5.201   9.463  69.411  1.00  0.00    -0.035 OA 
ENDBRANCH  34  35
ENDBRANCH  22  34
ENDBRANCH   2   3
TORSDOF 5
ENDMDL
MODEL      166
REMARK 921   NORMALIZED FREE ENERGY PREDICTED BY IDOCK:   38.84 KCAL/MOL
REMARK 922        TOTAL FREE ENERGY PREDICTED BY IDOCK:   49.15 KCAL/MOL
REMARK 923 INTER-LIGAND FREE ENERGY PREDICTED BY IDOCK:   12.08 KCAL/MOL
REMARK 924 INTRA-LIGAND FREE ENERGY PREDICTED BY IDOCK:   37.07 KCAL/MOL
REMARK 927      BINDING AFFINITY PREDICTED BY RF-SCORE:    0.00 PKD
ROOT
HETATM    1  C   UNL     1      -9.390   9.305  72.635  1.00  0.00     1.608 C  
HETATM    2  O   UNL     1      -9.344  10.521  71.894  1.00  0.00     4.474 OA 
ENDROOT
BRANCH   2   3
HETATM    3  C   UNL     1     -10.255  10.665  70.880  1.00  0.00     1.734 A  
HETATM    4  C   UNL     1     -11.326  11.570  70.974  1.00  0.00     1.277 A  
HETATM    5  C   UNL     1     -12.236  11.710  69.932  1.00  0.00    -0.310 A  
HETATM    6  C   UNL     1     -12.085  10.947  68.784  1.00  0.00    -0.124 A  
HETATM    7  C   UNL     1     -11.034  10.023  68.678  1.00  0.00    -0.247 A  
HETATM    8  C   UNL     1     -10.124   9.859  69.725  1.00  0.00    -0.274 A  
HETATM    9  C   UNL     1      -9.050   8.840  69.573  1.00  0.00    -0.146 C  
HETATM   10  O   UNL     1      -8.284   8.555  70.488  1.00  0.00    -0.100 OA 
HETATM   11  C   UNL     1      -8.881   8.116  68.285  1.00  0.00    -0.133 A  
HETATM   12  C   UNL     1      -7.794   7.233  68.106  1.00  0.00    -0.118 A  
HETATM   13  O   UNL     1      -6.851   7.046  69.092  1.00  0.00    -0.057 OA 
HETATM   14  C   UNL     1      -7.604   6.515  66.907  1.00  0.00    -0.095 A  
HETATM   15  H   UNL     1      -6.120   6.451  68.971  1.00  0.00     0.000 HD 
HETATM   16  C   UNL     1      -8.538   6.686  65.857  1.00  0.00    -0.153 A  
HETATM   17  C   UNL     1      -9.591   7.613  66.026  1.00  0.00     0.089 A  
HETATM   18  C   UNL     1      -8.389   5.926  64.546  1.00  0.00    -0.069 C  
HETATM   19  C   UNL     1      -7.388   4.768  64.606  1.00  0.00    -0.067 C  
HETATM   20  C   UNL     1      -9.779   8.309  67.240  1.00  0.00    -0.234 A  
HETATM   21  O   UNL     1     -10.432   7.894  64.984  1.00  0.00     2.849 OA 
HETATM   22  C   UNL     1      -6.393   5.593  66.767  1.00  0.00    -0.035 C  
HETATM   23  C   UNL     1     -10.931   9.231  67.436  1.00  0.00     0.048 C  
HETATM   24  C   UNL     1      -6.117   5.267  65.298  1.00  0.00    -0.030 C  
HETATM   25  O   UNL     1      -7.979   3.657  65.283  1.00  0.00    -0.088 OA 
HETATM   26  H   UNL     1     -11.140   8.517  65.097  1.00  0.00     0.000 HD 
HETATM   27  O   UNL     1     -11.818   9.359  66.601  1.00  0.00     2.417 OA 
HETATM   28  H   UNL     1      -7.358   2.940  65.320  1.00  0.00     0.000 HD 
BRANCH  19  29
HETATM   29  C   UNL     1      -7.044   4.301  63.181  1.00  0.00    -0.044 C  
HETATM   30  O   UNL     1      -6.445   5.022  62.377  1.00  0.00    -0.024 OA 
BRANCH  29  31
HETATM   31  C   UNL     1      -7.548   2.924  62.751  1.00  0.00    -0.054 C  
HETATM   32  O   UNL     1      -8.915   2.957  62.357  1.00  0.00    -0.081 OA 
HETATM   33  H   UNL     1      -9.227   2.100  62.090  1.00  0.00     0.000 HD 
ENDBRANCH  29  31
ENDBRANCH  19  29
BRANCH  22  34
HETATM   34  O   UNL     1      -6.656   4.401  67.529  1.00  0.00    -0.044 OA 
BRANCH  34  35
HETATM   35  C   UNL     1      -7.708   4.491  68.500  1.00  0.00    -0.075 C  
HETATM   36  C   UNL     1      -8.666   5.669  68.308  1.00  0.00    -0.106 C  
HETATM   37  C   UNL     1      -9.475   5.473  67.030  1.00  0.00    -0.131 C  
HETATM   38  C   UNL     1     -10.241   4.133  67.126  1.00  0.00     0.246 C  
HETATM   39  N   UNL     1     -10.377   6.609  66.789  1.00  0.00    -0.363 NA 
HETATM   40  C   UNL     1      -9.243   2.995  67.407  1.00  0.00    -0.189 C  
HETATM   41  H2  UNL     1      -9.870   7.494  66.780  1.00  0.00     0.000 HD 
HETATM   42  O   UNL     1     -10.977   3.857  65.933  1.00  0.00     0.115 OA 
HETATM   43  H1  UNL     1     -10.917   6.477  65.935  1.00  0.00     0.000 HD 
HETATM   44  C   UNL     1      -9.983   1.686  67.675  1.00  0.00     0.692 C  
HETATM   45  H   UNL     1     -11.447   3.033  65.992  1.00  0.00     0.000 HD 
HETATM   46  O   UNL     1      -8.437   3.263  68.558  1.00  0.00    -0.078 OA 
ENDBRANCH  34  35
ENDBRANCH  22  34
ENDBRANCH   2   3
TORSDOF 5
ENDMDL
MODEL      167
REMARK 921   NORMALIZED FREE ENERGY PREDICTED BY IDOCK:   43.86 KCAL/MOL
REMARK 922        TOTAL FREE ENERGY PREDICTED BY IDOCK:   55.63 KCAL/MOL
REMARK 923 INTER-LIGAND FREE ENERGY PREDICTED BY IDOCK:    1.37 KCAL/MOL
REMARK 924 INTRA-LIGAND FREE ENERGY PREDICTED BY IDOCK:   54.26 KCAL/MOL
REMARK 927      BINDING AFFINITY PREDICTED BY RF-SCORE:    0.00 PKD
ROOT
HETATM    1  C   UNL     1      -6.180  13.565  70.240  1.00  0.00    -0.052 C  
HETATM    2  O   UNL     1      -7.038  14.677  70.483  1.00  0.00     0.115 OA 
ENDROOT
BRANCH   2   3
HETATM    3  C   UNL     1      -8.358  14.528  70.148  1.00  0.00     1.093 A  
HETATM    4  C   UNL     1      -9.251  15.612  70.167  1.00  0.00     0.484 A  
HETATM    5  C   UNL     1     -10.586  15.445  69.815  1.00  0.00    -0.304 A  
HETATM    6  C   UNL     1     -11.043  14.190  69.440  1.00  0.00    -0.261 A  
HETATM    7  C   UNL     1     -10.173  13.090  69.435  1.00  0.00     0.548 A  
HETATM    8  C   UNL     1      -8.834  13.241  69.804  1.00  0.00     2.211 A  
HETATM    9  C   UNL     1      -7.965  12.033  69.813  1.00  0.00     1.504 C  
HETATM   10  O   UNL     1      -6.812  12.059  70.233  1.00  0.00     0.168 OA 
HETATM   11  C   UNL     1      -8.484  10.732  69.314  1.00  0.00    -0.058 A  
HETATM   12  C   UNL     1      -7.625   9.615  69.219  1.00  0.00    -0.091 A  
HETATM   13  O   UNL     1      -6.291   9.706  69.547  1.00  0.00    -0.042 OA 
HETATM   14  C   UNL     1      -8.079   8.358  68.766  1.00  0.00    -0.121 A  
HETATM   15  H   UNL     1      -5.714   8.954  69.483  1.00  0.00     0.000 HD 
HETATM   16  C   UNL     1      -9.441   8.219  68.402  1.00  0.00    -0.144 A  
HETATM   17  C   UNL     1     -10.278   9.356  68.449  1.00  0.00    -0.197 A  
HETATM   18  C   UNL     1      -9.988   6.883  67.919  1.00  0.00    -0.174 C  
HETATM   19  C   UNL     1      -9.058   5.695  68.184  1.00  0.00    -0.110 C  
HETATM   20  C   UNL     1      -9.814  10.602  68.924  1.00  0.00    -0.210 A  
HETATM   21  O   UNL     1     -11.563   9.281  67.982  1.00  0.00    -0.012 OA 
HETATM   22  C   UNL     1      -7.094   7.196  68.663  1.00  0.00    -0.085 C  
HETATM   23  C   UNL     1     -10.719  11.777  69.037  1.00  0.00    -0.169 C  
HETATM   24  C   UNL     1      -7.641   6.089  67.759  1.00  0.00    -0.096 C  
HETATM   25  O   UNL     1      -9.133   5.326  69.563  1.00  0.00    -0.108 OA 
HETATM   26  H   UNL     1     -12.126  10.046  68.013  1.00  0.00     0.000 HD 
HETATM   27  O   UNL     1     -11.923  11.702  68.818  1.00  0.00    -0.335 OA 
HETATM   28  H   UNL     1      -8.557   4.589  69.727  1.00  0.00     0.000 HD 
BRANCH  19  29
HETATM   29  C   UNL     1      -9.518   4.478  67.363  1.00  0.00    -0.162 C  
HETATM   30  O   UNL     1     -10.385   4.564  66.487  1.00  0.00    -0.238 OA 
BRANCH  29  31
HETATM   31  C   UNL     1      -8.922   3.119  67.724  1.00  0.00    -0.154 C  
HETATM   32  O   UNL     1      -8.290   3.137  68.998  1.00  0.00    -0.059 OA 
HETATM   33  H   UNL     1      -7.920   2.291  69.222  1.00  0.00     0.000 HD 
ENDBRANCH  29  31
ENDBRANCH  19  29
BRANCH  22  34
HETATM   34  O   UNL     1      -6.843   6.711  69.994  1.00  0.00    -0.051 OA 
BRANCH  34  35
HETATM   35  C   UNL     1      -7.553   5.525  70.379  1.00  0.00    -0.081 C  
HETATM   36  C   UNL     1      -7.964   5.466  71.852  1.00  0.00    -0.113 C  
HETATM   37  C   UNL     1      -9.017   6.532  72.136  1.00  0.00    -0.139 C  
HETATM   38  C   UNL     1     -10.227   6.298  71.204  1.00  0.00    -0.198 C  
HETATM   39  N   UNL     1      -9.404   6.536  73.555  1.00  0.00    -0.133 NA 
HETATM   40  C   UNL     1      -9.747   6.278  69.741  1.00  0.00    -0.160 C  
HETATM   41  H2  UNL     1      -8.593   6.638  74.165  1.00  0.00     0.000 HD 
HETATM   42  O   UNL     1     -11.231   7.300  71.376  1.00  0.00    -0.242 OA 
HETATM   43  H1  UNL     1     -10.108   7.248  73.744  1.00  0.00     0.000 HD 
HETATM   44  C   UNL     1     -10.888   5.882  68.806  1.00  0.00    -0.353 C  
HETATM   45  H   UNL     1     -11.975   7.157  70.803  1.00  0.00     0.000 HD 
HETATM   46  O   UNL     1      -8.692   5.333  69.537  1.00  0.00    -0.102 OA 
ENDBRANCH  34  35
ENDBRANCH  22  34
ENDBRANCH   2   3
TORSDOF 5
ENDMDL
MODEL      168
REMARK 921   NORMALIZED FREE ENERGY PREDICTED BY IDOCK:   44.67 KCAL/MOL
REMARK 922        TOTAL FREE ENERGY PREDICTED BY IDOCK:   56.68 KCAL/MOL
REMARK 923 INTER-LIGAND FREE ENERGY PREDICTED BY IDOCK:   18.48 KCAL/MOL
REMARK 924 INTRA-LIGAND FREE ENERGY PREDICTED BY IDOCK:   38.20 KCAL/MOL
REMARK 927      BINDING AFFINITY PREDICTED BY RF-SCORE:    0.00 PKD
ROOT
HETATM    1  C   UNL     1      -7.817  14.532  70.636  1.00  0.00     1.774 C  
HETATM    2  O   UNL     1      -8.344  14.443  69.315  1.00  0.00    -0.006 OA 
ENDROOT
BRANCH   2   3
HETATM    3  C   UNL     1      -7.524  13.916  68.353  1.00  0.00    -0.117 A  
HETATM    4  C   UNL     1      -6.923  14.723  67.372  1.00  0.00    -0.141 A  
HETATM    5  C   UNL     1      -6.086  14.171  66.408  1.00  0.00     4.098 A  
HETATM    6  C   UNL     1      -5.840  12.807  66.414  1.00  0.00     2.073 A  
HETATM    7  C   UNL     1      -6.447  11.980  67.371  1.00  0.00    -0.137 A  
HETATM    8  C   UNL     1      -7.304  12.518  68.334  1.00  0.00    -0.114 A  
HETATM    9  C   UNL     1      -7.948  11.590  69.303  1.00  0.00     0.208 C  
HETATM   10  O   UNL     1      -8.799  11.966  70.103  1.00  0.00     2.486 OA 
HETATM   11  C   UNL     1      -7.577  10.150  69.321  1.00  0.00    -0.117 A  
HETATM   12  C   UNL     1      -8.104   9.294  70.313  1.00  0.00    -0.154 A  
HETATM   13  O   UNL     1      -8.937   9.769  71.302  1.00  0.00    -0.255 OA 
HETATM   14  C   UNL     1      -7.791   7.919  70.358  1.00  0.00    -0.089 A  
HETATM   15  H   UNL     1      -9.291   9.193  71.969  1.00  0.00     0.000 HD 
HETATM   16  C   UNL     1      -6.927   7.387  69.371  1.00  0.00    -0.061 A  
HETATM   17  C   UNL     1      -6.362   8.262  68.417  1.00  0.00    -0.054 A  
HETATM   18  C   UNL     1      -6.566   5.908  69.364  1.00  0.00    -0.047 C  
HETATM   19  C   UNL     1      -7.455   5.044  70.264  1.00  0.00    -0.059 C  
HETATM   20  C   UNL     1      -6.700   9.632  68.372  1.00  0.00    -0.057 A  
HETATM   21  O   UNL     1      -5.424   7.800  67.533  1.00  0.00    -0.033 OA 
HETATM   22  C   UNL     1      -8.375   7.052  71.472  1.00  0.00    -0.112 C  
HETATM   23  C   UNL     1      -6.157  10.533  67.321  1.00  0.00    -0.054 C  
HETATM   24  C   UNL     1      -7.594   5.745  71.618  1.00  0.00    -0.099 C  
HETATM   25  O   UNL     1      -8.716   4.829  69.627  1.00  0.00    -0.084 OA 
HETATM   26  H   UNL     1      -5.044   8.388  66.891  1.00  0.00     0.000 HD 
HETATM   27  O   UNL     1      -5.472  10.120  66.392  1.00  0.00    -0.043 OA 
HETATM   28  H   UNL     1      -9.267   4.293  70.185  1.00  0.00     0.000 HD 
BRANCH  19  29
HETATM   29  C   UNL     1      -6.807   3.663  70.467  1.00  0.00    -0.033 C  
HETATM   30  O   UNL     1      -7.287   2.815  71.227  1.00  0.00    -0.032 OA 
BRANCH  29  31
HETATM   31  C   UNL     1      -5.483   3.395  69.754  1.00  0.00    -0.016 C  
HETATM   32  O   UNL     1      -5.674   3.078  68.380  1.00  0.00    -0.021 OA 
HETATM   33  H   UNL     1      -4.850   2.912  67.937  1.00  0.00     0.000 HD 
ENDBRANCH  29  31
ENDBRANCH  19  29
BRANCH  22  34
HETATM   34  O   UNL     1      -9.758   6.806  71.161  1.00  0.00    -0.174 OA 
BRANCH  34  35
HETATM   35  C   UNL     1     -10.353   7.682  70.193  1.00  0.00    -0.217 C  
HETATM   36  C   UNL     1     -11.846   7.951  70.396  1.00  0.00     0.059 C  
HETATM   37  C   UNL     1     -12.056   8.756  71.674  1.00  0.00    -0.337 C  
HETATM   38  C   UNL     1     -11.255  10.074  71.569  1.00  0.00     0.059 C  
HETATM   39  N   UNL     1     -13.485   8.996  71.925  1.00  0.00    -0.396 NA 
HETATM   40  C   UNL     1      -9.778   9.751  71.278  1.00  0.00     0.564 C  
HETATM   41  H2  UNL     1     -14.014   8.124  71.940  1.00  0.00     0.000 HD 
HETATM   42  O   UNL     1     -11.360  10.854  72.762  1.00  0.00     4.815 OA 
HETATM   43  H1  UNL     1     -13.624   9.535  72.780  1.00  0.00     0.000 HD 
HETATM   44  C   UNL     1      -8.992  11.031  71.001  1.00  0.00     5.566 C  
HETATM   45  H   UNL     1     -10.867  11.664  72.698  1.00  0.00     0.000 HD 
HETATM   46  O   UNL     1      -9.631   8.914  70.126  1.00  0.00    -0.165 OA 
ENDBRANCH  34  35
ENDBRANCH  22  34
ENDBRANCH   2   3
TORSDOF 5
ENDMDL
MODEL      169
REMARK 921   NORMALIZED FREE ENERGY PREDICTED BY IDOCK:   48.52 KCAL/MOL
REMARK 922        TOTAL FREE ENERGY PREDICTED BY IDOCK:   61.65 KCAL/MOL
REMARK 923 INTER-LIGAND FREE ENERGY PREDICTED BY IDOCK:   60.35 KCAL/MOL
REMARK 924 INTRA-LIGAND FREE ENERGY PREDICTED BY IDOCK:    1.30 KCAL/MOL
REMARK 927      BINDING AFFINITY PREDICTED BY RF-SCORE:    0.00 PKD
ROOT
HETATM    1  C   UNL     1     -11.920  20.147  73.063  1.00  0.00    15.098 C  
HETATM    2  O   UNL     1     -11.166  19.468  72.063  1.00  0.00     4.568 OA 
ENDROOT
BRANCH   2   3
HETATM    3  C   UNL     1      -9.803  19.596  72.120  1.00  0.00     3.401 A  
HETATM    4  C   UNL     1      -9.187  20.598  72.889  1.00  0.00     3.997 A  
HETATM    5  C   UNL     1      -7.802  20.708  72.943  1.00  0.00     4.347 A  
HETATM    6  C   UNL     1      -7.017  19.817  72.227  1.00  0.00     1.499 A  
HETATM    7  C   UNL     1      -7.611  18.823  71.435  1.00  0.00     5.110 A  
HETATM    8  C   UNL     1      -9.002  18.713  71.358  1.00  0.00     7.184 A  
HETATM    9  C   UNL     1      -9.579  17.663  70.476  1.00  0.00     3.057 C  
HETATM   10  O   UNL     1     -10.784  17.574  70.265  1.00  0.00     0.436 OA 
HETATM   11  C   UNL     1      -8.690  16.678  69.804  1.00  0.00     0.834 A  
HETATM   12  C   UNL     1      -9.245  15.615  69.059  1.00  0.00    -0.243 A  
HETATM   13  O   UNL     1     -10.608  15.440  68.964  1.00  0.00    -0.227 OA 
HETATM   14  C   UNL     1      -8.440  14.667  68.392  1.00  0.00    -0.160 A  
HETATM   15  H   UNL     1     -10.981  14.725  68.462  1.00  0.00     0.000 HD 
HETATM   16  C   UNL     1      -7.032  14.796  68.473  1.00  0.00    -0.108 A  
HETATM   17  C   UNL     1      -6.487  15.830  69.267  1.00  0.00    -0.154 A  
HETATM   18  C   UNL     1      -6.115  13.809  67.763  1.00  0.00    -0.140 C  
HETATM   19  C   UNL     1      -6.826  12.929  66.730  1.00  0.00     0.830 C  
HETATM   20  C   UNL     1      -7.307  16.783  69.911  1.00  0.00     0.731 A  
HETATM   21  O   UNL     1      -5.135  15.900  69.467  1.00  0.00    -0.105 OA 
HETATM   22  C   UNL     1      -9.103  13.526  67.622  1.00  0.00    -0.205 C  
HETATM   23  C   UNL     1      -6.724  17.911  70.686  1.00  0.00     1.754 C  
HETATM   24  C   UNL     1      -8.112  12.390  67.362  1.00  0.00    -0.177 C  
HETATM   25  O   UNL     1      -7.074  13.686  65.544  1.00  0.00     5.142 OA 
HETATM   26  H   UNL     1      -4.768  16.596  70.000  1.00  0.00     0.000 HD 
HETATM   27  O   UNL     1      -5.518  18.126  70.726  1.00  0.00    -0.249 OA 
HETATM   28  H   UNL     1      -7.514  13.140  64.904  1.00  0.00     0.000 HD 
BRANCH  19  29
HETATM   29  C   UNL     1      -5.918  11.751  66.336  1.00  0.00     0.197 C  
HETATM   30  O   UNL     1      -5.561  10.893  67.150  1.00  0.00    -0.042 OA 
BRANCH  29  31
HETATM   31  C   UNL     1      -5.392  11.717  64.902  1.00  0.00     1.812 C  
HETATM   32  O   UNL     1      -5.406  10.400  64.362  1.00  0.00    -0.114 OA 
HETATM   33  H   UNL     1      -5.080  10.380  63.470  1.00  0.00     0.000 HD 
ENDBRANCH  29  31
ENDBRANCH  19  29
BRANCH  22  34
HETATM   34  O   UNL     1      -9.620  14.065  66.393  1.00  0.00    -0.279 OA 
BRANCH  34  35
HETATM   35  C   UNL     1      -9.682  13.159  65.283  1.00  0.00     0.032 C  
HETATM   36  C   UNL     1      -9.992  11.706  65.649  1.00  0.00    -0.274 C  
HETATM   37  C   UNL     1     -11.418  11.602  66.180  1.00  0.00    -0.127 C  
HETATM   38  C   UNL     1     -12.391  12.131  65.101  1.00  0.00    -0.057 C  
HETATM   39  N   UNL     1     -11.738  10.225  66.585  1.00  0.00     0.688 NA 
HETATM   40  C   UNL     1     -11.983  13.561  64.704  1.00  0.00    -0.400 C  
HETATM   41  H2  UNL     1     -11.060   9.865  67.258  1.00  0.00     0.000 HD 
HETATM   42  O   UNL     1     -13.745  12.117  65.557  1.00  0.00     2.218 OA 
HETATM   43  H1  UNL     1     -12.691  10.156  66.940  1.00  0.00     0.000 HD 
HETATM   44  C   UNL     1     -12.818  14.050  63.523  1.00  0.00     0.875 C  
HETATM   45  H   UNL     1     -14.343  12.442  64.894  1.00  0.00     0.000 HD 
HETATM   46  O   UNL     1     -10.610  13.634  64.305  1.00  0.00    -0.394 OA 
ENDBRANCH  34  35
ENDBRANCH  22  34
ENDBRANCH   2   3
TORSDOF 5
ENDMDL
MODEL      170
REMARK 921   NORMALIZED FREE ENERGY PREDICTED BY IDOCK:   48.67 KCAL/MOL
REMARK 922        TOTAL FREE ENERGY PREDICTED BY IDOCK:   61.85 KCAL/MOL
REMARK 923 INTER-LIGAND FREE ENERGY PREDICTED BY IDOCK:   21.92 KCAL/MOL
REMARK 924 INTRA-LIGAND FREE ENERGY PREDICTED BY IDOCK:   39.92 KCAL/MOL
REMARK 927      BINDING AFFINITY PREDICTED BY RF-SCORE:    0.00 PKD
ROOT
HETATM    1  C   UNL     1      -7.801  14.589  70.480  1.00  0.00     1.480 C  
HETATM    2  O   UNL     1      -8.519  14.900  69.289  1.00  0.00    -0.179 OA 
ENDROOT
BRANCH   2   3
HETATM    3  C   UNL     1      -7.835  14.799  68.107  1.00  0.00    -0.125 A  
HETATM    4  C   UNL     1      -7.425  15.936  67.391  1.00  0.00    -0.217 A  
HETATM    5  C   UNL     1      -6.723  15.815  66.197  1.00  0.00     2.398 A  
HETATM    6  C   UNL     1      -6.422  14.554  65.705  1.00  0.00     9.473 A  
HETATM    7  C   UNL     1      -6.840  13.405  66.392  1.00  0.00     2.788 A  
HETATM    8  C   UNL     1      -7.562  13.513  67.584  1.00  0.00    -0.181 A  
HETATM    9  C   UNL     1      -8.010  12.261  68.253  1.00  0.00    -0.163 C  
HETATM   10  O   UNL     1      -8.744  12.271  69.236  1.00  0.00     0.518 OA 
HETATM   11  C   UNL     1      -7.582  10.937  67.729  1.00  0.00    -0.095 A  
HETATM   12  C   UNL     1      -7.914   9.756  68.429  1.00  0.00    -0.089 A  
HETATM   13  O   UNL     1      -8.605   9.799  69.620  1.00  0.00    -0.158 OA 
HETATM   14  C   UNL     1      -7.541   8.479  67.961  1.00  0.00    -0.098 A  
HETATM   15  H   UNL     1      -8.829   9.004  70.090  1.00  0.00     0.000 HD 
HETATM   16  C   UNL     1      -6.816   8.385  66.748  1.00  0.00    -0.069 A  
HETATM   17  C   UNL     1      -6.441   9.575  66.085  1.00  0.00    -0.070 A  
HETATM   18  C   UNL     1      -6.399   7.031  66.190  1.00  0.00    -0.050 C  
HETATM   19  C   UNL     1      -7.104   5.840  66.848  1.00  0.00    -0.070 C  
HETATM   20  C   UNL     1      -6.839  10.845  66.556  1.00  0.00    -0.132 A  
HETATM   21  O   UNL     1      -5.631   9.519  64.983  1.00  0.00    -0.055 OA 
HETATM   22  C   UNL     1      -7.911   7.242  68.778  1.00  0.00    -0.123 C  
HETATM   23  C   UNL     1      -6.501  12.089  65.814  1.00  0.00     2.045 C  
HETATM   24  C   UNL     1      -7.063   6.037  68.366  1.00  0.00    -0.082 C  
HETATM   25  O   UNL     1      -8.437   5.735  66.346  1.00  0.00    -0.117 OA 
HETATM   26  H   UNL     1      -5.379  10.319  64.537  1.00  0.00     0.000 HD 
HETATM   27  O   UNL     1      -5.950  12.072  64.719  1.00  0.00     2.626 OA 
HETATM   28  H   UNL     1      -8.873   4.996  66.754  1.00  0.00     0.000 HD 
BRANCH  19  29
HETATM   29  C   UNL     1      -6.375   4.536  66.482  1.00  0.00    -0.036 C  
HETATM   30  O   UNL     1      -6.701   3.443  66.958  1.00  0.00    -0.047 OA 
BRANCH  29  31
HETATM   31  C   UNL     1      -5.162   4.642  65.560  1.00  0.00    -0.009 C  
HETATM   32  O   UNL     1      -5.532   4.600  64.187  1.00  0.00    -0.012 OA 
HETATM   33  H   UNL     1      -4.777   4.667  63.614  1.00  0.00     0.000 HD 
ENDBRANCH  29  31
ENDBRANCH  19  29
BRANCH  22  34
HETATM   34  O   UNL     1      -9.314   6.988  68.584  1.00  0.00    -0.138 OA 
BRANCH  34  35
HETATM   35  C   UNL     1     -10.033   7.965  67.818  1.00  0.00    -0.173 C  
HETATM   36  C   UNL     1     -11.533   8.041  68.110  1.00  0.00     1.152 C  
HETATM   37  C   UNL     1     -11.756   8.568  69.523  1.00  0.00     0.805 C  
HETATM   38  C   UNL     1     -11.087   9.956  69.649  1.00  0.00    -0.241 C  
HETATM   39  N   UNL     1     -13.188   8.613  69.857  1.00  0.00     1.780 NA 
HETATM   40  C   UNL     1      -9.602   9.843  69.259  1.00  0.00    -0.205 C  
HETATM   41  H2  UNL     1     -13.633   7.705  69.721  1.00  0.00     0.000 HD 
HETATM   42  O   UNL     1     -11.208  10.485  70.970  1.00  0.00    -0.314 OA 
HETATM   43  H1  UNL     1     -13.337   8.966  70.801  1.00  0.00     0.000 HD 
HETATM   44  C   UNL     1      -8.952  11.224  69.209  1.00  0.00     0.243 C  
HETATM   45  H   UNL     1     -10.796  11.338  71.048  1.00  0.00     0.000 HD 
HETATM   46  O   UNL     1      -9.432   9.253  67.966  1.00  0.00    -0.137 OA 
ENDBRANCH  34  35
ENDBRANCH  22  34
ENDBRANCH   2   3
TORSDOF 5
ENDMDL
MODEL      171
REMARK 921   NORMALIZED FREE ENERGY PREDICTED BY IDOCK:   65.79 KCAL/MOL
REMARK 922        TOTAL FREE ENERGY PREDICTED BY IDOCK:   83.97 KCAL/MOL
REMARK 923 INTER-LIGAND FREE ENERGY PREDICTED BY IDOCK:    2.60 KCAL/MOL
REMARK 924 INTRA-LIGAND FREE ENERGY PREDICTED BY IDOCK:   81.37 KCAL/MOL
REMARK 927      BINDING AFFINITY PREDICTED BY RF-SCORE:    0.00 PKD
ROOT
HETATM    1  C   UNL     1      -8.869  15.515  65.230  1.00  0.00     1.684 C  
HETATM    2  O   UNL     1     -10.049  14.918  64.700  1.00  0.00    -0.183 OA 
ENDROOT
BRANCH   2   3
HETATM    3  C   UNL     1     -11.033  14.587  65.594  1.00  0.00    -0.323 A  
HETATM    4  C   UNL     1     -12.181  15.380  65.755  1.00  0.00     0.685 A  
HETATM    5  C   UNL     1     -13.174  15.024  66.661  1.00  0.00     2.765 A  
HETATM    6  C   UNL     1     -13.030  13.870  67.416  1.00  0.00     1.613 A  
HETATM    7  C   UNL     1     -11.882  13.074  67.286  1.00  0.00    -0.419 A  
HETATM    8  C   UNL     1     -10.868  13.431  66.393  1.00  0.00    -0.294 A  
HETATM    9  C   UNL     1      -9.657  12.569  66.321  1.00  0.00    -0.245 C  
HETATM   10  O   UNL     1      -8.676  12.874  65.649  1.00  0.00     0.665 OA 
HETATM   11  C   UNL     1      -9.596  11.295  67.085  1.00  0.00    -0.194 A  
HETATM   12  C   UNL     1      -8.495  10.426  66.929  1.00  0.00    -0.124 A  
HETATM   13  O   UNL     1      -7.476  10.711  66.048  1.00  0.00    -0.136 OA 
HETATM   14  C   UNL     1      -8.390   9.215  67.646  1.00  0.00    -0.116 A  
HETATM   15  H   UNL     1      -6.735  10.125  65.943  1.00  0.00     0.000 HD 
HETATM   16  C   UNL     1      -9.422   8.871  68.552  1.00  0.00    -0.152 A  
HETATM   17  C   UNL     1     -10.545   9.721  68.661  1.00  0.00    -0.221 A  
HETATM   18  C   UNL     1      -9.353   7.583  69.362  1.00  0.00    -0.152 C  
HETATM   19  C   UNL     1      -7.975   6.915  69.357  1.00  0.00    -0.115 C  
HETATM   20  C   UNL     1     -10.626  10.939  67.951  1.00  0.00    -0.246 A  
HETATM   21  O   UNL     1     -11.614   9.350  69.431  1.00  0.00    -0.430 OA 
HETATM   22  C   UNL     1      -7.184   8.307  67.413  1.00  0.00    -0.084 C  
HETATM   23  C   UNL     1     -11.779  11.863  68.124  1.00  0.00    -0.320 C  
HETATM   24  C   UNL     1      -7.459   6.888  67.915  1.00  0.00    -0.099 C  
HETATM   25  O   UNL     1      -7.098   7.618  70.238  1.00  0.00    -0.056 OA 
HETATM   26  H   UNL     1     -12.369   9.921  69.504  1.00  0.00     0.000 HD 
HETATM   27  O   UNL     1     -12.661  11.665  68.952  1.00  0.00     0.071 OA 
HETATM   28  H   UNL     1      -6.243   7.203  70.235  1.00  0.00     0.000 HD 
BRANCH  19  29
HETATM   29  C   UNL     1      -8.091   5.474  69.885  1.00  0.00    -0.097 C  
HETATM   30  O   UNL     1      -8.625   4.573  69.229  1.00  0.00    -0.077 OA 
BRANCH  29  31
HETATM   31  C   UNL     1      -7.594   5.203  71.304  1.00  0.00    -0.095 C  
HETATM   32  O   UNL     1      -7.924   6.262  72.194  1.00  0.00    -0.107 OA 
HETATM   33  H   UNL     1      -7.615   6.092  73.076  1.00  0.00     0.000 HD 
ENDBRANCH  29  31
ENDBRANCH  19  29
BRANCH  22  34
HETATM   34  O   UNL     1      -6.054   8.891  68.084  1.00  0.00    -0.049 OA 
BRANCH  34  35
HETATM   35  C   UNL     1      -5.611  10.161  67.585  1.00  0.00    -0.041 C  
HETATM   36  C   UNL     1      -6.099  10.509  66.177  1.00  0.00    -0.110 C  
HETATM   37  C   UNL     1      -7.609  10.723  66.194  1.00  0.00    -0.139 C  
HETATM   38  C   UNL     1      -7.942  11.848  67.200  1.00  0.00    -0.172 C  
HETATM   39  N   UNL     1      -8.122  11.017  64.847  1.00  0.00    -0.354 NA 
HETATM   40  C   UNL     1      -7.353  11.491  68.578  1.00  0.00    -0.104 C  
HETATM   41  H2  UNL     1      -7.853  10.295  64.178  1.00  0.00     0.000 HD 
HETATM   42  O   UNL     1      -9.351  12.062  67.310  1.00  0.00    -0.174 OA 
HETATM   43  H1  UNL     1      -9.131  11.159  64.859  1.00  0.00     0.000 HD 
HETATM   44  C   UNL     1      -7.517  12.656  69.551  1.00  0.00     0.591 C  
HETATM   45  H   UNL     1      -9.555  12.753  67.929  1.00  0.00     0.000 HD 
HETATM   46  O   UNL     1      -5.953  11.203  68.502  1.00  0.00    -0.043 OA 
ENDBRANCH  34  35
ENDBRANCH  22  34
ENDBRANCH   2   3
TORSDOF 5
ENDMDL
MODEL      172
REMARK 921   NORMALIZED FREE ENERGY PREDICTED BY IDOCK:   68.67 KCAL/MOL
REMARK 922        TOTAL FREE ENERGY PREDICTED BY IDOCK:   87.70 KCAL/MOL
REMARK 923 INTER-LIGAND FREE ENERGY PREDICTED BY IDOCK:    1.58 KCAL/MOL
REMARK 924 INTRA-LIGAND FREE ENERGY PREDICTED BY IDOCK:   86.12 KCAL/MOL
REMARK 927      BINDING AFFINITY PREDICTED BY RF-SCORE:    0.00 PKD
ROOT
HETATM    1  C   UNL     1      -8.923  16.320  69.507  1.00  0.00     0.070 C  
HETATM    2  O   UNL     1     -10.212  16.584  68.960  1.00  0.00    -0.250 OA 
ENDROOT
BRANCH   2   3
HETATM    3  C   UNL     1     -11.241  15.783  69.381  1.00  0.00    -0.324 A  
HETATM    4  C   UNL     1     -12.282  16.280  70.182  1.00  0.00     0.350 A  
HETATM    5  C   UNL     1     -13.324  15.455  70.592  1.00  0.00    -0.286 A  
HETATM    6  C   UNL     1     -13.335  14.123  70.205  1.00  0.00     0.411 A  
HETATM    7  C   UNL     1     -12.294  13.602  69.423  1.00  0.00    -0.199 A  
HETATM    8  C   UNL     1     -11.233  14.416  69.019  1.00  0.00    -0.288 A  
HETATM    9  C   UNL     1     -10.138  13.802  68.219  1.00  0.00    -0.239 C  
HETATM   10  O   UNL     1      -9.118  14.417  67.925  1.00  0.00    -0.176 OA 
HETATM   11  C   UNL     1     -10.248  12.393  67.756  1.00  0.00    -0.212 A  
HETATM   12  C   UNL     1      -9.262  11.847  66.904  1.00  0.00    -0.193 A  
HETATM   13  O   UNL     1      -8.204  12.605  66.455  1.00  0.00    -0.391 OA 
HETATM   14  C   UNL     1      -9.319  10.512  66.454  1.00  0.00    -0.197 A  
HETATM   15  H   UNL     1      -7.541  12.238  65.882  1.00  0.00     0.000 HD 
HETATM   16  C   UNL     1     -10.397   9.698  66.877  1.00  0.00    -0.307 A  
HETATM   17  C   UNL     1     -11.406  10.268  67.684  1.00  0.00    -0.008 A  
HETATM   18  C   UNL     1     -10.501   8.245  66.431  1.00  0.00     0.147 C  
HETATM   19  C   UNL     1      -9.218   7.690  65.806  1.00  0.00     0.084 C  
HETATM   20  C   UNL     1     -11.325  11.601  68.143  1.00  0.00    -0.358 A  
HETATM   21  O   UNL     1     -12.523   9.543  68.001  1.00  0.00     2.664 OA 
HETATM   22  C   UNL     1      -8.234   9.990  65.514  1.00  0.00    -0.146 C  
HETATM   23  C   UNL     1     -12.355  12.174  69.051  1.00  0.00     0.198 C  
HETATM   24  C   UNL     1      -8.691   8.717  64.799  1.00  0.00    -0.099 C  
HETATM   25  O   UNL     1      -8.270   7.398  66.834  1.00  0.00    -0.117 OA 
HETATM   26  H   UNL     1     -13.202   9.927  68.544  1.00  0.00     0.000 HD 
HETATM   27  O   UNL     1     -13.265  11.500  69.519  1.00  0.00     0.671 OA 
HETATM   28  H   UNL     1      -7.475   7.054  66.446  1.00  0.00     0.000 HD 
BRANCH  19  29
HETATM   29  C   UNL     1      -9.520   6.369  65.078  1.00  0.00     1.044 C  
HETATM   30  O   UNL     1      -9.330   6.226  63.866  1.00  0.00     1.186 OA 
BRANCH  29  31
HETATM   31  C   UNL     1     -10.154   5.244  65.895  1.00  0.00    -0.066 C  
HETATM   32  O   UNL     1     -10.467   5.660  67.219  1.00  0.00    -0.217 OA 
HETATM   33  H   UNL     1     -10.860   4.960  67.727  1.00  0.00     0.000 HD 
ENDBRANCH  29  31
ENDBRANCH  19  29
BRANCH  22  34
HETATM   34  O   UNL     1      -7.048   9.757  66.294  1.00  0.00    -0.090 OA 
BRANCH  34  35
HETATM   35  C   UNL     1      -7.176   8.819  67.372  1.00  0.00    -0.080 C  
HETATM   36  C   UNL     1      -8.554   8.165  67.502  1.00  0.00    -0.129 C  
HETATM   37  C   UNL     1      -8.807   7.256  66.303  1.00  0.00    -0.159 C  
HETATM   38  C   UNL     1      -7.684   6.196  66.237  1.00  0.00    -0.099 C  
HETATM   39  N   UNL     1     -10.142   6.643  66.371  1.00  0.00    -0.417 NA 
HETATM   40  C   UNL     1      -6.316   6.903  66.198  1.00  0.00    -0.050 C  
HETATM   41  H2  UNL     1     -10.873   7.348  66.467  1.00  0.00     0.000 HD 
HETATM   42  O   UNL     1      -7.826   5.343  65.099  1.00  0.00    -0.087 OA 
HETATM   43  H1  UNL     1     -10.310   6.036  65.569  1.00  0.00     0.000 HD 
HETATM   44  C   UNL     1      -5.182   5.886  66.301  1.00  0.00    -0.009 C  
HETATM   45  H   UNL     1      -7.136   4.692  65.057  1.00  0.00     0.000 HD 
HETATM   46  O   UNL     1      -6.158   7.820  67.285  1.00  0.00    -0.046 OA 
ENDBRANCH  34  35
ENDBRANCH  22  34
ENDBRANCH   2   3
TORSDOF 5
ENDMDL
MODEL      173
REMARK 921   NORMALIZED FREE ENERGY PREDICTED BY IDOCK:   70.28 KCAL/MOL
REMARK 922        TOTAL FREE ENERGY PREDICTED BY IDOCK:   89.78 KCAL/MOL
REMARK 923 INTER-LIGAND FREE ENERGY PREDICTED BY IDOCK:   79.33 KCAL/MOL
REMARK 924 INTRA-LIGAND FREE ENERGY PREDICTED BY IDOCK:   10.44 KCAL/MOL
REMARK 927      BINDING AFFINITY PREDICTED BY RF-SCORE:    0.00 PKD
ROOT
HETATM    1  C   UNL     1      -9.114  17.978  67.258  1.00  0.00    -0.255 C  
HETATM    2  O   UNL     1      -9.422  18.463  65.954  1.00  0.00    -0.496 OA 
ENDROOT
BRANCH   2   3
HETATM    3  C   UNL     1     -10.299  17.721  65.207  1.00  0.00     0.445 A  
HETATM    4  C   UNL     1     -11.110  18.309  64.221  1.00  0.00     4.574 A  
HETATM    5  C   UNL     1     -11.988  17.539  63.466  1.00  0.00     8.173 A  
HETATM    6  C   UNL     1     -12.065  16.172  63.688  1.00  0.00     1.650 A  
HETATM    7  C   UNL     1     -11.280  15.568  64.681  1.00  0.00    -0.381 A  
HETATM    8  C   UNL     1     -10.407  16.333  65.460  1.00  0.00    -0.363 A  
HETATM    9  C   UNL     1      -9.624  15.646  66.522  1.00  0.00    -0.270 C  
HETATM   10  O   UNL     1      -8.925  16.261  67.321  1.00  0.00    -0.191 OA 
HETATM   11  C   UNL     1      -9.678  14.166  66.655  1.00  0.00    -0.297 A  
HETATM   12  C   UNL     1      -8.850  13.506  67.589  1.00  0.00    -0.202 A  
HETATM   13  O   UNL     1      -7.953  14.202  68.369  1.00  0.00    -0.129 OA 
HETATM   14  C   UNL     1      -8.880  12.106  67.759  1.00  0.00    -0.172 A  
HETATM   15  H   UNL     1      -7.396  13.758  68.998  1.00  0.00     0.000 HD 
HETATM   16  C   UNL     1      -9.774  11.346  66.968  1.00  0.00    -0.210 A  
HETATM   17  C   UNL     1     -10.559  12.009  65.998  1.00  0.00    -0.268 A  
HETATM   18  C   UNL     1      -9.858   9.833  67.118  1.00  0.00    -0.238 C  
HETATM   19  C   UNL     1      -9.173   9.292  68.377  1.00  0.00    -0.131 C  
HETATM   20  C   UNL     1     -10.532  13.413  65.854  1.00  0.00    -0.287 A  
HETATM   21  O   UNL     1     -11.336  11.286  65.133  1.00  0.00    -0.089 OA 
HETATM   22  C   UNL     1      -7.940  11.452  68.770  1.00  0.00    -0.122 C  
HETATM   23  C   UNL     1     -11.413  14.112  64.879  1.00  0.00    -0.366 C  
HETATM   24  C   UNL     1      -7.797   9.953  68.498  1.00  0.00    -0.081 C  
HETATM   25  O   UNL     1     -10.000   9.538  69.516  1.00  0.00    -0.174 OA 
HETATM   26  H   UNL     1     -11.864  11.732  64.481  1.00  0.00     0.000 HD 
HETATM   27  O   UNL     1     -12.266  13.522  64.226  1.00  0.00    -0.472 OA 
HETATM   28  H   UNL     1      -9.575   9.202  70.296  1.00  0.00     0.000 HD 
BRANCH  19  29
HETATM   29  C   UNL     1      -8.999   7.768  68.262  1.00  0.00    -0.131 C  
HETATM   30  O   UNL     1      -7.894   7.222  68.343  1.00  0.00    -0.117 OA 
BRANCH  29  31
HETATM   31  C   UNL     1     -10.245   6.938  67.957  1.00  0.00    -0.176 C  
HETATM   32  O   UNL     1     -10.999   7.486  66.882  1.00  0.00    -0.508 OA 
HETATM   33  H   UNL     1     -11.774   6.970  66.693  1.00  0.00     0.000 HD 
ENDBRANCH  29  31
ENDBRANCH  19  29
BRANCH  22  34
HETATM   34  O   UNL     1      -8.466  11.699  70.086  1.00  0.00     1.833 OA 
BRANCH  34  35
HETATM   35  C   UNL     1      -9.884  11.902  70.171  1.00  0.00     2.765 C  
HETATM   36  C   UNL     1     -10.701  10.642  70.467  1.00  0.00     0.199 C  
HETATM   37  C   UNL     1     -10.398  10.151  71.879  1.00  0.00     2.784 C  
HETATM   38  C   UNL     1     -10.725  11.282  72.880  1.00  0.00    13.450 C  
HETATM   39  N   UNL     1     -11.133   8.914  72.182  1.00  0.00    -0.343 NA 
HETATM   40  C   UNL     1      -9.947  12.551  72.488  1.00  0.00    18.847 C  
HETATM   41  H2  UNL     1     -10.953   8.190  71.487  1.00  0.00     0.000 HD 
HETATM   42  O   UNL     1     -10.409  10.909  74.223  1.00  0.00    16.603 OA 
HETATM   43  H1  UNL     1     -10.931   8.586  73.126  1.00  0.00     0.000 HD 
HETATM   44  C   UNL     1     -10.374  13.734  73.354  1.00  0.00     8.713 C  
HETATM   45  H   UNL     1     -10.609  11.604  74.838  1.00  0.00     0.000 HD 
HETATM   46  O   UNL     1     -10.183  12.923  71.126  1.00  0.00     5.770 OA 
ENDBRANCH  34  35
ENDBRANCH  22  34
ENDBRANCH   2   3
TORSDOF 5
ENDMDL
MODEL      174
REMARK 921   NORMALIZED FREE ENERGY PREDICTED BY IDOCK:   71.15 KCAL/MOL
REMARK 922        TOTAL FREE ENERGY PREDICTED BY IDOCK:   90.90 KCAL/MOL
REMARK 923 INTER-LIGAND FREE ENERGY PREDICTED BY IDOCK:   33.74 KCAL/MOL
REMARK 924 INTRA-LIGAND FREE ENERGY PREDICTED BY IDOCK:   57.16 KCAL/MOL
REMARK 927      BINDING AFFINITY PREDICTED BY RF-SCORE:    0.00 PKD
ROOT
HETATM    1  C   UNL     1      -9.409   9.332  72.636  1.00  0.00     1.608 C  
HETATM    2  O   UNL     1      -9.565  10.533  71.887  1.00  0.00     4.122 OA 
ENDROOT
BRANCH   2   3
HETATM    3  C   UNL     1     -10.642  10.603  71.043  1.00  0.00     1.363 A  
HETATM    4  C   UNL     1     -11.567   9.551  70.938  1.00  0.00    -0.398 A  
HETATM    5  C   UNL     1     -12.660   9.643  70.083  1.00  0.00     0.347 A  
HETATM    6  C   UNL     1     -12.840  10.789  69.323  1.00  0.00     0.787 A  
HETATM    7  C   UNL     1     -11.918  11.843  69.397  1.00  0.00    -0.350 A  
HETATM    8  C   UNL     1     -10.806  11.756  70.238  1.00  0.00     1.001 A  
HETATM    9  C   UNL     1      -9.841  12.889  70.251  1.00  0.00     3.880 C  
HETATM   10  O   UNL     1      -8.784  12.841  70.873  1.00  0.00     7.349 OA 
HETATM   11  C   UNL     1     -10.132  14.130  69.486  1.00  0.00     0.292 A  
HETATM   12  C   UNL     1      -9.272  15.245  69.589  1.00  0.00    -0.134 A  
HETATM   13  O   UNL     1      -8.172  15.228  70.418  1.00  0.00     0.071 OA 
HETATM   14  C   UNL     1      -9.502  16.436  68.869  1.00  0.00    -0.254 A  
HETATM   15  H   UNL     1      -7.593  15.979  70.486  1.00  0.00     0.000 HD 
HETATM   16  C   UNL     1     -10.629  16.507  68.015  1.00  0.00    -0.328 A  
HETATM   17  C   UNL     1     -11.513  15.406  67.962  1.00  0.00    -0.326 A  
HETATM   18  C   UNL     1     -10.918  17.764  67.205  1.00  0.00    -0.033 C  
HETATM   19  C   UNL     1      -9.747  18.750  67.143  1.00  0.00    -0.301 C  
HETATM   20  C   UNL     1     -11.258  14.213  68.673  1.00  0.00    -0.291 A  
HETATM   21  O   UNL     1     -12.677  15.496  67.246  1.00  0.00     0.773 OA 
HETATM   22  C   UNL     1      -8.546  17.615  69.043  1.00  0.00    -0.010 C  
HETATM   23  C   UNL     1     -12.156  13.033  68.557  1.00  0.00    -0.149 C  
HETATM   24  C   UNL     1      -9.185  18.918  68.557  1.00  0.00    -0.404 C  
HETATM   25  O   UNL     1      -8.768  18.274  66.218  1.00  0.00    -0.398 OA 
HETATM   26  H   UNL     1     -13.271  14.756  67.210  1.00  0.00     0.000 HD 
HETATM   27  O   UNL     1     -13.099  13.000  67.774  1.00  0.00     1.539 OA 
HETATM   28  H   UNL     1      -8.043  18.885  66.180  1.00  0.00     0.000 HD 
BRANCH  19  29
HETATM   29  C   UNL     1     -10.239  20.111  66.623  1.00  0.00    -0.427 C  
HETATM   30  O   UNL     1     -10.221  21.130  67.323  1.00  0.00     0.102 OA 
BRANCH  29  31
HETATM   31  C   UNL     1     -10.839  20.154  65.219  1.00  0.00     0.209 C  
HETATM   32  O   UNL     1     -11.081  18.850  64.704  1.00  0.00     0.002 OA 
HETATM   33  H   UNL     1     -11.454  18.877  63.831  1.00  0.00     0.000 HD 
ENDBRANCH  29  31
ENDBRANCH  19  29
BRANCH  22  34
HETATM   34  O   UNL     1      -7.341  17.318  68.316  1.00  0.00    -0.197 OA 
BRANCH  34  35
HETATM   35  C   UNL     1      -7.090  15.931  68.050  1.00  0.00    -0.130 C  
HETATM   36  C   UNL     1      -8.197  14.975  68.499  1.00  0.00    -0.151 C  
HETATM   37  C   UNL     1      -9.448  15.203  67.656  1.00  0.00    -0.201 C  
HETATM   38  C   UNL     1      -9.091  14.993  66.167  1.00  0.00    -0.202 C  
HETATM   39  N   UNL     1     -10.550  14.331  68.090  1.00  0.00    -0.240 NA 
HETATM   40  C   UNL     1      -7.915  15.912  65.790  1.00  0.00     1.467 C  
HETATM   41  H2  UNL     1     -10.744  14.439  69.085  1.00  0.00     0.000 HD 
HETATM   42  O   UNL     1     -10.207  15.249  65.313  1.00  0.00    -0.360 OA 
HETATM   43  H1  UNL     1     -11.386  14.485  67.526  1.00  0.00     0.000 HD 
HETATM   44  C   UNL     1      -7.428  15.609  64.375  1.00  0.00    14.278 C  
HETATM   45  H   UNL     1      -9.988  15.120  64.398  1.00  0.00     0.000 HD 
HETATM   46  O   UNL     1      -6.796  15.736  66.664  1.00  0.00    -0.162 OA 
ENDBRANCH  34  35
ENDBRANCH  22  34
ENDBRANCH   2   3
TORSDOF 5
ENDMDL
MODEL      175
REMARK 921   NORMALIZED FREE ENERGY PREDICTED BY IDOCK:   71.17 KCAL/MOL
REMARK 922        TOTAL FREE ENERGY PREDICTED BY IDOCK:   90.92 KCAL/MOL
REMARK 923 INTER-LIGAND FREE ENERGY PREDICTED BY IDOCK:   12.02 KCAL/MOL
REMARK 924 INTRA-LIGAND FREE ENERGY PREDICTED BY IDOCK:   78.90 KCAL/MOL
REMARK 927      BINDING AFFINITY PREDICTED BY RF-SCORE:    0.00 PKD
ROOT
HETATM    1  C   UNL     1      -5.977   6.354  67.684  1.00  0.00    -0.017 C  
HETATM    2  O   UNL     1      -6.271   5.432  66.639  1.00  0.00    -0.032 OA 
ENDROOT
BRANCH   2   3
HETATM    3  C   UNL     1      -7.582   5.324  66.256  1.00  0.00    -0.088 A  
HETATM    4  C   UNL     1      -8.115   4.114  65.782  1.00  0.00    -0.101 A  
HETATM    5  C   UNL     1      -9.451   4.020  65.406  1.00  0.00    -0.172 A  
HETATM    6  C   UNL     1     -10.269   5.135  65.501  1.00  0.00     0.071 A  
HETATM    7  C   UNL     1      -9.752   6.359  65.951  1.00  0.00     0.201 A  
HETATM    8  C   UNL     1      -8.407   6.472  66.315  1.00  0.00    -0.124 A  
HETATM    9  C   UNL     1      -7.904   7.802  66.752  1.00  0.00    -0.106 C  
HETATM   10  O   UNL     1      -6.716   8.012  66.977  1.00  0.00    -0.062 OA 
HETATM   11  C   UNL     1      -8.846   8.941  66.922  1.00  0.00    -0.141 A  
HETATM   12  C   UNL     1      -8.386  10.170  67.444  1.00  0.00    -0.118 A  
HETATM   13  O   UNL     1      -7.078  10.336  67.840  1.00  0.00    -0.082 OA 
HETATM   14  C   UNL     1      -9.241  11.280  67.607  1.00  0.00    -0.156 A  
HETATM   15  H   UNL     1      -6.769  11.163  68.191  1.00  0.00     0.000 HD 
HETATM   16  C   UNL     1     -10.599  11.153  67.228  1.00  0.00    -0.279 A  
HETATM   17  C   UNL     1     -11.061   9.903  66.758  1.00  0.00     0.242 A  
HETATM   18  C   UNL     1     -11.563  12.323  67.370  1.00  0.00    -0.425 C  
HETATM   19  C   UNL     1     -10.878  13.670  67.618  1.00  0.00    -0.256 C  
HETATM   20  C   UNL     1     -10.189   8.807  66.582  1.00  0.00    -0.340 A  
HETATM   21  O   UNL     1     -12.393   9.714  66.507  1.00  0.00     4.737 OA 
HETATM   22  C   UNL     1      -8.687  12.574  68.201  1.00  0.00    -0.190 C  
HETATM   23  C   UNL     1     -10.668   7.515  66.020  1.00  0.00     1.851 C  
HETATM   24  C   UNL     1      -9.816  13.476  68.704  1.00  0.00    -0.128 C  
HETATM   25  O   UNL     1     -10.326  14.160  66.395  1.00  0.00    -0.277 OA 
HETATM   26  H   UNL     1     -12.704   8.874  66.191  1.00  0.00     0.000 HD 
HETATM   27  O   UNL     1     -11.808   7.366  65.596  1.00  0.00     5.872 OA 
HETATM   28  H   UNL     1      -9.901  14.995  66.549  1.00  0.00     0.000 HD 
BRANCH  19  29
HETATM   29  C   UNL     1     -11.913  14.702  68.096  1.00  0.00    -0.246 C  
HETATM   30  O   UNL     1     -12.257  14.793  69.279  1.00  0.00    -0.277 OA 
BRANCH  29  31
HETATM   31  C   UNL     1     -12.580  15.574  67.032  1.00  0.00     1.782 C  
HETATM   32  O   UNL     1     -12.509  14.983  65.740  1.00  0.00     0.125 OA 
HETATM   33  H   UNL     1     -12.924  15.526  65.079  1.00  0.00     0.000 HD 
ENDBRANCH  29  31
ENDBRANCH  19  29
BRANCH  22  34
HETATM   34  O   UNL     1      -7.906  13.227  67.184  1.00  0.00    -0.136 OA 
BRANCH  34  35
HETATM   35  C   UNL     1      -8.625  13.678  66.028  1.00  0.00     0.999 C  
HETATM   36  C   UNL     1     -10.148  13.691  66.177  1.00  0.00    -0.311 C  
HETATM   37  C   UNL     1     -10.558  14.749  67.197  1.00  0.00    -0.285 C  
HETATM   38  C   UNL     1     -10.026  16.123  66.729  1.00  0.00    -0.258 C  
HETATM   39  N   UNL     1     -12.014  14.760  67.400  1.00  0.00    -0.487 NA 
HETATM   40  C   UNL     1      -8.505  16.033  66.509  1.00  0.00    -0.313 C  
HETATM   41  H2  UNL     1     -12.363  13.836  67.657  1.00  0.00     0.000 HD 
HETATM   42  O   UNL     1     -10.324  17.155  67.671  1.00  0.00    -0.320 OA 
HETATM   43  H1  UNL     1     -12.287  15.467  68.081  1.00  0.00     0.000 HD 
HETATM   44  C   UNL     1      -7.974  17.323  65.886  1.00  0.00    -0.042 C  
HETATM   45  H   UNL     1      -9.997  18.000  67.384  1.00  0.00     0.000 HD 
HETATM   46  O   UNL     1      -8.155  14.966  65.621  1.00  0.00     1.908 OA 
ENDBRANCH  34  35
ENDBRANCH  22  34
ENDBRANCH   2   3
TORSDOF 5
ENDMDL
MODEL      176
REMARK 921   NORMALIZED FREE ENERGY PREDICTED BY IDOCK:   74.45 KCAL/MOL
REMARK 922        TOTAL FREE ENERGY PREDICTED BY IDOCK:   95.17 KCAL/MOL
REMARK 923 INTER-LIGAND FREE ENERGY PREDICTED BY IDOCK:    0.19 KCAL/MOL
REMARK 924 INTRA-LIGAND FREE ENERGY PREDICTED BY IDOCK:   94.98 KCAL/MOL
REMARK 927      BINDING AFFINITY PREDICTED BY RF-SCORE:    0.00 PKD
ROOT
HETATM    1  C   UNL     1      -7.410  19.049  65.839  1.00  0.00    -0.239 C  
HETATM    2  O   UNL     1      -8.187  19.942  66.632  1.00  0.00    -0.297 OA 
ENDROOT
BRANCH   2   3
HETATM    3  C   UNL     1      -9.461  19.546  66.945  1.00  0.00    -0.344 A  
HETATM    4  C   UNL     1     -10.512  20.471  67.070  1.00  0.00    -0.024 A  
HETATM    5  C   UNL     1     -11.801  20.051  67.378  1.00  0.00     1.893 A  
HETATM    6  C   UNL     1     -12.054  18.701  67.565  1.00  0.00     3.074 A  
HETATM    7  C   UNL     1     -11.016  17.762  67.466  1.00  0.00    -0.091 A  
HETATM    8  C   UNL     1      -9.713  18.173  67.174  1.00  0.00    -0.301 A  
HETATM    9  C   UNL     1      -8.644  17.139  67.115  1.00  0.00    -0.204 C  
HETATM   10  O   UNL     1      -7.460  17.429  66.980  1.00  0.00    -0.178 OA 
HETATM   11  C   UNL     1      -8.989  15.697  67.233  1.00  0.00    -0.214 A  
HETATM   12  C   UNL     1      -7.991  14.713  67.065  1.00  0.00    -0.072 A  
HETATM   13  O   UNL     1      -6.693  15.054  66.755  1.00  0.00    -0.181 OA 
HETATM   14  C   UNL     1      -8.270  13.336  67.183  1.00  0.00    -0.123 A  
HETATM   15  H   UNL     1      -6.021  14.391  66.642  1.00  0.00     0.000 HD 
HETATM   16  C   UNL     1      -9.594  12.935  67.486  1.00  0.00    -0.200 A  
HETATM   17  C   UNL     1     -10.596  13.925  67.598  1.00  0.00    -0.245 A  
HETATM   18  C   UNL     1      -9.950  11.462  67.638  1.00  0.00    -0.196 C  
HETATM   19  C   UNL     1      -8.736  10.537  67.770  1.00  0.00    -0.122 C  
HETATM   20  C   UNL     1     -10.297  15.301  67.497  1.00  0.00    -0.244 A  
HETATM   21  O   UNL     1     -11.905  13.559  67.762  1.00  0.00    -0.340 OA 
HETATM   22  C   UNL     1      -7.150  12.320  66.966  1.00  0.00    -0.037 C  
HETATM   23  C   UNL     1     -11.344  16.340  67.686  1.00  0.00    -0.016 C  
HETATM   24  C   UNL     1      -7.717  10.925  66.695  1.00  0.00    -0.146 C  
HETATM   25  O   UNL     1      -8.200  10.634  69.091  1.00  0.00    -0.146 OA 
HETATM   26  H   UNL     1     -12.579  14.224  67.837  1.00  0.00     0.000 HD 
HETATM   27  O   UNL     1     -12.488  16.064  68.031  1.00  0.00     0.755 OA 
HETATM   28  H   UNL     1      -7.448  10.060  69.173  1.00  0.00     0.000 HD 
BRANCH  19  29
HETATM   29  C   UNL     1      -9.168   9.076  67.561  1.00  0.00    -0.135 C  
HETATM   30  O   UNL     1      -9.262   8.570  66.438  1.00  0.00    -0.171 OA 
BRANCH  29  31
HETATM   31  C   UNL     1      -9.566   8.275  68.800  1.00  0.00    -0.150 C  
HETATM   32  O   UNL     1     -10.975   8.107  68.894  1.00  0.00    -0.428 OA 
HETATM   33  H   UNL     1     -11.222   7.608  69.665  1.00  0.00     0.000 HD 
ENDBRANCH  29  31
ENDBRANCH  19  29
BRANCH  22  34
HETATM   34  O   UNL     1      -6.312  12.329  68.135  1.00  0.00    -0.054 OA 
BRANCH  34  35
HETATM   35  C   UNL     1      -6.832  11.653  69.289  1.00  0.00    -0.104 C  
HETATM   36  C   UNL     1      -8.312  11.272  69.204  1.00  0.00     0.067 C  
HETATM   37  C   UNL     1      -8.508  10.201  68.136  1.00  0.00    -0.118 C  
HETATM   38  C   UNL     1      -7.630   8.978  68.489  1.00  0.00    -0.093 C  
HETATM   39  N   UNL     1      -9.927   9.841  67.995  1.00  0.00    -0.152 NA 
HETATM   40  C   UNL     1      -6.167   9.430  68.650  1.00  0.00    -0.044 C  
HETATM   41  H2  UNL     1     -10.505  10.662  67.814  1.00  0.00     0.000 HD 
HETATM   42  O   UNL     1      -7.721   7.956  67.495  1.00  0.00    -0.112 OA 
HETATM   43  H1  UNL     1     -10.057   9.126  67.281  1.00  0.00     0.000 HD 
HETATM   44  C   UNL     1      -5.303   8.281  69.163  1.00  0.00    -0.031 C  
HETATM   45  H   UNL     1      -7.181   7.205  67.712  1.00  0.00     0.000 HD 
HETATM   46  O   UNL     1      -6.039  10.502  69.590  1.00  0.00    -0.044 OA 
ENDBRANCH  34  35
ENDBRANCH  22  34
ENDBRANCH   2   3
TORSDOF 5
ENDMDL
MODEL      177
REMARK 921   NORMALIZED FREE ENERGY PREDICTED BY IDOCK:   81.48 KCAL/MOL
REMARK 922        TOTAL FREE ENERGY PREDICTED BY IDOCK:  104.25 KCAL/MOL
REMARK 923 INTER-LIGAND FREE ENERGY PREDICTED BY IDOCK:   98.70 KCAL/MOL
REMARK 924 INTRA-LIGAND FREE ENERGY PREDICTED BY IDOCK:    5.56 KCAL/MOL
REMARK 927      BINDING AFFINITY PREDICTED BY RF-SCORE:    0.00 PKD
ROOT
HETATM    1  C   UNL     1     -12.031  20.198  73.179  1.00  0.00    14.788 C  
HETATM    2  O   UNL     1     -11.329  19.315  72.309  1.00  0.00     4.473 OA 
ENDROOT
BRANCH   2   3
HETATM    3  C   UNL     1     -10.066  18.944  72.688  1.00  0.00     4.626 A  
HETATM    4  C   UNL     1      -9.413  19.551  73.774  1.00  0.00     4.867 A  
HETATM    5  C   UNL     1      -8.134  19.155  74.152  1.00  0.00     7.747 A  
HETATM    6  C   UNL     1      -7.494  18.147  73.447  1.00  0.00     9.920 A  
HETATM    7  C   UNL     1      -8.119  17.542  72.346  1.00  0.00    14.922 A  
HETATM    8  C   UNL     1      -9.396  17.943  71.945  1.00  0.00    10.622 A  
HETATM    9  C   UNL     1      -9.997  17.291  70.750  1.00  0.00     2.806 C  
HETATM   10  O   UNL     1     -11.061  17.665  70.266  1.00  0.00     0.939 OA 
HETATM   11  C   UNL     1      -9.304  16.154  70.089  1.00  0.00     0.866 A  
HETATM   12  C   UNL     1      -9.927  15.465  69.025  1.00  0.00    -0.229 A  
HETATM   13  O   UNL     1     -11.194  15.799  68.599  1.00  0.00    -0.308 OA 
HETATM   14  C   UNL     1      -9.300  14.391  68.360  1.00  0.00    -0.206 A  
HETATM   15  H   UNL     1     -11.612  15.335  67.883  1.00  0.00     0.000 HD 
HETATM   16  C   UNL     1      -8.003  14.001  68.773  1.00  0.00    -0.081 A  
HETATM   17  C   UNL     1      -7.411  14.661  69.873  1.00  0.00     0.052 A  
HETATM   18  C   UNL     1      -7.274  12.857  68.081  1.00  0.00    -0.114 C  
HETATM   19  C   UNL     1      -7.901  12.430  66.750  1.00  0.00     0.080 C  
HETATM   20  C   UNL     1      -8.043  15.747  70.515  1.00  0.00     1.775 A  
HETATM   21  O   UNL     1      -6.216  14.220  70.374  1.00  0.00    -0.169 OA 
HETATM   22  C   UNL     1     -10.038  13.672  67.232  1.00  0.00    -0.239 C  
HETATM   23  C   UNL     1      -7.383  16.483  71.628  1.00  0.00     6.713 C  
HETATM   24  C   UNL     1      -9.414  12.303  66.951  1.00  0.00    -0.217 C  
HETATM   25  O   UNL     1      -7.562  13.376  65.735  1.00  0.00     2.191 OA 
HETATM   26  H   UNL     1      -5.817  14.664  71.114  1.00  0.00     0.000 HD 
HETATM   27  O   UNL     1      -6.232  16.250  71.976  1.00  0.00     1.945 OA 
HETATM   28  H   UNL     1      -7.951  13.110  64.910  1.00  0.00     0.000 HD 
BRANCH  19  29
HETATM   29  C   UNL     1      -7.328  11.071  66.315  1.00  0.00    -0.097 C  
HETATM   30  O   UNL     1      -8.048  10.148  65.919  1.00  0.00    -0.125 OA 
BRANCH  29  31
HETATM   31  C   UNL     1      -5.822  10.860  66.468  1.00  0.00    -0.106 C  
HETATM   32  O   UNL     1      -5.238  10.322  65.288  1.00  0.00    -0.060 OA 
HETATM   33  H   UNL     1      -4.302  10.192  65.383  1.00  0.00     0.000 HD 
ENDBRANCH  29  31
ENDBRANCH  19  29
BRANCH  22  34
HETATM   34  O   UNL     1      -9.998  14.516  66.069  1.00  0.00    -0.292 OA 
BRANCH  34  35
HETATM   35  C   UNL     1     -11.268  14.905  65.526  1.00  0.00    -0.348 C  
HETATM   36  C   UNL     1     -12.350  15.209  66.565  1.00  0.00     0.604 C  
HETATM   37  C   UNL     1     -11.978  16.466  67.344  1.00  0.00     1.076 C  
HETATM   38  C   UNL     1     -11.808  17.636  66.349  1.00  0.00     2.861 C  
HETATM   39  N   UNL     1     -12.974  16.765  68.383  1.00  0.00     2.011 NA 
HETATM   40  C   UNL     1     -10.775  17.246  65.275  1.00  0.00    -0.010 C  
HETATM   41  H2  UNL     1     -13.119  15.968  69.004  1.00  0.00     0.000 HD 
HETATM   42  O   UNL     1     -11.400  18.837  67.007  1.00  0.00     0.122 OA 
HETATM   43  H1  UNL     1     -12.725  17.605  68.904  1.00  0.00     0.000 HD 
HETATM   44  C   UNL     1     -10.708  18.311  64.182  1.00  0.00     5.840 C  
HETATM   45  H   UNL     1     -11.295  19.556  66.395  1.00  0.00     0.000 HD 
HETATM   46  O   UNL     1     -11.111  16.011  64.635  1.00  0.00    -0.548 OA 
ENDBRANCH  34  35
ENDBRANCH  22  34
ENDBRANCH   2   3
TORSDOF 5
ENDMDL
MODEL      178
REMARK 921   NORMALIZED FREE ENERGY PREDICTED BY IDOCK:   83.00 KCAL/MOL
REMARK 922        TOTAL FREE ENERGY PREDICTED BY IDOCK:  106.21 KCAL/MOL
REMARK 923 INTER-LIGAND FREE ENERGY PREDICTED BY IDOCK:   98.85 KCAL/MOL
REMARK 924 INTRA-LIGAND FREE ENERGY PREDICTED BY IDOCK:    7.36 KCAL/MOL
REMARK 927      BINDING AFFINITY PREDICTED BY RF-SCORE:    0.00 PKD
ROOT
HETATM    1  C   UNL     1      -8.200  19.254  65.501  1.00  0.00     0.556 C  
HETATM    2  O   UNL     1      -9.372  20.065  65.490  1.00  0.00    -0.214 OA 
ENDROOT
BRANCH   2   3
HETATM    3  C   UNL     1     -10.334  19.754  64.565  1.00  0.00     3.351 A  
HETATM    4  C   UNL     1     -10.899  20.733  63.730  1.00  0.00     4.965 A  
HETATM    5  C   UNL     1     -11.867  20.397  62.790  1.00  0.00    12.949 A  
HETATM    6  C   UNL     1     -12.282  19.079  62.675  1.00  0.00    21.836 A  
HETATM    7  C   UNL     1     -11.747  18.090  63.514  1.00  0.00    10.063 A  
HETATM    8  C   UNL     1     -10.786  18.417  64.474  1.00  0.00     3.360 A  
HETATM    9  C   UNL     1     -10.278  17.334  65.359  1.00  0.00     0.120 C  
HETATM   10  O   UNL     1      -9.522  17.558  66.300  1.00  0.00    -0.345 OA 
HETATM   11  C   UNL     1     -10.690  15.923  65.131  1.00  0.00    -0.449 A  
HETATM   12  C   UNL     1     -10.121  14.885  65.899  1.00  0.00    -0.325 A  
HETATM   13  O   UNL     1      -9.153  15.140  66.846  1.00  0.00    -0.216 OA 
HETATM   14  C   UNL     1     -10.494  13.535  65.726  1.00  0.00    -0.293 A  
HETATM   15  H   UNL     1      -8.771  14.441  67.363  1.00  0.00     0.000 HD 
HETATM   16  C   UNL     1     -11.474  13.221  64.754  1.00  0.00    -0.355 A  
HETATM   17  C   UNL     1     -11.997  14.260  63.953  1.00  0.00    -0.184 A  
HETATM   18  C   UNL     1     -11.923  11.783  64.534  1.00  0.00    -0.200 C  
HETATM   19  C   UNL     1     -11.492  10.817  65.643  1.00  0.00     0.819 C  
HETATM   20  C   UNL     1     -11.628  15.609  64.152  1.00  0.00    -0.082 A  
HETATM   21  O   UNL     1     -12.847  13.969  62.921  1.00  0.00    -0.525 OA 
HETATM   22  C   UNL     1      -9.822  12.456  66.574  1.00  0.00    -0.235 C  
HETATM   23  C   UNL     1     -12.236  16.706  63.352  1.00  0.00     4.849 C  
HETATM   24  C   UNL     1     -10.014  11.070  65.953  1.00  0.00    -0.289 C  
HETATM   25  O   UNL     1     -12.329  10.996  66.787  1.00  0.00     1.163 OA 
HETATM   26  H   UNL     1     -13.199  14.668  62.382  1.00  0.00     0.000 HD 
HETATM   27  O   UNL     1     -13.146  16.512  62.556  1.00  0.00     6.941 OA 
HETATM   28  H   UNL     1     -12.062  10.397  67.473  1.00  0.00     0.000 HD 
BRANCH  19  29
HETATM   29  C   UNL     1     -11.674   9.365  65.170  1.00  0.00     7.783 C  
HETATM   30  O   UNL     1     -11.020   8.430  65.645  1.00  0.00     2.661 OA 
BRANCH  29  31
HETATM   31  C   UNL     1     -12.643   9.116  64.015  1.00  0.00    17.485 C  
HETATM   32  O   UNL     1     -12.694  10.219  63.117  1.00  0.00     3.624 OA 
HETATM   33  H   UNL     1     -13.296  10.064  62.399  1.00  0.00     0.000 HD 
ENDBRANCH  29  31
ENDBRANCH  19  29
BRANCH  22  34
HETATM   34  O   UNL     1     -10.382  12.521  67.897  1.00  0.00    -0.206 OA 
BRANCH  34  35
HETATM   35  C   UNL     1      -9.814  11.631  68.868  1.00  0.00    -0.040 C  
HETATM   36  C   UNL     1      -9.466  10.236  68.342  1.00  0.00    -0.149 C  
HETATM   37  C   UNL     1      -8.319  10.334  67.341  1.00  0.00    -0.118 C  
HETATM   38  C   UNL     1      -7.106  10.992  68.037  1.00  0.00    -0.077 C  
HETATM   39  N   UNL     1      -7.987   9.016  66.780  1.00  0.00    -0.107 NA 
HETATM   40  C   UNL     1      -7.531  12.351  68.625  1.00  0.00    -0.095 C  
HETATM   41  H2  UNL     1      -8.805   8.566  66.370  1.00  0.00     0.000 HD 
HETATM   42  O   UNL     1      -6.011  11.169  67.137  1.00  0.00    -0.056 OA 
HETATM   43  H1  UNL     1      -7.220   9.082  66.112  1.00  0.00     0.000 HD 
HETATM   44  C   UNL     1      -6.404  12.950  69.462  1.00  0.00    -0.103 C  
HETATM   45  H   UNL     1      -5.265  11.575  67.564  1.00  0.00     0.000 HD 
HETATM   46  O   UNL     1      -8.670  12.230  69.482  1.00  0.00     0.990 OA 
ENDBRANCH  34  35
ENDBRANCH  22  34
ENDBRANCH   2   3
TORSDOF 5
ENDMDL
MODEL      179
REMARK 921   NORMALIZED FREE ENERGY PREDICTED BY IDOCK:   83.20 KCAL/MOL
REMARK 922        TOTAL FREE ENERGY PREDICTED BY IDOCK:  106.47 KCAL/MOL
REMARK 923 INTER-LIGAND FREE ENERGY PREDICTED BY IDOCK:  103.88 KCAL/MOL
REMARK 924 INTRA-LIGAND FREE ENERGY PREDICTED BY IDOCK:    2.60 KCAL/MOL
REMARK 927      BINDING AFFINITY PREDICTED BY RF-SCORE:    0.00 PKD
ROOT
HETATM    1  C   UNL     1     -10.649  15.187  62.878  1.00  0.00     8.353 C  
HETATM    2  O   UNL     1     -10.901  16.589  62.827  1.00  0.00     4.644 OA 
ENDROOT
BRANCH   2   3
HETATM    3  C   UNL     1      -9.897  17.416  63.258  1.00  0.00    14.883 A  
HETATM    4  C   UNL     1      -9.496  18.539  62.516  1.00  0.00    25.164 A  
HETATM    5  C   UNL     1      -8.482  19.374  62.974  1.00  0.00    15.040 A  
HETATM    6  C   UNL     1      -7.858  19.094  64.180  1.00  0.00     5.349 A  
HETATM    7  C   UNL     1      -8.229  17.966  64.927  1.00  0.00     3.932 A  
HETATM    8  C   UNL     1      -9.233  17.109  64.469  1.00  0.00     5.609 A  
HETATM    9  C   UNL     1      -9.562  15.909  65.285  1.00  0.00     0.211 C  
HETATM   10  O   UNL     1     -10.347  15.049  64.898  1.00  0.00    -0.383 OA 
HETATM   11  C   UNL     1      -8.925  15.708  66.614  1.00  0.00    -0.317 A  
HETATM   12  C   UNL     1      -9.321  14.629  67.434  1.00  0.00    -0.196 A  
HETATM   13  O   UNL     1     -10.320  13.764  67.049  1.00  0.00    -0.257 OA 
HETATM   14  C   UNL     1      -8.733  14.393  68.695  1.00  0.00    -0.164 A  
HETATM   15  H   UNL     1     -10.586  13.038  67.601  1.00  0.00     0.000 HD 
HETATM   16  C   UNL     1      -7.711  15.265  69.142  1.00  0.00    -0.200 A  
HETATM   17  C   UNL     1      -7.361  16.373  68.338  1.00  0.00    -0.168 A  
HETATM   18  C   UNL     1      -7.033  15.049  70.488  1.00  0.00     0.345 C  
HETATM   19  C   UNL     1      -7.305  13.677  71.111  1.00  0.00     3.636 C  
HETATM   20  C   UNL     1      -7.945  16.585  67.069  1.00  0.00    -0.239 A  
HETATM   21  O   UNL     1      -6.471  17.303  68.802  1.00  0.00    -0.176 OA 
HETATM   22  C   UNL     1      -9.223  13.222  69.545  1.00  0.00     1.434 C  
HETATM   23  C   UNL     1      -7.521  17.713  66.198  1.00  0.00    -0.299 C  
HETATM   24  C   UNL     1      -8.806  13.391  71.007  1.00  0.00     8.762 C  
HETATM   25  O   UNL     1      -6.512  12.686  70.455  1.00  0.00    -0.467 OA 
HETATM   26  H   UNL     1      -6.235  18.048  68.261  1.00  0.00     0.000 HD 
HETATM   27  O   UNL     1      -6.588  18.452  66.488  1.00  0.00    -0.178 OA 
HETATM   28  H   UNL     1      -6.681  11.835  70.842  1.00  0.00     0.000 HD 
BRANCH  19  29
HETATM   29  C   UNL     1      -6.888  13.685  72.592  1.00  0.00     4.133 C  
HETATM   30  O   UNL     1      -7.492  13.032  73.450  1.00  0.00     7.218 OA 
BRANCH  29  31
HETATM   31  C   UNL     1      -5.737  14.605  72.995  1.00  0.00     0.192 C  
HETATM   32  O   UNL     1      -5.332  14.392  74.342  1.00  0.00    -0.463 OA 
HETATM   33  H   UNL     1      -4.616  14.964  74.591  1.00  0.00     0.000 HD 
ENDBRANCH  29  31
ENDBRANCH  19  29
BRANCH  22  34
HETATM   34  O   UNL     1      -8.686  12.012  68.981  1.00  0.00     0.133 OA 
BRANCH  34  35
HETATM   35  C   UNL     1      -9.645  11.052  68.516  1.00  0.00    -0.187 C  
HETATM   36  C   UNL     1      -9.220   9.589  68.666  1.00  0.00    -0.135 C  
HETATM   37  C   UNL     1      -9.147   9.223  70.145  1.00  0.00    -0.222 C  
HETATM   38  C   UNL     1     -10.528   9.478  70.791  1.00  0.00    -0.314 C  
HETATM   39  N   UNL     1      -8.699   7.835  70.330  1.00  0.00    -0.142 NA 
HETATM   40  C   UNL     1     -10.949  10.938  70.535  1.00  0.00     0.304 C  
HETATM   41  H2  UNL     1      -7.812   7.661  69.856  1.00  0.00     0.000 HD 
HETATM   42  O   UNL     1     -10.515   9.211  72.194  1.00  0.00    -0.265 OA 
HETATM   43  H1  UNL     1      -8.650   7.591  71.319  1.00  0.00     0.000 HD 
HETATM   44  C   UNL     1     -12.379  11.176  71.012  1.00  0.00    -0.487 C  
HETATM   45  H   UNL     1     -11.364   9.368  72.591  1.00  0.00     0.000 HD 
HETATM   46  O   UNL     1     -10.911  11.269  69.143  1.00  0.00    -0.212 OA 
ENDBRANCH  34  35
ENDBRANCH  22  34
ENDBRANCH   2   3
TORSDOF 5
ENDMDL
MODEL      180
REMARK 921   NORMALIZED FREE ENERGY PREDICTED BY IDOCK:   84.19 KCAL/MOL
REMARK 922        TOTAL FREE ENERGY PREDICTED BY IDOCK:  107.75 KCAL/MOL
REMARK 923 INTER-LIGAND FREE ENERGY PREDICTED BY IDOCK:  102.43 KCAL/MOL
REMARK 924 INTRA-LIGAND FREE ENERGY PREDICTED BY IDOCK:    5.31 KCAL/MOL
REMARK 927      BINDING AFFINITY PREDICTED BY RF-SCORE:    0.00 PKD
ROOT
HETATM    1  C   UNL     1      -7.838  10.098  73.579  1.00  0.00     6.061 C  
HETATM    2  O   UNL     1      -8.462  11.280  74.073  1.00  0.00    12.563 OA 
ENDROOT
BRANCH   2   3
HETATM    3  C   UNL     1      -9.183  12.023  73.176  1.00  0.00    25.374 A  
HETATM    4  C   UNL     1      -9.777  13.243  73.538  1.00  0.00    15.561 A  
HETATM    5  C   UNL     1     -10.498  13.989  72.612  1.00  0.00     5.965 A  
HETATM    6  C   UNL     1     -10.633  13.523  71.313  1.00  0.00     4.589 A  
HETATM    7  C   UNL     1     -10.065  12.297  70.936  1.00  0.00     6.633 A  
HETATM    8  C   UNL     1      -9.354  11.529  71.862  1.00  0.00    14.741 A  
HETATM    9  C   UNL     1      -8.802  10.220  71.416  1.00  0.00     3.443 C  
HETATM   10  O   UNL     1      -8.267   9.437  72.194  1.00  0.00     0.072 OA 
HETATM   11  C   UNL     1      -8.898   9.813  69.989  1.00  0.00    -0.245 A  
HETATM   12  C   UNL     1      -8.277   8.624  69.548  1.00  0.00    -0.115 A  
HETATM   13  O   UNL     1      -7.543   7.836  70.407  1.00  0.00    -0.083 OA 
HETATM   14  C   UNL     1      -8.355   8.193  68.207  1.00  0.00    -0.126 A  
HETATM   15  H   UNL     1      -7.126   7.037  70.109  1.00  0.00     0.000 HD 
HETATM   16  C   UNL     1      -9.085   8.978  67.282  1.00  0.00    -0.151 A  
HETATM   17  C   UNL     1      -9.656  10.193  67.722  1.00  0.00    -0.148 A  
HETATM   18  C   UNL     1      -9.213   8.553  65.826  1.00  0.00    -0.210 C  
HETATM   19  C   UNL     1      -8.796   7.103  65.559  1.00  0.00     0.046 C  
HETATM   20  C   UNL     1      -9.587  10.601  69.072  1.00  0.00    -0.207 A  
HETATM   21  O   UNL     1     -10.256  11.034  66.824  1.00  0.00    -0.212 OA 
HETATM   22  C   UNL     1      -7.640   6.909  67.788  1.00  0.00    -0.107 C  
HETATM   23  C   UNL     1     -10.251  11.847  69.542  1.00  0.00     0.571 C  
HETATM   24  C   UNL     1      -7.463   6.849  66.269  1.00  0.00    -0.077 C  
HETATM   25  O   UNL     1      -9.827   6.219  65.999  1.00  0.00    -0.385 OA 
HETATM   26  H   UNL     1     -10.640  11.851  67.119  1.00  0.00     0.000 HD 
HETATM   27  O   UNL     1     -10.965  12.525  68.813  1.00  0.00    -0.240 OA 
HETATM   28  H   UNL     1      -9.568   5.320  65.833  1.00  0.00     0.000 HD 
BRANCH  19  29
HETATM   29  C   UNL     1      -8.619   6.881  64.047  1.00  0.00     0.472 C  
HETATM   30  O   UNL     1      -7.952   5.946  63.592  1.00  0.00    -0.110 OA 
BRANCH  29  31
HETATM   31  C   UNL     1      -9.235   7.915  63.107  1.00  0.00     1.788 C  
HETATM   32  O   UNL     1      -8.245   8.600  62.349  1.00  0.00    -0.161 OA 
HETATM   33  H   UNL     1      -8.629   9.243  61.764  1.00  0.00     0.000 HD 
ENDBRANCH  29  31
ENDBRANCH  19  29
BRANCH  22  34
HETATM   34  O   UNL     1      -8.411   5.796  68.272  1.00  0.00    -0.113 OA 
BRANCH  34  35
HETATM   35  C   UNL     1      -8.626   5.745  69.689  1.00  0.00    -0.116 C  
HETATM   36  C   UNL     1     -10.016   5.267  70.116  1.00  0.00    -0.313 C  
HETATM   37  C   UNL     1     -10.191   3.797  69.749  1.00  0.00     0.750 C  
HETATM   38  C   UNL     1      -9.077   2.976  70.438  1.00  0.00    -0.122 C  
HETATM   39  N   UNL     1     -11.534   3.314  70.105  1.00  0.00     7.252 NA 
HETATM   40  C   UNL     1      -7.703   3.551  70.046  1.00  0.00    -0.047 C  
HETATM   41  H2  UNL     1     -12.263   3.893  69.689  1.00  0.00     0.000 HD 
HETATM   42  O   UNL     1      -9.146   1.592  70.088  1.00  0.00    -0.069 OA 
HETATM   43  H1  UNL     1     -11.650   2.331  69.859  1.00  0.00     0.000 HD 
HETATM   44  C   UNL     1      -6.590   2.872  70.839  1.00  0.00    -0.031 C  
HETATM   45  H   UNL     1      -8.461   1.087  70.511  1.00  0.00     0.000 HD 
HETATM   46  O   UNL     1      -7.614   4.954  70.317  1.00  0.00    -0.060 OA 
ENDBRANCH  34  35
ENDBRANCH  22  34
ENDBRANCH   2   3
TORSDOF 5
ENDMDL
MODEL      181
REMARK 921   NORMALIZED FREE ENERGY PREDICTED BY IDOCK:   84.84 KCAL/MOL
REMARK 922        TOTAL FREE ENERGY PREDICTED BY IDOCK:  108.59 KCAL/MOL
REMARK 923 INTER-LIGAND FREE ENERGY PREDICTED BY IDOCK:  109.52 KCAL/MOL
REMARK 924 INTRA-LIGAND FREE ENERGY PREDICTED BY IDOCK:   -0.92 KCAL/MOL
REMARK 927      BINDING AFFINITY PREDICTED BY RF-SCORE:    0.00 PKD
ROOT
HETATM    1  C   UNL     1     -12.829   9.336  62.705  1.00  0.00    14.989 C  
HETATM    2  O   UNL     1     -12.112  10.559  62.849  1.00  0.00     2.201 OA 
ENDROOT
BRANCH   2   3
HETATM    3  C   UNL     1     -10.745  10.476  62.897  1.00  0.00     1.110 A  
HETATM    4  C   UNL     1     -10.054   9.375  62.364  1.00  0.00     1.996 A  
HETATM    5  C   UNL     1      -8.665   9.311  62.413  1.00  0.00    -0.241 A  
HETATM    6  C   UNL     1      -7.953  10.348  62.995  1.00  0.00    -0.138 A  
HETATM    7  C   UNL     1      -8.624  11.447  63.551  1.00  0.00     0.383 A  
HETATM    8  C   UNL     1     -10.019  11.515  63.525  1.00  0.00    -0.429 A  
HETATM    9  C   UNL     1     -10.680  12.687  64.161  1.00  0.00    -0.406 C  
HETATM   10  O   UNL     1     -11.899  12.765  64.282  1.00  0.00    -0.347 OA 
HETATM   11  C   UNL     1      -9.864  13.813  64.688  1.00  0.00     0.171 A  
HETATM   12  C   UNL     1     -10.495  14.973  65.189  1.00  0.00    -0.412 A  
HETATM   13  O   UNL     1     -11.866  15.108  65.170  1.00  0.00    -0.248 OA 
HETATM   14  C   UNL     1      -9.761  16.057  65.713  1.00  0.00    -0.340 A  
HETATM   15  H   UNL     1     -12.290  15.889  65.508  1.00  0.00     0.000 HD 
HETATM   16  C   UNL     1      -8.348  15.971  65.739  1.00  0.00     0.643 A  
HETATM   17  C   UNL     1      -7.725  14.830  65.185  1.00  0.00     8.431 A  
HETATM   18  C   UNL     1      -7.506  17.107  66.305  1.00  0.00    -0.344 C  
HETATM   19  C   UNL     1      -8.305  18.134  67.112  1.00  0.00    -0.238 C  
HETATM   20  C   UNL     1      -8.474  13.744  64.684  1.00  0.00     6.030 A  
HETATM   21  O   UNL     1      -6.361  14.777  65.080  1.00  0.00    10.488 OA 
HETATM   22  C   UNL     1     -10.503  17.294  66.217  1.00  0.00    -0.268 C  
HETATM   23  C   UNL     1      -7.812  12.516  64.167  1.00  0.00     5.704 C  
HETATM   24  C   UNL     1      -9.563  18.496  66.318  1.00  0.00    -0.279 C  
HETATM   25  O   UNL     1      -8.608  17.599  68.402  1.00  0.00    -0.270 OA 
HETATM   26  H   UNL     1      -5.942  14.010  64.708  1.00  0.00     0.000 HD 
HETATM   27  O   UNL     1      -6.601  12.344  64.238  1.00  0.00     5.751 OA 
HETATM   28  H   UNL     1      -9.103  18.237  68.903  1.00  0.00     0.000 HD 
BRANCH  19  29
HETATM   29  C   UNL     1      -7.457  19.399  67.332  1.00  0.00    -0.231 C  
HETATM   30  O   UNL     1      -7.952  20.467  67.709  1.00  0.00    -0.272 OA 
BRANCH  29  31
HETATM   31  C   UNL     1      -5.971  19.319  66.985  1.00  0.00    -0.177 C  
HETATM   32  O   UNL     1      -5.646  20.118  65.854  1.00  0.00    -0.168 OA 
HETATM   33  H   UNL     1      -4.722  20.069  65.639  1.00  0.00     0.000 HD 
ENDBRANCH  29  31
ENDBRANCH  19  29
BRANCH  22  34
HETATM   34  O   UNL     1     -11.083  16.971  67.493  1.00  0.00    -0.183 OA 
BRANCH  34  35
HETATM   35  C   UNL     1     -12.511  17.076  67.583  1.00  0.00     3.181 C  
HETATM   36  C   UNL     1     -13.211  15.867  68.208  1.00  0.00     3.597 C  
HETATM   37  C   UNL     1     -12.841  15.764  69.684  1.00  0.00     0.509 C  
HETATM   38  C   UNL     1     -13.244  17.078  70.392  1.00  0.00     7.616 C  
HETATM   39  N   UNL     1     -13.460  14.586  70.309  1.00  0.00    -0.327 NA 
HETATM   40  C   UNL     1     -12.586  18.269  69.671  1.00  0.00    12.540 C  
HETATM   41  H2  UNL     1     -13.231  13.730  69.804  1.00  0.00     0.000 HD 
HETATM   42  O   UNL     1     -12.871  17.073  71.771  1.00  0.00     1.699 OA 
HETATM   43  H1  UNL     1     -13.212  14.518  71.296  1.00  0.00     0.000 HD 
HETATM   44  C   UNL     1     -13.097  19.591  70.240  1.00  0.00    22.745 C  
HETATM   45  H   UNL     1     -13.119  17.880  72.206  1.00  0.00     0.000 HD 
HETATM   46  O   UNL     1     -12.879  18.274  68.271  1.00  0.00     5.047 OA 
ENDBRANCH  34  35
ENDBRANCH  22  34
ENDBRANCH   2   3
TORSDOF 5
ENDMDL
MODEL      182
REMARK 921   NORMALIZED FREE ENERGY PREDICTED BY IDOCK:   88.46 KCAL/MOL
REMARK 922        TOTAL FREE ENERGY PREDICTED BY IDOCK:  113.27 KCAL/MOL
REMARK 923 INTER-LIGAND FREE ENERGY PREDICTED BY IDOCK:  104.42 KCAL/MOL
REMARK 924 INTRA-LIGAND FREE ENERGY PREDICTED BY IDOCK:    8.85 KCAL/MOL
REMARK 927      BINDING AFFINITY PREDICTED BY RF-SCORE:    0.00 PKD
ROOT
HETATM    1  C   UNL     1     -11.078  11.611  72.454  1.00  0.00     8.652 C  
HETATM    2  O   UNL     1     -10.299  10.543  72.984  1.00  0.00     7.645 OA 
ENDROOT
BRANCH   2   3
HETATM    3  C   UNL     1      -8.940  10.634  72.838  1.00  0.00    12.887 A  
HETATM    4  C   UNL     1      -8.060   9.876  73.629  1.00  0.00     4.973 A  
HETATM    5  C   UNL     1      -6.683   9.974  73.461  1.00  0.00     2.167 A  
HETATM    6  C   UNL     1      -6.170  10.831  72.499  1.00  0.00     2.274 A  
HETATM    7  C   UNL     1      -7.030  11.612  71.713  1.00  0.00     5.792 A  
HETATM    8  C   UNL     1      -8.415  11.537  71.884  1.00  0.00    14.282 A  
HETATM    9  C   UNL     1      -9.277  12.414  71.047  1.00  0.00    11.084 C  
HETATM   10  O   UNL     1     -10.490  12.492  71.214  1.00  0.00     5.409 OA 
HETATM   11  C   UNL     1      -8.679  13.245  69.968  1.00  0.00     3.121 A  
HETATM   12  C   UNL     1      -9.510  13.989  69.103  1.00  0.00     0.236 A  
HETATM   13  O   UNL     1     -10.882  13.940  69.207  1.00  0.00    -0.350 OA 
HETATM   14  C   UNL     1      -8.984  14.803  68.077  1.00  0.00    -0.174 A  
HETATM   15  H   UNL     1     -11.441  14.441  68.625  1.00  0.00     0.000 HD 
HETATM   16  C   UNL     1      -7.578  14.874  67.921  1.00  0.00    -0.146 A  
HETATM   17  C   UNL     1      -6.759  14.083  68.756  1.00  0.00    -0.100 A  
HETATM   18  C   UNL     1      -6.956  15.747  66.839  1.00  0.00    -0.009 C  
HETATM   19  C   UNL     1      -7.929  16.747  66.206  1.00  0.00    -0.316 C  
HETATM   20  C   UNL     1      -7.299  13.290  69.791  1.00  0.00     0.727 A  
HETATM   21  O   UNL     1      -5.407  14.034  68.543  1.00  0.00    -0.085 OA 
HETATM   22  C   UNL     1      -9.938  15.564  67.159  1.00  0.00    -0.242 C  
HETATM   23  C   UNL     1      -6.425  12.514  70.713  1.00  0.00     1.139 C  
HETATM   24  C   UNL     1      -9.230  16.009  65.877  1.00  0.00    -0.321 C  
HETATM   25  O   UNL     1      -8.133  17.845  67.097  1.00  0.00    -0.205 OA 
HETATM   26  H   UNL     1      -4.856  13.502  69.105  1.00  0.00     0.000 HD 
HETATM   27  O   UNL     1      -5.203  12.598  70.684  1.00  0.00    -0.108 OA 
HETATM   28  H   UNL     1      -8.737  18.465  66.704  1.00  0.00     0.000 HD 
BRANCH  19  29
HETATM   29  C   UNL     1      -7.324  17.317  64.912  1.00  0.00     3.933 C  
HETATM   30  O   UNL     1      -7.413  16.731  63.828  1.00  0.00    10.973 OA 
BRANCH  29  31
HETATM   31  C   UNL     1      -6.522  18.613  65.022  1.00  0.00    -0.071 C  
HETATM   32  O   UNL     1      -5.130  18.365  65.176  1.00  0.00    -0.150 OA 
HETATM   33  H   UNL     1      -4.631  19.171  65.244  1.00  0.00     0.000 HD 
ENDBRANCH  29  31
ENDBRANCH  19  29
BRANCH  22  34
HETATM   34  O   UNL     1     -10.453  16.689  67.892  1.00  0.00    -0.298 OA 
BRANCH  34  35
HETATM   35  C   UNL     1     -11.872  16.890  67.828  1.00  0.00     1.011 C  
HETATM   36  C   UNL     1     -12.461  16.896  66.415  1.00  0.00     4.512 C  
HETATM   37  C   UNL     1     -12.343  15.505  65.801  1.00  0.00     1.019 C  
HETATM   38  C   UNL     1     -13.075  14.494  66.713  1.00  0.00     1.779 C  
HETATM   39  N   UNL     1     -12.859  15.483  64.425  1.00  0.00    -0.103 NA 
HETATM   40  C   UNL     1     -12.507  14.590  68.141  1.00  0.00     0.265 C  
HETATM   41  H2  UNL     1     -12.407  16.189  63.843  1.00  0.00     0.000 HD 
HETATM   42  O   UNL     1     -12.954  13.156  66.226  1.00  0.00    -0.011 OA 
HETATM   43  H1  UNL     1     -12.780  14.553  64.015  1.00  0.00     0.000 HD 
HETATM   44  C   UNL     1     -13.321  13.727  69.103  1.00  0.00     2.822 C  
HETATM   45  H   UNL     1     -13.403  12.535  66.787  1.00  0.00     0.000 HD 
HETATM   46  O   UNL     1     -12.547  15.929  68.644  1.00  0.00     0.406 OA 
ENDBRANCH  34  35
ENDBRANCH  22  34
ENDBRANCH   2   3
TORSDOF 5
ENDMDL
MODEL      183
REMARK 921   NORMALIZED FREE ENERGY PREDICTED BY IDOCK:   95.03 KCAL/MOL
REMARK 922        TOTAL FREE ENERGY PREDICTED BY IDOCK:  121.77 KCAL/MOL
REMARK 923 INTER-LIGAND FREE ENERGY PREDICTED BY IDOCK:  118.91 KCAL/MOL
REMARK 924 INTRA-LIGAND FREE ENERGY PREDICTED BY IDOCK:    2.86 KCAL/MOL
REMARK 927      BINDING AFFINITY PREDICTED BY RF-SCORE:    0.00 PKD
ROOT
HETATM    1  C   UNL     1     -10.351  16.321  69.705  1.00  0.00    -0.261 C  
HETATM    2  O   UNL     1      -9.009  16.624  69.336  1.00  0.00    -0.116 OA 
ENDROOT
BRANCH   2   3
HETATM    3  C   UNL     1      -8.019  15.900  69.946  1.00  0.00     0.400 A  
HETATM    4  C   UNL     1      -7.023  16.518  70.721  1.00  0.00     2.317 A  
HETATM    5  C   UNL     1      -6.030  15.766  71.340  1.00  0.00     0.788 A  
HETATM    6  C   UNL     1      -6.023  14.387  71.191  1.00  0.00    -0.127 A  
HETATM    7  C   UNL     1      -6.995  13.752  70.404  1.00  0.00     0.690 A  
HETATM    8  C   UNL     1      -7.987  14.498  69.762  1.00  0.00     0.327 A  
HETATM    9  C   UNL     1      -8.972  13.776  68.912  1.00  0.00     0.151 C  
HETATM   10  O   UNL     1      -9.801  14.365  68.225  1.00  0.00    -0.216 OA 
HETATM   11  C   UNL     1      -8.972  12.289  68.862  1.00  0.00     0.269 A  
HETATM   12  C   UNL     1      -9.977  11.604  68.144  1.00  0.00    -0.195 A  
HETATM   13  O   UNL     1     -10.993  12.281  67.509  1.00  0.00    -0.234 OA 
HETATM   14  C   UNL     1     -10.006  10.196  68.058  1.00  0.00    -0.173 A  
HETATM   15  H   UNL     1     -11.669  11.819  67.026  1.00  0.00     0.000 HD 
HETATM   16  C   UNL     1      -8.990   9.455  68.708  1.00  0.00    -0.132 A  
HETATM   17  C   UNL     1      -8.021  10.147  69.469  1.00  0.00    -0.165 A  
HETATM   18  C   UNL     1      -8.965   7.934  68.637  1.00  0.00    -0.134 C  
HETATM   19  C   UNL     1      -9.889   7.343  67.567  1.00  0.00    -0.158 C  
HETATM   20  C   UNL     1      -7.994  11.558  69.529  1.00  0.00     0.511 A  
HETATM   21  O   UNL     1      -7.106   9.451  70.212  1.00  0.00    -0.069 OA 
HETATM   22  C   UNL     1     -11.134   9.514  67.286  1.00  0.00     0.182 C  
HETATM   23  C   UNL     1      -6.930  12.283  70.274  1.00  0.00     1.231 C  
HETATM   24  C   UNL     1     -11.250   8.037  67.671  1.00  0.00     0.543 C  
HETATM   25  O   UNL     1      -9.292   7.500  66.279  1.00  0.00    -0.245 OA 
HETATM   26  H   UNL     1      -6.455   9.917  70.723  1.00  0.00     0.000 HD 
HETATM   27  O   UNL     1      -5.978  11.706  70.786  1.00  0.00    -0.335 OA 
HETATM   28  H   UNL     1      -9.865   7.134  65.616  1.00  0.00     0.000 HD 
BRANCH  19  29
HETATM   29  C   UNL     1     -10.065   5.834  67.805  1.00  0.00    -0.162 C  
HETATM   30  O   UNL     1     -10.304   5.366  68.923  1.00  0.00    -0.204 OA 
BRANCH  29  31
HETATM   31  C   UNL     1      -9.851   4.903  66.612  1.00  0.00    -0.204 C  
HETATM   32  O   UNL     1      -8.677   4.113  66.759  1.00  0.00    -0.111 OA 
HETATM   33  H   UNL     1      -8.545   3.535  66.017  1.00  0.00     0.000 HD 
ENDBRANCH  29  31
ENDBRANCH  19  29
BRANCH  22  34
HETATM   34  O   UNL     1     -10.866   9.671  65.882  1.00  0.00     0.266 OA 
BRANCH  34  35
HETATM   35  C   UNL     1     -12.002   9.593  65.009  1.00  0.00     8.466 C  
HETATM   36  C   UNL     1     -11.705   9.058  63.606  1.00  0.00    14.764 C  
HETATM   37  C   UNL     1     -11.309   7.587  63.689  1.00  0.00    19.634 C  
HETATM   38  C   UNL     1     -12.457   6.799  64.361  1.00  0.00    14.821 C  
HETATM   39  N   UNL     1     -10.973   7.050  62.362  1.00  0.00     7.205 NA 
HETATM   40  C   UNL     1     -12.776   7.431  65.729  1.00  0.00    13.059 C  
HETATM   41  H2  UNL     1     -10.252   7.607  61.904  1.00  0.00     0.000 HD 
HETATM   42  O   UNL     1     -12.127   5.419  64.525  1.00  0.00     1.753 OA 
HETATM   43  H1  UNL     1     -10.708   6.067  62.418  1.00  0.00     0.000 HD 
HETATM   44  C   UNL     1     -14.014   6.783  66.345  1.00  0.00    18.632 C  
HETATM   45  H   UNL     1     -12.832   4.934  64.939  1.00  0.00     0.000 HD 
HETATM   46  O   UNL     1     -13.047   8.832  65.620  1.00  0.00    16.139 OA 
ENDBRANCH  34  35
ENDBRANCH  22  34
ENDBRANCH   2   3
TORSDOF 5
ENDMDL
MODEL      184
REMARK 921   NORMALIZED FREE ENERGY PREDICTED BY IDOCK:  107.37 KCAL/MOL
REMARK 922        TOTAL FREE ENERGY PREDICTED BY IDOCK:  137.70 KCAL/MOL
REMARK 923 INTER-LIGAND FREE ENERGY PREDICTED BY IDOCK:  133.68 KCAL/MOL
REMARK 924 INTRA-LIGAND FREE ENERGY PREDICTED BY IDOCK:    4.02 KCAL/MOL
REMARK 927      BINDING AFFINITY PREDICTED BY RF-SCORE:    0.00 PKD
ROOT
HETATM    1  C   UNL     1     -11.081  11.614  72.455  1.00  0.00     9.453 C  
HETATM    2  O   UNL     1     -10.281  10.568  72.998  1.00  0.00     7.930 OA 
ENDROOT
BRANCH   2   3
HETATM    3  C   UNL     1      -8.926  10.670  72.828  1.00  0.00    12.439 A  
HETATM    4  C   UNL     1      -8.024   9.998  73.669  1.00  0.00     5.459 A  
HETATM    5  C   UNL     1      -6.650  10.106  73.477  1.00  0.00     2.235 A  
HETATM    6  C   UNL     1      -6.164  10.888  72.440  1.00  0.00     2.350 A  
HETATM    7  C   UNL     1      -7.047  11.585  71.602  1.00  0.00     5.705 A  
HETATM    8  C   UNL     1      -8.428  11.499  71.796  1.00  0.00    13.294 A  
HETATM    9  C   UNL     1      -9.316  12.287  70.898  1.00  0.00     9.422 C  
HETATM   10  O   UNL     1     -10.528  12.358  71.074  1.00  0.00     4.342 OA 
HETATM   11  C   UNL     1      -8.745  13.036  69.747  1.00  0.00     2.364 A  
HETATM   12  C   UNL     1      -9.599  13.690  68.833  1.00  0.00     0.100 A  
HETATM   13  O   UNL     1     -10.969  13.625  68.958  1.00  0.00    -0.252 OA 
HETATM   14  C   UNL     1      -9.100  14.424  67.736  1.00  0.00    -0.192 A  
HETATM   15  H   UNL     1     -11.543  14.065  68.342  1.00  0.00     0.000 HD 
HETATM   16  C   UNL     1      -7.698  14.507  67.557  1.00  0.00    -0.208 A  
HETATM   17  C   UNL     1      -6.854  13.804  68.445  1.00  0.00    -0.101 A  
HETATM   18  C   UNL     1      -7.104  15.297  66.398  1.00  0.00     1.760 C  
HETATM   19  C   UNL     1      -8.102  16.223  65.696  1.00  0.00     1.237 C  
HETATM   20  C   UNL     1      -7.368  13.090  69.550  1.00  0.00     0.473 A  
HETATM   21  O   UNL     1      -5.505  13.761  68.221  1.00  0.00    -0.092 OA 
HETATM   22  C   UNL     1     -10.078  15.088  66.769  1.00  0.00    -0.254 C  
HETATM   23  C   UNL     1      -6.470  12.411  70.522  1.00  0.00     0.683 C  
HETATM   24  C   UNL     1      -9.392  15.437  65.446  1.00  0.00     0.140 C  
HETATM   25  O   UNL     1      -8.318  17.388  66.494  1.00  0.00    -0.239 OA 
HETATM   26  H   UNL     1      -4.937  13.288  68.818  1.00  0.00     0.000 HD 
HETATM   27  O   UNL     1      -5.250  12.514  70.471  1.00  0.00    -0.101 OA 
HETATM   28  H   UNL     1      -8.936  17.962  66.059  1.00  0.00     0.000 HD 
BRANCH  19  29
HETATM   29  C   UNL     1      -7.522  16.693  64.352  1.00  0.00     9.894 C  
HETATM   30  O   UNL     1      -7.611  16.016  63.322  1.00  0.00    18.274 OA 
BRANCH  29  31
HETATM   31  C   UNL     1      -6.743  18.008  64.342  1.00  0.00     3.099 C  
HETATM   32  O   UNL     1      -5.345  17.799  64.500  1.00  0.00     0.262 OA 
HETATM   33  H   UNL     1      -4.862  18.616  64.494  1.00  0.00     0.000 HD 
ENDBRANCH  29  31
ENDBRANCH  19  29
BRANCH  22  34
HETATM   34  O   UNL     1     -10.606  16.262  67.412  1.00  0.00    -0.308 OA 
BRANCH  34  35
HETATM   35  C   UNL     1     -11.920  16.669  67.003  1.00  0.00     1.680 C  
HETATM   36  C   UNL     1     -12.522  17.819  67.814  1.00  0.00     4.370 C  
HETATM   37  C   UNL     1     -11.735  19.100  67.555  1.00  0.00     1.506 C  
HETATM   38  C   UNL     1     -11.761  19.404  66.040  1.00  0.00     2.001 C  
HETATM   39  N   UNL     1     -12.258  20.218  68.353  1.00  0.00     3.111 NA 
HETATM   40  C   UNL     1     -11.229  18.184  65.266  1.00  0.00     1.089 C  
HETATM   41  H2  UNL     1     -12.286  19.990  69.347  1.00  0.00     0.000 HD 
HETATM   42  O   UNL     1     -10.990  20.563  65.718  1.00  0.00     0.187 OA 
HETATM   43  H1  UNL     1     -11.731  21.074  68.180  1.00  0.00     0.000 HD 
HETATM   44  C   UNL     1     -11.399  18.385  63.762  1.00  0.00     8.801 C  
HETATM   45  H   UNL     1     -11.006  20.749  64.787  1.00  0.00     0.000 HD 
HETATM   46  O   UNL     1     -11.931  16.985  65.609  1.00  0.00     1.771 OA 
ENDBRANCH  34  35
ENDBRANCH  22  34
ENDBRANCH   2   3
TORSDOF 5
ENDMDL
MODEL      185
REMARK 921   NORMALIZED FREE ENERGY PREDICTED BY IDOCK:  107.44 KCAL/MOL
REMARK 922        TOTAL FREE ENERGY PREDICTED BY IDOCK:  137.80 KCAL/MOL
REMARK 923 INTER-LIGAND FREE ENERGY PREDICTED BY IDOCK:   31.00 KCAL/MOL
REMARK 924 INTRA-LIGAND FREE ENERGY PREDICTED BY IDOCK:  106.80 KCAL/MOL
REMARK 927      BINDING AFFINITY PREDICTED BY RF-SCORE:    0.00 PKD
ROOT
HETATM    1  C   UNL     1     -12.312  14.506  73.719  1.00  0.00     0.039 C  
HETATM    2  O   UNL     1     -11.438  15.517  73.226  1.00  0.00    -0.274 OA 
ENDROOT
BRANCH   2   3
HETATM    3  C   UNL     1     -11.450  15.745  71.875  1.00  0.00    -0.387 A  
HETATM    4  C   UNL     1     -11.582  17.040  71.346  1.00  0.00     0.939 A  
HETATM    5  C   UNL     1     -11.583  17.253  69.972  1.00  0.00     1.876 A  
HETATM    6  C   UNL     1     -11.452  16.174  69.111  1.00  0.00    -0.311 A  
HETATM    7  C   UNL     1     -11.340  14.871  69.618  1.00  0.00    -0.311 A  
HETATM    8  C   UNL     1     -11.356  14.640  70.996  1.00  0.00    -0.129 A  
HETATM    9  C   UNL     1     -11.269  13.235  71.477  1.00  0.00     3.333 C  
HETATM   10  O   UNL     1     -11.391  12.940  72.662  1.00  0.00     4.968 OA 
HETATM   11  C   UNL     1     -11.038  12.126  70.514  1.00  0.00     1.318 A  
HETATM   12  C   UNL     1     -10.843  10.808  70.982  1.00  0.00     1.182 A  
HETATM   13  O   UNL     1     -10.827  10.521  72.329  1.00  0.00     2.737 OA 
HETATM   14  C   UNL     1     -10.636   9.724  70.104  1.00  0.00    -0.337 A  
HETATM   15  H   UNL     1     -10.696   9.634  72.644  1.00  0.00     0.000 HD 
HETATM   16  C   UNL     1     -10.630   9.972  68.710  1.00  0.00    -0.241 A  
HETATM   17  C   UNL     1     -10.770  11.302  68.253  1.00  0.00    -0.194 A  
HETATM   18  C   UNL     1     -10.424   8.838  67.715  1.00  0.00    -0.292 C  
HETATM   19  C   UNL     1     -10.567   7.440  68.324  1.00  0.00    -0.157 C  
HETATM   20  C   UNL     1     -10.997  12.373  69.145  1.00  0.00    -0.206 A  
HETATM   21  O   UNL     1     -10.639  11.588  66.921  1.00  0.00    -0.225 OA 
HETATM   22  C   UNL     1     -10.408   8.326  70.676  1.00  0.00    -0.199 C  
HETATM   23  C   UNL     1     -11.214  13.761  68.653  1.00  0.00    -0.278 C  
HETATM   24  C   UNL     1      -9.774   7.402  69.634  1.00  0.00    -0.163 C  
HETATM   25  O   UNL     1     -11.950   7.139  68.514  1.00  0.00     0.506 OA 
HETATM   26  H   UNL     1     -10.733  12.482  66.614  1.00  0.00     0.000 HD 
HETATM   27  O   UNL     1     -11.303  14.028  67.460  1.00  0.00    -0.293 OA 
HETATM   28  H   UNL     1     -12.039   6.272  68.891  1.00  0.00     0.000 HD 
BRANCH  19  29
HETATM   29  C   UNL     1     -10.002   6.388  67.355  1.00  0.00    -0.138 C  
HETATM   30  O   UNL     1      -9.498   6.694  66.269  1.00  0.00    -0.154 OA 
BRANCH  29  31
HETATM   31  C   UNL     1     -10.158   4.918  67.742  1.00  0.00    -0.099 C  
HETATM   32  O   UNL     1     -10.417   4.095  66.610  1.00  0.00    -0.242 OA 
HETATM   33  H   UNL     1     -10.514   3.181  66.852  1.00  0.00     0.000 HD 
ENDBRANCH  29  31
ENDBRANCH  19  29
BRANCH  22  34
HETATM   34  O   UNL     1     -11.678   7.820  71.123  1.00  0.00    -0.279 OA 
BRANCH  34  35
HETATM   35  C   UNL     1     -12.574   8.781  71.698  1.00  0.00    -0.345 C  
HETATM   36  C   UNL     1     -11.896   9.975  72.375  1.00  0.00     1.170 C  
HETATM   37  C   UNL     1     -11.195  10.832  71.327  1.00  0.00     0.940 C  
HETATM   38  C   UNL     1     -12.237  11.294  70.283  1.00  0.00    -0.345 C  
HETATM   39  N   UNL     1     -10.493  11.966  71.946  1.00  0.00     8.105 NA 
HETATM   40  C   UNL     1     -12.952  10.062  69.696  1.00  0.00     1.085 C  
HETATM   41  H2  UNL     1      -9.845  11.655  72.671  1.00  0.00     0.000 HD 
HETATM   42  O   UNL     1     -11.635  12.056  69.234  1.00  0.00    -0.276 OA 
HETATM   43  H1  UNL     1     -10.024  12.538  71.245  1.00  0.00     0.000 HD 
HETATM   44  C   UNL     1     -14.102  10.490  68.788  1.00  0.00     8.700 C  
HETATM   45  H   UNL     1     -12.276  12.339  68.592  1.00  0.00     0.000 HD 
HETATM   46  O   UNL     1     -13.513   9.233  70.719  1.00  0.00    -0.027 OA 
ENDBRANCH  34  35
ENDBRANCH  22  34
ENDBRANCH   2   3
TORSDOF 5
ENDMDL
