MODEL        1
REMARK 921   NORMALIZED FREE ENERGY PREDICTED BY IDOCK:   -7.20 KCAL/MOL
REMARK 922        TOTAL FREE ENERGY PREDICTED BY IDOCK:   -8.44 KCAL/MOL
REMARK 923 INTER-LIGAND FREE ENERGY PREDICTED BY IDOCK:   -8.05 KCAL/MOL
REMARK 924 INTRA-LIGAND FREE ENERGY PREDICTED BY IDOCK:   -0.39 KCAL/MOL
REMARK 927      BINDING AFFINITY PREDICTED BY RF-SCORE:    0.00 PKD
ROOT
HETATM    1  C   UNL     1      -9.787  13.276  67.443  1.00  0.00    -0.227 C  
HETATM    2  C   UNL     1      -8.416  12.913  68.234  1.00  0.00    -0.161 C  
HETATM    3  C   UNL     1      -8.466  11.414  68.468  1.00  0.00    -0.152 C  
HETATM    4  C   UNL     1      -9.808  11.136  67.842  1.00  0.00    -0.174 C  
HETATM    5  C   UNL     1     -10.690  12.410  68.262  1.00  0.00    -0.250 C  
HETATM    6  C   UNL     1      -9.534  11.058  66.276  1.00  0.00    -0.219 C  
HETATM    7  C   UNL     1     -10.682  13.468  69.640  1.00  0.00     0.262 C  
HETATM    8  C   UNL     1     -12.154  12.191  67.836  1.00  0.00    -0.027 C  
HETATM    9  C   UNL     1     -10.234   9.854  65.787  1.00  0.00    -0.251 C  
HETATM   10  C   UNL     1     -10.441   9.081  67.036  1.00  0.00    -0.246 C  
HETATM   11  C   UNL     1     -10.216  15.133  69.294  1.00  0.00    -0.251 C  
HETATM   12  O   UNL     1      -8.821  15.297  69.136  1.00  0.00    -0.209 OA 
HETATM   13  O   UNL     1     -10.325   9.855  68.162  1.00  0.00    -0.174 OA 
HETATM   14  O   UNL     1     -10.738   7.889  67.064  1.00  0.00    -0.339 OA 
HETATM   15  C   UNL     1      -9.382  15.605  67.865  1.00  0.00    -0.195 C  
HETATM   16  C   UNL     1      -9.626  14.586  66.758  1.00  0.00    -0.274 C  
HETATM   17  C   UNL     1     -10.895  15.165  66.027  1.00  0.00    -0.335 C  
HETATM   18  C   UNL     1      -7.539  16.626  66.456  1.00  0.00    -0.327 C  
HETATM   19  C   UNL     1     -10.480  16.419  65.268  1.00  0.00    -0.285 C  
HETATM   20  C   UNL     1      -8.857  16.919  67.260  1.00  0.00    -0.206 C  
HETATM   21  C   UNL     1      -9.887  17.443  66.229  1.00  0.00    -0.291 C  
HETATM   22  C   UNL     1      -8.508  17.965  68.337  1.00  0.00    -0.300 C  
HETATM   23  C   UNL     1     -10.292  18.718  66.184  1.00  0.00    -0.494 C  
HETATM   24  C   UNL     1      -8.397  19.372  67.761  1.00  0.00    -0.340 C  
HETATM   25  C   UNL     1      -9.668  19.739  67.048  1.00  0.00    -0.381 C  
HETATM   26  O   UNL     1     -10.147  20.878  67.085  1.00  0.00    -0.280 OA 
ENDROOT
BRANCH  17  27
HETATM   27  C   UNL     1     -11.714  14.243  65.144  1.00  0.00    -0.368 C  
HETATM   28  O   UNL     1     -12.923  14.096  65.177  1.00  0.00    -0.729 OA 
BRANCH  27  29
HETATM   29  O   UNL     1     -10.862  13.614  64.278  1.00  0.00    -0.388 OA 
HETATM   30  C   UNL     1     -11.424  12.599  63.444  1.00  0.00    -0.435 C  
ENDBRANCH  27  29
ENDBRANCH  17  27
TORSDOF 2
ENDMDL
MODEL        2
REMARK 921   NORMALIZED FREE ENERGY PREDICTED BY IDOCK:   -7.06 KCAL/MOL
REMARK 922        TOTAL FREE ENERGY PREDICTED BY IDOCK:   -8.27 KCAL/MOL
REMARK 923 INTER-LIGAND FREE ENERGY PREDICTED BY IDOCK:   -7.88 KCAL/MOL
REMARK 924 INTRA-LIGAND FREE ENERGY PREDICTED BY IDOCK:   -0.39 KCAL/MOL
REMARK 927      BINDING AFFINITY PREDICTED BY RF-SCORE:    0.00 PKD
ROOT
HETATM    1  C   UNL     1     -10.249   8.684  69.990  1.00  0.00    -0.201 C  
HETATM    2  C   UNL     1      -9.701   9.459  71.310  1.00  0.00    -0.210 C  
HETATM    3  C   UNL     1      -9.338   8.368  72.300  1.00  0.00    -0.356 C  
HETATM    4  C   UNL     1      -9.739   7.174  71.473  1.00  0.00    -0.164 C  
HETATM    5  C   UNL     1     -11.068   7.668  70.720  1.00  0.00    -0.276 C  
HETATM    6  C   UNL     1      -8.520   6.920  70.482  1.00  0.00    -0.137 C  
HETATM    7  C   UNL     1     -12.334   8.782  71.135  1.00  0.00    -0.258 C  
HETATM    8  C   UNL     1     -11.701   6.488  69.957  1.00  0.00    -0.388 C  
HETATM    9  C   UNL     1      -8.238   5.472  70.526  1.00  0.00    -0.112 C  
HETATM   10  C   UNL     1      -8.899   5.060  71.788  1.00  0.00    -0.133 C  
HETATM   11  C   UNL     1     -12.405  10.232  70.132  1.00  0.00    -0.142 C  
HETATM   12  O   UNL     1     -11.423  11.190  70.472  1.00  0.00    -0.269 OA 
HETATM   13  O   UNL     1      -9.826   5.972  72.222  1.00  0.00    -0.161 OA 
HETATM   14  O   UNL     1      -8.682   3.994  72.360  1.00  0.00    -0.103 OA 
HETATM   15  C   UNL     1     -11.096  10.769  69.153  1.00  0.00    -0.249 C  
HETATM   16  C   UNL     1     -10.178   9.598  68.820  1.00  0.00    -0.213 C  
HETATM   17  C   UNL     1     -10.775   9.063  67.465  1.00  0.00    -0.239 C  
HETATM   18  C   UNL     1      -9.321  12.352  68.275  1.00  0.00    -0.199 C  
HETATM   19  C   UNL     1     -10.464  10.077  66.371  1.00  0.00    -0.199 C  
HETATM   20  C   UNL     1     -10.833  11.933  68.180  1.00  0.00    -0.259 C  
HETATM   21  C   UNL     1     -11.056  11.435  66.731  1.00  0.00    -0.343 C  
HETATM   22  C   UNL     1     -11.671  13.182  68.517  1.00  0.00    -0.387 C  
HETATM   23  C   UNL     1     -11.765  12.119  65.824  1.00  0.00    -0.391 C  
HETATM   24  C   UNL     1     -11.739  14.162  67.352  1.00  0.00    -0.422 C  
HETATM   25  C   UNL     1     -12.271  13.472  66.127  1.00  0.00    -0.433 C  
HETATM   26  O   UNL     1     -13.033  14.028  65.328  1.00  0.00    -0.743 OA 
ENDROOT
BRANCH  17  27
HETATM   27  C   UNL     1     -10.423   7.658  67.016  1.00  0.00    -0.349 C  
HETATM   28  O   UNL     1     -11.209   6.780  66.706  1.00  0.00    -0.312 OA 
BRANCH  27  29
HETATM   29  O   UNL     1      -9.059   7.545  66.996  1.00  0.00    -0.127 OA 
HETATM   30  C   UNL     1      -8.524   6.242  66.759  1.00  0.00    -0.111 C  
ENDBRANCH  27  29
ENDBRANCH  17  27
TORSDOF 2
ENDMDL
MODEL        3
REMARK 921   NORMALIZED FREE ENERGY PREDICTED BY IDOCK:   -6.87 KCAL/MOL
REMARK 922        TOTAL FREE ENERGY PREDICTED BY IDOCK:   -8.07 KCAL/MOL
REMARK 923 INTER-LIGAND FREE ENERGY PREDICTED BY IDOCK:   -8.01 KCAL/MOL
REMARK 924 INTRA-LIGAND FREE ENERGY PREDICTED BY IDOCK:   -0.06 KCAL/MOL
REMARK 927      BINDING AFFINITY PREDICTED BY RF-SCORE:    0.00 PKD
ROOT
HETATM    1  C   UNL     1      -9.633  14.675  66.976  1.00  0.00    -0.246 C  
HETATM    2  C   UNL     1      -8.824  13.279  67.169  1.00  0.00    -0.223 C  
HETATM    3  C   UNL     1      -9.726  12.203  66.592  1.00  0.00    -0.228 C  
HETATM    4  C   UNL     1     -10.889  13.076  66.198  1.00  0.00    -0.279 C  
HETATM    5  C   UNL     1     -10.972  14.152  67.387  1.00  0.00    -0.306 C  
HETATM    6  C   UNL     1     -10.477  13.722  64.803  1.00  0.00    -0.448 C  
HETATM    7  C   UNL     1     -10.585  14.096  69.080  1.00  0.00    -0.227 C  
HETATM    8  C   UNL     1     -12.232  15.021  67.214  1.00  0.00     0.269 C  
HETATM    9  C   UNL     1     -11.643  13.575  63.911  1.00  0.00    -0.350 C  
HETATM   10  C   UNL     1     -12.424  12.510  64.587  1.00  0.00    -0.463 C  
HETATM   11  C   UNL     1      -9.232  15.117  69.566  1.00  0.00    -0.135 C  
HETATM   12  O   UNL     1      -7.974  14.564  69.240  1.00  0.00    -0.099 OA 
HETATM   13  O   UNL     1     -12.068  12.346  65.900  1.00  0.00    -0.580 OA 
HETATM   14  O   UNL     1     -13.330  11.877  64.049  1.00  0.00    -0.646 OA 
HETATM   15  C   UNL     1      -8.077  15.748  68.458  1.00  0.00    -0.153 C  
HETATM   16  C   UNL     1      -8.677  15.810  67.057  1.00  0.00    -0.251 C  
HETATM   17  C   UNL     1      -9.291  17.259  67.008  1.00  0.00    -0.257 C  
HETATM   18  C   UNL     1      -5.793  16.187  67.450  1.00  0.00    -0.166 C  
HETATM   19  C   UNL     1      -8.147  18.263  66.947  1.00  0.00    -0.259 C  
HETATM   20  C   UNL     1      -6.832  16.649  68.534  1.00  0.00    -0.157 C  
HETATM   21  C   UNL     1      -7.237  18.096  68.159  1.00  0.00    -0.247 C  
HETATM   22  C   UNL     1      -6.127  16.565  69.902  1.00  0.00    -0.188 C  
HETATM   23  C   UNL     1      -6.859  19.168  68.866  1.00  0.00    -0.357 C  
HETATM   24  C   UNL     1      -5.175  17.732  70.135  1.00  0.00    -0.224 C  
HETATM   25  C   UNL     1      -5.910  19.035  69.989  1.00  0.00    -0.248 C  
HETATM   26  O   UNL     1      -5.681  20.012  70.709  1.00  0.00    -0.271 OA 
ENDROOT
BRANCH  17  27
HETATM   27  C   UNL     1     -10.342  17.572  65.960  1.00  0.00    -0.306 C  
HETATM   28  O   UNL     1     -10.564  16.934  64.946  1.00  0.00    -0.702 OA 
BRANCH  27  29
HETATM   29  O   UNL     1     -11.022  18.690  66.358  1.00  0.00    -0.138 OA 
HETATM   30  C   UNL     1     -10.897  19.850  65.532  1.00  0.00    -0.127 C  
ENDBRANCH  27  29
ENDBRANCH  17  27
TORSDOF 2
ENDMDL
MODEL        4
REMARK 921   NORMALIZED FREE ENERGY PREDICTED BY IDOCK:   -6.83 KCAL/MOL
REMARK 922        TOTAL FREE ENERGY PREDICTED BY IDOCK:   -8.02 KCAL/MOL
REMARK 923 INTER-LIGAND FREE ENERGY PREDICTED BY IDOCK:   -7.73 KCAL/MOL
REMARK 924 INTRA-LIGAND FREE ENERGY PREDICTED BY IDOCK:   -0.29 KCAL/MOL
REMARK 927      BINDING AFFINITY PREDICTED BY RF-SCORE:    0.00 PKD
ROOT
HETATM    1  C   UNL     1     -10.099   8.608  70.049  1.00  0.00    -0.195 C  
HETATM    2  C   UNL     1      -9.678   9.399  71.405  1.00  0.00    -0.126 C  
HETATM    3  C   UNL     1      -9.284   8.322  72.399  1.00  0.00    -0.326 C  
HETATM    4  C   UNL     1      -9.552   7.116  71.537  1.00  0.00    -0.157 C  
HETATM    5  C   UNL     1     -10.875   7.521  70.723  1.00  0.00    -0.253 C  
HETATM    6  C   UNL     1      -8.269   6.970  70.607  1.00  0.00    -0.119 C  
HETATM    7  C   UNL     1     -12.241   8.531  71.086  1.00  0.00    -0.260 C  
HETATM    8  C   UNL     1     -11.378   6.310  69.914  1.00  0.00    -0.504 C  
HETATM    9  C   UNL     1      -7.881   5.547  70.646  1.00  0.00    -0.095 C  
HETATM   10  C   UNL     1      -8.571   5.066  71.868  1.00  0.00    -0.129 C  
HETATM   11  C   UNL     1     -12.370   9.987  70.100  1.00  0.00    -0.000 C  
HETATM   12  O   UNL     1     -11.482  11.010  70.501  1.00  0.00    -0.294 OA 
HETATM   13  O   UNL     1      -9.585   5.899  72.265  1.00  0.00    -0.151 OA 
HETATM   14  O   UNL     1      -8.304   4.010  72.437  1.00  0.00    -0.095 OA 
HETATM   15  C   UNL     1     -11.059  10.637  69.196  1.00  0.00    -0.255 C  
HETATM   16  C   UNL     1     -10.039   9.543  68.896  1.00  0.00    -0.199 C  
HETATM   17  C   UNL     1     -10.525   8.987  67.505  1.00  0.00    -0.338 C  
HETATM   18  C   UNL     1      -9.366  12.362  68.430  1.00  0.00    -0.158 C  
HETATM   19  C   UNL     1     -10.237  10.040  66.442  1.00  0.00    -0.290 C  
HETATM   20  C   UNL     1     -10.835  11.833  68.253  1.00  0.00    -0.259 C  
HETATM   21  C   UNL     1     -10.947  11.344  66.788  1.00  0.00    -0.347 C  
HETATM   22  C   UNL     1     -11.781  13.010  68.561  1.00  0.00    -0.377 C  
HETATM   23  C   UNL     1     -11.659  11.988  65.854  1.00  0.00    -0.364 C  
HETATM   24  C   UNL     1     -11.865  14.002  67.407  1.00  0.00    -0.445 C  
HETATM   25  C   UNL     1     -12.281  13.294  66.148  1.00  0.00    -0.405 C  
HETATM   26  O   UNL     1     -13.042  13.804  65.318  1.00  0.00    -0.756 OA 
ENDROOT
BRANCH  17  27
HETATM   27  C   UNL     1     -10.046   7.620  67.057  1.00  0.00    -0.268 C  
HETATM   28  O   UNL     1      -8.887   7.251  66.974  1.00  0.00    -0.123 OA 
BRANCH  27  29
HETATM   29  O   UNL     1     -11.144   6.852  66.782  1.00  0.00    -0.321 OA 
HETATM   30  C   UNL     1     -10.902   5.509  66.358  1.00  0.00    -0.122 C  
ENDBRANCH  27  29
ENDBRANCH  17  27
TORSDOF 2
ENDMDL
MODEL        5
REMARK 921   NORMALIZED FREE ENERGY PREDICTED BY IDOCK:   -6.73 KCAL/MOL
REMARK 922        TOTAL FREE ENERGY PREDICTED BY IDOCK:   -7.91 KCAL/MOL
REMARK 923 INTER-LIGAND FREE ENERGY PREDICTED BY IDOCK:   -7.52 KCAL/MOL
REMARK 924 INTRA-LIGAND FREE ENERGY PREDICTED BY IDOCK:   -0.38 KCAL/MOL
REMARK 927      BINDING AFFINITY PREDICTED BY RF-SCORE:    0.00 PKD
ROOT
HETATM    1  C   UNL     1      -9.181  11.378  67.454  1.00  0.00    -0.164 C  
HETATM    2  C   UNL     1      -8.118  11.257  66.231  1.00  0.00    -0.108 C  
HETATM    3  C   UNL     1      -7.756   9.786  66.150  1.00  0.00    -0.104 C  
HETATM    4  C   UNL     1      -8.589   9.288  67.302  1.00  0.00    -0.125 C  
HETATM    5  C   UNL     1      -8.464  10.460  68.392  1.00  0.00    -0.124 C  
HETATM    6  C   UNL     1     -10.063   9.136  66.720  1.00  0.00    -0.341 C  
HETATM    7  C   UNL     1      -7.215  11.605  68.778  1.00  0.00    -0.116 C  
HETATM    8  C   UNL     1      -9.131  10.019  69.709  1.00  0.00    -0.219 C  
HETATM    9  C   UNL     1     -10.556   7.818  67.165  1.00  0.00    -0.401 C  
HETATM   10  C   UNL     1      -9.300   7.115  67.522  1.00  0.00    -0.124 C  
HETATM   11  C   UNL     1      -7.626  13.289  68.450  1.00  0.00    -0.137 C  
HETATM   12  O   UNL     1      -7.538  13.625  67.081  1.00  0.00    -0.104 OA 
HETATM   13  O   UNL     1      -8.251   7.975  67.719  1.00  0.00    -0.125 OA 
HETATM   14  O   UNL     1      -9.214   5.899  67.677  1.00  0.00    -0.107 OA 
HETATM   15  C   UNL     1      -8.914  13.764  67.414  1.00  0.00    -0.224 C  
HETATM   16  C   UNL     1      -9.945  12.645  67.316  1.00  0.00    -0.212 C  
HETATM   17  C   UNL     1     -10.950  12.997  68.477  1.00  0.00    -0.290 C  
HETATM   18  C   UNL     1     -10.049  14.918  65.463  1.00  0.00    -0.400 C  
HETATM   19  C   UNL     1     -11.736  14.238  68.070  1.00  0.00    -0.386 C  
HETATM   20  C   UNL     1      -9.534  15.090  66.938  1.00  0.00    -0.252 C  
HETATM   21  C   UNL     1     -10.783  15.397  67.800  1.00  0.00    -0.289 C  
HETATM   22  C   UNL     1      -8.516  16.247  66.931  1.00  0.00    -0.257 C  
HETATM   23  C   UNL     1     -11.024  16.601  68.335  1.00  0.00    -0.345 C  
HETATM   24  C   UNL     1      -9.193  17.611  66.874  1.00  0.00    -0.270 C  
HETATM   25  C   UNL     1     -10.161  17.755  68.015  1.00  0.00    -0.355 C  
HETATM   26  O   UNL     1     -10.321  18.819  68.622  1.00  0.00    -0.351 OA 
ENDROOT
BRANCH  17  27
HETATM   27  C   UNL     1     -11.878  11.914  68.993  1.00  0.00    -0.308 C  
HETATM   28  O   UNL     1     -12.385  11.022  68.336  1.00  0.00    -0.528 OA 
BRANCH  27  29
HETATM   29  O   UNL     1     -12.034  12.094  70.341  1.00  0.00    -0.343 OA 
HETATM   30  C   UNL     1     -12.599  11.006  71.075  1.00  0.00    -0.411 C  
ENDBRANCH  27  29
ENDBRANCH  17  27
TORSDOF 2
ENDMDL
MODEL        6
REMARK 921   NORMALIZED FREE ENERGY PREDICTED BY IDOCK:   -6.62 KCAL/MOL
REMARK 922        TOTAL FREE ENERGY PREDICTED BY IDOCK:   -7.79 KCAL/MOL
REMARK 923 INTER-LIGAND FREE ENERGY PREDICTED BY IDOCK:   -7.41 KCAL/MOL
REMARK 924 INTRA-LIGAND FREE ENERGY PREDICTED BY IDOCK:   -0.38 KCAL/MOL
REMARK 927      BINDING AFFINITY PREDICTED BY RF-SCORE:    0.00 PKD
ROOT
HETATM    1  C   UNL     1      -9.828  13.151  67.375  1.00  0.00    -0.226 C  
HETATM    2  C   UNL     1     -11.429  13.249  67.634  1.00  0.00    -0.360 C  
HETATM    3  C   UNL     1     -11.903  11.816  67.795  1.00  0.00    -0.266 C  
HETATM    4  C   UNL     1     -10.584  11.120  67.582  1.00  0.00    -0.211 C  
HETATM    5  C   UNL     1      -9.880  11.992  66.433  1.00  0.00    -0.238 C  
HETATM    6  C   UNL     1      -9.831  11.211  68.981  1.00  0.00    -0.132 C  
HETATM    7  C   UNL     1     -10.485  12.925  65.099  1.00  0.00    -0.326 C  
HETATM    8  C   UNL     1      -8.579  11.300  65.980  1.00  0.00    -0.130 C  
HETATM    9  C   UNL     1      -9.299   9.863  69.260  1.00  0.00    -0.215 C  
HETATM   10  C   UNL     1     -10.112   9.011  68.358  1.00  0.00    -0.191 C  
HETATM   11  C   UNL     1     -10.211  14.663  65.223  1.00  0.00    -0.391 C  
HETATM   12  O   UNL     1     -11.108  15.304  66.106  1.00  0.00    -0.336 OA 
HETATM   13  O   UNL     1     -10.711   9.726  67.354  1.00  0.00    -0.268 OA 
HETATM   14  O   UNL     1     -10.199   7.789  68.461  1.00  0.00    -0.195 OA 
HETATM   15  C   UNL     1      -9.825  15.456  66.701  1.00  0.00    -0.255 C  
HETATM   16  C   UNL     1      -9.202  14.465  67.678  1.00  0.00    -0.196 C  
HETATM   17  C   UNL     1      -7.662  14.603  67.377  1.00  0.00    -0.226 C  
HETATM   18  C   UNL     1     -10.067  17.112  68.604  1.00  0.00    -0.329 C  
HETATM   19  C   UNL     1      -7.192  15.955  67.897  1.00  0.00    -0.151 C  
HETATM   20  C   UNL     1      -9.517  16.896  67.149  1.00  0.00    -0.241 C  
HETATM   21  C   UNL     1      -7.982  17.077  67.232  1.00  0.00    -0.197 C  
HETATM   22  C   UNL     1     -10.192  17.949  66.248  1.00  0.00    -0.363 C  
HETATM   23  C   UNL     1      -7.341  18.135  66.720  1.00  0.00    -0.236 C  
HETATM   24  C   UNL     1      -9.573  19.332  66.413  1.00  0.00    -0.425 C  
HETATM   25  C   UNL     1      -8.094  19.270  66.150  1.00  0.00    -0.284 C  
HETATM   26  O   UNL     1      -7.484  20.170  65.564  1.00  0.00    -0.314 OA 
ENDROOT
BRANCH  17  27
HETATM   27  C   UNL     1      -6.728  13.495  67.825  1.00  0.00    -0.168 C  
HETATM   28  O   UNL     1      -5.881  12.944  67.145  1.00  0.00    -0.339 OA 
BRANCH  27  29
HETATM   29  O   UNL     1      -6.982  13.232  69.144  1.00  0.00    -0.098 OA 
HETATM   30  C   UNL     1      -6.325  12.096  69.712  1.00  0.00    -0.102 C  
ENDBRANCH  27  29
ENDBRANCH  17  27
TORSDOF 2
ENDMDL
MODEL        7
REMARK 921   NORMALIZED FREE ENERGY PREDICTED BY IDOCK:   -6.50 KCAL/MOL
REMARK 922        TOTAL FREE ENERGY PREDICTED BY IDOCK:   -7.65 KCAL/MOL
REMARK 923 INTER-LIGAND FREE ENERGY PREDICTED BY IDOCK:   -7.23 KCAL/MOL
REMARK 924 INTRA-LIGAND FREE ENERGY PREDICTED BY IDOCK:   -0.42 KCAL/MOL
REMARK 927      BINDING AFFINITY PREDICTED BY RF-SCORE:    0.00 PKD
ROOT
HETATM    1  C   UNL     1      -8.901   9.974  66.584  1.00  0.00    -0.145 C  
HETATM    2  C   UNL     1     -10.150   8.958  66.367  1.00  0.00    -0.333 C  
HETATM    3  C   UNL     1      -9.606   7.574  66.669  1.00  0.00    -0.263 C  
HETATM    4  C   UNL     1      -8.180   7.957  66.970  1.00  0.00    -0.117 C  
HETATM    5  C   UNL     1      -7.872   9.124  65.911  1.00  0.00    -0.105 C  
HETATM    6  C   UNL     1      -8.191   8.471  68.476  1.00  0.00    -0.123 C  
HETATM    7  C   UNL     1      -8.442   9.463  64.305  1.00  0.00    -0.198 C  
HETATM    8  C   UNL     1      -6.381   9.507  65.980  1.00  0.00    -0.069 C  
HETATM    9  C   UNL     1      -7.051   7.821  69.150  1.00  0.00    -0.073 C  
HETATM   10  C   UNL     1      -6.756   6.683  68.245  1.00  0.00    -0.068 C  
HETATM   11  C   UNL     1      -9.416  10.925  64.157  1.00  0.00    -0.257 C  
HETATM   12  O   UNL     1     -10.742  10.757  64.614  1.00  0.00    -0.284 OA 
HETATM   13  O   UNL     1      -7.291   6.851  66.994  1.00  0.00    -0.082 OA 
HETATM   14  O   UNL     1      -6.063   5.718  68.558  1.00  0.00    -0.022 OA 
HETATM   15  C   UNL     1     -10.159  11.707  65.497  1.00  0.00    -0.246 C  
HETATM   16  C   UNL     1      -9.420  11.353  66.783  1.00  0.00    -0.197 C  
HETATM   17  C   UNL     1      -8.351  12.503  66.898  1.00  0.00    -0.097 C  
HETATM   18  C   UNL     1     -12.032  12.686  66.896  1.00  0.00    -0.345 C  
HETATM   19  C   UNL     1      -9.075  13.797  67.251  1.00  0.00    -0.232 C  
HETATM   20  C   UNL     1     -11.026  12.959  65.720  1.00  0.00    -0.303 C  
HETATM   21  C   UNL     1     -10.117  14.122  66.187  1.00  0.00    -0.324 C  
HETATM   22  C   UNL     1     -11.867  13.321  64.480  1.00  0.00    -0.433 C  
HETATM   23  C   UNL     1     -10.187  15.357  65.673  1.00  0.00    -0.403 C  
HETATM   24  C   UNL     1     -12.389  14.752  64.534  1.00  0.00    -0.384 C  
HETATM   25  C   UNL     1     -11.245  15.712  64.706  1.00  0.00    -0.382 C  
HETATM   26  O   UNL     1     -11.210  16.813  64.146  1.00  0.00    -1.155 OA 
ENDROOT
BRANCH  17  27
HETATM   27  C   UNL     1      -7.146  12.295  67.795  1.00  0.00    -0.114 C  
HETATM   28  O   UNL     1      -7.140  11.739  68.879  1.00  0.00    -0.104 OA 
BRANCH  27  29
HETATM   29  O   UNL     1      -6.050  12.820  67.166  1.00  0.00    -0.289 OA 
HETATM   30  C   UNL     1      -5.297  13.795  67.892  1.00  0.00    -0.086 C  
ENDBRANCH  27  29
ENDBRANCH  17  27
TORSDOF 2
ENDMDL
MODEL        8
REMARK 921   NORMALIZED FREE ENERGY PREDICTED BY IDOCK:   -6.45 KCAL/MOL
REMARK 922        TOTAL FREE ENERGY PREDICTED BY IDOCK:   -7.59 KCAL/MOL
REMARK 923 INTER-LIGAND FREE ENERGY PREDICTED BY IDOCK:   -7.20 KCAL/MOL
REMARK 924 INTRA-LIGAND FREE ENERGY PREDICTED BY IDOCK:   -0.40 KCAL/MOL
REMARK 927      BINDING AFFINITY PREDICTED BY RF-SCORE:    0.00 PKD
ROOT
HETATM    1  C   UNL     1      -9.926  12.851  67.520  1.00  0.00    -0.215 C  
HETATM    2  C   UNL     1     -11.519  12.982  67.815  1.00  0.00    -0.359 C  
HETATM    3  C   UNL     1     -12.010  11.562  68.028  1.00  0.00    -0.174 C  
HETATM    4  C   UNL     1     -10.708  10.839  67.803  1.00  0.00    -0.251 C  
HETATM    5  C   UNL     1     -10.019  11.667  66.612  1.00  0.00    -0.230 C  
HETATM    6  C   UNL     1      -9.918  10.957  69.180  1.00  0.00    -0.181 C  
HETATM    7  C   UNL     1     -10.644  12.572  65.268  1.00  0.00    -0.319 C  
HETATM    8  C   UNL     1      -8.741  10.942  66.148  1.00  0.00    -0.189 C  
HETATM    9  C   UNL     1      -9.401   9.609  69.484  1.00  0.00    -0.211 C  
HETATM   10  C   UNL     1     -10.249   8.745  68.626  1.00  0.00    -0.194 C  
HETATM   11  C   UNL     1     -10.339  14.308  65.337  1.00  0.00    -0.370 C  
HETATM   12  O   UNL     1     -11.204  14.989  66.223  1.00  0.00    -0.344 OA 
HETATM   13  O   UNL     1     -10.862   9.442  67.617  1.00  0.00    -0.267 OA 
HETATM   14  O   UNL     1     -10.353   7.529  68.766  1.00  0.00    -0.194 OA 
HETATM   15  C   UNL     1      -9.904  15.136  66.781  1.00  0.00    -0.241 C  
HETATM   16  C   UNL     1      -9.272  14.163  67.770  1.00  0.00    -0.193 C  
HETATM   17  C   UNL     1      -7.739  14.267  67.427  1.00  0.00    -0.194 C  
HETATM   18  C   UNL     1     -10.073  16.848  68.642  1.00  0.00    -0.291 C  
HETATM   19  C   UNL     1      -7.234  15.626  67.898  1.00  0.00    -0.152 C  
HETATM   20  C   UNL     1      -9.563  16.583  67.180  1.00  0.00    -0.243 C  
HETATM   21  C   UNL     1      -8.023  16.741  67.221  1.00  0.00    -0.197 C  
HETATM   22  C   UNL     1     -10.244  17.621  66.267  1.00  0.00    -0.362 C  
HETATM   23  C   UNL     1      -7.379  17.774  66.663  1.00  0.00    -0.262 C  
HETATM   24  C   UNL     1      -9.600  18.998  66.377  1.00  0.00    -0.386 C  
HETATM   25  C   UNL     1      -8.129  18.904  66.080  1.00  0.00    -0.222 C  
HETATM   26  O   UNL     1      -7.520  19.778  65.454  1.00  0.00    -0.391 OA 
ENDROOT
BRANCH  17  27
HETATM   27  C   UNL     1      -6.811  13.158  67.884  1.00  0.00    -0.135 C  
HETATM   28  O   UNL     1      -6.863  12.563  68.946  1.00  0.00    -0.092 OA 
BRANCH  27  29
HETATM   29  O   UNL     1      -5.909  12.917  66.883  1.00  0.00    -0.216 OA 
HETATM   30  C   UNL     1      -5.214  11.669  66.929  1.00  0.00    -0.119 C  
ENDBRANCH  27  29
ENDBRANCH  17  27
TORSDOF 2
ENDMDL
MODEL        9
REMARK 921   NORMALIZED FREE ENERGY PREDICTED BY IDOCK:   -6.43 KCAL/MOL
REMARK 922        TOTAL FREE ENERGY PREDICTED BY IDOCK:   -7.58 KCAL/MOL
REMARK 923 INTER-LIGAND FREE ENERGY PREDICTED BY IDOCK:   -7.19 KCAL/MOL
REMARK 924 INTRA-LIGAND FREE ENERGY PREDICTED BY IDOCK:   -0.38 KCAL/MOL
REMARK 927      BINDING AFFINITY PREDICTED BY RF-SCORE:    0.00 PKD
ROOT
HETATM    1  C   UNL     1      -9.758  14.518  66.818  1.00  0.00    -0.269 C  
HETATM    2  C   UNL     1     -10.646  14.544  65.457  1.00  0.00    -0.364 C  
HETATM    3  C   UNL     1     -10.906  16.011  65.169  1.00  0.00    -0.411 C  
HETATM    4  C   UNL     1     -10.200  16.601  66.362  1.00  0.00    -0.315 C  
HETATM    5  C   UNL     1     -10.534  15.569  67.546  1.00  0.00    -0.282 C  
HETATM    6  C   UNL     1      -8.657  16.619  65.971  1.00  0.00    -0.229 C  
HETATM    7  C   UNL     1     -11.887  14.533  67.882  1.00  0.00    -0.370 C  
HETATM    8  C   UNL     1     -10.017  16.129  68.885  1.00  0.00    -0.233 C  
HETATM    9  C   UNL     1      -8.148  17.957  66.333  1.00  0.00    -0.296 C  
HETATM   10  C   UNL     1      -9.396  18.751  66.438  1.00  0.00    -0.312 C  
HETATM   11  C   UNL     1     -11.538  12.806  67.797  1.00  0.00    -0.353 C  
HETATM   12  O   UNL     1     -11.469  12.318  66.473  1.00  0.00    -0.342 OA 
HETATM   13  O   UNL     1     -10.511  17.967  66.585  1.00  0.00    -0.354 OA 
HETATM   14  O   UNL     1      -9.430  19.979  66.448  1.00  0.00    -0.388 OA 
HETATM   15  C   UNL     1     -10.158  12.158  67.001  1.00  0.00    -0.204 C  
HETATM   16  C   UNL     1      -9.058  13.211  66.922  1.00  0.00    -0.231 C  
HETATM   17  C   UNL     1      -8.234  12.951  68.239  1.00  0.00    -0.153 C  
HETATM   18  C   UNL     1      -8.852  10.737  65.357  1.00  0.00    -0.202 C  
HETATM   19  C   UNL     1      -7.477  11.638  68.078  1.00  0.00    -0.100 C  
HETATM   20  C   UNL     1      -9.561  10.760  66.759  1.00  0.00    -0.201 C  
HETATM   21  C   UNL     1      -8.454  10.499  67.810  1.00  0.00    -0.114 C  
HETATM   22  C   UNL     1     -10.637   9.656  66.741  1.00  0.00    -0.209 C  
HETATM   23  C   UNL     1      -8.356   9.355  68.500  1.00  0.00    -0.118 C  
HETATM   24  C   UNL     1     -10.041   8.265  66.924  1.00  0.00    -0.366 C  
HETATM   25  C   UNL     1      -9.237   8.212  68.194  1.00  0.00    -0.133 C  
HETATM   26  O   UNL     1      -9.220   7.218  68.929  1.00  0.00    -0.142 OA 
ENDROOT
BRANCH  17  27
HETATM   27  C   UNL     1      -7.318  14.044  68.755  1.00  0.00    -0.127 C  
HETATM   28  O   UNL     1      -7.280  14.478  69.893  1.00  0.00    -0.085 OA 
BRANCH  27  29
HETATM   29  O   UNL     1      -6.515  14.450  67.724  1.00  0.00    -0.154 OA 
HETATM   30  C   UNL     1      -5.711  15.609  67.952  1.00  0.00    -0.139 C  
ENDBRANCH  27  29
ENDBRANCH  17  27
TORSDOF 2
ENDMDL
MODEL       10
REMARK 921   NORMALIZED FREE ENERGY PREDICTED BY IDOCK:   -6.41 KCAL/MOL
REMARK 922        TOTAL FREE ENERGY PREDICTED BY IDOCK:   -7.55 KCAL/MOL
REMARK 923 INTER-LIGAND FREE ENERGY PREDICTED BY IDOCK:   -7.68 KCAL/MOL
REMARK 924 INTRA-LIGAND FREE ENERGY PREDICTED BY IDOCK:    0.14 KCAL/MOL
REMARK 927      BINDING AFFINITY PREDICTED BY RF-SCORE:    0.00 PKD
ROOT
HETATM    1  C   UNL     1      -9.939   9.468  67.691  1.00  0.00    -0.226 C  
HETATM    2  C   UNL     1      -9.773   9.086  66.121  1.00  0.00    -0.354 C  
HETATM    3  C   UNL     1      -9.411   7.612  66.097  1.00  0.00    -0.141 C  
HETATM    4  C   UNL     1      -9.383   7.366  67.583  1.00  0.00    -0.133 C  
HETATM    5  C   UNL     1      -8.743   8.713  68.176  1.00  0.00    -0.142 C  
HETATM    6  C   UNL     1     -10.905   7.163  68.004  1.00  0.00    -0.193 C  
HETATM    7  C   UNL     1      -7.595   9.863  67.561  1.00  0.00    -0.091 C  
HETATM    8  C   UNL     1      -8.489   8.547  69.686  1.00  0.00    -0.130 C  
HETATM    9  C   UNL     1     -10.945   5.969  68.870  1.00  0.00    -0.395 C  
HETATM   10  C   UNL     1      -9.664   5.298  68.541  1.00  0.00    -0.143 C  
HETATM   11  C   UNL     1      -8.249  11.472  67.252  1.00  0.00    -0.155 C  
HETATM   12  O   UNL     1      -8.996  11.546  66.054  1.00  0.00    -0.208 OA 
HETATM   13  O   UNL     1      -8.765   6.141  67.941  1.00  0.00    -0.114 OA 
HETATM   14  O   UNL     1      -9.409   4.129  68.822  1.00  0.00    -0.135 OA 
HETATM   15  C   UNL     1      -9.932  11.795  67.096  1.00  0.00    -0.203 C  
HETATM   16  C   UNL     1     -10.739  10.715  67.810  1.00  0.00    -0.302 C  
HETATM   17  C   UNL     1     -10.911  11.311  69.257  1.00  0.00    -0.297 C  
HETATM   18  C   UNL     1     -12.071  12.611  66.009  1.00  0.00    -0.429 C  
HETATM   19  C   UNL     1     -11.882  12.484  69.179  1.00  0.00    -0.348 C  
HETATM   20  C   UNL     1     -10.814  13.032  66.853  1.00  0.00    -0.282 C  
HETATM   21  C   UNL     1     -11.354  13.539  68.213  1.00  0.00    -0.328 C  
HETATM   22  C   UNL     1     -10.081  14.130  66.057  1.00  0.00    -0.330 C  
HETATM   23  C   UNL     1     -11.335  14.828  68.573  1.00  0.00    -0.309 C  
HETATM   24  C   UNL     1     -10.770  15.485  66.173  1.00  0.00    -0.315 C  
HETATM   25  C   UNL     1     -10.909  15.871  67.619  1.00  0.00    -0.312 C  
HETATM   26  O   UNL     1     -10.771  17.034  68.013  1.00  0.00    -0.357 OA 
ENDROOT
BRANCH  17  27
HETATM   27  C   UNL     1     -11.282  10.377  70.393  1.00  0.00    -0.321 C  
HETATM   28  O   UNL     1     -10.509   9.830  71.160  1.00  0.00    -0.274 OA 
BRANCH  27  29
HETATM   29  O   UNL     1     -12.645  10.268  70.428  1.00  0.00    -0.278 OA 
HETATM   30  C   UNL     1     -13.253  10.200  71.720  1.00  0.00    -0.438 C  
ENDBRANCH  27  29
ENDBRANCH  17  27
TORSDOF 2
ENDMDL
MODEL       11
REMARK 921   NORMALIZED FREE ENERGY PREDICTED BY IDOCK:   -6.39 KCAL/MOL
REMARK 922        TOTAL FREE ENERGY PREDICTED BY IDOCK:   -7.52 KCAL/MOL
REMARK 923 INTER-LIGAND FREE ENERGY PREDICTED BY IDOCK:   -7.11 KCAL/MOL
REMARK 924 INTRA-LIGAND FREE ENERGY PREDICTED BY IDOCK:   -0.42 KCAL/MOL
REMARK 927      BINDING AFFINITY PREDICTED BY RF-SCORE:    0.00 PKD
ROOT
HETATM    1  C   UNL     1      -9.960  13.556  67.127  1.00  0.00    -0.246 C  
HETATM    2  C   UNL     1     -11.266  13.598  66.161  1.00  0.00    -0.309 C  
HETATM    3  C   UNL     1     -11.624  15.067  66.024  1.00  0.00    -0.158 C  
HETATM    4  C   UNL     1     -10.552  15.640  66.914  1.00  0.00    -0.311 C  
HETATM    5  C   UNL     1     -10.445  14.574  68.109  1.00  0.00    -0.239 C  
HETATM    6  C   UNL     1      -9.242  15.697  66.012  1.00  0.00    -0.374 C  
HETATM    7  C   UNL     1     -11.587  13.504  68.865  1.00  0.00    -0.364 C  
HETATM    8  C   UNL     1      -9.499  15.111  69.201  1.00  0.00    -0.221 C  
HETATM    9  C   UNL     1      -8.651  17.034  66.214  1.00  0.00    -0.298 C  
HETATM   10  C   UNL     1      -9.792  17.803  66.769  1.00  0.00    -0.320 C  
HETATM   11  C   UNL     1     -11.274  11.787  68.613  1.00  0.00    -0.257 C  
HETATM   12  O   UNL     1     -11.664  11.333  67.333  1.00  0.00    -0.580 OA 
HETATM   13  O   UNL     1     -10.779  16.994  67.271  1.00  0.00    -0.299 OA 
HETATM   14  O   UNL     1      -9.831  19.029  66.826  1.00  0.00    -0.310 OA 
HETATM   15  C   UNL     1     -10.250  11.184  67.368  1.00  0.00    -0.190 C  
HETATM   16  C   UNL     1      -9.256  12.260  66.943  1.00  0.00    -0.209 C  
HETATM   17  C   UNL     1      -8.023  11.983  67.883  1.00  0.00    -0.147 C  
HETATM   18  C   UNL     1      -9.584   9.829  65.332  1.00  0.00    -0.359 C  
HETATM   19  C   UNL     1      -7.358  10.689  67.431  1.00  0.00    -0.093 C  
HETATM   20  C   UNL     1      -9.762   9.804  66.893  1.00  0.00    -0.243 C  
HETATM   21  C   UNL     1      -8.356   9.538  67.486  1.00  0.00    -0.125 C  
HETATM   22  C   UNL     1     -10.767   8.681  67.218  1.00  0.00    -0.209 C  
HETATM   23  C   UNL     1      -8.014   8.381  68.065  1.00  0.00    -0.119 C  
HETATM   24  C   UNL     1     -10.131   7.298  67.141  1.00  0.00    -0.306 C  
HETATM   25  C   UNL     1      -8.936   7.228  68.051  1.00  0.00    -0.131 C  
HETATM   26  O   UNL     1      -8.655   6.218  68.704  1.00  0.00    -0.121 OA 
ENDROOT
BRANCH  17  27
HETATM   27  C   UNL     1      -6.995  13.080  68.081  1.00  0.00    -0.105 C  
HETATM   28  O   UNL     1      -6.546  13.815  67.219  1.00  0.00    -0.259 OA 
BRANCH  27  29
HETATM   29  O   UNL     1      -6.668  13.124  69.409  1.00  0.00    -0.096 OA 
HETATM   30  C   UNL     1      -5.669  14.070  69.796  1.00  0.00    -0.108 C  
ENDBRANCH  27  29
ENDBRANCH  17  27
TORSDOF 2
ENDMDL
MODEL       12
REMARK 921   NORMALIZED FREE ENERGY PREDICTED BY IDOCK:   -6.33 KCAL/MOL
REMARK 922        TOTAL FREE ENERGY PREDICTED BY IDOCK:   -7.46 KCAL/MOL
REMARK 923 INTER-LIGAND FREE ENERGY PREDICTED BY IDOCK:   -7.04 KCAL/MOL
REMARK 924 INTRA-LIGAND FREE ENERGY PREDICTED BY IDOCK:   -0.42 KCAL/MOL
REMARK 927      BINDING AFFINITY PREDICTED BY RF-SCORE:    0.00 PKD
ROOT
HETATM    1  C   UNL     1      -9.815   9.766  67.879  1.00  0.00    -0.176 C  
HETATM    2  C   UNL     1      -9.506  10.069  66.313  1.00  0.00    -0.241 C  
HETATM    3  C   UNL     1      -8.997   8.759  65.739  1.00  0.00    -0.253 C  
HETATM    4  C   UNL     1      -9.045   7.931  66.997  1.00  0.00    -0.137 C  
HETATM    5  C   UNL     1      -8.585   8.958  68.141  1.00  0.00    -0.130 C  
HETATM    6  C   UNL     1     -10.563   7.477  67.143  1.00  0.00    -0.415 C  
HETATM    7  C   UNL     1      -7.520  10.331  68.159  1.00  0.00    -0.086 C  
HETATM    8  C   UNL     1      -8.417   8.208  69.476  1.00  0.00    -0.127 C  
HETATM    9  C   UNL     1     -10.541   6.033  67.450  1.00  0.00    -0.355 C  
HETATM   10  C   UNL     1      -9.179   5.639  67.013  1.00  0.00    -0.117 C  
HETATM   11  C   UNL     1      -8.310  11.880  68.454  1.00  0.00    -0.157 C  
HETATM   12  O   UNL     1      -8.979  12.387  67.317  1.00  0.00    -0.175 OA 
HETATM   13  O   UNL     1      -8.331   6.710  66.896  1.00  0.00    -0.112 OA 
HETATM   14  O   UNL     1      -8.828   4.476  66.827  1.00  0.00    -0.111 OA 
HETATM   15  C   UNL     1     -10.003  12.128  68.270  1.00  0.00    -0.212 C  
HETATM   16  C   UNL     1     -10.743  10.802  68.405  1.00  0.00    -0.255 C  
HETATM   17  C   UNL     1     -11.072  10.744  69.944  1.00  0.00    -0.339 C  
HETATM   18  C   UNL     1     -12.136  13.176  67.387  1.00  0.00    -0.316 C  
HETATM   19  C   UNL     1     -12.148  11.781  70.243  1.00  0.00    -0.426 C  
HETATM   20  C   UNL     1     -10.987  13.297  68.453  1.00  0.00    -0.289 C  
HETATM   21  C   UNL     1     -11.665  13.169  69.839  1.00  0.00    -0.327 C  
HETATM   22  C   UNL     1     -10.317  14.669  68.243  1.00  0.00    -0.230 C  
HETATM   23  C   UNL     1     -11.800  14.198  70.685  1.00  0.00    -0.333 C  
HETATM   24  C   UNL     1     -11.145  15.811  68.819  1.00  0.00    -0.321 C  
HETATM   25  C   UNL     1     -11.418  15.565  70.277  1.00  0.00    -0.334 C  
HETATM   26  O   UNL     1     -11.426  16.472  71.115  1.00  0.00    -0.331 OA 
ENDROOT
BRANCH  17  27
HETATM   27  C   UNL     1     -11.422   9.406  70.566  1.00  0.00    -0.262 C  
HETATM   28  O   UNL     1     -12.154   8.556  70.090  1.00  0.00     0.254 OA 
BRANCH  27  29
HETATM   29  O   UNL     1     -10.752   9.300  71.755  1.00  0.00    -0.363 OA 
HETATM   30  C   UNL     1     -10.925   8.084  72.486  1.00  0.00    -0.364 C  
ENDBRANCH  27  29
ENDBRANCH  17  27
TORSDOF 2
ENDMDL
MODEL       13
REMARK 921   NORMALIZED FREE ENERGY PREDICTED BY IDOCK:   -6.31 KCAL/MOL
REMARK 922        TOTAL FREE ENERGY PREDICTED BY IDOCK:   -7.44 KCAL/MOL
REMARK 923 INTER-LIGAND FREE ENERGY PREDICTED BY IDOCK:   -7.06 KCAL/MOL
REMARK 924 INTRA-LIGAND FREE ENERGY PREDICTED BY IDOCK:   -0.38 KCAL/MOL
REMARK 927      BINDING AFFINITY PREDICTED BY RF-SCORE:    0.00 PKD
ROOT
HETATM    1  C   UNL     1     -10.066  12.867  68.033  1.00  0.00    -0.235 C  
HETATM    2  C   UNL     1     -11.658  12.773  68.347  1.00  0.00    -0.365 C  
HETATM    3  C   UNL     1     -11.997  11.295  68.289  1.00  0.00    -0.215 C  
HETATM    4  C   UNL     1     -10.632  10.767  67.932  1.00  0.00    -0.221 C  
HETATM    5  C   UNL     1     -10.055  11.871  66.918  1.00  0.00    -0.229 C  
HETATM    6  C   UNL     1      -9.832  10.706  69.306  1.00  0.00    -0.201 C  
HETATM    7  C   UNL     1     -10.796  12.942  65.769  1.00  0.00    -0.292 C  
HETATM    8  C   UNL     1      -8.720  11.383  66.325  1.00  0.00    -0.173 C  
HETATM    9  C   UNL     1      -9.173   9.386  69.350  1.00  0.00    -0.167 C  
HETATM   10  C   UNL     1      -9.945   8.615  68.345  1.00  0.00    -0.184 C  
HETATM   11  C   UNL     1     -10.669  14.656  66.163  1.00  0.00    -0.314 C  
HETATM   12  O   UNL     1     -11.582  15.065  67.162  1.00  0.00    -0.342 OA 
HETATM   13  O   UNL     1     -10.646   9.421  67.486  1.00  0.00    -0.262 OA 
HETATM   14  O   UNL     1      -9.921   7.390  68.254  1.00  0.00    -0.154 OA 
HETATM   15  C   UNL     1     -10.293  15.239  67.738  1.00  0.00    -0.244 C  
HETATM   16  C   UNL     1      -9.545  14.169  68.526  1.00  0.00    -0.214 C  
HETATM   17  C   UNL     1      -8.037  14.495  68.209  1.00  0.00    -0.140 C  
HETATM   18  C   UNL     1     -10.599  16.545  69.889  1.00  0.00    -0.215 C  
HETATM   19  C   UNL     1      -7.666  15.787  68.927  1.00  0.00    -0.186 C  
HETATM   20  C   UNL     1     -10.094  16.613  68.402  1.00  0.00    -0.268 C  
HETATM   21  C   UNL     1      -8.578  16.921  68.472  1.00  0.00    -0.251 C  
HETATM   22  C   UNL     1     -10.896  17.728  67.702  1.00  0.00    -0.234 C  
HETATM   23  C   UNL     1      -8.054  18.101  68.119  1.00  0.00    -0.289 C  
HETATM   24  C   UNL     1     -10.394  19.119  68.069  1.00  0.00    -0.483 C  
HETATM   25  C   UNL     1      -8.927  19.236  67.760  1.00  0.00    -0.307 C  
HETATM   26  O   UNL     1      -8.423  20.271  67.309  1.00  0.00    -0.331 OA 
ENDROOT
BRANCH  17  27
HETATM   27  C   UNL     1      -6.992  13.423  68.448  1.00  0.00    -0.105 C  
HETATM   28  O   UNL     1      -6.860  12.755  69.458  1.00  0.00    -0.029 OA 
BRANCH  27  29
HETATM   29  O   UNL     1      -6.228  13.313  67.318  1.00  0.00    -0.309 OA 
HETATM   30  C   UNL     1      -5.187  12.333  67.337  1.00  0.00    -0.105 C  
ENDBRANCH  27  29
ENDBRANCH  17  27
TORSDOF 2
ENDMDL
MODEL       14
REMARK 921   NORMALIZED FREE ENERGY PREDICTED BY IDOCK:   -6.16 KCAL/MOL
REMARK 922        TOTAL FREE ENERGY PREDICTED BY IDOCK:   -7.27 KCAL/MOL
REMARK 923 INTER-LIGAND FREE ENERGY PREDICTED BY IDOCK:   -6.88 KCAL/MOL
REMARK 924 INTRA-LIGAND FREE ENERGY PREDICTED BY IDOCK:   -0.39 KCAL/MOL
REMARK 927      BINDING AFFINITY PREDICTED BY RF-SCORE:    0.00 PKD
ROOT
HETATM    1  C   UNL     1      -9.938   8.514  69.662  1.00  0.00    -0.192 C  
HETATM    2  C   UNL     1      -9.305   9.435  70.841  1.00  0.00    -0.263 C  
HETATM    3  C   UNL     1      -9.198   8.528  72.053  1.00  0.00    -0.326 C  
HETATM    4  C   UNL     1      -9.787   7.280  71.449  1.00  0.00    -0.186 C  
HETATM    5  C   UNL     1     -10.965   7.835  70.510  1.00  0.00    -0.251 C  
HETATM    6  C   UNL     1      -8.601   6.610  70.626  1.00  0.00    -0.142 C  
HETATM    7  C   UNL     1     -12.010   9.221  70.596  1.00  0.00    -0.206 C  
HETATM    8  C   UNL     1     -11.782   6.656  69.948  1.00  0.00    -0.333 C  
HETATM    9  C   UNL     1      -8.603   5.176  70.976  1.00  0.00    -0.130 C  
HETATM   10  C   UNL     1      -9.381   5.162  72.239  1.00  0.00    -0.138 C  
HETATM   11  C   UNL     1     -11.761  10.418  69.326  1.00  0.00    -0.140 C  
HETATM   12  O   UNL     1     -10.629  11.234  69.546  1.00  0.00    -0.162 OA 
HETATM   13  O   UNL     1     -10.133   6.296  72.410  1.00  0.00    -0.176 OA 
HETATM   14  O   UNL     1      -9.395   4.218  73.025  1.00  0.00    -0.110 OA 
HETATM   15  C   UNL     1     -10.336  10.496  68.365  1.00  0.00    -0.176 C  
HETATM   16  C   UNL     1      -9.646   9.136  68.344  1.00  0.00    -0.162 C  
HETATM   17  C   UNL     1     -10.280   8.446  67.078  1.00  0.00    -0.377 C  
HETATM   18  C   UNL     1      -8.257  11.516  67.335  1.00  0.00    -0.149 C  
HETATM   19  C   UNL     1      -9.737   9.137  65.833  1.00  0.00    -0.336 C  
HETATM   20  C   UNL     1      -9.816  11.365  67.207  1.00  0.00    -0.209 C  
HETATM   21  C   UNL     1     -10.071  10.625  65.871  1.00  0.00    -0.321 C  
HETATM   22  C   UNL     1     -10.412  12.786  67.223  1.00  0.00    -0.238 C  
HETATM   23  C   UNL     1     -10.599  11.220  64.794  1.00  0.00    -0.376 C  
HETATM   24  C   UNL     1     -10.244  13.498  65.886  1.00  0.00    -0.306 C  
HETATM   25  C   UNL     1     -10.849  12.675  64.783  1.00  0.00    -0.302 C  
HETATM   26  O   UNL     1     -11.458  13.179  63.834  1.00  0.00    -0.396 OA 
ENDROOT
BRANCH  17  27
HETATM   27  C   UNL     1     -10.186   6.938  66.944  1.00  0.00    -0.240 C  
HETATM   28  O   UNL     1     -11.108   6.173  66.723  1.00  0.00    -0.322 OA 
BRANCH  27  29
HETATM   29  O   UNL     1      -8.874   6.578  67.091  1.00  0.00    -0.110 OA 
HETATM   30  C   UNL     1      -8.585   5.178  67.081  1.00  0.00    -0.105 C  
ENDBRANCH  27  29
ENDBRANCH  17  27
TORSDOF 2
ENDMDL
MODEL       15
REMARK 921   NORMALIZED FREE ENERGY PREDICTED BY IDOCK:   -6.15 KCAL/MOL
REMARK 922        TOTAL FREE ENERGY PREDICTED BY IDOCK:   -7.25 KCAL/MOL
REMARK 923 INTER-LIGAND FREE ENERGY PREDICTED BY IDOCK:   -6.84 KCAL/MOL
REMARK 924 INTRA-LIGAND FREE ENERGY PREDICTED BY IDOCK:   -0.41 KCAL/MOL
REMARK 927      BINDING AFFINITY PREDICTED BY RF-SCORE:    0.00 PKD
ROOT
HETATM    1  C   UNL     1     -10.473  12.863  67.686  1.00  0.00    -0.228 C  
HETATM    2  C   UNL     1     -11.893  12.643  66.928  1.00  0.00    -0.425 C  
HETATM    3  C   UNL     1     -12.267  14.001  66.364  1.00  0.00    -0.492 C  
HETATM    4  C   UNL     1     -11.090  14.788  66.879  1.00  0.00    -0.339 C  
HETATM    5  C   UNL     1     -10.827  14.163  68.334  1.00  0.00    -0.266 C  
HETATM    6  C   UNL     1      -9.908  14.495  65.853  1.00  0.00    -0.347 C  
HETATM    7  C   UNL     1     -11.859  13.444  69.532  1.00  0.00    -0.391 C  
HETATM    8  C   UNL     1      -9.748  14.986  69.065  1.00  0.00    -0.229 C  
HETATM    9  C   UNL     1      -9.298  15.800  65.532  1.00  0.00    -0.056 C  
HETATM   10  C   UNL     1     -10.358  16.753  65.942  1.00  0.00    -0.328 C  
HETATM   11  C   UNL     1     -11.579  11.727  69.819  1.00  0.00    -0.299 C  
HETATM   12  O   UNL     1     -12.132  10.899  68.816  1.00  0.00    -0.496 OA 
HETATM   13  O   UNL     1     -11.271  16.192  66.798  1.00  0.00    -0.059 OA 
HETATM   14  O   UNL     1     -10.391  17.933  65.599  1.00  0.00    -0.605 OA 
HETATM   15  C   UNL     1     -10.725  10.712  68.724  1.00  0.00    -0.215 C  
HETATM   16  C   UNL     1      -9.796  11.549  67.851  1.00  0.00    -0.192 C  
HETATM   17  C   UNL     1      -8.451  11.542  68.670  1.00  0.00    -0.115 C  
HETATM   18  C   UNL     1     -10.327   8.743  67.177  1.00  0.00    -0.364 C  
HETATM   19  C   UNL     1      -7.848  10.145  68.588  1.00  0.00    -0.097 C  
HETATM   20  C   UNL     1     -10.301   9.233  68.670  1.00  0.00    -0.229 C  
HETATM   21  C   UNL     1      -8.830   9.117  69.139  1.00  0.00    -0.146 C  
HETATM   22  C   UNL     1     -11.253   8.318  69.465  1.00  0.00     0.152 C  
HETATM   23  C   UNL     1      -8.413   8.196  70.017  1.00  0.00    -0.128 C  
HETATM   24  C   UNL     1     -10.631   6.960  69.767  1.00  0.00    -0.261 C  
HETATM   25  C   UNL     1      -9.328   7.141  70.495  1.00  0.00    -0.158 C  
HETATM   26  O   UNL     1      -8.963   6.386  71.402  1.00  0.00    -0.138 OA 
ENDROOT
BRANCH  17  27
HETATM   27  C   UNL     1      -7.408  12.601  68.371  1.00  0.00    -0.118 C  
HETATM   28  O   UNL     1      -7.083  13.004  67.268  1.00  0.00    -0.141 OA 
BRANCH  27  29
HETATM   29  O   UNL     1      -6.902  13.050  69.560  1.00  0.00    -0.033 OA 
HETATM   30  C   UNL     1      -5.815  13.976  69.490  1.00  0.00    -0.097 C  
ENDBRANCH  27  29
ENDBRANCH  17  27
TORSDOF 2
ENDMDL
MODEL       16
REMARK 921   NORMALIZED FREE ENERGY PREDICTED BY IDOCK:   -6.12 KCAL/MOL
REMARK 922        TOTAL FREE ENERGY PREDICTED BY IDOCK:   -7.23 KCAL/MOL
REMARK 923 INTER-LIGAND FREE ENERGY PREDICTED BY IDOCK:   -7.52 KCAL/MOL
REMARK 924 INTRA-LIGAND FREE ENERGY PREDICTED BY IDOCK:    0.29 KCAL/MOL
REMARK 927      BINDING AFFINITY PREDICTED BY RF-SCORE:    0.00 PKD
ROOT
HETATM    1  C   UNL     1     -10.146  12.456  68.486  1.00  0.00    -0.190 C  
HETATM    2  C   UNL     1      -8.752  11.764  68.020  1.00  0.00    -0.167 C  
HETATM    3  C   UNL     1      -8.026  12.820  67.206  1.00  0.00    -0.156 C  
HETATM    4  C   UNL     1      -9.064  13.909  67.279  1.00  0.00    -0.228 C  
HETATM    5  C   UNL     1     -10.454  13.113  67.178  1.00  0.00    -0.247 C  
HETATM    6  C   UNL     1      -8.846  14.603  68.694  1.00  0.00    -0.183 C  
HETATM    7  C   UNL     1     -10.934  11.639  66.393  1.00  0.00    -0.345 C  
HETATM    8  C   UNL     1     -11.620  14.114  67.067  1.00  0.00    -0.404 C  
HETATM    9  C   UNL     1      -8.856  16.059  68.455  1.00  0.00    -0.188 C  
HETATM   10  C   UNL     1      -8.597  16.140  66.996  1.00  0.00    -0.205 C  
HETATM   11  C   UNL     1     -11.389  10.331  67.485  1.00  0.00     0.050 C  
HETATM   12  O   UNL     1     -10.277   9.682  68.068  1.00  0.00    -0.173 OA 
HETATM   13  O   UNL     1      -8.848  14.958  66.349  1.00  0.00    -0.255 OA 
HETATM   14  O   UNL     1      -8.247  17.166  66.417  1.00  0.00    -0.251 OA 
HETATM   15  C   UNL     1     -10.962  10.298  69.152  1.00  0.00    -0.238 C  
HETATM   16  C   UNL     1     -10.697  11.714  69.651  1.00  0.00     0.100 C  
HETATM   17  C   UNL     1     -12.110  12.168  70.177  1.00  0.00    -0.368 C  
HETATM   18  C   UNL     1      -9.945   9.401  71.293  1.00  0.00    -0.274 C  
HETATM   19  C   UNL     1     -12.416  11.395  71.454  1.00  0.00    -0.370 C  
HETATM   20  C   UNL     1     -11.199   9.358  70.347  1.00  0.00    -0.309 C  
HETATM   21  C   UNL     1     -12.389   9.896  71.179  1.00  0.00    -0.466 C  
HETATM   22  C   UNL     1     -11.390   7.891  69.914  1.00  0.00     0.034 C  
HETATM   23  C   UNL     1     -13.387   9.117  71.617  1.00  0.00    -0.444 C  
HETATM   24  C   UNL     1     -12.028   7.044  71.008  1.00  0.00    -0.406 C  
HETATM   25  C   UNL     1     -13.335   7.653  71.435  1.00  0.00    -0.288 C  
HETATM   26  O   UNL     1     -14.323   6.970  71.725  1.00  0.00    -0.392 OA 
ENDROOT
BRANCH  17  27
HETATM   27  C   UNL     1     -12.380  13.648  70.362  1.00  0.00    -0.345 C  
HETATM   28  O   UNL     1     -11.611  14.560  70.113  1.00  0.00    -0.267 OA 
BRANCH  27  29
HETATM   29  O   UNL     1     -13.654  13.793  70.839  1.00  0.00    -0.059 OA 
HETATM   30  C   UNL     1     -13.917  14.952  71.634  1.00  0.00    -0.485 C  
ENDBRANCH  27  29
ENDBRANCH  17  27
TORSDOF 2
ENDMDL
MODEL       17
REMARK 921   NORMALIZED FREE ENERGY PREDICTED BY IDOCK:   -6.07 KCAL/MOL
REMARK 922        TOTAL FREE ENERGY PREDICTED BY IDOCK:   -7.17 KCAL/MOL
REMARK 923 INTER-LIGAND FREE ENERGY PREDICTED BY IDOCK:   -6.76 KCAL/MOL
REMARK 924 INTRA-LIGAND FREE ENERGY PREDICTED BY IDOCK:   -0.41 KCAL/MOL
REMARK 927      BINDING AFFINITY PREDICTED BY RF-SCORE:    0.00 PKD
ROOT
HETATM    1  C   UNL     1      -9.541   9.251  68.293  1.00  0.00    -0.160 C  
HETATM    2  C   UNL     1      -9.114   9.443  66.737  1.00  0.00    -0.168 C  
HETATM    3  C   UNL     1      -8.470   8.131  66.327  1.00  0.00    -0.136 C  
HETATM    4  C   UNL     1      -8.575   7.411  67.646  1.00  0.00    -0.119 C  
HETATM    5  C   UNL     1      -8.287   8.562  68.728  1.00  0.00    -0.122 C  
HETATM    6  C   UNL     1     -10.066   6.859  67.707  1.00  0.00    -0.199 C  
HETATM    7  C   UNL     1      -7.322  10.006  68.710  1.00  0.00    -0.078 C  
HETATM    8  C   UNL     1      -8.191   7.940  70.134  1.00  0.00    -0.125 C  
HETATM    9  C   UNL     1      -9.977   5.452  68.143  1.00  0.00    -0.207 C  
HETATM   10  C   UNL     1      -8.558   5.124  67.859  1.00  0.00    -0.103 C  
HETATM   11  C   UNL     1      -8.236  11.511  68.797  1.00  0.00    -0.082 C  
HETATM   12  O   UNL     1      -8.832  11.870  67.568  1.00  0.00    -0.158 OA 
HETATM   13  O   UNL     1      -7.776   6.241  67.716  1.00  0.00    -0.099 OA 
HETATM   14  O   UNL     1      -8.115   3.979  67.809  1.00  0.00    -0.089 OA 
HETATM   15  C   UNL     1      -9.918  11.618  68.451  1.00  0.00    -0.201 C  
HETATM   16  C   UNL     1     -10.578  10.256  68.644  1.00  0.00    -0.232 C  
HETATM   17  C   UNL     1     -11.038  10.304  70.149  1.00  0.00    -0.385 C  
HETATM   18  C   UNL     1     -12.028  12.427  67.304  1.00  0.00    -0.246 C  
HETATM   19  C   UNL     1     -12.203  11.280  70.263  1.00  0.00    -0.428 C  
HETATM   20  C   UNL     1     -10.990  12.722  68.446  1.00  0.00    -0.281 C  
HETATM   21  C   UNL     1     -11.779  12.662  69.777  1.00  0.00    -0.354 C  
HETATM   22  C   UNL     1     -10.396  14.117  68.169  1.00  0.00    -0.239 C  
HETATM   23  C   UNL     1     -12.057  13.746  70.512  1.00  0.00    -0.416 C  
HETATM   24  C   UNL     1     -11.346  15.239  68.569  1.00  0.00    -0.337 C  
HETATM   25  C   UNL     1     -11.731  15.097  70.016  1.00  0.00    -0.307 C  
HETATM   26  O   UNL     1     -11.873  16.069  70.765  1.00  0.00    -0.380 OA 
ENDROOT
BRANCH  17  27
HETATM   27  C   UNL     1     -11.353   9.001  70.859  1.00  0.00    -0.293 C  
HETATM   28  O   UNL     1     -11.908   8.031  70.375  1.00  0.00    -0.100 OA 
BRANCH  27  29
HETATM   29  O   UNL     1     -10.883   9.090  72.141  1.00  0.00    -0.337 OA 
HETATM   30  C   UNL     1     -10.776   7.867  72.874  1.00  0.00    -0.375 C  
ENDBRANCH  27  29
ENDBRANCH  17  27
TORSDOF 2
ENDMDL
MODEL       18
REMARK 921   NORMALIZED FREE ENERGY PREDICTED BY IDOCK:   -6.06 KCAL/MOL
REMARK 922        TOTAL FREE ENERGY PREDICTED BY IDOCK:   -7.16 KCAL/MOL
REMARK 923 INTER-LIGAND FREE ENERGY PREDICTED BY IDOCK:   -6.86 KCAL/MOL
REMARK 924 INTRA-LIGAND FREE ENERGY PREDICTED BY IDOCK:   -0.30 KCAL/MOL
REMARK 927      BINDING AFFINITY PREDICTED BY RF-SCORE:    0.00 PKD
ROOT
HETATM    1  C   UNL     1      -8.908  16.263  67.237  1.00  0.00    -0.204 C  
HETATM    2  C   UNL     1     -10.207  16.726  66.378  1.00  0.00    -0.329 C  
HETATM    3  C   UNL     1     -10.072  18.228  66.212  1.00  0.00    -0.389 C  
HETATM    4  C   UNL     1      -8.797  18.424  66.991  1.00  0.00    -0.271 C  
HETATM    5  C   UNL     1      -8.941  17.395  68.214  1.00  0.00    -0.268 C  
HETATM    6  C   UNL     1      -7.626  18.033  65.985  1.00  0.00    -0.240 C  
HETATM    7  C   UNL     1     -10.300  16.773  69.100  1.00  0.00    -0.326 C  
HETATM    8  C   UNL     1      -7.779  17.599  69.205  1.00  0.00     0.095 C  
HETATM    9  C   UNL     1      -6.612  19.101  66.086  1.00  0.00    -0.235 C  
HETATM   10  C   UNL     1      -7.382  20.210  66.700  1.00  0.00    -0.268 C  
HETATM   11  C   UNL     1     -10.594  15.046  68.892  1.00  0.00    -0.242 C  
HETATM   12  O   UNL     1     -11.224  14.734  67.666  1.00  0.00    -0.298 OA 
HETATM   13  O   UNL     1      -8.532  19.780  67.311  1.00  0.00    -0.294 OA 
HETATM   14  O   UNL     1      -7.009  21.380  66.711  1.00  0.00    -0.394 OA 
HETATM   15  C   UNL     1      -9.941  14.125  67.594  1.00  0.00    -0.233 C  
HETATM   16  C   UNL     1      -8.690  14.805  67.049  1.00  0.00    -0.258 C  
HETATM   17  C   UNL     1      -7.539  14.145  67.898  1.00  0.00    -0.162 C  
HETATM   18  C   UNL     1      -9.942  12.603  65.567  1.00  0.00    -0.237 C  
HETATM   19  C   UNL     1      -7.380  12.699  67.446  1.00  0.00    -0.140 C  
HETATM   20  C   UNL     1      -9.979  12.656  67.137  1.00  0.00    -0.217 C  
HETATM   21  C   UNL     1      -8.693  11.945  67.626  1.00  0.00    -0.162 C  
HETATM   22  C   UNL     1     -11.265  11.933  67.584  1.00  0.00    -0.340 C  
HETATM   23  C   UNL     1      -8.701  10.746  68.220  1.00  0.00    -0.136 C  
HETATM   24  C   UNL     1     -11.130  10.417  67.512  1.00  0.00    -0.336 C  
HETATM   25  C   UNL     1      -9.949   9.965  68.325  1.00  0.00    -0.151 C  
HETATM   26  O   UNL     1      -9.960   8.925  68.993  1.00  0.00    -0.179 OA 
ENDROOT
BRANCH  17  27
HETATM   27  C   UNL     1      -6.193  14.841  67.969  1.00  0.00    -0.155 C  
HETATM   28  O   UNL     1      -5.678  15.512  67.092  1.00  0.00    -0.320 OA 
BRANCH  27  29
HETATM   29  O   UNL     1      -5.658  14.607  69.207  1.00  0.00    -0.091 OA 
HETATM   30  C   UNL     1      -6.579  14.451  70.288  1.00  0.00    -0.076 C  
ENDBRANCH  27  29
ENDBRANCH  17  27
TORSDOF 2
ENDMDL
MODEL       19
REMARK 921   NORMALIZED FREE ENERGY PREDICTED BY IDOCK:   -5.94 KCAL/MOL
REMARK 922        TOTAL FREE ENERGY PREDICTED BY IDOCK:   -7.03 KCAL/MOL
REMARK 923 INTER-LIGAND FREE ENERGY PREDICTED BY IDOCK:   -6.62 KCAL/MOL
REMARK 924 INTRA-LIGAND FREE ENERGY PREDICTED BY IDOCK:   -0.41 KCAL/MOL
REMARK 927      BINDING AFFINITY PREDICTED BY RF-SCORE:    0.00 PKD
ROOT
HETATM    1  C   UNL     1      -9.686   8.389  70.286  1.00  0.00    -0.178 C  
HETATM    2  C   UNL     1      -9.286   9.305  71.567  1.00  0.00    -0.006 C  
HETATM    3  C   UNL     1      -8.850   8.329  72.644  1.00  0.00    -0.304 C  
HETATM    4  C   UNL     1      -9.081   7.046  71.889  1.00  0.00    -0.139 C  
HETATM    5  C   UNL     1     -10.420   7.337  71.054  1.00  0.00    -0.226 C  
HETATM    6  C   UNL     1      -7.798   6.866  70.964  1.00  0.00    -0.097 C  
HETATM    7  C   UNL     1     -11.818   8.326  71.342  1.00  0.00    -0.330 C  
HETATM    8  C   UNL     1     -10.885   6.046  70.352  1.00  0.00    -0.386 C  
HETATM    9  C   UNL     1      -7.361   5.465  71.119  1.00  0.00    -0.083 C  
HETATM   10  C   UNL     1      -8.028   5.065  72.382  1.00  0.00    -0.101 C  
HETATM   11  C   UNL     1     -12.002   9.690  70.238  1.00  0.00    -0.041 C  
HETATM   12  O   UNL     1     -11.148  10.772  70.546  1.00  0.00    -0.233 OA 
HETATM   13  O   UNL     1      -9.068   5.894  72.716  1.00  0.00    -0.131 OA 
HETATM   14  O   UNL     1      -7.722   4.070  73.035  1.00  0.00    -0.076 OA 
HETATM   15  C   UNL     1     -10.718  10.306  69.273  1.00  0.00    -0.234 C  
HETATM   16  C   UNL     1      -9.663   9.226  69.058  1.00  0.00    -0.162 C  
HETATM   17  C   UNL     1     -10.136   8.540  67.722  1.00  0.00    -0.266 C  
HETATM   18  C   UNL     1      -9.090  12.017  68.353  1.00  0.00    -0.158 C  
HETATM   19  C   UNL     1      -9.890   9.509  66.572  1.00  0.00    -0.305 C  
HETATM   20  C   UNL     1     -10.540  11.425  68.232  1.00  0.00    -0.224 C  
HETATM   21  C   UNL     1     -10.643  10.812  66.814  1.00  0.00    -0.307 C  
HETATM   22  C   UNL     1     -11.525  12.591  68.448  1.00  0.00    -0.355 C  
HETATM   23  C   UNL     1     -11.381  11.351  65.835  1.00  0.00    -0.089 C  
HETATM   24  C   UNL     1     -11.648  13.480  67.216  1.00  0.00    -0.398 C  
HETATM   25  C   UNL     1     -12.045  12.656  66.024  1.00  0.00    -0.364 C  
HETATM   26  O   UNL     1     -12.827  13.068  65.160  1.00  0.00    -0.656 OA 
ENDROOT
BRANCH  17  27
HETATM   27  C   UNL     1      -9.613   7.157  67.386  1.00  0.00    -0.137 C  
HETATM   28  O   UNL     1      -8.485   6.742  67.587  1.00  0.00    -0.121 OA 
BRANCH  27  29
HETATM   29  O   UNL     1     -10.637   6.435  66.835  1.00  0.00    -0.258 OA 
HETATM   30  C   UNL     1     -10.418   5.033  66.665  1.00  0.00    -0.250 C  
ENDBRANCH  27  29
ENDBRANCH  17  27
TORSDOF 2
ENDMDL
MODEL       20
REMARK 921   NORMALIZED FREE ENERGY PREDICTED BY IDOCK:   -5.89 KCAL/MOL
REMARK 922        TOTAL FREE ENERGY PREDICTED BY IDOCK:   -6.97 KCAL/MOL
REMARK 923 INTER-LIGAND FREE ENERGY PREDICTED BY IDOCK:   -6.62 KCAL/MOL
REMARK 924 INTRA-LIGAND FREE ENERGY PREDICTED BY IDOCK:   -0.35 KCAL/MOL
REMARK 927      BINDING AFFINITY PREDICTED BY RF-SCORE:    0.00 PKD
ROOT
HETATM    1  C   UNL     1      -9.170  10.622  68.044  1.00  0.00    -0.148 C  
HETATM    2  C   UNL     1     -10.503   9.882  68.605  1.00  0.00    -0.231 C  
HETATM    3  C   UNL     1     -10.011   8.614  69.278  1.00  0.00    -0.195 C  
HETATM    4  C   UNL     1      -8.539   8.769  68.997  1.00  0.00    -0.132 C  
HETATM    5  C   UNL     1      -8.502   9.392  67.518  1.00  0.00    -0.122 C  
HETATM    6  C   UNL     1      -8.003   9.774  70.109  1.00  0.00    -0.201 C  
HETATM    7  C   UNL     1      -9.543   9.251  66.134  1.00  0.00    -0.327 C  
HETATM    8  C   UNL     1      -7.047   9.452  67.016  1.00  0.00    -0.086 C  
HETATM    9  C   UNL     1      -6.764   9.181  70.649  1.00  0.00    -0.076 C  
HETATM   10  C   UNL     1      -6.888   7.762  70.236  1.00  0.00    -0.046 C  
HETATM   11  C   UNL     1     -10.380  10.736  65.681  1.00  0.00    -0.230 C  
HETATM   12  O   UNL     1     -11.487  11.024  66.510  1.00  0.00    -0.235 OA 
HETATM   13  O   UNL     1      -7.793   7.584  69.221  1.00  0.00    -0.113 OA 
HETATM   14  O   UNL     1      -6.217   6.848  70.709  1.00  0.00    -0.034 OA 
HETATM   15  C   UNL     1     -10.562  12.080  66.739  1.00  0.00    -0.227 C  
HETATM   16  C   UNL     1      -9.471  12.058  67.804  1.00  0.00    -0.190 C  
HETATM   17  C   UNL     1      -8.329  12.922  67.148  1.00  0.00    -0.158 C  
HETATM   18  C   UNL     1     -11.769  13.862  68.078  1.00  0.00    -0.387 C  
HETATM   19  C   UNL     1      -8.778  14.378  67.133  1.00  0.00    -0.243 C  
HETATM   20  C   UNL     1     -11.193  13.482  66.666  1.00  0.00    -0.328 C  
HETATM   21  C   UNL     1     -10.084  14.516  66.357  1.00  0.00    -0.293 C  
HETATM   22  C   UNL     1     -12.364  13.548  65.666  1.00  0.00    -0.522 C  
HETATM   23  C   UNL     1     -10.213  15.473  65.429  1.00  0.00    -0.409 C  
HETATM   24  C   UNL     1     -12.712  14.981  65.279  1.00  0.00     0.338 C  
HETATM   25  C   UNL     1     -11.498  15.676  64.730  1.00  0.00    -0.283 C  
HETATM   26  O   UNL     1     -11.556  16.473  63.787  1.00  0.00    -1.109 OA 
ENDROOT
BRANCH  17  27
HETATM   27  C   UNL     1      -6.917  12.797  67.687  1.00  0.00    -0.146 C  
HETATM   28  O   UNL     1      -5.911  12.576  67.036  1.00  0.00    -0.283 OA 
BRANCH  27  29
HETATM   29  O   UNL     1      -6.958  12.998  69.040  1.00  0.00    -0.098 OA 
HETATM   30  C   UNL     1      -5.817  13.622  69.633  1.00  0.00    -0.108 C  
ENDBRANCH  27  29
ENDBRANCH  17  27
TORSDOF 2
ENDMDL
MODEL       21
REMARK 921   NORMALIZED FREE ENERGY PREDICTED BY IDOCK:   -5.85 KCAL/MOL
REMARK 922        TOTAL FREE ENERGY PREDICTED BY IDOCK:   -6.92 KCAL/MOL
REMARK 923 INTER-LIGAND FREE ENERGY PREDICTED BY IDOCK:   -6.52 KCAL/MOL
REMARK 924 INTRA-LIGAND FREE ENERGY PREDICTED BY IDOCK:   -0.40 KCAL/MOL
REMARK 927      BINDING AFFINITY PREDICTED BY RF-SCORE:    0.00 PKD
ROOT
HETATM    1  C   UNL     1      -8.577   8.854  67.510  1.00  0.00    -0.120 C  
HETATM    2  C   UNL     1      -7.570   7.684  68.019  1.00  0.00    -0.110 C  
HETATM    3  C   UNL     1      -6.538   7.527  66.918  1.00  0.00    -0.061 C  
HETATM    4  C   UNL     1      -7.083   8.550  65.955  1.00  0.00    -0.076 C  
HETATM    5  C   UNL     1      -8.674   8.386  66.092  1.00  0.00    -0.175 C  
HETATM    6  C   UNL     1      -6.554   9.953  66.489  1.00  0.00    -0.072 C  
HETATM    7  C   UNL     1      -9.711   7.042  66.461  1.00  0.00    -0.189 C  
HETATM    8  C   UNL     1      -9.379   9.257  65.034  1.00  0.00    -0.196 C  
HETATM    9  C   UNL     1      -6.024  10.676  65.316  1.00  0.00    -0.090 C  
HETATM   10  C   UNL     1      -5.822   9.581  64.336  1.00  0.00    -0.079 C  
HETATM   11  C   UNL     1     -10.575   7.170  67.993  1.00  0.00    -0.196 C  
HETATM   12  O   UNL     1      -9.765   6.878  69.113  1.00  0.00    -0.154 OA 
HETATM   13  O   UNL     1      -6.530   8.451  64.653  1.00  0.00    -0.064 OA 
HETATM   14  O   UNL     1      -5.138   9.686  63.321  1.00  0.00    -0.067 OA 
HETATM   15  C   UNL     1     -10.116   8.250  69.251  1.00  0.00    -0.199 C  
HETATM   16  C   UNL     1      -9.312   9.411  68.675  1.00  0.00    -0.142 C  
HETATM   17  C   UNL     1     -10.423  10.482  68.366  1.00  0.00    -0.212 C  
HETATM   18  C   UNL     1      -9.415   8.977  71.576  1.00  0.00    -0.316 C  
HETATM   19  C   UNL     1     -10.939  11.033  69.691  1.00  0.00    -0.286 C  
HETATM   20  C   UNL     1     -10.634   8.617  70.653  1.00  0.00    -0.249 C  
HETATM   21  C   UNL     1     -11.494   9.901  70.549  1.00  0.00    -0.391 C  
HETATM   22  C   UNL     1     -11.385   7.452  71.327  1.00  0.00    -0.289 C  
HETATM   23  C   UNL     1     -12.690  10.030  71.136  1.00  0.00    -0.484 C  
HETATM   24  C   UNL     1     -12.244   7.918  72.496  1.00  0.00    -0.245 C  
HETATM   25  C   UNL     1     -13.203   8.981  72.039  1.00  0.00    -0.429 C  
HETATM   26  O   UNL     1     -14.362   9.059  72.462  1.00  0.00    -0.570 OA 
ENDROOT
BRANCH  17  27
HETATM   27  C   UNL     1     -10.105  11.607  67.400  1.00  0.00    -0.198 C  
HETATM   28  O   UNL     1      -9.048  12.205  67.310  1.00  0.00    -0.170 OA 
BRANCH  27  29
HETATM   29  O   UNL     1     -11.209  11.825  66.621  1.00  0.00    -0.301 OA 
HETATM   30  C   UNL     1     -11.872  13.081  66.781  1.00  0.00    -0.388 C  
ENDBRANCH  27  29
ENDBRANCH  17  27
TORSDOF 2
ENDMDL
MODEL       22
REMARK 921   NORMALIZED FREE ENERGY PREDICTED BY IDOCK:   -5.81 KCAL/MOL
REMARK 922        TOTAL FREE ENERGY PREDICTED BY IDOCK:   -6.88 KCAL/MOL
REMARK 923 INTER-LIGAND FREE ENERGY PREDICTED BY IDOCK:   -7.31 KCAL/MOL
REMARK 924 INTRA-LIGAND FREE ENERGY PREDICTED BY IDOCK:    0.42 KCAL/MOL
REMARK 927      BINDING AFFINITY PREDICTED BY RF-SCORE:    0.00 PKD
ROOT
HETATM    1  C   UNL     1     -10.240  13.105  67.935  1.00  0.00    -0.233 C  
HETATM    2  C   UNL     1      -8.871  13.226  67.068  1.00  0.00    -0.216 C  
HETATM    3  C   UNL     1      -8.818  14.665  66.591  1.00  0.00    -0.240 C  
HETATM    4  C   UNL     1     -10.116  15.146  67.187  1.00  0.00    -0.239 C  
HETATM    5  C   UNL     1     -11.102  13.893  67.001  1.00  0.00    -0.311 C  
HETATM    6  C   UNL     1      -9.787  15.457  68.713  1.00  0.00    -0.211 C  
HETATM    7  C   UNL     1     -11.216  12.626  65.818  1.00  0.00    -0.347 C  
HETATM    8  C   UNL     1     -12.532  14.292  67.413  1.00  0.00     0.091 C  
HETATM    9  C   UNL     1     -10.381  16.776  69.009  1.00  0.00    -0.326 C  
HETATM   10  C   UNL     1     -10.570  17.348  67.654  1.00  0.00    -0.350 C  
HETATM   11  C   UNL     1     -10.863  11.009  66.426  1.00  0.00    -0.191 C  
HETATM   12  O   UNL     1      -9.480  10.765  66.582  1.00  0.00    -0.170 OA 
HETATM   13  O   UNL     1     -10.547  16.394  66.670  1.00  0.00    -0.302 OA 
HETATM   14  O   UNL     1     -10.780  18.539  67.434  1.00  0.00    -0.425 OA 
HETATM   15  C   UNL     1     -10.020  10.714  67.897  1.00  0.00    -0.166 C  
HETATM   16  C   UNL     1     -10.154  11.917  68.825  1.00  0.00    -0.133 C  
HETATM   17  C   UNL     1     -11.439  11.566  69.665  1.00  0.00    -0.373 C  
HETATM   18  C   UNL     1      -8.214   9.797  69.420  1.00  0.00    -0.135 C  
HETATM   19  C   UNL     1     -11.092  10.425  70.614  1.00  0.00    -0.283 C  
HETATM   20  C   UNL     1      -9.575   9.480  68.701  1.00  0.00    -0.151 C  
HETATM   21  C   UNL     1     -10.608   9.214  69.824  1.00  0.00    -0.240 C  
HETATM   22  C   UNL     1      -9.339   8.248  67.806  1.00  0.00    -0.153 C  
HETATM   23  C   UNL     1     -11.104   7.999  70.088  1.00  0.00    -0.191 C  
HETATM   24  C   UNL     1      -9.313   6.950  68.605  1.00  0.00    -0.135 C  
HETATM   25  C   UNL     1     -10.584   6.805  69.394  1.00  0.00    -0.233 C  
HETATM   26  O   UNL     1     -11.146   5.716  69.555  1.00  0.00    -0.310 OA 
ENDROOT
BRANCH  17  27
HETATM   27  C   UNL     1     -12.159  12.680  70.399  1.00  0.00    -0.300 C  
HETATM   28  O   UNL     1     -11.924  13.873  70.312  1.00  0.00    -0.306 OA 
BRANCH  27  29
HETATM   29  O   UNL     1     -13.143  12.119  71.167  1.00  0.00    -0.212 OA 
HETATM   30  C   UNL     1     -13.658  12.915  72.236  1.00  0.00    -0.515 C  
ENDBRANCH  27  29
ENDBRANCH  17  27
TORSDOF 2
ENDMDL
MODEL       23
REMARK 921   NORMALIZED FREE ENERGY PREDICTED BY IDOCK:   -5.76 KCAL/MOL
REMARK 922        TOTAL FREE ENERGY PREDICTED BY IDOCK:   -6.83 KCAL/MOL
REMARK 923 INTER-LIGAND FREE ENERGY PREDICTED BY IDOCK:   -6.43 KCAL/MOL
REMARK 924 INTRA-LIGAND FREE ENERGY PREDICTED BY IDOCK:   -0.40 KCAL/MOL
REMARK 927      BINDING AFFINITY PREDICTED BY RF-SCORE:    0.00 PKD
ROOT
HETATM    1  C   UNL     1      -9.021   8.798  68.435  1.00  0.00    -0.141 C  
HETATM    2  C   UNL     1      -8.663  10.285  68.983  1.00  0.00    -0.164 C  
HETATM    3  C   UNL     1      -8.168  11.056  67.773  1.00  0.00    -0.117 C  
HETATM    4  C   UNL     1      -8.269   9.955  66.751  1.00  0.00    -0.124 C  
HETATM    5  C   UNL     1      -7.816   8.645  67.562  1.00  0.00    -0.102 C  
HETATM    6  C   UNL     1      -9.800   9.920  66.319  1.00  0.00    -0.308 C  
HETATM    7  C   UNL     1      -6.721   8.376  68.884  1.00  0.00    -0.053 C  
HETATM    8  C   UNL     1      -7.703   7.450  66.597  1.00  0.00    -0.101 C  
HETATM    9  C   UNL     1      -9.820   9.857  64.845  1.00  0.00    -0.282 C  
HETATM   10  C   UNL     1      -8.456  10.321  64.491  1.00  0.00    -0.179 C  
HETATM   11  C   UNL     1      -7.484   7.847  70.383  1.00  0.00    -0.077 C  
HETATM   12  O   UNL     1      -8.109   8.899  71.089  1.00  0.00    -0.147 OA 
HETATM   13  O   UNL     1      -7.581  10.240  65.544  1.00  0.00    -0.140 OA 
HETATM   14  O   UNL     1      -8.126  10.688  63.366  1.00  0.00    -0.115 OA 
HETATM   15  C   UNL     1      -9.165   8.026  70.705  1.00  0.00    -0.154 C  
HETATM   16  C   UNL     1      -9.939   8.129  69.394  1.00  0.00    -0.188 C  
HETATM   17  C   UNL     1     -10.310   6.629  69.092  1.00  0.00    -0.220 C  
HETATM   18  C   UNL     1     -11.248   8.772  71.941  1.00  0.00    -0.438 C  
HETATM   19  C   UNL     1     -11.370   6.188  70.094  1.00  0.00    -0.433 C  
HETATM   20  C   UNL     1     -10.127   7.675  71.853  1.00  0.00    -0.218 C  
HETATM   21  C   UNL     1     -10.845   6.345  71.517  1.00  0.00    -0.299 C  
HETATM   22  C   UNL     1      -9.420   7.640  73.223  1.00  0.00    -0.317 C  
HETATM   23  C   UNL     1     -10.980   5.344  72.396  1.00  0.00    -0.298 C  
HETATM   24  C   UNL     1     -10.237   6.901  74.276  1.00  0.00    -0.242 C  
HETATM   25  C   UNL     1     -10.555   5.511  73.800  1.00  0.00    -0.281 C  
HETATM   26  O   UNL     1     -10.565   4.534  74.557  1.00  0.00    -0.263 OA 
ENDROOT
BRANCH  17  27
HETATM   27  C   UNL     1     -10.707   6.245  67.680  1.00  0.00    -0.313 C  
HETATM   28  O   UNL     1     -11.356   6.922  66.902  1.00  0.00    -0.269 OA 
BRANCH  27  29
HETATM   29  O   UNL     1     -10.189   5.007  67.413  1.00  0.00    -0.183 OA 
HETATM   30  C   UNL     1     -10.280   4.548  66.062  1.00  0.00    -0.260 C  
ENDBRANCH  27  29
ENDBRANCH  17  27
TORSDOF 2
ENDMDL
MODEL       24
REMARK 921   NORMALIZED FREE ENERGY PREDICTED BY IDOCK:   -5.74 KCAL/MOL
REMARK 922        TOTAL FREE ENERGY PREDICTED BY IDOCK:   -6.80 KCAL/MOL
REMARK 923 INTER-LIGAND FREE ENERGY PREDICTED BY IDOCK:   -6.41 KCAL/MOL
REMARK 924 INTRA-LIGAND FREE ENERGY PREDICTED BY IDOCK:   -0.39 KCAL/MOL
REMARK 927      BINDING AFFINITY PREDICTED BY RF-SCORE:    0.00 PKD
ROOT
HETATM    1  C   UNL     1     -10.045  10.382  67.081  1.00  0.00    -0.254 C  
HETATM    2  C   UNL     1     -11.355  10.479  68.037  1.00  0.00    -0.319 C  
HETATM    3  C   UNL     1     -11.777  11.936  68.001  1.00  0.00    -0.382 C  
HETATM    4  C   UNL     1     -10.688  12.462  67.104  1.00  0.00    -0.235 C  
HETATM    5  C   UNL     1      -9.390  11.636  67.564  1.00  0.00    -0.168 C  
HETATM    6  C   UNL     1     -11.156  12.110  65.624  1.00  0.00    -0.360 C  
HETATM    7  C   UNL     1      -8.882  10.952  69.078  1.00  0.00    -0.105 C  
HETATM    8  C   UNL     1      -8.143  12.188  66.847  1.00  0.00    -0.112 C  
HETATM    9  C   UNL     1     -10.958  13.331  64.820  1.00  0.00    -0.365 C  
HETATM   10  C   UNL     1     -10.872  14.384  65.861  1.00  0.00    -0.304 C  
HETATM   11  C   UNL     1      -8.808   9.191  69.109  1.00  0.00    -0.146 C  
HETATM   12  O   UNL     1     -10.078   8.584  69.238  1.00  0.00    -0.191 OA 
HETATM   13  O   UNL     1     -10.590  13.877  67.103  1.00  0.00    -0.274 OA 
HETATM   14  O   UNL     1     -10.986  15.586  65.633  1.00  0.00    -0.333 OA 
HETATM   15  C   UNL     1      -9.602   8.190  67.956  1.00  0.00    -0.156 C  
HETATM   16  C   UNL     1      -9.843   8.968  66.667  1.00  0.00    -0.316 C  
HETATM   17  C   UNL     1      -8.550   8.654  65.826  1.00  0.00    -0.184 C  
HETATM   18  C   UNL     1     -11.155   6.379  67.100  1.00  0.00    -0.422 C  
HETATM   19  C   UNL     1      -8.613   7.199  65.377  1.00  0.00    -0.046 C  
HETATM   20  C   UNL     1      -9.729   6.680  67.687  1.00  0.00    -0.142 C  
HETATM   21  C   UNL     1      -8.714   6.279  66.589  1.00  0.00    -0.126 C  
HETATM   22  C   UNL     1      -9.581   5.839  68.970  1.00  0.00    -0.168 C  
HETATM   23  C   UNL     1      -7.917   5.208  66.685  1.00  0.00    -0.104 C  
HETATM   24  C   UNL     1      -9.287   4.374  68.670  1.00  0.00    -0.206 C  
HETATM   25  C   UNL     1      -8.060   4.260  67.808  1.00  0.00    -0.094 C  
HETATM   26  O   UNL     1      -7.230   3.356  67.949  1.00  0.00    -0.050 OA 
ENDROOT
BRANCH  17  27
HETATM   27  C   UNL     1      -8.194   9.563  64.665  1.00  0.00    -0.146 C  
HETATM   28  O   UNL     1      -7.120  10.106  64.475  1.00  0.00    -0.138 OA 
BRANCH  27  29
HETATM   29  O   UNL     1      -9.286   9.655  63.846  1.00  0.00    -0.249 OA 
HETATM   30  C   UNL     1      -9.222  10.622  62.794  1.00  0.00    -0.311 C  
ENDBRANCH  27  29
ENDBRANCH  17  27
TORSDOF 2
ENDMDL
MODEL       25
REMARK 921   NORMALIZED FREE ENERGY PREDICTED BY IDOCK:   -5.67 KCAL/MOL
REMARK 922        TOTAL FREE ENERGY PREDICTED BY IDOCK:   -6.72 KCAL/MOL
REMARK 923 INTER-LIGAND FREE ENERGY PREDICTED BY IDOCK:   -6.35 KCAL/MOL
REMARK 924 INTRA-LIGAND FREE ENERGY PREDICTED BY IDOCK:   -0.37 KCAL/MOL
REMARK 927      BINDING AFFINITY PREDICTED BY RF-SCORE:    0.00 PKD
ROOT
HETATM    1  C   UNL     1      -9.900  12.382  66.979  1.00  0.00    -0.214 C  
HETATM    2  C   UNL     1     -10.271  11.171  65.961  1.00  0.00    -0.300 C  
HETATM    3  C   UNL     1     -11.347  11.724  65.045  1.00  0.00    -0.288 C  
HETATM    4  C   UNL     1     -11.469  13.098  65.651  1.00  0.00    -0.323 C  
HETATM    5  C   UNL     1     -11.304  12.832  67.225  1.00  0.00    -0.364 C  
HETATM    6  C   UNL     1     -10.267  13.939  65.033  1.00  0.00    -0.383 C  
HETATM    7  C   UNL     1     -11.699  11.492  68.259  1.00  0.00    -0.371 C  
HETATM    8  C   UNL     1     -11.578  14.133  68.004  1.00  0.00    -0.368 C  
HETATM    9  C   UNL     1     -10.836  15.229  64.599  1.00  0.00    -0.280 C  
HETATM   10  C   UNL     1     -12.286  14.925  64.523  1.00  0.00    -0.382 C  
HETATM   11  C   UNL     1     -10.310  10.668  68.968  1.00  0.00    -0.218 C  
HETATM   12  O   UNL     1      -9.657   9.802  68.062  1.00  0.00    -0.141 OA 
HETATM   13  O   UNL     1     -12.627  13.800  65.229  1.00  0.00    -0.489 OA 
HETATM   14  O   UNL     1     -13.105  15.628  63.937  1.00  0.00    -0.323 OA 
HETATM   15  C   UNL     1      -8.708  10.820  68.359  1.00  0.00    -0.142 C  
HETATM   16  C   UNL     1      -8.566  12.124  67.582  1.00  0.00    -0.166 C  
HETATM   17  C   UNL     1      -8.080  13.135  68.687  1.00  0.00    -0.014 C  
HETATM   18  C   UNL     1      -6.478  10.068  67.417  1.00  0.00    -0.068 C  
HETATM   19  C   UNL     1      -6.644  12.786  69.057  1.00  0.00    -0.099 C  
HETATM   20  C   UNL     1      -7.316  10.278  68.729  1.00  0.00    -0.086 C  
HETATM   21  C   UNL     1      -6.565  11.348  69.558  1.00  0.00    -0.129 C  
HETATM   22  C   UNL     1      -7.387   8.914  69.444  1.00  0.00    -0.075 C  
HETATM   23  C   UNL     1      -5.904  11.068  70.688  1.00  0.00    -0.105 C  
HETATM   24  C   UNL     1      -6.092   8.576  70.174  1.00  0.00    -0.034 C  
HETATM   25  C   UNL     1      -5.745   9.672  71.142  1.00  0.00    -0.075 C  
HETATM   26  O   UNL     1      -5.250   9.447  72.252  1.00  0.00    -0.070 OA 
ENDROOT
BRANCH  17  27
HETATM   27  C   UNL     1      -8.228  14.623  68.432  1.00  0.00    -0.154 C  
HETATM   28  O   UNL     1      -8.675  15.449  69.208  1.00  0.00    -0.225 OA 
BRANCH  27  29
HETATM   29  O   UNL     1      -7.748  14.890  67.179  1.00  0.00    -0.202 OA 
HETATM   30  C   UNL     1      -7.892  16.231  66.706  1.00  0.00    -0.265 C  
ENDBRANCH  27  29
ENDBRANCH  17  27
TORSDOF 2
ENDMDL
MODEL       26
REMARK 921   NORMALIZED FREE ENERGY PREDICTED BY IDOCK:   -5.61 KCAL/MOL
REMARK 922        TOTAL FREE ENERGY PREDICTED BY IDOCK:   -6.66 KCAL/MOL
REMARK 923 INTER-LIGAND FREE ENERGY PREDICTED BY IDOCK:   -7.10 KCAL/MOL
REMARK 924 INTRA-LIGAND FREE ENERGY PREDICTED BY IDOCK:    0.44 KCAL/MOL
REMARK 927      BINDING AFFINITY PREDICTED BY RF-SCORE:    0.00 PKD
ROOT
HETATM    1  C   UNL     1      -9.785  10.714  68.453  1.00  0.00    -0.172 C  
HETATM    2  C   UNL     1      -8.304  10.392  67.867  1.00  0.00    -0.114 C  
HETATM    3  C   UNL     1      -8.037  11.463  66.826  1.00  0.00    -0.161 C  
HETATM    4  C   UNL     1      -9.348  12.199  66.922  1.00  0.00    -0.203 C  
HETATM    5  C   UNL     1     -10.423  11.026  67.137  1.00  0.00    -0.274 C  
HETATM    6  C   UNL     1      -9.204  13.150  68.190  1.00  0.00    -0.215 C  
HETATM    7  C   UNL     1     -10.503   9.368  66.626  1.00  0.00    -0.238 C  
HETATM    8  C   UNL     1     -11.848  11.611  67.084  1.00  0.00    -0.090 C  
HETATM    9  C   UNL     1      -9.694  14.479  67.775  1.00  0.00    -0.216 C  
HETATM   10  C   UNL     1      -9.634  14.390  66.296  1.00  0.00    -0.298 C  
HETATM   11  C   UNL     1     -10.405   8.183  67.929  1.00  0.00    -0.220 C  
HETATM   12  O   UNL     1      -9.090   7.993  68.408  1.00  0.00    -0.137 OA 
HETATM   13  O   UNL     1      -9.573  13.096  65.847  1.00  0.00    -0.218 OA 
HETATM   14  O   UNL     1      -9.687  15.362  65.546  1.00  0.00    -0.331 OA 
HETATM   15  C   UNL     1      -9.810   8.553  69.500  1.00  0.00    -0.187 C  
HETATM   16  C   UNL     1      -9.946  10.047  69.772  1.00  0.00    -0.276 C  
HETATM   17  C   UNL     1     -11.364  10.149  70.450  1.00  0.00    -0.401 C  
HETATM   18  C   UNL     1      -8.336   8.360  71.553  1.00  0.00    -0.196 C  
HETATM   19  C   UNL     1     -11.272   9.543  71.845  1.00  0.00    -0.101 C  
HETATM   20  C   UNL     1      -9.610   7.797  70.825  1.00  0.00    -0.167 C  
HETATM   21  C   UNL     1     -10.810   8.093  71.758  1.00  0.00    -0.317 C  
HETATM   22  C   UNL     1      -9.380   6.287  70.613  1.00  0.00    -0.171 C  
HETATM   23  C   UNL     1     -11.460   7.140  72.438  1.00  0.00    -0.303 C  
HETATM   24  C   UNL     1      -9.599   5.484  71.889  1.00  0.00    -0.185 C  
HETATM   25  C   UNL     1     -10.975   5.746  72.434  1.00  0.00    -0.259 C  
HETATM   26  O   UNL     1     -11.664   4.863  72.956  1.00  0.00    -0.278 OA 
ENDROOT
BRANCH  17  27
HETATM   27  C   UNL     1     -12.060  11.496  70.489  1.00  0.00    -0.378 C  
HETATM   28  O   UNL     1     -11.697  12.514  69.926  1.00  0.00    -0.303 OA 
BRANCH  27  29
HETATM   29  O   UNL     1     -13.189  11.370  71.252  1.00  0.00    -0.264 OA 
HETATM   30  C   UNL     1     -13.525  12.476  72.093  1.00  0.00    -0.422 C  
ENDBRANCH  27  29
ENDBRANCH  17  27
TORSDOF 2
ENDMDL
MODEL       27
REMARK 921   NORMALIZED FREE ENERGY PREDICTED BY IDOCK:   -5.61 KCAL/MOL
REMARK 922        TOTAL FREE ENERGY PREDICTED BY IDOCK:   -6.65 KCAL/MOL
REMARK 923 INTER-LIGAND FREE ENERGY PREDICTED BY IDOCK:   -6.24 KCAL/MOL
REMARK 924 INTRA-LIGAND FREE ENERGY PREDICTED BY IDOCK:   -0.42 KCAL/MOL
REMARK 927      BINDING AFFINITY PREDICTED BY RF-SCORE:    0.00 PKD
ROOT
HETATM    1  C   UNL     1      -9.954  10.344  66.903  1.00  0.00    -0.254 C  
HETATM    2  C   UNL     1     -11.309  10.598  67.763  1.00  0.00    -0.320 C  
HETATM    3  C   UNL     1     -11.657  12.060  67.551  1.00  0.00    -0.401 C  
HETATM    4  C   UNL     1     -10.495  12.440  66.672  1.00  0.00    -0.229 C  
HETATM    5  C   UNL     1      -9.267  11.613  67.292  1.00  0.00    -0.170 C  
HETATM    6  C   UNL     1     -10.897  11.953  65.211  1.00  0.00    -0.347 C  
HETATM    7  C   UNL     1      -8.878  11.072  68.897  1.00  0.00    -0.120 C  
HETATM    8  C   UNL     1      -7.956  12.030  66.598  1.00  0.00     0.013 C  
HETATM    9  C   UNL     1     -10.595  13.073  64.297  1.00  0.00    -0.434 C  
HETATM   10  C   UNL     1     -10.515  14.226  65.228  1.00  0.00    -0.389 C  
HETATM   11  C   UNL     1      -8.892   9.322  69.114  1.00  0.00    -0.141 C  
HETATM   12  O   UNL     1     -10.195   8.788  69.229  1.00  0.00    -0.200 OA 
HETATM   13  O   UNL     1     -10.328  13.841  66.530  1.00  0.00    -0.277 OA 
HETATM   14  O   UNL     1     -10.557  15.400  64.870  1.00  0.00    -0.416 OA 
HETATM   15  C   UNL     1      -9.669   8.240  68.026  1.00  0.00    -0.161 C  
HETATM   16  C   UNL     1      -9.800   8.887  66.651  1.00  0.00    -0.332 C  
HETATM   17  C   UNL     1      -8.479   8.429  65.926  1.00  0.00    -0.159 C  
HETATM   18  C   UNL     1     -11.260   6.417  67.269  1.00  0.00    -0.295 C  
HETATM   19  C   UNL     1      -8.589   6.939  65.627  1.00  0.00    -0.119 C  
HETATM   20  C   UNL     1      -9.856   6.717  67.907  1.00  0.00    -0.146 C  
HETATM   21  C   UNL     1      -8.802   6.159  66.920  1.00  0.00    -0.117 C  
HETATM   22  C   UNL     1      -9.820   6.011  69.277  1.00  0.00    -0.191 C  
HETATM   23  C   UNL     1      -8.065   5.070  67.174  1.00  0.00    -0.107 C  
HETATM   24  C   UNL     1      -9.583   4.512  69.148  1.00  0.00    -0.251 C  
HETATM   25  C   UNL     1      -8.317   4.254  68.378  1.00  0.00    -0.092 C  
HETATM   26  O   UNL     1      -7.541   3.335  68.662  1.00  0.00    -0.052 OA 
ENDROOT
BRANCH  17  27
HETATM   27  C   UNL     1      -8.015   9.194  64.701  1.00  0.00    -0.125 C  
HETATM   28  O   UNL     1      -8.723   9.636  63.814  1.00  0.00    -0.195 OA 
BRANCH  27  29
HETATM   29  O   UNL     1      -6.655   9.326  64.771  1.00  0.00    -0.073 OA 
HETATM   30  C   UNL     1      -6.035  10.140  63.773  1.00  0.00    -0.140 C  
ENDBRANCH  27  29
ENDBRANCH  17  27
TORSDOF 2
ENDMDL
MODEL       28
REMARK 921   NORMALIZED FREE ENERGY PREDICTED BY IDOCK:   -5.58 KCAL/MOL
REMARK 922        TOTAL FREE ENERGY PREDICTED BY IDOCK:   -6.62 KCAL/MOL
REMARK 923 INTER-LIGAND FREE ENERGY PREDICTED BY IDOCK:   -6.29 KCAL/MOL
REMARK 924 INTRA-LIGAND FREE ENERGY PREDICTED BY IDOCK:   -0.32 KCAL/MOL
REMARK 927      BINDING AFFINITY PREDICTED BY RF-SCORE:    0.00 PKD
ROOT
HETATM    1  C   UNL     1     -10.124   9.449  69.091  1.00  0.00    -0.200 C  
HETATM    2  C   UNL     1     -10.826  10.555  70.052  1.00  0.00    -0.320 C  
HETATM    3  C   UNL     1     -10.729  11.869  69.298  1.00  0.00    -0.095 C  
HETATM    4  C   UNL     1      -9.991  11.373  68.082  1.00  0.00    -0.189 C  
HETATM    5  C   UNL     1      -8.962  10.295  68.679  1.00  0.00    -0.144 C  
HETATM    6  C   UNL     1     -11.104  10.721  67.151  1.00  0.00    -0.297 C  
HETATM    7  C   UNL     1      -8.136  10.145  70.200  1.00  0.00     0.006 C  
HETATM    8  C   UNL     1      -8.008   9.816  67.569  1.00  0.00    -0.106 C  
HETATM    9  C   UNL     1     -10.865  11.233  65.788  1.00  0.00    -0.257 C  
HETATM   10  C   UNL     1     -10.029  12.431  66.044  1.00  0.00    -0.255 C  
HETATM   11  C   UNL     1      -8.632   8.765  71.181  1.00  0.00    -0.195 C  
HETATM   12  O   UNL     1      -9.861   8.969  71.846  1.00  0.00    -0.323 OA 
HETATM   13  O   UNL     1      -9.449  12.415  67.286  1.00  0.00    -0.183 OA 
HETATM   14  O   UNL     1      -9.829  13.319  65.218  1.00  0.00    -0.196 OA 
HETATM   15  C   UNL     1     -10.102   7.906  70.931  1.00  0.00    -0.190 C  
HETATM   16  C   UNL     1     -10.577   8.092  69.494  1.00  0.00    -0.216 C  
HETATM   17  C   UNL     1      -9.915   6.873  68.750  1.00  0.00    -0.153 C  
HETATM   18  C   UNL     1     -12.363   6.915  71.504  1.00  0.00    -0.420 C  
HETATM   19  C   UNL     1     -10.622   5.598  69.194  1.00  0.00    -0.334 C  
HETATM   20  C   UNL     1     -10.809   6.694  71.564  1.00  0.00    -0.277 C  
HETATM   21  C   UNL     1     -10.515   5.439  70.707  1.00  0.00    -0.317 C  
HETATM   22  C   UNL     1     -10.435   6.503  73.047  1.00  0.00    -0.258 C  
HETATM   23  C   UNL     1     -10.142   4.265  71.232  1.00  0.00    -0.178 C  
HETATM   24  C   UNL     1     -10.780   5.108  73.554  1.00  0.00    -0.339 C  
HETATM   25  C   UNL     1     -10.117   4.068  72.695  1.00  0.00    -0.164 C  
HETATM   26  O   UNL     1      -9.644   3.025  73.158  1.00  0.00    -0.092 OA 
ENDROOT
BRANCH  17  27
HETATM   27  C   UNL     1      -9.786   6.922  67.239  1.00  0.00    -0.146 C  
HETATM   28  O   UNL     1     -10.520   7.516  66.470  1.00  0.00    -0.198 OA 
BRANCH  27  29
HETATM   29  O   UNL     1      -8.681   6.197  66.882  1.00  0.00    -0.108 OA 
HETATM   30  C   UNL     1      -8.795   5.382  65.713  1.00  0.00    -0.151 C  
ENDBRANCH  27  29
ENDBRANCH  17  27
TORSDOF 2
ENDMDL
MODEL       29
REMARK 921   NORMALIZED FREE ENERGY PREDICTED BY IDOCK:   -5.46 KCAL/MOL
REMARK 922        TOTAL FREE ENERGY PREDICTED BY IDOCK:   -6.48 KCAL/MOL
REMARK 923 INTER-LIGAND FREE ENERGY PREDICTED BY IDOCK:   -6.20 KCAL/MOL
REMARK 924 INTRA-LIGAND FREE ENERGY PREDICTED BY IDOCK:   -0.29 KCAL/MOL
REMARK 927      BINDING AFFINITY PREDICTED BY RF-SCORE:    0.00 PKD
ROOT
HETATM    1  C   UNL     1      -9.270   7.960  69.687  1.00  0.00    -0.153 C  
HETATM    2  C   UNL     1      -8.601   8.704  70.967  1.00  0.00    -0.211 C  
HETATM    3  C   UNL     1      -8.109   7.591  71.873  1.00  0.00    -0.103 C  
HETATM    4  C   UNL     1      -8.569   6.415  71.052  1.00  0.00    -0.131 C  
HETATM    5  C   UNL     1      -9.982   6.898  70.462  1.00  0.00    -0.194 C  
HETATM    6  C   UNL     1      -7.458   6.226  69.928  1.00  0.00    -0.084 C  
HETATM    7  C   UNL     1     -11.222   7.964  71.049  1.00  0.00    -0.288 C  
HETATM    8  C   UNL     1     -10.667   5.728  69.729  1.00  0.00    -0.418 C  
HETATM    9  C   UNL     1      -7.140   4.786  69.889  1.00  0.00    -0.053 C  
HETATM   10  C   UNL     1      -7.652   4.315  71.199  1.00  0.00    -0.066 C  
HETATM   11  C   UNL     1     -11.433   9.444  70.113  1.00  0.00    -0.138 C  
HETATM   12  O   UNL     1     -10.442  10.415  70.380  1.00  0.00    -0.183 OA 
HETATM   13  O   UNL     1      -8.548   5.187  71.761  1.00  0.00    -0.126 OA 
HETATM   14  O   UNL     1      -7.351   3.237  71.706  1.00  0.00    -0.044 OA 
HETATM   15  C   UNL     1     -10.250  10.048  69.019  1.00  0.00    -0.203 C  
HETATM   16  C   UNL     1      -9.346   8.913  68.549  1.00  0.00    -0.141 C  
HETATM   17  C   UNL     1     -10.072   8.408  67.247  1.00  0.00    -0.321 C  
HETATM   18  C   UNL     1      -8.616  11.706  68.015  1.00  0.00    -0.152 C  
HETATM   19  C   UNL     1      -9.904   9.466  66.163  1.00  0.00    -0.356 C  
HETATM   20  C   UNL     1     -10.119  11.250  68.067  1.00  0.00    -0.192 C  
HETATM   21  C   UNL     1     -10.485  10.795  66.633  1.00  0.00    -0.302 C  
HETATM   22  C   UNL     1     -10.944  12.464  68.535  1.00  0.00    -0.277 C  
HETATM   23  C   UNL     1     -11.302  11.490  65.832  1.00  0.00    -0.174 C  
HETATM   24  C   UNL     1     -11.159  13.481  67.421  1.00  0.00    -0.300 C  
HETATM   25  C   UNL     1     -11.804  12.818  66.235  1.00  0.00    -0.423 C  
HETATM   26  O   UNL     1     -12.660  13.380  65.543  1.00  0.00    -0.475 OA 
ENDROOT
BRANCH  17  27
HETATM   27  C   UNL     1      -9.739   7.028  66.713  1.00  0.00    -0.184 C  
HETATM   28  O   UNL     1      -8.628   6.606  66.444  1.00  0.00    -0.119 OA 
BRANCH  27  29
HETATM   29  O   UNL     1     -10.905   6.320  66.604  1.00  0.00    -0.289 OA 
HETATM   30  C   UNL     1     -10.798   4.970  66.148  1.00  0.00    -0.095 C  
ENDBRANCH  27  29
ENDBRANCH  17  27
TORSDOF 2
ENDMDL
MODEL       30
REMARK 921   NORMALIZED FREE ENERGY PREDICTED BY IDOCK:   -5.38 KCAL/MOL
REMARK 922        TOTAL FREE ENERGY PREDICTED BY IDOCK:   -6.40 KCAL/MOL
REMARK 923 INTER-LIGAND FREE ENERGY PREDICTED BY IDOCK:   -6.06 KCAL/MOL
REMARK 924 INTRA-LIGAND FREE ENERGY PREDICTED BY IDOCK:   -0.34 KCAL/MOL
REMARK 927      BINDING AFFINITY PREDICTED BY RF-SCORE:    0.00 PKD
ROOT
HETATM    1  C   UNL     1      -9.398   8.178  69.412  1.00  0.00    -0.155 C  
HETATM    2  C   UNL     1      -8.662   7.831  68.006  1.00  0.00    -0.125 C  
HETATM    3  C   UNL     1      -8.051   6.455  68.195  1.00  0.00    -0.113 C  
HETATM    4  C   UNL     1      -8.466   6.222  69.624  1.00  0.00    -0.129 C  
HETATM    5  C   UNL     1      -8.310   7.668  70.302  1.00  0.00    -0.132 C  
HETATM    6  C   UNL     1      -9.978   5.731  69.548  1.00  0.00    -0.250 C  
HETATM    7  C   UNL     1      -7.253   9.017  70.014  1.00  0.00    -0.058 C  
HETATM    8  C   UNL     1      -8.538   7.557  71.822  1.00  0.00    -0.127 C  
HETATM    9  C   UNL     1     -10.082   4.553  70.431  1.00  0.00    -0.229 C  
HETATM   10  C   UNL     1      -8.664   4.140  70.574  1.00  0.00    -0.079 C  
HETATM   11  C   UNL     1      -8.050  10.468  69.409  1.00  0.00    -0.128 C  
HETATM   12  O   UNL     1      -8.366  10.395  68.033  1.00  0.00    -0.116 OA 
HETATM   13  O   UNL     1      -7.787   5.139  70.240  1.00  0.00    -0.075 OA 
HETATM   14  O   UNL     1      -8.308   3.043  70.997  1.00  0.00    -0.060 OA 
HETATM   15  C   UNL     1      -9.619  10.461  68.702  1.00  0.00    -0.166 C  
HETATM   16  C   UNL     1     -10.405   9.248  69.188  1.00  0.00    -0.222 C  
HETATM   17  C   UNL     1     -11.146   9.802  70.462  1.00  0.00    -0.384 C  
HETATM   18  C   UNL     1     -11.396  10.848  66.937  1.00  0.00    -0.044 C  
HETATM   19  C   UNL     1     -12.233  10.766  70.002  1.00  0.00    -0.409 C  
HETATM   20  C   UNL     1     -10.582  11.505  68.109  1.00  0.00    -0.226 C  
HETATM   21  C   UNL     1     -11.619  11.901  69.189  1.00  0.00    -0.373 C  
HETATM   22  C   UNL     1      -9.842  12.722  67.521  1.00  0.00    -0.211 C  
HETATM   23  C   UNL     1     -11.953  13.170  69.452  1.00  0.00    -0.347 C  
HETATM   24  C   UNL     1     -10.764  13.918  67.322  1.00  0.00    -0.286 C  
HETATM   25  C   UNL     1     -11.435  14.274  68.620  1.00  0.00    -0.296 C  
HETATM   26  O   UNL     1     -11.647  15.443  68.961  1.00  0.00    -0.306 OA 
ENDROOT
BRANCH  17  27
HETATM   27  C   UNL     1     -11.691   8.817  71.478  1.00  0.00    -0.309 C  
HETATM   28  O   UNL     1     -11.473   8.819  72.676  1.00  0.00    -0.227 OA 
BRANCH  27  29
HETATM   29  O   UNL     1     -12.496   7.927  70.819  1.00  0.00    -0.106 OA 
HETATM   30  C   UNL     1     -13.580   7.367  71.563  1.00  0.00    -0.370 C  
ENDBRANCH  27  29
ENDBRANCH  17  27
TORSDOF 2
ENDMDL
MODEL       31
REMARK 921   NORMALIZED FREE ENERGY PREDICTED BY IDOCK:   -5.34 KCAL/MOL
REMARK 922        TOTAL FREE ENERGY PREDICTED BY IDOCK:   -6.36 KCAL/MOL
REMARK 923 INTER-LIGAND FREE ENERGY PREDICTED BY IDOCK:   -6.04 KCAL/MOL
REMARK 924 INTRA-LIGAND FREE ENERGY PREDICTED BY IDOCK:   -0.31 KCAL/MOL
REMARK 927      BINDING AFFINITY PREDICTED BY RF-SCORE:    0.00 PKD
ROOT
HETATM    1  C   UNL     1      -9.261  10.215  66.873  1.00  0.00    -0.168 C  
HETATM    2  C   UNL     1     -10.671   9.474  67.190  1.00  0.00    -0.252 C  
HETATM    3  C   UNL     1     -10.446   8.011  66.856  1.00  0.00    -0.387 C  
HETATM    4  C   UNL     1      -9.019   8.108  66.383  1.00  0.00    -0.171 C  
HETATM    5  C   UNL     1      -8.980   9.503  65.589  1.00  0.00    -0.224 C  
HETATM    6  C   UNL     1      -8.136   8.121  67.707  1.00  0.00    -0.127 C  
HETATM    7  C   UNL     1     -10.161  10.393  64.677  1.00  0.00    -0.378 C  
HETATM    8  C   UNL     1      -7.616   9.666  64.892  1.00  0.00    -0.117 C  
HETATM    9  C   UNL     1      -7.036   7.162  67.488  1.00  0.00    -0.088 C  
HETATM   10  C   UNL     1      -7.554   6.340  66.367  1.00  0.00    -0.094 C  
HETATM   11  C   UNL     1     -10.642  11.933  65.389  1.00  0.00    -0.271 C  
HETATM   12  O   UNL     1     -11.550  11.789  66.462  1.00  0.00    -0.481 OA 
HETATM   13  O   UNL     1      -8.574   6.954  65.689  1.00  0.00    -0.149 OA 
HETATM   14  O   UNL     1      -7.087   5.250  66.043  1.00  0.00    -0.065 OA 
HETATM   15  C   UNL     1     -10.371  12.338  67.039  1.00  0.00    -0.219 C  
HETATM   16  C   UNL     1      -9.216  11.513  67.596  1.00  0.00    -0.171 C  
HETATM   17  C   UNL     1      -7.969  12.435  67.323  1.00  0.00    -0.178 C  
HETATM   18  C   UNL     1     -10.949  13.043  69.404  1.00  0.00    -0.048 C  
HETATM   19  C   UNL     1      -8.039  13.628  68.268  1.00  0.00    -0.155 C  
HETATM   20  C   UNL     1     -10.636  13.550  67.950  1.00  0.00    -0.255 C  
HETATM   21  C   UNL     1      -9.341  14.392  68.053  1.00  0.00    -0.200 C  
HETATM   22  C   UNL     1     -11.850  14.379  67.488  1.00  0.00    -0.418 C  
HETATM   23  C   UNL     1      -9.322  15.724  67.922  1.00  0.00    -0.200 C  
HETATM   24  C   UNL     1     -11.866  15.772  68.106  1.00  0.00    -0.054 C  
HETATM   25  C   UNL     1     -10.580  16.487  67.801  1.00  0.00    -0.332 C  
HETATM   26  O   UNL     1     -10.534  17.696  67.547  1.00  0.00    -0.351 OA 
ENDROOT
BRANCH  17  27
HETATM   27  C   UNL     1      -6.585  11.814  67.336  1.00  0.00    -0.118 C  
HETATM   28  O   UNL     1      -5.706  11.989  66.510  1.00  0.00    -0.272 OA 
BRANCH  27  29
HETATM   29  O   UNL     1      -6.478  11.034  68.455  1.00  0.00    -0.053 OA 
HETATM   30  C   UNL     1      -5.435  11.365  69.374  1.00  0.00    -0.049 C  
ENDBRANCH  27  29
ENDBRANCH  17  27
TORSDOF 2
ENDMDL
MODEL       32
REMARK 921   NORMALIZED FREE ENERGY PREDICTED BY IDOCK:   -5.34 KCAL/MOL
REMARK 922        TOTAL FREE ENERGY PREDICTED BY IDOCK:   -6.35 KCAL/MOL
REMARK 923 INTER-LIGAND FREE ENERGY PREDICTED BY IDOCK:   -5.97 KCAL/MOL
REMARK 924 INTRA-LIGAND FREE ENERGY PREDICTED BY IDOCK:   -0.39 KCAL/MOL
REMARK 927      BINDING AFFINITY PREDICTED BY RF-SCORE:    0.00 PKD
ROOT
HETATM    1  C   UNL     1      -9.101   9.166  67.480  1.00  0.00    -0.137 C  
HETATM    2  C   UNL     1      -8.948   9.175  65.862  1.00  0.00    -0.231 C  
HETATM    3  C   UNL     1      -8.255   7.871  65.512  1.00  0.00    -0.140 C  
HETATM    4  C   UNL     1      -8.079   7.330  66.907  1.00  0.00    -0.120 C  
HETATM    5  C   UNL     1      -7.734   8.636  67.775  1.00  0.00    -0.102 C  
HETATM    6  C   UNL     1      -9.482   6.684  67.288  1.00  0.00    -0.151 C  
HETATM    7  C   UNL     1      -6.926  10.132  67.417  1.00  0.00    -0.082 C  
HETATM    8  C   UNL     1      -7.355   8.220  69.210  1.00  0.00    -0.076 C  
HETATM    9  C   UNL     1      -9.190   5.359  67.871  1.00  0.00    -0.117 C  
HETATM   10  C   UNL     1      -7.810   5.101  67.390  1.00  0.00    -0.096 C  
HETATM   11  C   UNL     1      -7.954  11.563  67.476  1.00  0.00    -0.133 C  
HETATM   12  O   UNL     1      -8.771  11.707  66.331  1.00  0.00    -0.192 OA 
HETATM   13  O   UNL     1      -7.171   6.243  66.981  1.00  0.00    -0.071 OA 
HETATM   14  O   UNL     1      -7.274   3.996  67.405  1.00  0.00    -0.065 OA 
HETATM   15  C   UNL     1      -9.672  11.497  67.411  1.00  0.00    -0.179 C  
HETATM   16  C   UNL     1     -10.160  10.129  67.878  1.00  0.00    -0.207 C  
HETATM   17  C   UNL     1     -10.376  10.347  69.423  1.00  0.00    -0.259 C  
HETATM   18  C   UNL     1     -12.006  11.985  66.551  1.00  0.00    -0.090 C  
HETATM   19  C   UNL     1     -11.596  11.241  69.614  1.00  0.00    -0.401 C  
HETATM   20  C   UNL     1     -10.832  12.508  67.454  1.00  0.00    -0.272 C  
HETATM   21  C   UNL     1     -11.389  12.571  68.897  1.00  0.00    -0.346 C  
HETATM   22  C   UNL     1     -10.425  13.893  66.912  1.00  0.00    -0.276 C  
HETATM   23  C   UNL     1     -11.648  13.721  69.532  1.00  0.00    -0.355 C  
HETATM   24  C   UNL     1     -11.402  14.986  67.330  1.00  0.00    -0.337 C  
HETATM   25  C   UNL     1     -11.536  15.013  68.827  1.00  0.00    -0.335 C  
HETATM   26  O   UNL     1     -11.649  16.065  69.465  1.00  0.00    -0.330 OA 
ENDROOT
BRANCH  17  27
HETATM   27  C   UNL     1     -10.448   9.133  70.329  1.00  0.00    -0.218 C  
HETATM   28  O   UNL     1      -9.839   8.973  71.372  1.00  0.00    -0.278 OA 
BRANCH  27  29
HETATM   29  O   UNL     1     -11.338   8.247  69.785  1.00  0.00    -0.052 OA 
HETATM   30  C   UNL     1     -11.539   7.021  70.491  1.00  0.00    -0.319 C  
ENDBRANCH  27  29
ENDBRANCH  17  27
TORSDOF 2
ENDMDL
MODEL       33
REMARK 921   NORMALIZED FREE ENERGY PREDICTED BY IDOCK:   -5.32 KCAL/MOL
REMARK 922        TOTAL FREE ENERGY PREDICTED BY IDOCK:   -6.33 KCAL/MOL
REMARK 923 INTER-LIGAND FREE ENERGY PREDICTED BY IDOCK:   -5.97 KCAL/MOL
REMARK 924 INTRA-LIGAND FREE ENERGY PREDICTED BY IDOCK:   -0.37 KCAL/MOL
REMARK 927      BINDING AFFINITY PREDICTED BY RF-SCORE:    0.00 PKD
ROOT
HETATM    1  C   UNL     1      -9.497  14.680  67.924  1.00  0.00    -0.210 C  
HETATM    2  C   UNL     1      -8.876  14.885  69.412  1.00  0.00    -0.046 C  
HETATM    3  C   UNL     1      -8.614  16.374  69.542  1.00  0.00     0.189 C  
HETATM    4  C   UNL     1      -9.061  16.799  68.168  1.00  0.00    -0.227 C  
HETATM    5  C   UNL     1      -8.556  15.606  67.221  1.00  0.00    -0.213 C  
HETATM    6  C   UNL     1     -10.648  16.896  68.254  1.00  0.00    -0.363 C  
HETATM    7  C   UNL     1      -7.208  14.512  67.291  1.00  0.00    -0.053 C  
HETATM    8  C   UNL     1      -8.792  15.979  65.745  1.00  0.00     0.008 C  
HETATM    9  C   UNL     1     -11.025  18.176  67.624  1.00  0.00    -0.118 C  
HETATM   10  C   UNL     1      -9.747  18.929  67.650  1.00  0.00    -0.314 C  
HETATM   11  C   UNL     1      -7.637  12.820  67.542  1.00  0.00    -0.162 C  
HETATM   12  O   UNL     1      -7.972  12.526  68.883  1.00  0.00     0.005 OA 
HETATM   13  O   UNL     1      -8.658  18.115  67.825  1.00  0.00    -0.248 OA 
HETATM   14  O   UNL     1      -9.662  20.143  67.480  1.00  0.00    -0.374 OA 
HETATM   15  C   UNL     1      -9.167  12.312  68.143  1.00  0.00    -0.197 C  
HETATM   16  C   UNL     1     -10.218  13.382  67.868  1.00  0.00    -0.241 C  
HETATM   17  C   UNL     1     -10.794  12.951  66.467  1.00  0.00    -0.290 C  
HETATM   18  C   UNL     1     -10.813  11.157  69.687  1.00  0.00    -0.200 C  
HETATM   19  C   UNL     1     -11.621  11.685  66.658  1.00  0.00    -0.194 C  
HETATM   20  C   UNL     1      -9.856  10.971  68.454  1.00  0.00    -0.186 C  
HETATM   21  C   UNL     1     -10.758  10.581  67.258  1.00  0.00    -0.333 C  
HETATM   22  C   UNL     1      -8.848   9.865  68.826  1.00  0.00    -0.136 C  
HETATM   23  C   UNL     1     -10.774   9.353  66.724  1.00  0.00    -0.129 C  
HETATM   24  C   UNL     1      -9.457   8.471  68.724  1.00  0.00    -0.143 C  
HETATM   25  C   UNL     1     -10.013   8.251  67.344  1.00  0.00    -0.209 C  
HETATM   26  O   UNL     1      -9.935   7.164  66.761  1.00  0.00    -0.204 OA 
ENDROOT
BRANCH  17  27
HETATM   27  C   UNL     1     -11.552  13.973  65.643  1.00  0.00    -0.331 C  
HETATM   28  O   UNL     1     -12.354  14.789  66.062  1.00  0.00    -0.156 OA 
BRANCH  27  29
HETATM   29  O   UNL     1     -11.164  13.841  64.337  1.00  0.00    -0.376 OA 
HETATM   30  C   UNL     1     -12.075  13.177  63.458  1.00  0.00    -0.514 C  
ENDBRANCH  27  29
ENDBRANCH  17  27
TORSDOF 2
ENDMDL
MODEL       34
REMARK 921   NORMALIZED FREE ENERGY PREDICTED BY IDOCK:   -5.28 KCAL/MOL
REMARK 922        TOTAL FREE ENERGY PREDICTED BY IDOCK:   -6.29 KCAL/MOL
REMARK 923 INTER-LIGAND FREE ENERGY PREDICTED BY IDOCK:   -6.07 KCAL/MOL
REMARK 924 INTRA-LIGAND FREE ENERGY PREDICTED BY IDOCK:   -0.22 KCAL/MOL
REMARK 927      BINDING AFFINITY PREDICTED BY RF-SCORE:    0.00 PKD
ROOT
HETATM    1  C   UNL     1     -10.465  11.375  66.734  1.00  0.00    -0.284 C  
HETATM    2  C   UNL     1     -11.618  11.650  67.845  1.00  0.00    -0.369 C  
HETATM    3  C   UNL     1     -12.269  12.960  67.439  1.00  0.00    -0.100 C  
HETATM    4  C   UNL     1     -11.421  13.265  66.232  1.00  0.00    -0.325 C  
HETATM    5  C   UNL     1      -9.955  12.779  66.669  1.00  0.00    -0.246 C  
HETATM    6  C   UNL     1     -12.039  12.392  65.053  1.00  0.00    -0.468 C  
HETATM    7  C   UNL     1      -9.127  12.696  68.194  1.00  0.00    -0.204 C  
HETATM    8  C   UNL     1      -8.931  13.183  65.591  1.00  0.00     0.753 C  
HETATM    9  C   UNL     1     -12.160  13.288  63.886  1.00  0.00    -0.531 C  
HETATM   10  C   UNL     1     -12.090  14.631  64.512  1.00  0.00    -0.475 C  
HETATM   11  C   UNL     1      -8.769  11.064  68.756  1.00  0.00    -0.145 C  
HETATM   12  O   UNL     1      -9.892  10.408  69.308  1.00  0.00    -0.212 OA 
HETATM   13  O   UNL     1     -11.552  14.600  65.772  1.00  0.00    -0.351 OA 
HETATM   14  O   UNL     1     -12.427  15.669  63.947  1.00  0.00    -0.693 OA 
HETATM   15  C   UNL     1      -9.554   9.659  68.147  1.00  0.00    -0.143 C  
HETATM   16  C   UNL     1     -10.103   9.933  66.751  1.00  0.00    -0.292 C  
HETATM   17  C   UNL     1      -8.914   9.489  65.818  1.00  0.00    -0.219 C  
HETATM   18  C   UNL     1     -10.907   7.517  68.210  1.00  0.00    -0.052 C  
HETATM   19  C   UNL     1      -8.810   7.970  65.865  1.00  0.00    -0.189 C  
HETATM   20  C   UNL     1      -9.477   8.142  68.390  1.00  0.00    -0.146 C  
HETATM   21  C   UNL     1      -8.583   7.504  67.299  1.00  0.00    -0.118 C  
HETATM   22  C   UNL     1      -9.009   7.798  69.818  1.00  0.00    -0.146 C  
HETATM   23  C   UNL     1      -7.620   6.614  67.570  1.00  0.00    -0.105 C  
HETATM   24  C   UNL     1      -8.532   6.355  69.938  1.00  0.00    -0.131 C  
HETATM   25  C   UNL     1      -7.444   6.087  68.937  1.00  0.00    -0.086 C  
HETATM   26  O   UNL     1      -6.468   5.372  69.191  1.00  0.00    -0.038 OA 
ENDROOT
BRANCH  17  27
HETATM   27  C   UNL     1      -8.883   9.990  64.387  1.00  0.00    -0.213 C  
HETATM   28  O   UNL     1      -9.834  10.394  63.741  1.00  0.00    -0.310 OA 
BRANCH  27  29
HETATM   29  O   UNL     1      -7.590   9.933  63.943  1.00  0.00    -0.132 OA 
HETATM   30  C   UNL     1      -7.365   9.274  62.695  1.00  0.00    -0.099 C  
ENDBRANCH  27  29
ENDBRANCH  17  27
TORSDOF 2
ENDMDL
MODEL       35
REMARK 921   NORMALIZED FREE ENERGY PREDICTED BY IDOCK:   -5.25 KCAL/MOL
REMARK 922        TOTAL FREE ENERGY PREDICTED BY IDOCK:   -6.26 KCAL/MOL
REMARK 923 INTER-LIGAND FREE ENERGY PREDICTED BY IDOCK:   -5.84 KCAL/MOL
REMARK 924 INTRA-LIGAND FREE ENERGY PREDICTED BY IDOCK:   -0.41 KCAL/MOL
REMARK 927      BINDING AFFINITY PREDICTED BY RF-SCORE:    0.00 PKD
ROOT
HETATM    1  C   UNL     1      -9.381  14.334  67.993  1.00  0.00    -0.200 C  
HETATM    2  C   UNL     1      -8.682  14.532  69.447  1.00  0.00     0.208 C  
HETATM    3  C   UNL     1      -8.559  16.033  69.637  1.00  0.00     0.123 C  
HETATM    4  C   UNL     1      -9.141  16.473  68.319  1.00  0.00    -0.214 C  
HETATM    5  C   UNL     1      -8.588  15.381  67.280  1.00  0.00    -0.216 C  
HETATM    6  C   UNL     1     -10.720  16.403  68.513  1.00  0.00    -0.320 C  
HETATM    7  C   UNL     1      -7.137  14.429  67.205  1.00  0.00     0.024 C  
HETATM    8  C   UNL     1      -8.962  15.795  65.844  1.00  0.00    -0.228 C  
HETATM    9  C   UNL     1     -11.265  17.665  67.976  1.00  0.00     0.241 C  
HETATM   10  C   UNL     1     -10.069  18.543  67.959  1.00  0.00    -0.371 C  
HETATM   11  C   UNL     1      -7.379  12.692  67.395  1.00  0.00    -0.140 C  
HETATM   12  O   UNL     1      -7.588  12.305  68.737  1.00  0.00    -0.110 OA 
HETATM   13  O   UNL     1      -8.895  17.837  68.020  1.00  0.00    -0.246 OA 
HETATM   14  O   UNL     1     -10.116  19.766  67.848  1.00  0.00    -0.380 OA 
HETATM   15  C   UNL     1      -8.805  12.003  68.066  1.00  0.00    -0.179 C  
HETATM   16  C   UNL     1      -9.973  12.972  67.916  1.00  0.00    -0.230 C  
HETATM   17  C   UNL     1     -10.600  12.549  66.534  1.00  0.00    -0.265 C  
HETATM   18  C   UNL     1     -10.217  10.617  69.650  1.00  0.00    -0.156 C  
HETATM   19  C   UNL     1     -11.282  11.198  66.712  1.00  0.00    -0.215 C  
HETATM   20  C   UNL     1      -9.334  10.587  68.351  1.00  0.00    -0.158 C  
HETATM   21  C   UNL     1     -10.275  10.161  67.197  1.00  0.00    -0.278 C  
HETATM   22  C   UNL     1      -8.200   9.573  68.598  1.00  0.00    -0.112 C  
HETATM   23  C   UNL     1     -10.207   8.964  66.601  1.00  0.00    -0.338 C  
HETATM   24  C   UNL     1      -8.673   8.131  68.463  1.00  0.00    -0.134 C  
HETATM   25  C   UNL     1      -9.299   7.918  67.112  1.00  0.00    -0.153 C  
HETATM   26  O   UNL     1      -9.155   6.873  66.470  1.00  0.00    -0.146 OA 
ENDROOT
BRANCH  17  27
HETATM   27  C   UNL     1     -11.511  13.526  65.816  1.00  0.00    -0.315 C  
HETATM   28  O   UNL     1     -12.411  14.176  66.315  1.00  0.00    -0.466 OA 
BRANCH  27  29
HETATM   29  O   UNL     1     -11.133  13.573  64.501  1.00  0.00    -0.351 OA 
HETATM   30  C   UNL     1     -12.122  13.215  63.533  1.00  0.00    -0.514 C  
ENDBRANCH  27  29
ENDBRANCH  17  27
TORSDOF 2
ENDMDL
MODEL       36
REMARK 921   NORMALIZED FREE ENERGY PREDICTED BY IDOCK:   -5.17 KCAL/MOL
REMARK 922        TOTAL FREE ENERGY PREDICTED BY IDOCK:   -6.17 KCAL/MOL
REMARK 923 INTER-LIGAND FREE ENERGY PREDICTED BY IDOCK:   -5.85 KCAL/MOL
REMARK 924 INTRA-LIGAND FREE ENERGY PREDICTED BY IDOCK:   -0.32 KCAL/MOL
REMARK 927      BINDING AFFINITY PREDICTED BY RF-SCORE:    0.00 PKD
ROOT
HETATM    1  C   UNL     1      -9.835  10.295  69.357  1.00  0.00    -0.247 C  
HETATM    2  C   UNL     1     -11.321  10.195  70.007  1.00  0.00    -0.351 C  
HETATM    3  C   UNL     1     -11.409   8.803  70.606  1.00  0.00    -0.289 C  
HETATM    4  C   UNL     1     -10.045   8.303  70.208  1.00  0.00    -0.192 C  
HETATM    5  C   UNL     1      -9.825   8.930  68.747  1.00  0.00    -0.182 C  
HETATM    6  C   UNL     1      -9.046   8.896  71.296  1.00  0.00    -0.323 C  
HETATM    7  C   UNL     1     -10.903   9.350  67.451  1.00  0.00    -0.189 C  
HETATM    8  C   UNL     1      -8.532   8.365  68.128  1.00  0.00    -0.132 C  
HETATM    9  C   UNL     1      -8.174   7.782  71.717  1.00  0.00    -0.126 C  
HETATM   10  C   UNL     1      -8.948   6.594  71.280  1.00  0.00    -0.144 C  
HETATM   11  C   UNL     1     -11.011  11.076  67.105  1.00  0.00    -0.283 C  
HETATM   12  O   UNL     1     -11.817  11.778  68.029  1.00  0.00    -0.484 OA 
HETATM   13  O   UNL     1      -9.898   6.898  70.340  1.00  0.00    -0.179 OA 
HETATM   14  O   UNL     1      -8.730   5.450  71.674  1.00  0.00    -0.132 OA 
HETATM   15  C   UNL     1     -10.504  12.295  68.208  1.00  0.00    -0.226 C  
HETATM   16  C   UNL     1      -9.474  11.726  69.178  1.00  0.00     0.314 C  
HETATM   17  C   UNL     1      -8.110  12.028  68.451  1.00  0.00    -0.154 C  
HETATM   18  C   UNL     1     -10.696  14.346  69.686  1.00  0.00    -0.084 C  
HETATM   19  C   UNL     1      -7.858  13.529  68.510  1.00  0.00    -0.125 C  
HETATM   20  C   UNL     1     -10.442  13.833  68.222  1.00  0.00    -0.251 C  
HETATM   21  C   UNL     1      -9.008  14.281  67.848  1.00  0.00    -0.186 C  
HETATM   22  C   UNL     1     -11.519  14.474  67.324  1.00  0.00    -0.381 C  
HETATM   23  C   UNL     1      -8.752  15.248  66.958  1.00  0.00    -0.260 C  
HETATM   24  C   UNL     1     -11.210  15.931  67.003  1.00  0.00    -0.024 C  
HETATM   25  C   UNL     1      -9.849  16.043  66.373  1.00  0.00    -0.288 C  
HETATM   26  O   UNL     1      -9.603  16.837  65.458  1.00  0.00    -0.515 OA 
ENDROOT
BRANCH  17  27
HETATM   27  C   UNL     1      -6.873  11.255  68.869  1.00  0.00    -0.086 C  
HETATM   28  O   UNL     1      -6.567  10.940  70.005  1.00  0.00    -0.144 OA 
BRANCH  27  29
HETATM   29  O   UNL     1      -6.163  10.946  67.741  1.00  0.00    -0.050 OA 
HETATM   30  C   UNL     1      -6.882  10.943  66.506  1.00  0.00    -0.132 C  
ENDBRANCH  27  29
ENDBRANCH  17  27
TORSDOF 2
ENDMDL
MODEL       37
REMARK 921   NORMALIZED FREE ENERGY PREDICTED BY IDOCK:   -5.13 KCAL/MOL
REMARK 922        TOTAL FREE ENERGY PREDICTED BY IDOCK:   -6.12 KCAL/MOL
REMARK 923 INTER-LIGAND FREE ENERGY PREDICTED BY IDOCK:   -6.53 KCAL/MOL
REMARK 924 INTRA-LIGAND FREE ENERGY PREDICTED BY IDOCK:    0.41 KCAL/MOL
REMARK 927      BINDING AFFINITY PREDICTED BY RF-SCORE:    0.00 PKD
ROOT
HETATM    1  C   UNL     1      -9.679  11.631  68.046  1.00  0.00    -0.182 C  
HETATM    2  C   UNL     1      -8.177  11.773  67.444  1.00  0.00    -0.160 C  
HETATM    3  C   UNL     1      -8.150  13.111  66.729  1.00  0.00     0.199 C  
HETATM    4  C   UNL     1      -9.579  13.522  66.972  1.00  0.00    -0.248 C  
HETATM    5  C   UNL     1     -10.395  12.146  66.838  1.00  0.00    -0.235 C  
HETATM    6  C   UNL     1      -9.600  14.116  68.449  1.00  0.00    -0.225 C  
HETATM    7  C   UNL     1     -10.154  10.698  65.908  1.00  0.00    -0.321 C  
HETATM    8  C   UNL     1     -11.908  12.431  66.894  1.00  0.00    -0.377 C  
HETATM    9  C   UNL     1     -10.353  15.384  68.381  1.00  0.00    -0.229 C  
HETATM   10  C   UNL     1     -10.308  15.700  66.932  1.00  0.00    -0.293 C  
HETATM   11  C   UNL     1      -9.795   9.257  66.858  1.00  0.00    -0.214 C  
HETATM   12  O   UNL     1      -8.458   9.211  67.314  1.00  0.00    -0.120 OA 
HETATM   13  O   UNL     1     -10.001  14.608  66.162  1.00  0.00    -0.275 OA 
HETATM   14  O   UNL     1     -10.569  16.805  66.462  1.00  0.00    -0.287 OA 
HETATM   15  C   UNL     1      -9.252   9.310  68.490  1.00  0.00    -0.135 C  
HETATM   16  C   UNL     1      -9.676  10.623  69.139  1.00  0.00    -0.205 C  
HETATM   17  C   UNL     1     -11.071  10.261  69.773  1.00  0.00    -0.340 C  
HETATM   18  C   UNL     1      -7.726   8.879  70.468  1.00  0.00    -0.106 C  
HETATM   19  C   UNL     1     -10.831   9.341  70.964  1.00  0.00    -0.385 C  
HETATM   20  C   UNL     1      -8.877   8.287  69.577  1.00  0.00    -0.149 C  
HETATM   21  C   UNL     1     -10.092   8.085  70.515  1.00  0.00    -0.195 C  
HETATM   22  C   UNL     1      -8.356   6.963  68.984  1.00  0.00    -0.125 C  
HETATM   23  C   UNL     1     -10.526   6.878  70.901  1.00  0.00    -0.233 C  
HETATM   24  C   UNL     1      -8.384   5.826  69.998  1.00  0.00    -0.123 C  
HETATM   25  C   UNL     1      -9.773   5.658  70.548  1.00  0.00    -0.180 C  
HETATM   26  O   UNL     1     -10.261   4.551  70.798  1.00  0.00    -0.194 OA 
ENDROOT
BRANCH  17  27
HETATM   27  C   UNL     1     -12.020  11.385  70.141  1.00  0.00    -0.377 C  
HETATM   28  O   UNL     1     -11.844  12.574  69.942  1.00  0.00    -0.325 OA 
BRANCH  27  29
HETATM   29  O   UNL     1     -13.131  10.834  70.720  1.00  0.00    -0.308 OA 
HETATM   30  C   UNL     1     -13.513  11.345  71.999  1.00  0.00    -0.183 C  
ENDBRANCH  27  29
ENDBRANCH  17  27
TORSDOF 2
ENDMDL
MODEL       38
REMARK 921   NORMALIZED FREE ENERGY PREDICTED BY IDOCK:   -5.12 KCAL/MOL
REMARK 922        TOTAL FREE ENERGY PREDICTED BY IDOCK:   -6.11 KCAL/MOL
REMARK 923 INTER-LIGAND FREE ENERGY PREDICTED BY IDOCK:   -5.70 KCAL/MOL
REMARK 924 INTRA-LIGAND FREE ENERGY PREDICTED BY IDOCK:   -0.41 KCAL/MOL
REMARK 927      BINDING AFFINITY PREDICTED BY RF-SCORE:    0.00 PKD
ROOT
HETATM    1  C   UNL     1      -8.522   9.112  68.311  1.00  0.00    -0.125 C  
HETATM    2  C   UNL     1      -8.753   9.902  69.712  1.00  0.00    -0.229 C  
HETATM    3  C   UNL     1      -8.051   9.069  70.769  1.00  0.00    -0.194 C  
HETATM    4  C   UNL     1      -7.567   7.950  69.885  1.00  0.00    -0.089 C  
HETATM    5  C   UNL     1      -8.775   7.740  68.848  1.00  0.00    -0.135 C  
HETATM    6  C   UNL     1      -6.244   8.502  69.194  1.00  0.00    -0.043 C  
HETATM    7  C   UNL     1     -10.496   7.949  68.958  1.00  0.00    -0.210 C  
HETATM    8  C   UNL     1      -8.500   6.501  67.974  1.00  0.00    -0.119 C  
HETATM    9  C   UNL     1      -5.231   7.435  69.313  1.00  0.00    -0.015 C  
HETATM   10  C   UNL     1      -5.788   6.592  70.400  1.00  0.00    -0.023 C  
HETATM   11  C   UNL     1     -11.152   9.240  67.952  1.00  0.00     0.135 C  
HETATM   12  O   UNL     1     -10.941  10.528  68.493  1.00  0.00    -0.218 OA 
HETATM   13  O   UNL     1      -7.125   6.811  70.606  1.00  0.00    -0.065 OA 
HETATM   14  O   UNL     1      -5.139   5.750  71.016  1.00  0.00    -0.008 OA 
HETATM   15  C   UNL     1     -10.191  10.501  67.285  1.00  0.00    -0.215 C  
HETATM   16  C   UNL     1      -8.738  10.049  67.177  1.00  0.00    -0.132 C  
HETATM   17  C   UNL     1      -8.672   9.437  65.728  1.00  0.00    -0.183 C  
HETATM   18  C   UNL     1      -9.440  12.876  66.811  1.00  0.00    -0.245 C  
HETATM   19  C   UNL     1      -8.762  10.578  64.722  1.00  0.00    -0.196 C  
HETATM   20  C   UNL     1     -10.424  11.728  66.385  1.00  0.00    -0.271 C  
HETATM   21  C   UNL     1     -10.056  11.358  64.927  1.00  0.00    -0.323 C  
HETATM   22  C   UNL     1     -11.855  12.287  66.513  1.00  0.00    -0.378 C  
HETATM   23  C   UNL     1     -10.832  11.656  63.878  1.00  0.00    -0.471 C  
HETATM   24  C   UNL     1     -12.222  13.206  65.353  1.00  0.00    -0.510 C  
HETATM   25  C   UNL     1     -12.043  12.484  64.047  1.00  0.00    -0.473 C  
HETATM   26  O   UNL     1     -12.814  12.633  63.093  1.00  0.00    -0.576 OA 
ENDROOT
BRANCH  17  27
HETATM   27  C   UNL     1      -7.531   8.500  65.383  1.00  0.00    -0.086 C  
HETATM   28  O   UNL     1      -6.364   8.630  65.709  1.00  0.00    -0.055 OA 
BRANCH  27  29
HETATM   29  O   UNL     1      -8.040   7.459  64.655  1.00  0.00    -0.134 OA 
HETATM   30  C   UNL     1      -7.636   7.372  63.286  1.00  0.00    -0.114 C  
ENDBRANCH  27  29
ENDBRANCH  17  27
TORSDOF 2
ENDMDL
MODEL       39
REMARK 921   NORMALIZED FREE ENERGY PREDICTED BY IDOCK:   -5.01 KCAL/MOL
REMARK 922        TOTAL FREE ENERGY PREDICTED BY IDOCK:   -5.99 KCAL/MOL
REMARK 923 INTER-LIGAND FREE ENERGY PREDICTED BY IDOCK:   -5.59 KCAL/MOL
REMARK 924 INTRA-LIGAND FREE ENERGY PREDICTED BY IDOCK:   -0.40 KCAL/MOL
REMARK 927      BINDING AFFINITY PREDICTED BY RF-SCORE:    0.00 PKD
ROOT
HETATM    1  C   UNL     1      -9.371  13.111  66.573  1.00  0.00    -0.222 C  
HETATM    2  C   UNL     1     -10.444  13.013  65.358  1.00  0.00    -0.308 C  
HETATM    3  C   UNL     1     -11.094  14.381  65.278  1.00  0.00    -0.344 C  
HETATM    4  C   UNL     1     -10.370  15.039  66.423  1.00  0.00    -0.287 C  
HETATM    5  C   UNL     1     -10.251  13.869  67.515  1.00  0.00    -0.245 C  
HETATM    6  C   UNL     1      -8.961  15.482  65.830  1.00  0.00    -0.133 C  
HETATM    7  C   UNL     1     -11.241  12.498  67.912  1.00  0.00    -0.312 C  
HETATM    8  C   UNL     1      -9.677  14.438  68.827  1.00  0.00    -0.190 C  
HETATM    9  C   UNL     1      -8.739  16.873  66.270  1.00  0.00    -0.321 C  
HETATM   10  C   UNL     1     -10.109  17.311  66.634  1.00  0.00    -0.302 C  
HETATM   11  C   UNL     1     -10.504  10.930  67.583  1.00  0.00    -0.209 C  
HETATM   12  O   UNL     1     -10.531  10.579  66.215  1.00  0.00    -0.235 OA 
HETATM   13  O   UNL     1     -10.962  16.258  66.840  1.00  0.00    -0.213 OA 
HETATM   14  O   UNL     1     -10.436  18.486  66.789  1.00  0.00    -0.379 OA 
HETATM   15  C   UNL     1      -9.153  10.720  66.538  1.00  0.00    -0.165 C  
HETATM   16  C   UNL     1      -8.368  12.023  66.432  1.00  0.00     0.053 C  
HETATM   17  C   UNL     1      -7.305  11.882  67.585  1.00  0.00    -0.123 C  
HETATM   18  C   UNL     1      -7.823   9.811  64.581  1.00  0.00    -0.136 C  
HETATM   19  C   UNL     1      -6.290  10.824  67.174  1.00  0.00    -0.072 C  
HETATM   20  C   UNL     1      -8.283   9.544  66.059  1.00  0.00    -0.115 C  
HETATM   21  C   UNL     1      -6.992   9.496  66.913  1.00  0.00    -0.081 C  
HETATM   22  C   UNL     1      -9.048   8.206  66.062  1.00  0.00    -0.218 C  
HETATM   23  C   UNL     1      -6.511   8.366  67.448  1.00  0.00    -0.058 C  
HETATM   24  C   UNL     1      -8.112   7.005  66.002  1.00  0.00    -0.122 C  
HETATM   25  C   UNL     1      -7.127   7.062  67.136  1.00  0.00    -0.083 C  
HETATM   26  O   UNL     1      -6.752   6.053  67.743  1.00  0.00    -0.054 OA 
ENDROOT
BRANCH  17  27
HETATM   27  C   UNL     1      -6.610  13.131  68.094  1.00  0.00    -0.107 C  
HETATM   28  O   UNL     1      -6.110  14.008  67.412  1.00  0.00    -0.345 OA 
BRANCH  27  29
HETATM   29  O   UNL     1      -6.659  13.119  69.461  1.00  0.00    -0.104 OA 
HETATM   30  C   UNL     1      -6.107  14.251  70.136  1.00  0.00    -0.160 C  
ENDBRANCH  27  29
ENDBRANCH  17  27
TORSDOF 2
ENDMDL
MODEL       40
REMARK 921   NORMALIZED FREE ENERGY PREDICTED BY IDOCK:   -4.98 KCAL/MOL
REMARK 922        TOTAL FREE ENERGY PREDICTED BY IDOCK:   -5.95 KCAL/MOL
REMARK 923 INTER-LIGAND FREE ENERGY PREDICTED BY IDOCK:   -5.70 KCAL/MOL
REMARK 924 INTRA-LIGAND FREE ENERGY PREDICTED BY IDOCK:   -0.25 KCAL/MOL
REMARK 927      BINDING AFFINITY PREDICTED BY RF-SCORE:    0.00 PKD
ROOT
HETATM    1  C   UNL     1      -9.183   9.001  69.795  1.00  0.00    -0.172 C  
HETATM    2  C   UNL     1      -7.951  10.057  69.706  1.00  0.00    -0.190 C  
HETATM    3  C   UNL     1      -8.352  11.060  68.639  1.00  0.00    -0.153 C  
HETATM    4  C   UNL     1      -9.677  10.456  68.253  1.00  0.00    -0.151 C  
HETATM    5  C   UNL     1      -9.405   8.876  68.322  1.00  0.00    -0.149 C  
HETATM    6  C   UNL     1     -10.706  10.959  69.358  1.00  0.00    -0.265 C  
HETATM    7  C   UNL     1      -7.999   7.891  68.054  1.00  0.00    -0.128 C  
HETATM    8  C   UNL     1     -10.631   8.114  67.783  1.00  0.00    -0.233 C  
HETATM    9  C   UNL     1     -11.902  11.431  68.634  1.00  0.00    -0.377 C  
HETATM   10  C   UNL     1     -11.379  11.637  67.261  1.00  0.00    -0.305 C  
HETATM   11  C   UNL     1      -7.384   7.070  69.488  1.00  0.00    -0.094 C  
HETATM   12  O   UNL     1      -6.649   7.922  70.343  1.00  0.00    -0.037 OA 
HETATM   13  O   UNL     1     -10.201  10.973  67.040  1.00  0.00    -0.196 OA 
HETATM   14  O   UNL     1     -11.960  12.287  66.396  1.00  0.00    -0.589 OA 
HETATM   15  C   UNL     1      -7.794   7.534  71.093  1.00  0.00    -0.091 C  
HETATM   16  C   UNL     1      -9.122   8.285  71.096  1.00  0.00    -0.198 C  
HETATM   17  C   UNL     1     -10.171   7.133  71.322  1.00  0.00    -0.199 C  
HETATM   18  C   UNL     1      -7.417   8.283  73.486  1.00  0.00    -0.175 C  
HETATM   19  C   UNL     1     -10.041   6.642  72.758  1.00  0.00    -0.195 C  
HETATM   20  C   UNL     1      -7.466   7.047  72.516  1.00  0.00    -0.088 C  
HETATM   21  C   UNL     1      -8.622   6.147  73.017  1.00  0.00    -0.118 C  
HETATM   22  C   UNL     1      -6.092   6.352  72.597  1.00  0.00    -0.046 C  
HETATM   23  C   UNL     1      -8.422   4.965  73.614  1.00  0.00    -0.105 C  
HETATM   24  C   UNL     1      -5.943   5.515  73.862  1.00  0.00    -0.056 C  
HETATM   25  C   UNL     1      -7.059   4.511  73.950  1.00  0.00    -0.068 C  
HETATM   26  O   UNL     1      -6.889   3.364  74.377  1.00  0.00    -0.042 OA 
ENDROOT
BRANCH  17  27
HETATM   27  C   UNL     1     -11.623   7.389  70.967  1.00  0.00    -0.288 C  
HETATM   28  O   UNL     1     -12.393   6.594  70.456  1.00  0.00    -0.314 OA 
BRANCH  27  29
HETATM   29  O   UNL     1     -11.936   8.667  71.342  1.00  0.00    -0.285 OA 
HETATM   30  C   UNL     1     -13.217   8.868  71.943  1.00  0.00    -0.393 C  
ENDBRANCH  27  29
ENDBRANCH  17  27
TORSDOF 2
ENDMDL
MODEL       41
REMARK 921   NORMALIZED FREE ENERGY PREDICTED BY IDOCK:   -4.88 KCAL/MOL
REMARK 922        TOTAL FREE ENERGY PREDICTED BY IDOCK:   -5.84 KCAL/MOL
REMARK 923 INTER-LIGAND FREE ENERGY PREDICTED BY IDOCK:   -5.50 KCAL/MOL
REMARK 924 INTRA-LIGAND FREE ENERGY PREDICTED BY IDOCK:   -0.34 KCAL/MOL
REMARK 927      BINDING AFFINITY PREDICTED BY RF-SCORE:    0.00 PKD
ROOT
HETATM    1  C   UNL     1      -9.690   8.429  69.443  1.00  0.00    -0.177 C  
HETATM    2  C   UNL     1     -11.126   9.175  69.591  1.00  0.00    -0.103 C  
HETATM    3  C   UNL     1     -11.700   8.694  70.910  1.00  0.00    -0.287 C  
HETATM    4  C   UNL     1     -10.591   7.755  71.307  1.00  0.00    -0.218 C  
HETATM    5  C   UNL     1     -10.148   7.086  69.916  1.00  0.00    -0.202 C  
HETATM    6  C   UNL     1      -9.461   8.682  71.938  1.00  0.00    -0.369 C  
HETATM    7  C   UNL     1     -10.997   6.705  68.449  1.00  0.00    -0.313 C  
HETATM    8  C   UNL     1      -9.125   5.965  70.181  1.00  0.00    -0.155 C  
HETATM    9  C   UNL     1      -9.036   8.032  73.193  1.00  0.00    -0.341 C  
HETATM   10  C   UNL     1     -10.170   7.116  73.472  1.00  0.00    -0.351 C  
HETATM   11  C   UNL     1     -10.493   7.634  67.037  1.00  0.00    -0.349 C  
HETATM   12  O   UNL     1     -11.016   8.947  67.022  1.00  0.00    -0.086 OA 
HETATM   13  O   UNL     1     -10.943   6.879  72.365  1.00  0.00    -0.228 OA 
HETATM   14  O   UNL     1     -10.368   6.582  74.561  1.00  0.00    -0.341 OA 
HETATM   15  C   UNL     1      -9.608   9.105  67.140  1.00  0.00    -0.164 C  
HETATM   16  C   UNL     1      -8.852   9.168  68.463  1.00  0.00    -0.129 C  
HETATM   17  C   UNL     1      -7.459   8.531  68.098  1.00  0.00    -0.097 C  
HETATM   18  C   UNL     1      -9.093  11.561  66.781  1.00  0.00    -0.184 C  
HETATM   19  C   UNL     1      -6.702   9.512  67.211  1.00  0.00    -0.072 C  
HETATM   20  C   UNL     1      -9.015  10.124  66.150  1.00  0.00    -0.171 C  
HETATM   21  C   UNL     1      -7.510   9.816  65.955  1.00  0.00    -0.103 C  
HETATM   22  C   UNL     1      -9.790  10.171  64.819  1.00  0.00    -0.382 C  
HETATM   23  C   UNL     1      -6.923   9.770  64.752  1.00  0.00    -0.122 C  
HETATM   24  C   UNL     1      -8.990  10.840  63.708  1.00  0.00    -0.171 C  
HETATM   25  C   UNL     1      -7.668  10.146  63.535  1.00  0.00    -0.144 C  
HETATM   26  O   UNL     1      -7.150   9.968  62.427  1.00  0.00    -0.112 OA 
ENDROOT
BRANCH  17  27
HETATM   27  C   UNL     1      -6.574   8.018  69.217  1.00  0.00    -0.036 C  
HETATM   28  O   UNL     1      -6.004   6.942  69.253  1.00  0.00    -0.018 OA 
BRANCH  27  29
HETATM   29  O   UNL     1      -6.502   8.987  70.182  1.00  0.00    -0.040 OA 
HETATM   30  C   UNL     1      -5.269   9.094  70.897  1.00  0.00    -0.029 C  
ENDBRANCH  27  29
ENDBRANCH  17  27
TORSDOF 2
ENDMDL
MODEL       42
REMARK 921   NORMALIZED FREE ENERGY PREDICTED BY IDOCK:   -4.83 KCAL/MOL
REMARK 922        TOTAL FREE ENERGY PREDICTED BY IDOCK:   -5.78 KCAL/MOL
REMARK 923 INTER-LIGAND FREE ENERGY PREDICTED BY IDOCK:   -5.50 KCAL/MOL
REMARK 924 INTRA-LIGAND FREE ENERGY PREDICTED BY IDOCK:   -0.28 KCAL/MOL
REMARK 927      BINDING AFFINITY PREDICTED BY RF-SCORE:    0.00 PKD
ROOT
HETATM    1  C   UNL     1      -8.929   7.500  67.760  1.00  0.00    -0.131 C  
HETATM    2  C   UNL     1      -8.315   6.265  66.902  1.00  0.00    -0.109 C  
HETATM    3  C   UNL     1      -8.108   6.807  65.500  1.00  0.00    -0.128 C  
HETATM    4  C   UNL     1      -8.637   8.200  65.719  1.00  0.00    -0.154 C  
HETATM    5  C   UNL     1      -9.880   7.979  66.710  1.00  0.00    -0.327 C  
HETATM    6  C   UNL     1      -7.439   9.003  66.393  1.00  0.00    -0.092 C  
HETATM    7  C   UNL     1     -11.008   6.678  66.943  1.00  0.00    -0.396 C  
HETATM    8  C   UNL     1     -10.639   9.307  66.896  1.00  0.00    -0.239 C  
HETATM    9  C   UNL     1      -7.338  10.288  65.675  1.00  0.00    -0.149 C  
HETATM   10  C   UNL     1      -8.068  10.003  64.415  1.00  0.00    -0.156 C  
HETATM   11  C   UNL     1     -10.881   5.854  68.497  1.00  0.00    -0.248 C  
HETATM   12  O   UNL     1      -9.795   4.952  68.560  1.00  0.00    -0.152 OA 
HETATM   13  O   UNL     1      -8.885   8.906  64.514  1.00  0.00    -0.144 OA 
HETATM   14  O   UNL     1      -7.995  10.701  63.407  1.00  0.00    -0.095 OA 
HETATM   15  C   UNL     1      -9.498   5.963  69.515  1.00  0.00    -0.138 C  
HETATM   16  C   UNL     1      -8.724   7.241  69.209  1.00  0.00    -0.137 C  
HETATM   17  C   UNL     1      -9.356   8.278  70.212  1.00  0.00    -0.159 C  
HETATM   18  C   UNL     1      -7.525   5.150  70.884  1.00  0.00    -0.078 C  
HETATM   19  C   UNL     1      -8.902   7.918  71.621  1.00  0.00    -0.163 C  
HETATM   20  C   UNL     1      -9.075   5.411  70.888  1.00  0.00    -0.164 C  
HETATM   21  C   UNL     1      -9.330   6.495  71.964  1.00  0.00    -0.147 C  
HETATM   22  C   UNL     1      -9.760   4.071  71.220  1.00  0.00    -0.255 C  
HETATM   23  C   UNL     1      -9.932   6.239  73.132  1.00  0.00    -0.183 C  
HETATM   24  C   UNL     1      -9.685   3.736  72.705  1.00  0.00    -0.200 C  
HETATM   25  C   UNL     1     -10.274   4.856  73.516  1.00  0.00    -0.184 C  
HETATM   26  O   UNL     1     -10.947   4.657  74.534  1.00  0.00    -0.295 OA 
ENDROOT
BRANCH  17  27
HETATM   27  C   UNL     1      -9.171   9.759  69.944  1.00  0.00    -0.234 C  
HETATM   28  O   UNL     1      -8.127  10.316  69.653  1.00  0.00    -0.166 OA 
BRANCH  27  29
HETATM   29  O   UNL     1     -10.390  10.369  70.064  1.00  0.00    -0.235 OA 
HETATM   30  C   UNL     1     -11.503   9.530  70.380  1.00  0.00    -0.242 C  
ENDBRANCH  27  29
ENDBRANCH  17  27
TORSDOF 2
ENDMDL
MODEL       43
REMARK 921   NORMALIZED FREE ENERGY PREDICTED BY IDOCK:   -4.83 KCAL/MOL
REMARK 922        TOTAL FREE ENERGY PREDICTED BY IDOCK:   -5.78 KCAL/MOL
REMARK 923 INTER-LIGAND FREE ENERGY PREDICTED BY IDOCK:   -5.46 KCAL/MOL
REMARK 924 INTRA-LIGAND FREE ENERGY PREDICTED BY IDOCK:   -0.32 KCAL/MOL
REMARK 927      BINDING AFFINITY PREDICTED BY RF-SCORE:    0.00 PKD
ROOT
HETATM    1  C   UNL     1      -9.695  12.536  66.415  1.00  0.00    -0.253 C  
HETATM    2  C   UNL     1      -9.580  13.621  65.211  1.00  0.00     0.122 C  
HETATM    3  C   UNL     1     -10.089  14.928  65.791  1.00  0.00    -0.367 C  
HETATM    4  C   UNL     1     -10.444  14.435  67.170  1.00  0.00    -0.263 C  
HETATM    5  C   UNL     1     -11.039  12.968  66.905  1.00  0.00    -0.306 C  
HETATM    6  C   UNL     1      -9.070  14.412  67.974  1.00  0.00    -0.188 C  
HETATM    7  C   UNL     1     -11.906  12.251  65.581  1.00  0.00    -0.423 C  
HETATM    8  C   UNL     1     -11.610  12.394  68.216  1.00  0.00    -0.384 C  
HETATM    9  C   UNL     1      -9.336  15.049  69.279  1.00  0.00    -0.162 C  
HETATM   10  C   UNL     1     -10.591  15.796  69.015  1.00  0.00    -0.232 C  
HETATM   11  C   UNL     1     -11.031  10.985  64.720  1.00  0.00    -0.072 C  
HETATM   12  O   UNL     1     -10.054  11.490  63.833  1.00  0.00    -0.282 OA 
HETATM   13  O   UNL     1     -11.252  15.341  67.903  1.00  0.00    -0.309 OA 
HETATM   14  O   UNL     1     -11.023  16.689  69.739  1.00  0.00    -0.330 OA 
HETATM   15  C   UNL     1      -9.326  10.775  64.824  1.00  0.00    -0.226 C  
HETATM   16  C   UNL     1      -8.804  11.383  66.121  1.00  0.00    -0.186 C  
HETATM   17  C   UNL     1      -8.863  10.168  67.122  1.00  0.00    -0.138 C  
HETATM   18  C   UNL     1      -6.935  10.576  64.007  1.00  0.00     0.125 C  
HETATM   19  C   UNL     1      -7.774   9.175  66.734  1.00  0.00    -0.097 C  
HETATM   20  C   UNL     1      -8.283   9.803  64.244  1.00  0.00    -0.160 C  
HETATM   21  C   UNL     1      -7.977   8.709  65.296  1.00  0.00    -0.114 C  
HETATM   22  C   UNL     1      -8.715   9.218  62.885  1.00  0.00    -0.210 C  
HETATM   23  C   UNL     1      -7.927   7.404  65.001  1.00  0.00    -0.129 C  
HETATM   24  C   UNL     1      -7.920   7.972  62.514  1.00  0.00    -0.154 C  
HETATM   25  C   UNL     1      -8.035   6.943  63.603  1.00  0.00    -0.062 C  
HETATM   26  O   UNL     1      -8.121   5.733  63.369  1.00  0.00    -0.112 OA 
ENDROOT
BRANCH  17  27
HETATM   27  C   UNL     1      -8.834  10.448  68.612  1.00  0.00    -0.142 C  
HETATM   28  O   UNL     1      -8.303  11.398  69.160  1.00  0.00    -0.025 OA 
BRANCH  27  29
HETATM   29  O   UNL     1      -9.534   9.456  69.246  1.00  0.00    -0.154 OA 
HETATM   30  C   UNL     1     -10.124   9.787  70.504  1.00  0.00    -0.224 C  
ENDBRANCH  27  29
ENDBRANCH  17  27
TORSDOF 2
ENDMDL
MODEL       44
REMARK 921   NORMALIZED FREE ENERGY PREDICTED BY IDOCK:   -4.83 KCAL/MOL
REMARK 922        TOTAL FREE ENERGY PREDICTED BY IDOCK:   -5.78 KCAL/MOL
REMARK 923 INTER-LIGAND FREE ENERGY PREDICTED BY IDOCK:   -5.48 KCAL/MOL
REMARK 924 INTRA-LIGAND FREE ENERGY PREDICTED BY IDOCK:   -0.30 KCAL/MOL
REMARK 927      BINDING AFFINITY PREDICTED BY RF-SCORE:    0.00 PKD
ROOT
HETATM    1  C   UNL     1      -8.271  12.531  67.167  1.00  0.00    -0.168 C  
HETATM    2  C   UNL     1      -6.675  12.546  66.865  1.00  0.00     0.222 C  
HETATM    3  C   UNL     1      -6.291  11.096  66.635  1.00  0.00    -0.134 C  
HETATM    4  C   UNL     1      -7.643  10.470  66.860  1.00  0.00    -0.110 C  
HETATM    5  C   UNL     1      -8.263  11.333  68.062  1.00  0.00    -0.134 C  
HETATM    6  C   UNL     1      -8.427  10.661  65.488  1.00  0.00    -0.177 C  
HETATM    7  C   UNL     1      -7.566  12.175  69.413  1.00  0.00     0.419 C  
HETATM    8  C   UNL     1      -9.589  10.701  68.526  1.00  0.00    -0.175 C  
HETATM    9  C   UNL     1      -9.045   9.358  65.173  1.00  0.00    -0.280 C  
HETATM   10  C   UNL     1      -8.260   8.424  66.017  1.00  0.00    -0.112 C  
HETATM   11  C   UNL     1      -7.741  13.930  69.364  1.00  0.00     0.309 C  
HETATM   12  O   UNL     1      -6.832  14.553  68.480  1.00  0.00    -0.086 OA 
HETATM   13  O   UNL     1      -7.592   9.062  67.030  1.00  0.00    -0.090 OA 
HETATM   14  O   UNL     1      -8.248   7.205  65.864  1.00  0.00    -0.118 OA 
HETATM   15  C   UNL     1      -8.120  14.803  67.931  1.00  0.00    -0.141 C  
HETATM   16  C   UNL     1      -8.827  13.890  66.935  1.00  0.00    -0.210 C  
HETATM   17  C   UNL     1     -10.347  14.105  67.286  1.00  0.00    -0.267 C  
HETATM   18  C   UNL     1      -7.832  16.518  66.086  1.00  0.00    -0.134 C  
HETATM   19  C   UNL     1     -10.750  15.502  66.833  1.00  0.00    -0.317 C  
HETATM   20  C   UNL     1      -8.354  16.275  67.548  1.00  0.00    -0.174 C  
HETATM   21  C   UNL     1      -9.878  16.549  67.517  1.00  0.00    -0.248 C  
HETATM   22  C   UNL     1      -7.593  17.250  68.468  1.00  0.00    -0.251 C  
HETATM   23  C   UNL     1     -10.440  17.620  68.089  1.00  0.00    -0.386 C  
HETATM   24  C   UNL     1      -8.134  18.672  68.376  1.00  0.00    -0.360 C  
HETATM   25  C   UNL     1      -9.606  18.685  68.680  1.00  0.00    -0.368 C  
HETATM   26  O   UNL     1     -10.146  19.595  69.318  1.00  0.00    -0.423 OA 
ENDROOT
BRANCH  17  27
HETATM   27  C   UNL     1     -11.357  13.072  66.823  1.00  0.00    -0.324 C  
HETATM   28  O   UNL     1     -12.113  12.432  67.532  1.00  0.00    -0.491 OA 
BRANCH  27  29
HETATM   29  O   UNL     1     -11.292  12.996  65.458  1.00  0.00    -0.292 OA 
HETATM   30  C   UNL     1     -12.453  12.504  64.785  1.00  0.00    -0.457 C  
ENDBRANCH  27  29
ENDBRANCH  17  27
TORSDOF 2
ENDMDL
MODEL       45
REMARK 921   NORMALIZED FREE ENERGY PREDICTED BY IDOCK:   -4.81 KCAL/MOL
REMARK 922        TOTAL FREE ENERGY PREDICTED BY IDOCK:   -5.76 KCAL/MOL
REMARK 923 INTER-LIGAND FREE ENERGY PREDICTED BY IDOCK:   -5.36 KCAL/MOL
REMARK 924 INTRA-LIGAND FREE ENERGY PREDICTED BY IDOCK:   -0.41 KCAL/MOL
REMARK 927      BINDING AFFINITY PREDICTED BY RF-SCORE:    0.00 PKD
ROOT
HETATM    1  C   UNL     1      -8.797  17.229  67.478  1.00  0.00    -0.219 C  
HETATM    2  C   UNL     1      -7.754  17.548  66.273  1.00  0.00    -0.334 C  
HETATM    3  C   UNL     1      -6.887  18.687  66.776  1.00  0.00    -0.213 C  
HETATM    4  C   UNL     1      -7.539  18.885  68.120  1.00  0.00    -0.277 C  
HETATM    5  C   UNL     1      -9.098  18.653  67.821  1.00  0.00    -0.303 C  
HETATM    6  C   UNL     1      -6.912  17.764  69.060  1.00  0.00    -0.236 C  
HETATM    7  C   UNL     1     -10.102  18.921  66.428  1.00  0.00    -0.457 C  
HETATM    8  C   UNL     1      -9.925  18.991  69.077  1.00  0.00    -0.390 C  
HETATM    9  C   UNL     1      -6.535  18.434  70.320  1.00  0.00     0.360 C  
HETATM   10  C   UNL     1      -6.492  19.862  69.917  1.00  0.00    -0.337 C  
HETATM   11  C   UNL     1     -10.744  17.457  65.683  1.00  0.00    -0.111 C  
HETATM   12  O   UNL     1      -9.793  16.775  64.892  1.00  0.00     0.216 OA 
HETATM   13  O   UNL     1      -7.173  20.102  68.751  1.00  0.00    -0.245 OA 
HETATM   14  O   UNL     1      -5.952  20.746  70.578  1.00  0.00    -0.522 OA 
HETATM   15  C   UNL     1     -10.093  15.889  65.964  1.00  0.00    -0.337 C  
HETATM   16  C   UNL     1      -9.353  15.862  67.297  1.00  0.00    -0.218 C  
HETATM   17  C   UNL     1     -10.474  15.413  68.307  1.00  0.00    -0.241 C  
HETATM   18  C   UNL     1      -9.063  13.643  65.398  1.00  0.00     0.966 C  
HETATM   19  C   UNL     1     -10.790  13.945  68.049  1.00  0.00    -0.259 C  
HETATM   20  C   UNL     1     -10.405  14.452  65.510  1.00  0.00    -0.382 C  
HETATM   21  C   UNL     1     -11.244  13.751  66.607  1.00  0.00    -0.327 C  
HETATM   22  C   UNL     1     -11.079  14.406  64.125  1.00  0.00     0.125 C  
HETATM   23  C   UNL     1     -12.345  13.037  66.341  1.00  0.00    -0.227 C  
HETATM   24  C   UNL     1     -11.760  13.069  63.858  1.00  0.00    -0.531 C  
HETATM   25  C   UNL     1     -12.750  12.768  64.947  1.00  0.00    -0.404 C  
HETATM   26  O   UNL     1     -13.838  12.223  64.726  1.00  0.00     0.317 OA 
ENDROOT
BRANCH  17  27
HETATM   27  C   UNL     1     -10.269  15.671  69.788  1.00  0.00    -0.300 C  
HETATM   28  O   UNL     1      -9.253  15.456  70.425  1.00  0.00     0.334 OA 
BRANCH  27  29
HETATM   29  O   UNL     1     -11.421  16.212  70.290  1.00  0.00    -0.346 OA 
HETATM   30  C   UNL     1     -11.836  15.760  71.581  1.00  0.00    -0.464 C  
ENDBRANCH  27  29
ENDBRANCH  17  27
TORSDOF 2
ENDMDL
MODEL       46
REMARK 921   NORMALIZED FREE ENERGY PREDICTED BY IDOCK:   -4.78 KCAL/MOL
REMARK 922        TOTAL FREE ENERGY PREDICTED BY IDOCK:   -5.72 KCAL/MOL
REMARK 923 INTER-LIGAND FREE ENERGY PREDICTED BY IDOCK:   -5.42 KCAL/MOL
REMARK 924 INTRA-LIGAND FREE ENERGY PREDICTED BY IDOCK:   -0.30 KCAL/MOL
REMARK 927      BINDING AFFINITY PREDICTED BY RF-SCORE:    0.00 PKD
ROOT
HETATM    1  C   UNL     1      -8.749   6.472  68.291  1.00  0.00    -0.117 C  
HETATM    2  C   UNL     1      -8.861   5.086  69.132  1.00  0.00    -0.114 C  
HETATM    3  C   UNL     1      -8.068   4.064  68.338  1.00  0.00    -0.078 C  
HETATM    4  C   UNL     1      -7.659   4.945  67.187  1.00  0.00    -0.087 C  
HETATM    5  C   UNL     1      -8.950   5.866  66.939  1.00  0.00    -0.115 C  
HETATM    6  C   UNL     1      -6.401   5.767  67.714  1.00  0.00    -0.042 C  
HETATM    7  C   UNL     1     -10.656   5.615  67.152  1.00  0.00    -0.344 C  
HETATM    8  C   UNL     1      -8.748   6.715  65.670  1.00  0.00    -0.093 C  
HETATM    9  C   UNL     1      -5.379   5.698  66.651  1.00  0.00    -0.012 C  
HETATM   10  C   UNL     1      -5.837   4.537  65.849  1.00  0.00    -0.022 C  
HETATM   11  C   UNL     1     -11.401   6.607  68.406  1.00  0.00    -0.012 C  
HETATM   12  O   UNL     1     -11.147   6.132  69.713  1.00  0.00    -0.351 OA 
HETATM   13  O   UNL     1      -7.152   4.224  66.075  1.00  0.00    -0.065 OA 
HETATM   14  O   UNL     1      -5.135   3.949  65.029  1.00  0.00    -0.008 OA 
HETATM   15  C   UNL     1     -10.505   7.399  69.643  1.00  0.00    -0.232 C  
HETATM   16  C   UNL     1      -9.065   7.615  69.187  1.00  0.00    -0.141 C  
HETATM   17  C   UNL     1      -9.122   9.042  68.523  1.00  0.00    -0.133 C  
HETATM   18  C   UNL     1      -9.804   8.021  71.998  1.00  0.00    -0.273 C  
HETATM   19  C   UNL     1      -9.302  10.077  69.627  1.00  0.00    -0.242 C  
HETATM   20  C   UNL     1     -10.819   8.319  70.836  1.00  0.00    -0.261 C  
HETATM   21  C   UNL     1     -10.576   9.789  70.414  1.00  0.00    -0.365 C  
HETATM   22  C   UNL     1     -12.235   8.088  71.400  1.00  0.00    -0.335 C  
HETATM   23  C   UNL     1     -11.441  10.777  70.673  1.00  0.00    -0.314 C  
HETATM   24  C   UNL     1     -12.703   9.244  72.275  1.00  0.00    -0.435 C  
HETATM   25  C   UNL     1     -12.635  10.534  71.507  1.00  0.00    -0.424 C  
HETATM   26  O   UNL     1     -13.486  11.423  71.621  1.00  0.00    -0.249 OA 
ENDROOT
BRANCH  17  27
HETATM   27  C   UNL     1      -8.012   9.450  67.574  1.00  0.00    -0.102 C  
HETATM   28  O   UNL     1      -6.834   9.152  67.667  1.00  0.00    -0.074 OA 
BRANCH  27  29
HETATM   29  O   UNL     1      -8.564  10.199  66.570  1.00  0.00    -0.125 OA 
HETATM   30  C   UNL     1      -9.900   9.873  66.182  1.00  0.00    -0.260 C  
ENDBRANCH  27  29
ENDBRANCH  17  27
TORSDOF 2
ENDMDL
MODEL       47
REMARK 921   NORMALIZED FREE ENERGY PREDICTED BY IDOCK:   -4.77 KCAL/MOL
REMARK 922        TOTAL FREE ENERGY PREDICTED BY IDOCK:   -5.71 KCAL/MOL
REMARK 923 INTER-LIGAND FREE ENERGY PREDICTED BY IDOCK:   -5.68 KCAL/MOL
REMARK 924 INTRA-LIGAND FREE ENERGY PREDICTED BY IDOCK:   -0.03 KCAL/MOL
REMARK 927      BINDING AFFINITY PREDICTED BY RF-SCORE:    0.00 PKD
ROOT
HETATM    1  C   UNL     1      -8.979  10.236  68.613  1.00  0.00    -0.144 C  
HETATM    2  C   UNL     1      -7.457  10.473  68.096  1.00  0.00    -0.090 C  
HETATM    3  C   UNL     1      -7.555  11.536  67.017  1.00  0.00    -0.154 C  
HETATM    4  C   UNL     1      -9.048  11.731  67.033  1.00  0.00    -0.187 C  
HETATM    5  C   UNL     1      -9.620  10.249  67.263  1.00  0.00    -0.186 C  
HETATM    6  C   UNL     1      -9.332  12.704  68.260  1.00  0.00    -0.195 C  
HETATM    7  C   UNL     1      -9.052   8.667  66.824  1.00  0.00    -0.183 C  
HETATM    8  C   UNL     1     -11.155  10.258  67.132  1.00  0.00    -0.165 C  
HETATM    9  C   UNL     1     -10.259  13.742  67.768  1.00  0.00    -0.241 C  
HETATM   10  C   UNL     1     -10.096  13.638  66.297  1.00  0.00    -0.299 C  
HETATM   11  C   UNL     1      -8.587   7.643  68.183  1.00  0.00    -0.123 C  
HETATM   12  O   UNL     1      -7.321   7.971  68.718  1.00  0.00    -0.081 OA 
HETATM   13  O   UNL     1      -9.536  12.448  65.910  1.00  0.00    -0.219 OA 
HETATM   14  O   UNL     1     -10.468  14.499  65.503  1.00  0.00    -0.313 OA 
HETATM   15  C   UNL     1      -8.252   8.253  69.756  1.00  0.00    -0.121 C  
HETATM   16  C   UNL     1      -8.947   9.596  69.954  1.00  0.00    -0.243 C  
HETATM   17  C   UNL     1     -10.333   9.180  70.575  1.00  0.00    -0.288 C  
HETATM   18  C   UNL     1      -6.917   8.683  71.868  1.00  0.00    -0.091 C  
HETATM   19  C   UNL     1     -10.093   8.693  71.999  1.00  0.00    -0.401 C  
HETATM   20  C   UNL     1      -7.852   7.665  71.121  1.00  0.00    -0.090 C  
HETATM   21  C   UNL     1      -9.121   7.518  71.995  1.00  0.00    -0.157 C  
HETATM   22  C   UNL     1      -7.067   6.345  70.986  1.00  0.00    -0.070 C  
HETATM   23  C   UNL     1      -9.405   6.412  72.694  1.00  0.00    -0.142 C  
HETATM   24  C   UNL     1      -7.036   5.555  72.289  1.00  0.00    -0.087 C  
HETATM   25  C   UNL     1      -8.437   5.300  72.771  1.00  0.00    -0.116 C  
HETATM   26  O   UNL     1      -8.774   4.239  73.307  1.00  0.00    -0.096 OA 
ENDROOT
BRANCH  17  27
HETATM   27  C   UNL     1     -11.481  10.171  70.528  1.00  0.00    -0.337 C  
HETATM   28  O   UNL     1     -11.397  11.364  70.299  1.00  0.00    -0.223 OA 
BRANCH  27  29
HETATM   29  O   UNL     1     -12.643   9.488  70.766  1.00  0.00    -0.215 OA 
HETATM   30  C   UNL     1     -13.401   9.886  71.911  1.00  0.00    -0.424 C  
ENDBRANCH  27  29
ENDBRANCH  17  27
TORSDOF 2
ENDMDL
MODEL       48
REMARK 921   NORMALIZED FREE ENERGY PREDICTED BY IDOCK:   -4.76 KCAL/MOL
REMARK 922        TOTAL FREE ENERGY PREDICTED BY IDOCK:   -5.70 KCAL/MOL
REMARK 923 INTER-LIGAND FREE ENERGY PREDICTED BY IDOCK:   -5.41 KCAL/MOL
REMARK 924 INTRA-LIGAND FREE ENERGY PREDICTED BY IDOCK:   -0.29 KCAL/MOL
REMARK 927      BINDING AFFINITY PREDICTED BY RF-SCORE:    0.00 PKD
ROOT
HETATM    1  C   UNL     1      -8.947   7.290  69.445  1.00  0.00    -0.139 C  
HETATM    2  C   UNL     1      -7.852   6.613  68.454  1.00  0.00    -0.107 C  
HETATM    3  C   UNL     1      -7.441   7.711  67.490  1.00  0.00    -0.104 C  
HETATM    4  C   UNL     1      -8.337   8.807  68.007  1.00  0.00    -0.119 C  
HETATM    5  C   UNL     1      -9.694   8.037  68.386  1.00  0.00    -0.168 C  
HETATM    6  C   UNL     1      -7.584   9.401  69.277  1.00  0.00    -0.081 C  
HETATM    7  C   UNL     1     -10.485   6.626  67.753  1.00  0.00    -0.275 C  
HETATM    8  C   UNL     1     -10.779   9.059  68.774  1.00  0.00    -0.140 C  
HETATM    9  C   UNL     1      -7.628  10.870  69.143  1.00  0.00    -0.133 C  
HETATM   10  C   UNL     1      -7.925  11.045  67.700  1.00  0.00    -0.115 C  
HETATM   11  C   UNL     1     -10.551   5.253  68.858  1.00  0.00    -0.057 C  
HETATM   12  O   UNL     1      -9.327   4.552  68.947  1.00  0.00    -0.124 OA 
HETATM   13  O   UNL     1      -8.442   9.913  67.126  1.00  0.00    -0.121 OA 
HETATM   14  O   UNL     1      -7.777  12.103  67.092  1.00  0.00    -0.160 OA 
HETATM   15  C   UNL     1      -9.538   5.103  70.241  1.00  0.00    -0.184 C  
HETATM   16  C   UNL     1      -9.054   6.479  70.686  1.00  0.00    -0.148 C  
HETATM   17  C   UNL     1     -10.154   6.914  71.725  1.00  0.00    -0.198 C  
HETATM   18  C   UNL     1      -7.833   4.051  71.795  1.00  0.00    -0.071 C  
HETATM   19  C   UNL     1      -9.992   6.062  72.978  1.00  0.00    -0.186 C  
HETATM   20  C   UNL     1      -9.349   4.088  71.383  1.00  0.00    -0.212 C  
HETATM   21  C   UNL     1     -10.126   4.584  72.627  1.00  0.00    -0.229 C  
HETATM   22  C   UNL     1      -9.741   2.656  70.968  1.00  0.00    -0.157 C  
HETATM   23  C   UNL     1     -10.918   3.790  73.359  1.00  0.00    -0.317 C  
HETATM   24  C   UNL     1      -9.959   1.746  72.171  1.00  0.00    -0.211 C  
HETATM   25  C   UNL     1     -10.991   2.341  73.087  1.00  0.00    -0.139 C  
HETATM   26  O   UNL     1     -11.827   1.653  73.685  1.00  0.00    -0.203 OA 
ENDROOT
BRANCH  17  27
HETATM   27  C   UNL     1     -10.281   8.383  72.083  1.00  0.00    -0.320 C  
HETATM   28  O   UNL     1      -9.374   9.195  72.134  1.00  0.00    -0.300 OA 
BRANCH  27  29
HETATM   29  O   UNL     1     -11.602   8.651  72.318  1.00  0.00    -0.362 OA 
HETATM   30  C   UNL     1     -12.556   7.813  71.664  1.00  0.00    -0.332 C  
ENDBRANCH  27  29
ENDBRANCH  17  27
TORSDOF 2
ENDMDL
MODEL       49
REMARK 921   NORMALIZED FREE ENERGY PREDICTED BY IDOCK:   -4.74 KCAL/MOL
REMARK 922        TOTAL FREE ENERGY PREDICTED BY IDOCK:   -5.68 KCAL/MOL
REMARK 923 INTER-LIGAND FREE ENERGY PREDICTED BY IDOCK:   -5.47 KCAL/MOL
REMARK 924 INTRA-LIGAND FREE ENERGY PREDICTED BY IDOCK:   -0.22 KCAL/MOL
REMARK 927      BINDING AFFINITY PREDICTED BY RF-SCORE:    0.00 PKD
ROOT
HETATM    1  C   UNL     1      -9.881   8.404  67.847  1.00  0.00    -0.208 C  
HETATM    2  C   UNL     1     -10.909   7.776  66.757  1.00  0.00     0.070 C  
HETATM    3  C   UNL     1     -10.918   6.282  67.019  1.00  0.00    -0.442 C  
HETATM    4  C   UNL     1      -9.916   6.247  68.144  1.00  0.00    -0.138 C  
HETATM    5  C   UNL     1      -8.830   7.348  67.715  1.00  0.00    -0.128 C  
HETATM    6  C   UNL     1     -10.734   6.656  69.447  1.00  0.00    -0.303 C  
HETATM    7  C   UNL     1      -8.251   7.923  66.181  1.00  0.00    -0.117 C  
HETATM    8  C   UNL     1      -7.639   7.311  68.691  1.00  0.00    -0.114 C  
HETATM    9  C   UNL     1     -10.367   5.683  70.495  1.00  0.00    -0.327 C  
HETATM   10  C   UNL     1      -9.802   4.564  69.702  1.00  0.00    -0.218 C  
HETATM   11  C   UNL     1      -8.655   9.600  65.815  1.00  0.00    -0.136 C  
HETATM   12  O   UNL     1      -9.994   9.769  65.396  1.00  0.00    -0.320 OA 
HETATM   13  O   UNL     1      -9.439   4.944  68.436  1.00  0.00    -0.125 OA 
HETATM   14  O   UNL     1      -9.625   3.431  70.144  1.00  0.00    -0.181 OA 
HETATM   15  C   UNL     1      -9.895  10.473  66.628  1.00  0.00    -0.199 C  
HETATM   16  C   UNL     1     -10.154   9.857  67.999  1.00  0.00    -0.202 C  
HETATM   17  C   UNL     1      -9.179  10.668  68.933  1.00  0.00    -0.189 C  
HETATM   18  C   UNL     1     -12.016  11.836  66.890  1.00  0.00     0.094 C  
HETATM   19  C   UNL     1      -9.720  12.085  69.075  1.00  0.00     0.197 C  
HETATM   20  C   UNL     1     -10.477  11.896  66.576  1.00  0.00    -0.256 C  
HETATM   21  C   UNL     1      -9.837  12.742  67.704  1.00  0.00    -0.214 C  
HETATM   22  C   UNL     1     -10.324  12.544  65.186  1.00  0.00    -0.312 C  
HETATM   23  C   UNL     1      -9.359  13.978  67.510  1.00  0.00    -0.209 C  
HETATM   24  C   UNL     1     -10.503  14.057  65.231  1.00  0.00    -0.398 C  
HETATM   25  C   UNL     1      -9.540  14.661  66.214  1.00  0.00    -0.308 C  
HETATM   26  O   UNL     1      -8.976  15.743  66.015  1.00  0.00    -0.333 OA 
ENDROOT
BRANCH  17  27
HETATM   27  C   UNL     1      -8.815  10.090  70.287  1.00  0.00     0.117 C  
HETATM   28  O   UNL     1      -9.583   9.587  71.089  1.00  0.00    -0.213 OA 
BRANCH  27  29
HETATM   29  O   UNL     1      -7.462  10.207  70.451  1.00  0.00    -0.247 OA 
HETATM   30  C   UNL     1      -6.752  10.938  69.449  1.00  0.00    -0.107 C  
ENDBRANCH  27  29
ENDBRANCH  17  27
TORSDOF 2
ENDMDL
MODEL       50
REMARK 921   NORMALIZED FREE ENERGY PREDICTED BY IDOCK:   -4.70 KCAL/MOL
REMARK 922        TOTAL FREE ENERGY PREDICTED BY IDOCK:   -5.64 KCAL/MOL
REMARK 923 INTER-LIGAND FREE ENERGY PREDICTED BY IDOCK:   -5.30 KCAL/MOL
REMARK 924 INTRA-LIGAND FREE ENERGY PREDICTED BY IDOCK:   -0.34 KCAL/MOL
REMARK 927      BINDING AFFINITY PREDICTED BY RF-SCORE:    0.00 PKD
ROOT
HETATM    1  C   UNL     1     -10.517   7.198  70.345  1.00  0.00    -0.234 C  
HETATM    2  C   UNL     1     -11.893   6.350  70.514  1.00  0.00    -0.316 C  
HETATM    3  C   UNL     1     -12.862   7.284  71.214  1.00  0.00    -0.391 C  
HETATM    4  C   UNL     1     -11.949   8.471  71.378  1.00  0.00    -0.300 C  
HETATM    5  C   UNL     1     -10.525   7.807  71.710  1.00  0.00    -0.259 C  
HETATM    6  C   UNL     1     -11.974   9.218  69.973  1.00  0.00     0.272 C  
HETATM    7  C   UNL     1     -10.046   6.345  72.517  1.00  0.00    -0.191 C  
HETATM    8  C   UNL     1      -9.511   8.908  72.076  1.00  0.00    -0.249 C  
HETATM    9  C   UNL     1     -12.160  10.653  70.264  1.00  0.00    -0.423 C  
HETATM   10  C   UNL     1     -12.690  10.628  71.649  1.00  0.00    -0.426 C  
HETATM   11  C   UNL     1      -9.264   5.149  71.483  1.00  0.00    -0.146 C  
HETATM   12  O   UNL     1     -10.175   4.430  70.678  1.00  0.00    -0.178 OA 
HETATM   13  O   UNL     1     -12.441   9.441  72.289  1.00  0.00    -0.341 OA 
HETATM   14  O   UNL     1     -13.246  11.581  72.189  1.00  0.00    -0.505 OA 
HETATM   15  C   UNL     1      -9.371   5.168  69.766  1.00  0.00    -0.129 C  
HETATM   16  C   UNL     1      -9.687   6.578  69.278  1.00  0.00    -0.152 C  
HETATM   17  C   UNL     1      -8.256   7.194  69.046  1.00  0.00    -0.125 C  
HETATM   18  C   UNL     1      -9.877   4.298  67.440  1.00  0.00    -0.176 C  
HETATM   19  C   UNL     1      -7.642   6.526  67.821  1.00  0.00    -0.106 C  
HETATM   20  C   UNL     1      -8.821   4.324  68.603  1.00  0.00    -0.136 C  
HETATM   21  C   UNL     1      -7.561   5.018  68.031  1.00  0.00    -0.083 C  
HETATM   22  C   UNL     1      -8.561   2.860  69.011  1.00  0.00    -0.115 C  
HETATM   23  C   UNL     1      -6.424   4.364  67.762  1.00  0.00    -0.038 C  
HETATM   24  C   UNL     1      -7.647   2.140  68.026  1.00  0.00    -0.055 C  
HETATM   25  C   UNL     1      -6.355   2.894  67.876  1.00  0.00    -0.032 C  
HETATM   26  O   UNL     1      -5.264   2.326  67.754  1.00  0.00    -0.011 OA 
ENDROOT
BRANCH  17  27
HETATM   27  C   UNL     1      -8.113   8.701  68.969  1.00  0.00    -0.121 C  
HETATM   28  O   UNL     1      -7.260   9.376  69.518  1.00  0.00    -0.060 OA 
BRANCH  27  29
HETATM   29  O   UNL     1      -9.100   9.182  68.152  1.00  0.00    -0.132 OA 
HETATM   30  C   UNL     1      -8.936  10.514  67.658  1.00  0.00    -0.138 C  
ENDBRANCH  27  29
ENDBRANCH  17  27
TORSDOF 2
ENDMDL
MODEL       51
REMARK 921   NORMALIZED FREE ENERGY PREDICTED BY IDOCK:   -4.70 KCAL/MOL
REMARK 922        TOTAL FREE ENERGY PREDICTED BY IDOCK:   -5.63 KCAL/MOL
REMARK 923 INTER-LIGAND FREE ENERGY PREDICTED BY IDOCK:   -5.23 KCAL/MOL
REMARK 924 INTRA-LIGAND FREE ENERGY PREDICTED BY IDOCK:   -0.41 KCAL/MOL
REMARK 927      BINDING AFFINITY PREDICTED BY RF-SCORE:    0.00 PKD
ROOT
HETATM    1  C   UNL     1      -9.933   9.647  67.811  1.00  0.00    -0.211 C  
HETATM    2  C   UNL     1     -11.195  10.395  68.509  1.00  0.00    -0.308 C  
HETATM    3  C   UNL     1     -11.443  11.638  67.674  1.00  0.00    -0.373 C  
HETATM    4  C   UNL     1     -10.325  11.466  66.680  1.00  0.00    -0.233 C  
HETATM    5  C   UNL     1      -9.121  10.878  67.566  1.00  0.00    -0.142 C  
HETATM    6  C   UNL     1     -10.872  10.425  65.607  1.00  0.00     0.141 C  
HETATM    7  C   UNL     1      -8.656  11.070  69.229  1.00  0.00     0.072 C  
HETATM    8  C   UNL     1      -7.838  10.807  66.716  1.00  0.00    -0.135 C  
HETATM    9  C   UNL     1     -10.554  10.984  64.279  1.00  0.00    -0.402 C  
HETATM   10  C   UNL     1     -10.315  12.415  64.589  1.00  0.00    -0.307 C  
HETATM   11  C   UNL     1      -8.790   9.611  70.210  1.00  0.00    -0.211 C  
HETATM   12  O   UNL     1     -10.118   9.321  70.594  1.00  0.00    -0.233 OA 
HETATM   13  O   UNL     1     -10.061  12.633  65.918  1.00  0.00    -0.257 OA 
HETATM   14  O   UNL     1     -10.292  13.306  63.743  1.00  0.00    -0.248 OA 
HETATM   15  C   UNL     1      -9.729   8.244  69.750  1.00  0.00    -0.180 C  
HETATM   16  C   UNL     1      -9.911   8.223  68.236  1.00  0.00    -0.217 C  
HETATM   17  C   UNL     1      -8.689   7.357  67.751  1.00  0.00    -0.126 C  
HETATM   18  C   UNL     1     -11.509   6.450  69.945  1.00  0.00    -0.483 C  
HETATM   19  C   UNL     1      -8.936   5.909  68.158  1.00  0.00    -0.115 C  
HETATM   20  C   UNL     1     -10.041   6.856  70.334  1.00  0.00    -0.201 C  
HETATM   21  C   UNL     1      -9.111   5.811  69.669  1.00  0.00    -0.148 C  
HETATM   22  C   UNL     1      -9.958   6.833  71.873  1.00  0.00    -0.187 C  
HETATM   23  C   UNL     1      -8.445   4.879  70.362  1.00  0.00    -0.104 C  
HETATM   24  C   UNL     1      -9.848   5.416  72.424  1.00  0.00    -0.195 C  
HETATM   25  C   UNL     1      -8.668   4.714  71.812  1.00  0.00    -0.122 C  
HETATM   26  O   UNL     1      -7.947   3.942  72.453  1.00  0.00    -0.077 OA 
ENDROOT
BRANCH  17  27
HETATM   27  C   UNL     1      -8.260   7.445  66.299  1.00  0.00    -0.126 C  
HETATM   28  O   UNL     1      -8.996   7.528  65.332  1.00  0.00     0.003 OA 
BRANCH  27  29
HETATM   29  O   UNL     1      -6.892   7.440  66.257  1.00  0.00    -0.058 OA 
HETATM   30  C   UNL     1      -6.284   7.855  65.032  1.00  0.00    -0.041 C  
ENDBRANCH  27  29
ENDBRANCH  17  27
TORSDOF 2
ENDMDL
MODEL       52
REMARK 921   NORMALIZED FREE ENERGY PREDICTED BY IDOCK:   -4.69 KCAL/MOL
REMARK 922        TOTAL FREE ENERGY PREDICTED BY IDOCK:   -5.62 KCAL/MOL
REMARK 923 INTER-LIGAND FREE ENERGY PREDICTED BY IDOCK:   -5.33 KCAL/MOL
REMARK 924 INTRA-LIGAND FREE ENERGY PREDICTED BY IDOCK:   -0.30 KCAL/MOL
REMARK 927      BINDING AFFINITY PREDICTED BY RF-SCORE:    0.00 PKD
ROOT
HETATM    1  C   UNL     1      -8.309   6.797  66.774  1.00  0.00    -0.115 C  
HETATM    2  C   UNL     1      -8.233   6.555  68.379  1.00  0.00    -0.114 C  
HETATM    3  C   UNL     1      -7.551   5.212  68.556  1.00  0.00    -0.079 C  
HETATM    4  C   UNL     1      -7.368   4.862  67.102  1.00  0.00    -0.082 C  
HETATM    5  C   UNL     1      -8.712   5.404  66.412  1.00  0.00    -0.121 C  
HETATM    6  C   UNL     1      -6.068   5.655  66.640  1.00  0.00    -0.030 C  
HETATM    7  C   UNL     1     -10.350   5.586  66.963  1.00  0.00    -0.306 C  
HETATM    8  C   UNL     1      -8.751   4.965  64.936  1.00  0.00    -0.150 C  
HETATM    9  C   UNL     1      -5.235   4.696  65.889  1.00  0.00    -0.009 C  
HETATM   10  C   UNL     1      -5.782   3.390  66.332  1.00  0.00    -0.022 C  
HETATM   11  C   UNL     1     -10.907   7.254  67.092  1.00  0.00    -0.308 C  
HETATM   12  O   UNL     1     -10.425   7.913  68.245  1.00  0.00    -0.202 OA 
HETATM   13  O   UNL     1      -7.031   3.501  66.887  1.00  0.00    -0.053 OA 
HETATM   14  O   UNL     1      -5.207   2.316  66.173  1.00  0.00    -0.004 OA 
HETATM   15  C   UNL     1      -9.844   8.606  67.147  1.00  0.00    -0.207 C  
HETATM   16  C   UNL     1      -8.508   8.246  66.505  1.00  0.00    -0.121 C  
HETATM   17  C   UNL     1      -8.721   8.665  65.002  1.00  0.00    -0.154 C  
HETATM   18  C   UNL     1      -8.782  10.717  68.063  1.00  0.00    -0.132 C  
HETATM   19  C   UNL     1      -8.749  10.187  64.929  1.00  0.00    -0.198 C  
HETATM   20  C   UNL     1      -9.985  10.136  67.236  1.00  0.00    -0.241 C  
HETATM   21  C   UNL     1      -9.864  10.735  65.813  1.00  0.00    -0.292 C  
HETATM   22  C   UNL     1     -11.279  10.566  67.954  1.00  0.00    -0.358 C  
HETATM   23  C   UNL     1     -10.706  11.659  65.335  1.00  0.00    -0.341 C  
HETATM   24  C   UNL     1     -11.633  12.024  67.684  1.00  0.00    -0.392 C  
HETATM   25  C   UNL     1     -11.736  12.263  66.203  1.00  0.00    -0.376 C  
HETATM   26  O   UNL     1     -12.584  13.012  65.707  1.00  0.00    -0.500 OA 
ENDROOT
BRANCH  17  27
HETATM   27  C   UNL     1      -7.799   8.089  63.945  1.00  0.00    -0.142 C  
HETATM   28  O   UNL     1      -8.136   7.579  62.892  1.00  0.00    -0.138 OA 
BRANCH  27  29
HETATM   29  O   UNL     1      -6.508   8.261  64.367  1.00  0.00    -0.064 OA 
HETATM   30  C   UNL     1      -5.663   9.066  63.542  1.00  0.00    -0.075 C  
ENDBRANCH  27  29
ENDBRANCH  17  27
TORSDOF 2
ENDMDL
MODEL       53
REMARK 921   NORMALIZED FREE ENERGY PREDICTED BY IDOCK:   -4.64 KCAL/MOL
REMARK 922        TOTAL FREE ENERGY PREDICTED BY IDOCK:   -5.57 KCAL/MOL
REMARK 923 INTER-LIGAND FREE ENERGY PREDICTED BY IDOCK:   -5.22 KCAL/MOL
REMARK 924 INTRA-LIGAND FREE ENERGY PREDICTED BY IDOCK:   -0.35 KCAL/MOL
REMARK 927      BINDING AFFINITY PREDICTED BY RF-SCORE:    0.00 PKD
ROOT
HETATM    1  C   UNL     1      -8.843   8.711  67.270  1.00  0.00    -0.141 C  
HETATM    2  C   UNL     1     -10.244   9.291  66.688  1.00  0.00    -0.323 C  
HETATM    3  C   UNL     1      -9.905   9.890  65.335  1.00  0.00    -0.384 C  
HETATM    4  C   UNL     1      -8.423   9.620  65.337  1.00  0.00    -0.145 C  
HETATM    5  C   UNL     1      -7.996   9.874  66.864  1.00  0.00    -0.109 C  
HETATM    6  C   UNL     1      -8.273   8.098  64.895  1.00  0.00    -0.150 C  
HETATM    7  C   UNL     1      -8.592  10.923  68.114  1.00  0.00    -0.133 C  
HETATM    8  C   UNL     1      -6.462   9.802  66.993  1.00  0.00    -0.066 C  
HETATM    9  C   UNL     1      -7.212   8.062  63.869  1.00  0.00    -0.092 C  
HETATM   10  C   UNL     1      -7.147   9.478  63.433  1.00  0.00    -0.101 C  
HETATM   11  C   UNL     1      -9.334  10.097  69.484  1.00  0.00    -0.210 C  
HETATM   12  O   UNL     1     -10.644   9.640  69.214  1.00  0.00    -0.206 OA 
HETATM   13  O   UNL     1      -7.717  10.337  64.338  1.00  0.00    -0.150 OA 
HETATM   14  O   UNL     1      -6.597   9.854  62.401  1.00  0.00    -0.101 OA 
HETATM   15  C   UNL     1      -9.873   8.464  69.426  1.00  0.00    -0.185 C  
HETATM   16  C   UNL     1      -9.130   7.708  68.329  1.00  0.00    -0.136 C  
HETATM   17  C   UNL     1      -7.890   7.113  69.097  1.00  0.00    -0.118 C  
HETATM   18  C   UNL     1     -11.493   6.523  69.603  1.00  0.00    -0.417 C  
HETATM   19  C   UNL     1      -8.385   6.004  70.018  1.00  0.00    -0.123 C  
HETATM   20  C   UNL     1     -10.523   7.466  70.400  1.00  0.00    -0.230 C  
HETATM   21  C   UNL     1      -9.420   6.554  70.993  1.00  0.00    -0.171 C  
HETATM   22  C   UNL     1     -11.362   8.167  71.487  1.00  0.00    -0.308 C  
HETATM   23  C   UNL     1      -9.326   6.275  72.299  1.00  0.00    -0.146 C  
HETATM   24  C   UNL     1     -11.653   7.253  72.671  1.00  0.00    -0.259 C  
HETATM   25  C   UNL     1     -10.366   6.726  73.244  1.00  0.00    -0.269 C  
HETATM   26  O   UNL     1     -10.191   6.574  74.458  1.00  0.00    -0.358 OA 
ENDROOT
BRANCH  17  27
HETATM   27  C   UNL     1      -6.686   6.656  68.298  1.00  0.00    -0.068 C  
HETATM   28  O   UNL     1      -5.542   7.057  68.420  1.00  0.00    -0.019 OA 
BRANCH  27  29
HETATM   29  O   UNL     1      -7.098   5.689  67.421  1.00  0.00    -0.071 OA 
HETATM   30  C   UNL     1      -6.221   5.390  66.333  1.00  0.00    -0.031 C  
ENDBRANCH  27  29
ENDBRANCH  17  27
TORSDOF 2
ENDMDL
MODEL       54
REMARK 921   NORMALIZED FREE ENERGY PREDICTED BY IDOCK:   -4.61 KCAL/MOL
REMARK 922        TOTAL FREE ENERGY PREDICTED BY IDOCK:   -5.54 KCAL/MOL
REMARK 923 INTER-LIGAND FREE ENERGY PREDICTED BY IDOCK:   -5.18 KCAL/MOL
REMARK 924 INTRA-LIGAND FREE ENERGY PREDICTED BY IDOCK:   -0.36 KCAL/MOL
REMARK 927      BINDING AFFINITY PREDICTED BY RF-SCORE:    0.00 PKD
ROOT
HETATM    1  C   UNL     1      -9.928   9.064  68.688  1.00  0.00    -0.187 C  
HETATM    2  C   UNL     1     -11.018   8.720  69.843  1.00  0.00    -0.184 C  
HETATM    3  C   UNL     1     -11.618  10.054  70.246  1.00  0.00    -0.354 C  
HETATM    4  C   UNL     1     -10.809  10.945  69.341  1.00  0.00    -0.240 C  
HETATM    5  C   UNL     1      -9.351  10.272  69.355  1.00  0.00    -0.217 C  
HETATM    6  C   UNL     1     -11.520  10.858  67.920  1.00  0.00    -0.344 C  
HETATM    7  C   UNL     1      -8.465   9.364  70.541  1.00  0.00    -0.251 C  
HETATM    8  C   UNL     1      -8.355  11.174  68.601  1.00  0.00    -0.154 C  
HETATM    9  C   UNL     1     -11.645  12.244  67.427  1.00  0.00    -0.425 C  
HETATM   10  C   UNL     1     -11.481  13.036  68.670  1.00  0.00    -0.307 C  
HETATM   11  C   UNL     1      -8.165   7.679  70.115  1.00  0.00    -0.124 C  
HETATM   12  O   UNL     1      -9.296   6.851  70.298  1.00  0.00    -0.162 OA 
HETATM   13  O   UNL     1     -10.892  12.320  69.679  1.00  0.00     0.039 OA 
HETATM   14  O   UNL     1     -11.789  14.221  68.774  1.00  0.00    -0.316 OA 
HETATM   15  C   UNL     1      -9.046   6.841  68.898  1.00  0.00    -0.133 C  
HETATM   16  C   UNL     1      -9.639   7.834  67.905  1.00  0.00    -0.167 C  
HETATM   17  C   UNL     1      -8.515   7.941  66.807  1.00  0.00    -0.129 C  
HETATM   18  C   UNL     1     -10.501   5.029  67.885  1.00  0.00    -0.037 C  
HETATM   19  C   UNL     1      -8.486   6.634  66.024  1.00  0.00    -0.142 C  
HETATM   20  C   UNL     1      -9.035   5.430  68.282  1.00  0.00    -0.112 C  
HETATM   21  C   UNL     1      -8.222   5.464  66.965  1.00  0.00    -0.104 C  
HETATM   22  C   UNL     1      -8.524   4.362  69.269  1.00  0.00    -0.094 C  
HETATM   23  C   UNL     1      -7.294   4.550  66.654  1.00  0.00    -0.081 C  
HETATM   24  C   UNL     1      -8.116   3.073  68.565  1.00  0.00    -0.071 C  
HETATM   25  C   UNL     1      -7.086   3.365  67.510  1.00  0.00    -0.058 C  
HETATM   26  O   UNL     1      -6.138   2.608  67.278  1.00  0.00    -0.026 OA 
ENDROOT
BRANCH  17  27
HETATM   27  C   UNL     1      -8.520   9.133  65.870  1.00  0.00    -0.141 C  
HETATM   28  O   UNL     1      -7.556   9.809  65.555  1.00  0.00    -0.109 OA 
BRANCH  27  29
HETATM   29  O   UNL     1      -9.797   9.312  65.414  1.00  0.00    -0.222 OA 
HETATM   30  C   UNL     1     -10.025  10.437  64.561  1.00  0.00    -0.331 C  
ENDBRANCH  27  29
ENDBRANCH  17  27
TORSDOF 2
ENDMDL
MODEL       55
REMARK 921   NORMALIZED FREE ENERGY PREDICTED BY IDOCK:   -4.54 KCAL/MOL
REMARK 922        TOTAL FREE ENERGY PREDICTED BY IDOCK:   -5.46 KCAL/MOL
REMARK 923 INTER-LIGAND FREE ENERGY PREDICTED BY IDOCK:   -5.23 KCAL/MOL
REMARK 924 INTRA-LIGAND FREE ENERGY PREDICTED BY IDOCK:   -0.23 KCAL/MOL
REMARK 927      BINDING AFFINITY PREDICTED BY RF-SCORE:    0.00 PKD
ROOT
HETATM    1  C   UNL     1      -8.690   8.760  67.912  1.00  0.00    -0.136 C  
HETATM    2  C   UNL     1      -8.993  10.311  68.290  1.00  0.00    -0.132 C  
HETATM    3  C   UNL     1      -8.469  11.124  67.120  1.00  0.00    -0.137 C  
HETATM    4  C   UNL     1      -7.930   9.992  66.285  1.00  0.00    -0.111 C  
HETATM    5  C   UNL     1      -7.313   8.984  67.372  1.00  0.00    -0.084 C  
HETATM    6  C   UNL     1      -9.193   9.391  65.526  1.00  0.00    -0.292 C  
HETATM    7  C   UNL     1      -6.587   9.207  68.934  1.00  0.00    -0.048 C  
HETATM    8  C   UNL     1      -6.565   7.843  66.656  1.00  0.00    -0.058 C  
HETATM    9  C   UNL     1      -8.795   9.226  64.114  1.00  0.00    -0.178 C  
HETATM   10  C   UNL     1      -7.613  10.116  64.014  1.00  0.00    -0.128 C  
HETATM   11  C   UNL     1      -7.510   8.544  70.283  1.00  0.00    -0.064 C  
HETATM   12  O   UNL     1      -8.607   9.353  70.655  1.00  0.00    -0.211 OA 
HETATM   13  O   UNL     1      -7.075  10.420  65.238  1.00  0.00    -0.136 OA 
HETATM   14  O   UNL     1      -7.131  10.500  62.951  1.00  0.00    -0.126 OA 
HETATM   15  C   UNL     1      -9.179   8.141  70.180  1.00  0.00    -0.155 C  
HETATM   16  C   UNL     1      -9.563   7.876  68.728  1.00  0.00    -0.152 C  
HETATM   17  C   UNL     1      -9.334   6.325  68.585  1.00  0.00    -0.122 C  
HETATM   18  C   UNL     1     -11.642   8.184  70.776  1.00  0.00    -0.249 C  
HETATM   19  C   UNL     1     -10.421   5.606  69.375  1.00  0.00    -0.367 C  
HETATM   20  C   UNL     1     -10.246   7.550  71.119  1.00  0.00    -0.199 C  
HETATM   21  C   UNL     1     -10.377   6.033  70.838  1.00  0.00    -0.277 C  
HETATM   22  C   UNL     1      -9.960   7.858  72.602  1.00  0.00    -0.330 C  
HETATM   23  C   UNL     1     -10.411   5.110  71.807  1.00  0.00    -0.274 C  
HETATM   24  C   UNL     1     -10.744   6.951  73.542  1.00  0.00    -0.342 C  
HETATM   25  C   UNL     1     -10.456   5.509  73.227  1.00  0.00    -0.225 C  
HETATM   26  O   UNL     1     -10.351   4.645  74.104  1.00  0.00    -0.200 OA 
ENDROOT
BRANCH  17  27
HETATM   27  C   UNL     1      -9.192   5.732  67.197  1.00  0.00    -0.115 C  
HETATM   28  O   UNL     1      -8.201   5.189  66.741  1.00  0.00    -0.108 OA 
BRANCH  27  29
HETATM   29  O   UNL     1     -10.383   5.890  66.542  1.00  0.00    -0.204 OA 
HETATM   30  C   UNL     1     -10.816   4.802  65.721  1.00  0.00    -0.069 C  
ENDBRANCH  27  29
ENDBRANCH  17  27
TORSDOF 2
ENDMDL
MODEL       56
REMARK 921   NORMALIZED FREE ENERGY PREDICTED BY IDOCK:   -4.46 KCAL/MOL
REMARK 922        TOTAL FREE ENERGY PREDICTED BY IDOCK:   -5.37 KCAL/MOL
REMARK 923 INTER-LIGAND FREE ENERGY PREDICTED BY IDOCK:   -5.03 KCAL/MOL
REMARK 924 INTRA-LIGAND FREE ENERGY PREDICTED BY IDOCK:   -0.33 KCAL/MOL
REMARK 927      BINDING AFFINITY PREDICTED BY RF-SCORE:    0.00 PKD
ROOT
HETATM    1  C   UNL     1      -9.613   7.596  69.763  1.00  0.00    -0.163 C  
HETATM    2  C   UNL     1     -10.091   7.028  68.318  1.00  0.00    -0.185 C  
HETATM    3  C   UNL     1     -10.697   8.216  67.594  1.00  0.00    -0.203 C  
HETATM    4  C   UNL     1     -10.527   9.248  68.679  1.00  0.00    -0.209 C  
HETATM    5  C   UNL     1     -10.826   8.429  70.027  1.00  0.00    -0.225 C  
HETATM    6  C   UNL     1      -9.014   9.730  68.567  1.00  0.00    -0.124 C  
HETATM    7  C   UNL     1     -11.846   7.073  70.402  1.00  0.00    -0.295 C  
HETATM    8  C   UNL     1     -10.858   9.396  71.226  1.00  0.00    -0.431 C  
HETATM    9  C   UNL     1      -9.038  11.204  68.625  1.00  0.00    -0.166 C  
HETATM   10  C   UNL     1     -10.451  11.510  68.291  1.00  0.00    -0.197 C  
HETATM   11  C   UNL     1     -10.987   5.603  70.860  1.00  0.00    -0.187 C  
HETATM   12  O   UNL     1     -10.440   4.912  69.755  1.00  0.00    -0.232 OA 
HETATM   13  O   UNL     1     -11.278  10.430  68.457  1.00  0.00    -0.262 OA 
HETATM   14  O   UNL     1     -10.851  12.622  67.953  1.00  0.00    -0.209 OA 
HETATM   15  C   UNL     1      -9.321   5.337  70.523  1.00  0.00    -0.157 C  
HETATM   16  C   UNL     1      -8.604   6.671  70.344  1.00  0.00    -0.143 C  
HETATM   17  C   UNL     1      -8.103   6.994  71.801  1.00  0.00    -0.099 C  
HETATM   18  C   UNL     1      -7.277   4.166  69.586  1.00  0.00    -0.049 C  
HETATM   19  C   UNL     1      -6.973   6.030  72.143  1.00  0.00    -0.078 C  
HETATM   20  C   UNL     1      -8.292   4.222  70.784  1.00  0.00    -0.091 C  
HETATM   21  C   UNL     1      -7.463   4.589  72.039  1.00  0.00    -0.082 C  
HETATM   22  C   UNL     1      -8.946   2.830  70.890  1.00  0.00    -0.163 C  
HETATM   23  C   UNL     1      -7.205   3.721  73.026  1.00  0.00    -0.059 C  
HETATM   24  C   UNL     1      -8.028   1.809  71.551  1.00  0.00    -0.040 C  
HETATM   25  C   UNL     1      -7.596   2.303  72.903  1.00  0.00    -0.044 C  
HETATM   26  O   UNL     1      -7.469   1.552  73.876  1.00  0.00    -0.027 OA 
ENDROOT
BRANCH  17  27
HETATM   27  C   UNL     1      -7.719   8.420  72.143  1.00  0.00    -0.115 C  
HETATM   28  O   UNL     1      -6.997   9.151  71.487  1.00  0.00    -0.236 OA 
BRANCH  27  29
HETATM   29  O   UNL     1      -8.343   8.762  73.311  1.00  0.00    -0.389 OA 
HETATM   30  C   UNL     1      -7.595   8.590  74.516  1.00  0.00    -0.171 C  
ENDBRANCH  27  29
ENDBRANCH  17  27
TORSDOF 2
ENDMDL
MODEL       57
REMARK 921   NORMALIZED FREE ENERGY PREDICTED BY IDOCK:   -4.37 KCAL/MOL
REMARK 922        TOTAL FREE ENERGY PREDICTED BY IDOCK:   -5.27 KCAL/MOL
REMARK 923 INTER-LIGAND FREE ENERGY PREDICTED BY IDOCK:   -4.89 KCAL/MOL
REMARK 924 INTRA-LIGAND FREE ENERGY PREDICTED BY IDOCK:   -0.38 KCAL/MOL
REMARK 927      BINDING AFFINITY PREDICTED BY RF-SCORE:    0.00 PKD
ROOT
HETATM    1  C   UNL     1      -7.944  16.921  68.393  1.00  0.00    -0.232 C  
HETATM    2  C   UNL     1      -7.107  16.040  69.472  1.00  0.00    -0.181 C  
HETATM    3  C   UNL     1      -6.053  16.977  70.032  1.00  0.00    -0.122 C  
HETATM    4  C   UNL     1      -6.385  18.199  69.216  1.00  0.00    -0.256 C  
HETATM    5  C   UNL     1      -6.762  17.598  67.776  1.00  0.00    -0.190 C  
HETATM    6  C   UNL     1      -7.624  18.873  69.953  1.00  0.00     0.649 C  
HETATM    7  C   UNL     1      -6.245  16.195  66.892  1.00  0.00     0.088 C  
HETATM    8  C   UNL     1      -6.964  18.748  66.770  1.00  0.00    -0.215 C  
HETATM    9  C   UNL     1      -7.321  20.314  70.051  1.00  0.00     0.500 C  
HETATM   10  C   UNL     1      -5.852  20.342  69.847  1.00  0.00    -0.354 C  
HETATM   11  C   UNL     1      -7.493  14.974  66.642  1.00  0.00     0.707 C  
HETATM   12  O   UNL     1      -7.737  14.186  67.790  1.00  0.00    -0.135 OA 
HETATM   13  O   UNL     1      -5.379  19.198  69.259  1.00  0.00    -0.192 OA 
HETATM   14  O   UNL     1      -5.139  21.304  70.124  1.00  0.00    -0.533 OA 
HETATM   15  C   UNL     1      -8.945  14.902  67.563  1.00  0.00    -0.185 C  
HETATM   16  C   UNL     1      -9.260  16.275  68.148  1.00  0.00    -0.199 C  
HETATM   17  C   UNL     1     -10.172  16.923  67.040  1.00  0.00    -0.297 C  
HETATM   18  C   UNL     1     -10.711  13.901  69.080  1.00  0.00    -0.219 C  
HETATM   19  C   UNL     1     -11.521  16.214  67.056  1.00  0.00     0.362 C  
HETATM   20  C   UNL     1     -10.204  14.018  67.597  1.00  0.00    -0.241 C  
HETATM   21  C   UNL     1     -11.333  14.722  66.806  1.00  0.00    -0.347 C  
HETATM   22  C   UNL     1      -9.930  12.586  67.097  1.00  0.00    -0.217 C  
HETATM   23  C   UNL     1     -12.099  14.091  65.906  1.00  0.00    -0.448 C  
HETATM   24  C   UNL     1     -11.212  11.846  66.733  1.00  0.00    -0.384 C  
HETATM   25  C   UNL     1     -11.989  12.632  65.714  1.00  0.00    -0.446 C  
HETATM   26  O   UNL     1     -12.607  12.094  64.789  1.00  0.00    -0.473 OA 
ENDROOT
BRANCH  17  27
HETATM   27  C   UNL     1     -10.352  18.429  67.030  1.00  0.00    -0.393 C  
HETATM   28  O   UNL     1     -10.410  19.156  68.006  1.00  0.00    -0.377 OA 
BRANCH  27  29
HETATM   29  O   UNL     1     -10.416  18.842  65.728  1.00  0.00    -0.554 OA 
HETATM   30  C   UNL     1     -10.910  20.163  65.494  1.00  0.00    -0.003 C  
ENDBRANCH  27  29
ENDBRANCH  17  27
TORSDOF 2
ENDMDL
MODEL       58
REMARK 921   NORMALIZED FREE ENERGY PREDICTED BY IDOCK:   -4.27 KCAL/MOL
REMARK 922        TOTAL FREE ENERGY PREDICTED BY IDOCK:   -5.16 KCAL/MOL
REMARK 923 INTER-LIGAND FREE ENERGY PREDICTED BY IDOCK:   -4.81 KCAL/MOL
REMARK 924 INTRA-LIGAND FREE ENERGY PREDICTED BY IDOCK:   -0.34 KCAL/MOL
REMARK 927      BINDING AFFINITY PREDICTED BY RF-SCORE:    0.00 PKD
ROOT
HETATM    1  C   UNL     1      -8.987   7.746  69.963  1.00  0.00    -0.142 C  
HETATM    2  C   UNL     1      -8.839   8.826  71.168  1.00  0.00    -0.275 C  
HETATM    3  C   UNL     1      -9.724   8.310  72.288  1.00  0.00    -0.362 C  
HETATM    4  C   UNL     1     -10.263   7.084  71.598  1.00  0.00    -0.194 C  
HETATM    5  C   UNL     1     -10.466   7.564  70.080  1.00  0.00    -0.231 C  
HETATM    6  C   UNL     1      -9.127   5.981  71.754  1.00  0.00    -0.148 C  
HETATM    7  C   UNL     1     -10.851   9.094  69.351  1.00  0.00    -0.165 C  
HETATM    8  C   UNL     1     -11.179   6.460  69.276  1.00  0.00    -0.440 C  
HETATM    9  C   UNL     1      -9.800   4.742  72.191  1.00  0.00    -0.228 C  
HETATM   10  C   UNL     1     -11.093   5.253  72.709  1.00  0.00    -0.286 C  
HETATM   11  C   UNL     1      -9.563   9.792  68.369  1.00  0.00    -0.148 C  
HETATM   12  O   UNL     1      -8.543  10.394  69.139  1.00  0.00    -0.149 OA 
HETATM   13  O   UNL     1     -11.384   6.513  72.254  1.00  0.00    -0.258 OA 
HETATM   14  O   UNL     1     -11.851   4.603  73.425  1.00  0.00    -0.225 OA 
HETATM   15  C   UNL     1      -7.918   9.300  68.477  1.00  0.00    -0.101 C  
HETATM   16  C   UNL     1      -7.833   7.884  69.036  1.00  0.00    -0.110 C  
HETATM   17  C   UNL     1      -7.857   6.995  67.737  1.00  0.00    -0.113 C  
HETATM   18  C   UNL     1      -5.418   9.539  68.820  1.00  0.00    -0.037 C  
HETATM   19  C   UNL     1      -6.527   7.170  67.013  1.00  0.00    -0.058 C  
HETATM   20  C   UNL     1      -6.594   9.670  67.786  1.00  0.00    -0.065 C  
HETATM   21  C   UNL     1      -6.306   8.638  66.667  1.00  0.00    -0.059 C  
HETATM   22  C   UNL     1      -6.584  11.123  67.271  1.00  0.00    -0.083 C  
HETATM   23  C   UNL     1      -5.922   8.986  65.433  1.00  0.00    -0.055 C  
HETATM   24  C   UNL     1      -5.485  11.365  66.244  1.00  0.00    -0.093 C  
HETATM   25  C   UNL     1      -5.620  10.393  65.105  1.00  0.00    -0.137 C  
HETATM   26  O   UNL     1      -5.398  10.709  63.931  1.00  0.00    -0.157 OA 
ENDROOT
BRANCH  17  27
HETATM   27  C   UNL     1      -8.216   5.527  67.862  1.00  0.00    -0.100 C  
HETATM   28  O   UNL     1      -8.000   4.810  68.823  1.00  0.00    -0.079 OA 
BRANCH  27  29
HETATM   29  O   UNL     1      -8.851   5.144  66.712  1.00  0.00    -0.112 OA 
HETATM   30  C   UNL     1      -9.531   3.887  66.740  1.00  0.00    -0.202 C  
ENDBRANCH  27  29
ENDBRANCH  17  27
TORSDOF 2
ENDMDL
MODEL       59
REMARK 921   NORMALIZED FREE ENERGY PREDICTED BY IDOCK:   -4.26 KCAL/MOL
REMARK 922        TOTAL FREE ENERGY PREDICTED BY IDOCK:   -5.15 KCAL/MOL
REMARK 923 INTER-LIGAND FREE ENERGY PREDICTED BY IDOCK:   -4.76 KCAL/MOL
REMARK 924 INTRA-LIGAND FREE ENERGY PREDICTED BY IDOCK:   -0.39 KCAL/MOL
REMARK 927      BINDING AFFINITY PREDICTED BY RF-SCORE:    0.00 PKD
ROOT
HETATM    1  C   UNL     1      -8.611  11.320  66.640  1.00  0.00    -0.167 C  
HETATM    2  C   UNL     1      -7.256  11.128  67.515  1.00  0.00    -0.101 C  
HETATM    3  C   UNL     1      -6.850   9.678  67.324  1.00  0.00    -0.083 C  
HETATM    4  C   UNL     1      -7.989   9.243  66.440  1.00  0.00    -0.107 C  
HETATM    5  C   UNL     1      -9.254  10.030  67.040  1.00  0.00    -0.167 C  
HETATM    6  C   UNL     1      -7.594   9.727  64.976  1.00  0.00    -0.127 C  
HETATM    7  C   UNL     1      -9.677  10.574  68.634  1.00  0.00    -0.175 C  
HETATM    8  C   UNL     1     -10.541   9.554  66.340  1.00  0.00    -0.083 C  
HETATM    9  C   UNL     1      -7.844   8.585  64.074  1.00  0.00    -0.148 C  
HETATM   10  C   UNL     1      -7.888   7.442  65.018  1.00  0.00    -0.124 C  
HETATM   11  C   UNL     1      -9.731  12.326  68.830  1.00  0.00     0.030 C  
HETATM   12  O   UNL     1      -8.450  12.911  68.948  1.00  0.00     0.094 OA 
HETATM   13  O   UNL     1      -8.101   7.835  66.314  1.00  0.00    -0.105 OA 
HETATM   14  O   UNL     1      -7.798   6.265  64.676  1.00  0.00    -0.099 OA 
HETATM   15  C   UNL     1      -8.987  13.424  67.734  1.00  0.00    -0.205 C  
HETATM   16  C   UNL     1      -8.820  12.766  66.369  1.00  0.00     0.035 C  
HETATM   17  C   UNL     1     -10.151  13.164  65.627  1.00  0.00    -0.279 C  
HETATM   18  C   UNL     1      -7.460  15.297  66.968  1.00  0.00    -0.125 C  
HETATM   19  C   UNL     1     -10.095  14.654  65.310  1.00  0.00    -0.393 C  
HETATM   20  C   UNL     1      -8.858  14.952  67.598  1.00  0.00    -0.184 C  
HETATM   21  C   UNL     1      -9.923  15.457  66.595  1.00  0.00    -0.271 C  
HETATM   22  C   UNL     1      -8.932  15.672  68.959  1.00  0.00    -0.239 C  
HETATM   23  C   UNL     1     -10.703  16.520  66.830  1.00  0.00    -0.155 C  
HETATM   24  C   UNL     1      -9.226  17.160  68.809  1.00  0.00    -0.249 C  
HETATM   25  C   UNL     1     -10.493  17.359  68.026  1.00  0.00    -0.383 C  
HETATM   26  O   UNL     1     -11.306  18.252  68.291  1.00  0.00     0.429 OA 
ENDROOT
BRANCH  17  27
HETATM   27  C   UNL     1     -10.574  12.367  64.408  1.00  0.00    -0.337 C  
HETATM   28  O   UNL     1      -9.863  12.044  63.473  1.00  0.00    -0.368 OA 
BRANCH  27  29
HETATM   29  O   UNL     1     -11.898  12.048  64.547  1.00  0.00    -0.336 OA 
HETATM   30  C   UNL     1     -12.615  11.743  63.349  1.00  0.00    -0.336 C  
ENDBRANCH  27  29
ENDBRANCH  17  27
TORSDOF 2
ENDMDL
MODEL       60
REMARK 921   NORMALIZED FREE ENERGY PREDICTED BY IDOCK:   -4.17 KCAL/MOL
REMARK 922        TOTAL FREE ENERGY PREDICTED BY IDOCK:   -5.05 KCAL/MOL
REMARK 923 INTER-LIGAND FREE ENERGY PREDICTED BY IDOCK:   -4.73 KCAL/MOL
REMARK 924 INTRA-LIGAND FREE ENERGY PREDICTED BY IDOCK:   -0.32 KCAL/MOL
REMARK 927      BINDING AFFINITY PREDICTED BY RF-SCORE:    0.00 PKD
ROOT
HETATM    1  C   UNL     1      -9.477   9.237  68.120  1.00  0.00    -0.150 C  
HETATM    2  C   UNL     1     -11.014   9.246  68.646  1.00  0.00    -0.039 C  
HETATM    3  C   UNL     1     -11.397  10.710  68.757  1.00  0.00    -0.339 C  
HETATM    4  C   UNL     1     -10.084  11.317  68.337  1.00  0.00    -0.195 C  
HETATM    5  C   UNL     1      -8.991  10.345  69.000  1.00  0.00    -0.184 C  
HETATM    6  C   UNL     1     -10.084  11.259  66.747  1.00  0.00    -0.254 C  
HETATM    7  C   UNL     1      -8.970   9.376  70.442  1.00  0.00    -0.294 C  
HETATM    8  C   UNL     1      -7.582  10.935  68.800  1.00  0.00    -0.121 C  
HETATM    9  C   UNL     1      -9.645  12.588  66.278  1.00  0.00    -0.246 C  
HETATM   10  C   UNL     1      -9.871  13.435  67.475  1.00  0.00    -0.227 C  
HETATM   11  C   UNL     1      -8.919   7.635  70.165  1.00  0.00    -0.146 C  
HETATM   12  O   UNL     1     -10.172   7.095  69.797  1.00  0.00    -0.198 OA 
HETATM   13  O   UNL     1      -9.982  12.701  68.628  1.00  0.00    -0.194 OA 
HETATM   14  O   UNL     1      -9.903  14.663  67.451  1.00  0.00    -0.220 OA 
HETATM   15  C   UNL     1      -9.333   6.903  68.665  1.00  0.00    -0.135 C  
HETATM   16  C   UNL     1      -9.168   7.908  67.530  1.00  0.00    -0.152 C  
HETATM   17  C   UNL     1      -7.682   7.666  67.066  1.00  0.00    -0.108 C  
HETATM   18  C   UNL     1     -10.566   5.370  67.066  1.00  0.00    -0.298 C  
HETATM   19  C   UNL     1      -7.616   6.319  66.357  1.00  0.00    -0.094 C  
HETATM   20  C   UNL     1      -9.382   5.474  68.094  1.00  0.00    -0.123 C  
HETATM   21  C   UNL     1      -8.085   5.210  67.292  1.00  0.00    -0.104 C  
HETATM   22  C   UNL     1      -9.635   4.414  69.184  1.00  0.00    -0.252 C  
HETATM   23  C   UNL     1      -7.361   4.091  67.419  1.00  0.00    -0.068 C  
HETATM   24  C   UNL     1      -9.273   3.009  68.718  1.00  0.00    -0.229 C  
HETATM   25  C   UNL     1      -7.844   2.972  68.253  1.00  0.00    -0.058 C  
HETATM   26  O   UNL     1      -7.100   2.007  68.463  1.00  0.00    -0.042 OA 
ENDROOT
BRANCH  17  27
HETATM   27  C   UNL     1      -6.987   8.741  66.253  1.00  0.00    -0.081 C  
HETATM   28  O   UNL     1      -7.484   9.414  65.368  1.00  0.00    -0.096 OA 
BRANCH  27  29
HETATM   29  O   UNL     1      -5.698   8.847  66.701  1.00  0.00    -0.045 OA 
HETATM   30  C   UNL     1      -5.415   8.291  67.987  1.00  0.00    -0.034 C  
ENDBRANCH  27  29
ENDBRANCH  17  27
TORSDOF 2
ENDMDL
MODEL       61
REMARK 921   NORMALIZED FREE ENERGY PREDICTED BY IDOCK:   -4.10 KCAL/MOL
REMARK 922        TOTAL FREE ENERGY PREDICTED BY IDOCK:   -4.97 KCAL/MOL
REMARK 923 INTER-LIGAND FREE ENERGY PREDICTED BY IDOCK:   -4.70 KCAL/MOL
REMARK 924 INTRA-LIGAND FREE ENERGY PREDICTED BY IDOCK:   -0.27 KCAL/MOL
REMARK 927      BINDING AFFINITY PREDICTED BY RF-SCORE:    0.00 PKD
ROOT
HETATM    1  C   UNL     1      -9.340   7.692  69.004  1.00  0.00    -0.146 C  
HETATM    2  C   UNL     1      -9.662   7.246  67.475  1.00  0.00    -0.181 C  
HETATM    3  C   UNL     1     -10.518   8.359  66.899  1.00  0.00    -0.359 C  
HETATM    4  C   UNL     1     -10.600   9.233  68.123  1.00  0.00    -0.198 C  
HETATM    5  C   UNL     1     -10.715   8.182  69.330  1.00  0.00    -0.164 C  
HETATM    6  C   UNL     1      -9.237  10.056  68.143  1.00  0.00    -0.130 C  
HETATM    7  C   UNL     1     -11.399   6.591  69.469  1.00  0.00    -0.419 C  
HETATM    8  C   UNL     1     -10.980   8.932  70.650  1.00  0.00    -0.287 C  
HETATM    9  C   UNL     1      -9.600  11.463  68.405  1.00  0.00    -0.197 C  
HETATM   10  C   UNL     1     -11.042  11.486  68.057  1.00  0.00    -0.254 C  
HETATM   11  C   UNL     1     -10.228   5.302  69.755  1.00  0.00    -0.294 C  
HETATM   12  O   UNL     1      -9.528   4.921  68.588  1.00  0.00    -0.127 OA 
HETATM   13  O   UNL     1     -11.601  10.234  68.036  1.00  0.00    -0.330 OA 
HETATM   14  O   UNL     1     -11.685  12.515  67.861  1.00  0.00    -0.332 OA 
HETATM   15  C   UNL     1      -8.543   5.472  69.454  1.00  0.00    -0.104 C  
HETATM   16  C   UNL     1      -8.151   6.945  69.493  1.00  0.00    -0.130 C  
HETATM   17  C   UNL     1      -7.751   7.158  71.001  1.00  0.00    -0.090 C  
HETATM   18  C   UNL     1      -6.276   4.942  68.451  1.00  0.00    -0.032 C  
HETATM   19  C   UNL     1      -6.433   6.435  71.253  1.00  0.00    -0.050 C  
HETATM   20  C   UNL     1      -7.288   4.593  69.601  1.00  0.00    -0.051 C  
HETATM   21  C   UNL     1      -6.577   4.952  70.929  1.00  0.00    -0.034 C  
HETATM   22  C   UNL     1      -7.605   3.089  69.484  1.00  0.00    -0.044 C  
HETATM   23  C   UNL     1      -6.135   4.032  71.795  1.00  0.00    -0.014 C  
HETATM   24  C   UNL     1      -6.483   2.217  70.035  1.00  0.00    -0.028 C  
HETATM   25  C   UNL     1      -6.188   2.595  71.460  1.00  0.00    -0.015 C  
HETATM   26  O   UNL     1      -5.901   1.759  72.323  1.00  0.00    -0.008 OA 
ENDROOT
BRANCH  17  27
HETATM   27  C   UNL     1      -7.708   8.569  71.553  1.00  0.00    -0.118 C  
HETATM   28  O   UNL     1      -8.130   8.935  72.636  1.00  0.00    -0.383 OA 
BRANCH  27  29
HETATM   29  O   UNL     1      -7.089   9.370  70.632  1.00  0.00    -0.099 OA 
HETATM   30  C   UNL     1      -5.848   9.962  71.023  1.00  0.00    -0.082 C  
ENDBRANCH  27  29
ENDBRANCH  17  27
TORSDOF 2
ENDMDL
MODEL       62
REMARK 921   NORMALIZED FREE ENERGY PREDICTED BY IDOCK:   -4.10 KCAL/MOL
REMARK 922        TOTAL FREE ENERGY PREDICTED BY IDOCK:   -4.96 KCAL/MOL
REMARK 923 INTER-LIGAND FREE ENERGY PREDICTED BY IDOCK:   -4.58 KCAL/MOL
REMARK 924 INTRA-LIGAND FREE ENERGY PREDICTED BY IDOCK:   -0.39 KCAL/MOL
REMARK 927      BINDING AFFINITY PREDICTED BY RF-SCORE:    0.00 PKD
ROOT
HETATM    1  C   UNL     1      -8.709   6.643  68.823  1.00  0.00    -0.128 C  
HETATM    2  C   UNL     1      -8.711   7.398  70.262  1.00  0.00    -0.146 C  
HETATM    3  C   UNL     1      -8.359   6.330  71.282  1.00  0.00    -0.123 C  
HETATM    4  C   UNL     1      -8.243   5.157  70.345  1.00  0.00    -0.098 C  
HETATM    5  C   UNL     1      -9.418   5.408  69.280  1.00  0.00    -0.179 C  
HETATM    6  C   UNL     1      -6.790   5.271  69.706  1.00  0.00    -0.056 C  
HETATM    7  C   UNL     1     -10.976   6.171  69.375  1.00  0.00    -0.454 C  
HETATM    8  C   UNL     1      -9.539   4.190  68.343  1.00  0.00    -0.190 C  
HETATM    9  C   UNL     1      -6.191   3.924  69.781  1.00  0.00    -0.027 C  
HETATM   10  C   UNL     1      -7.030   3.263  70.811  1.00  0.00    -0.033 C  
HETATM   11  C   UNL     1     -11.136   7.652  68.432  1.00  0.00     0.285 C  
HETATM   12  O   UNL     1     -10.528   8.770  69.047  1.00  0.00    -0.215 OA 
HETATM   13  O   UNL     1      -8.226   3.903  71.009  1.00  0.00    -0.065 OA 
HETATM   14  O   UNL     1      -6.716   2.225  71.390  1.00  0.00    -0.025 OA 
HETATM   15  C   UNL     1      -9.790   8.553  67.850  1.00  0.00    -0.170 C  
HETATM   16  C   UNL     1      -8.566   7.651  67.740  1.00  0.00    -0.121 C  
HETATM   17  C   UNL     1      -8.658   7.120  66.261  1.00  0.00    -0.143 C  
HETATM   18  C   UNL     1      -8.282  10.564  67.521  1.00  0.00    -0.114 C  
HETATM   19  C   UNL     1      -8.333   8.272  65.318  1.00  0.00    -0.175 C  
HETATM   20  C   UNL     1      -9.576   9.829  67.016  1.00  0.00    -0.218 C  
HETATM   21  C   UNL     1      -9.303   9.427  65.546  1.00  0.00    -0.315 C  
HETATM   22  C   UNL     1     -10.745  10.825  67.154  1.00  0.00    -0.324 C  
HETATM   23  C   UNL     1      -9.903  10.014  64.504  1.00  0.00    -0.244 C  
HETATM   24  C   UNL     1     -10.750  11.866  66.041  1.00  0.00    -0.326 C  
HETATM   25  C   UNL     1     -10.776  11.188  64.700  1.00  0.00    -0.280 C  
HETATM   26  O   UNL     1     -11.423  11.629  63.744  1.00  0.00    -0.403 OA 
ENDROOT
BRANCH  17  27
HETATM   27  C   UNL     1      -7.880   5.875  65.881  1.00  0.00    -0.105 C  
HETATM   28  O   UNL     1      -8.322   4.892  65.312  1.00  0.00    -0.120 OA 
BRANCH  27  29
HETATM   29  O   UNL     1      -6.580   6.049  66.269  1.00  0.00    -0.045 OA 
HETATM   30  C   UNL     1      -5.681   4.967  66.017  1.00  0.00    -0.018 C  
ENDBRANCH  27  29
ENDBRANCH  17  27
TORSDOF 2
ENDMDL
MODEL       63
REMARK 921   NORMALIZED FREE ENERGY PREDICTED BY IDOCK:   -4.06 KCAL/MOL
REMARK 922        TOTAL FREE ENERGY PREDICTED BY IDOCK:   -4.93 KCAL/MOL
REMARK 923 INTER-LIGAND FREE ENERGY PREDICTED BY IDOCK:   -4.51 KCAL/MOL
REMARK 924 INTRA-LIGAND FREE ENERGY PREDICTED BY IDOCK:   -0.42 KCAL/MOL
REMARK 927      BINDING AFFINITY PREDICTED BY RF-SCORE:    0.00 PKD
ROOT
HETATM    1  C   UNL     1      -8.591   6.821  68.571  1.00  0.00    -0.125 C  
HETATM    2  C   UNL     1      -7.099   6.831  67.928  1.00  0.00    -0.085 C  
HETATM    3  C   UNL     1      -7.196   7.698  66.687  1.00  0.00    -0.087 C  
HETATM    4  C   UNL     1      -8.665   8.025  66.758  1.00  0.00    -0.133 C  
HETATM    5  C   UNL     1      -9.329   6.660  67.280  1.00  0.00    -0.144 C  
HETATM    6  C   UNL     1      -8.781   9.214  67.809  1.00  0.00    -0.121 C  
HETATM    7  C   UNL     1      -8.918   4.982  67.095  1.00  0.00    -0.112 C  
HETATM    8  C   UNL     1     -10.865   6.782  67.243  1.00  0.00    -0.443 C  
HETATM    9  C   UNL     1      -9.660  10.230  67.199  1.00  0.00    -0.199 C  
HETATM   10  C   UNL     1      -9.616   9.863  65.762  1.00  0.00    -0.250 C  
HETATM   11  C   UNL     1      -8.432   4.168  68.582  1.00  0.00    -0.087 C  
HETATM   12  O   UNL     1      -7.108   4.470  68.973  1.00  0.00    -0.050 OA 
HETATM   13  O   UNL     1      -9.179   8.579  65.558  1.00  0.00    -0.152 OA 
HETATM   14  O   UNL     1      -9.980  10.604  64.852  1.00  0.00    -0.271 OA 
HETATM   15  C   UNL     1      -7.934   5.006  70.000  1.00  0.00    -0.074 C  
HETATM   16  C   UNL     1      -8.508   6.419  69.999  1.00  0.00    -0.135 C  
HETATM   17  C   UNL     1      -9.871   6.240  70.767  1.00  0.00    -0.213 C  
HETATM   18  C   UNL     1      -6.416   5.671  71.917  1.00  0.00    -0.052 C  
HETATM   19  C   UNL     1      -9.563   5.984  72.237  1.00  0.00    -0.162 C  
HETATM   20  C   UNL     1      -7.479   4.627  71.420  1.00  0.00    -0.076 C  
HETATM   21  C   UNL     1      -8.687   4.745  72.382  1.00  0.00    -0.124 C  
HETATM   22  C   UNL     1      -6.810   3.239  71.473  1.00  0.00    -0.031 C  
HETATM   23  C   UNL     1      -9.001   3.803  73.280  1.00  0.00    -0.108 C  
HETATM   24  C   UNL     1      -6.742   2.684  72.890  1.00  0.00    -0.022 C  
HETATM   25  C   UNL     1      -8.118   2.640  73.494  1.00  0.00    -0.063 C  
HETATM   26  O   UNL     1      -8.493   1.720  74.229  1.00  0.00    -0.052 OA 
ENDROOT
BRANCH  17  27
HETATM   27  C   UNL     1     -10.940   7.305  70.615  1.00  0.00    -0.256 C  
HETATM   28  O   UNL     1     -10.763   8.510  70.604  1.00  0.00    -0.210 OA 
BRANCH  27  29
HETATM   29  O   UNL     1     -12.148   6.679  70.467  1.00  0.00    -0.390 OA 
HETATM   30  C   UNL     1     -13.110   6.882  71.504  1.00  0.00    -0.281 C  
ENDBRANCH  27  29
ENDBRANCH  17  27
TORSDOF 2
ENDMDL
MODEL       64
REMARK 921   NORMALIZED FREE ENERGY PREDICTED BY IDOCK:   -3.94 KCAL/MOL
REMARK 922        TOTAL FREE ENERGY PREDICTED BY IDOCK:   -4.79 KCAL/MOL
REMARK 923 INTER-LIGAND FREE ENERGY PREDICTED BY IDOCK:   -4.83 KCAL/MOL
REMARK 924 INTRA-LIGAND FREE ENERGY PREDICTED BY IDOCK:    0.04 KCAL/MOL
REMARK 927      BINDING AFFINITY PREDICTED BY RF-SCORE:    0.00 PKD
ROOT
HETATM    1  C   UNL     1      -9.709  16.951  68.055  1.00  0.00    -0.256 C  
HETATM    2  C   UNL     1      -9.858  17.975  69.308  1.00  0.00    -0.051 C  
HETATM    3  C   UNL     1      -9.080  19.216  68.914  1.00  0.00    -0.350 C  
HETATM    4  C   UNL     1      -8.582  18.750  67.571  1.00  0.00    -0.274 C  
HETATM    5  C   UNL     1      -8.255  17.197  67.809  1.00  0.00    -0.200 C  
HETATM    6  C   UNL     1      -9.796  18.983  66.569  1.00  0.00    -0.415 C  
HETATM    7  C   UNL     1      -7.726  16.284  69.189  1.00  0.00    -0.229 C  
HETATM    8  C   UNL     1      -7.569  16.613  66.559  1.00  0.00    -0.327 C  
HETATM    9  C   UNL     1      -9.234  19.640  65.373  1.00  0.00     0.804 C  
HETATM   10  C   UNL     1      -7.944  20.169  65.881  1.00  0.00    -0.168 C  
HETATM   11  C   UNL     1      -8.901  15.123  69.807  1.00  0.00     0.059 C  
HETATM   12  O   UNL     1      -9.926  15.725  70.572  1.00  0.00     0.090 OA 
HETATM   13  O   UNL     1      -7.544  19.559  67.042  1.00  0.00    -0.234 OA 
HETATM   14  O   UNL     1      -7.277  21.022  65.302  1.00  0.00     0.194 OA 
HETATM   15  C   UNL     1     -10.579  15.185  69.430  1.00  0.00    -0.255 C  
HETATM   16  C   UNL     1     -10.792  15.936  68.119  1.00  0.00    -0.317 C  
HETATM   17  C   UNL     1     -10.748  14.782  67.048  1.00  0.00    -0.300 C  
HETATM   18  C   UNL     1     -13.074  15.314  69.857  1.00  0.00     0.209 C  
HETATM   19  C   UNL     1     -12.016  13.950  67.188  1.00  0.00    -0.455 C  
HETATM   20  C   UNL     1     -11.831  14.357  69.767  1.00  0.00    -0.375 C  
HETATM   21  C   UNL     1     -12.117  13.381  68.599  1.00  0.00    -0.281 C  
HETATM   22  C   UNL     1     -11.713  13.639  71.126  1.00  0.00     0.386 C  
HETATM   23  C   UNL     1     -12.402  12.086  68.781  1.00  0.00     0.244 C  
HETATM   24  C   UNL     1     -12.729  12.513  71.275  1.00  0.00    -0.350 C  
HETATM   25  C   UNL     1     -12.589  11.538  70.139  1.00  0.00    -0.071 C  
HETATM   26  O   UNL     1     -12.717  10.318  70.290  1.00  0.00    -0.236 OA 
ENDROOT
BRANCH  17  27
HETATM   27  C   UNL     1     -10.495  15.143  65.597  1.00  0.00    -0.359 C  
HETATM   28  O   UNL     1     -10.687  16.228  65.077  1.00  0.00    -0.600 OA 
BRANCH  27  29
HETATM   29  O   UNL     1      -9.987  14.040  64.966  1.00  0.00    -0.323 OA 
HETATM   30  C   UNL     1     -10.908  13.246  64.214  1.00  0.00    -0.392 C  
ENDBRANCH  27  29
ENDBRANCH  17  27
TORSDOF 2
ENDMDL
MODEL       65
REMARK 921   NORMALIZED FREE ENERGY PREDICTED BY IDOCK:   -3.93 KCAL/MOL
REMARK 922        TOTAL FREE ENERGY PREDICTED BY IDOCK:   -4.78 KCAL/MOL
REMARK 923 INTER-LIGAND FREE ENERGY PREDICTED BY IDOCK:   -4.37 KCAL/MOL
REMARK 924 INTRA-LIGAND FREE ENERGY PREDICTED BY IDOCK:   -0.41 KCAL/MOL
REMARK 927      BINDING AFFINITY PREDICTED BY RF-SCORE:    0.00 PKD
ROOT
HETATM    1  C   UNL     1      -8.957   9.517  68.256  1.00  0.00    -0.124 C  
HETATM    2  C   UNL     1      -9.767  10.615  69.138  1.00  0.00    -0.205 C  
HETATM    3  C   UNL     1     -10.028  11.779  68.199  1.00  0.00    -0.196 C  
HETATM    4  C   UNL     1      -9.336  11.237  66.976  1.00  0.00    -0.172 C  
HETATM    5  C   UNL     1      -8.047  10.488  67.573  1.00  0.00    -0.107 C  
HETATM    6  C   UNL     1     -10.381  10.239  66.309  1.00  0.00    -0.256 C  
HETATM    7  C   UNL     1      -7.052  10.753  68.972  1.00  0.00    -0.091 C  
HETATM    8  C   UNL     1      -7.137  10.021  66.421  1.00  0.00    -0.102 C  
HETATM    9  C   UNL     1     -10.401  10.554  64.867  1.00  0.00    -0.307 C  
HETATM   10  C   UNL     1      -9.810  11.914  64.833  1.00  0.00    -0.199 C  
HETATM   11  C   UNL     1      -7.141   9.486  70.196  1.00  0.00    -0.099 C  
HETATM   12  O   UNL     1      -8.308   9.562  70.988  1.00  0.00    -0.294 OA 
HETATM   13  O   UNL     1      -9.111  12.215  65.974  1.00  0.00    -0.173 OA 
HETATM   14  O   UNL     1      -9.889  12.673  63.870  1.00  0.00    -0.252 OA 
HETATM   15  C   UNL     1      -8.417   8.335  70.276  1.00  0.00    -0.125 C  
HETATM   16  C   UNL     1      -9.071   8.185  68.906  1.00  0.00    -0.147 C  
HETATM   17  C   UNL     1      -8.251   7.007  68.258  1.00  0.00    -0.124 C  
HETATM   18  C   UNL     1     -10.348   7.043  71.289  1.00  0.00    -0.217 C  
HETATM   19  C   UNL     1      -8.626   5.714  68.971  1.00  0.00    -0.105 C  
HETATM   20  C   UNL     1      -8.784   7.134  71.165  1.00  0.00    -0.133 C  
HETATM   21  C   UNL     1      -8.328   5.832  70.462  1.00  0.00    -0.119 C  
HETATM   22  C   UNL     1      -8.223   7.267  72.594  1.00  0.00    -0.123 C  
HETATM   23  C   UNL     1      -7.664   4.855  71.092  1.00  0.00    -0.083 C  
HETATM   24  C   UNL     1      -8.214   5.936  73.337  1.00  0.00    -0.115 C  
HETATM   25  C   UNL     1      -7.443   4.912  72.551  1.00  0.00    -0.090 C  
HETATM   26  O   UNL     1      -6.716   4.070  73.088  1.00  0.00    -0.043 OA 
ENDROOT
BRANCH  17  27
HETATM   27  C   UNL     1      -8.296   6.828  66.753  1.00  0.00    -0.115 C  
HETATM   28  O   UNL     1      -9.269   6.980  66.035  1.00  0.00    -0.127 OA 
BRANCH  27  29
HETATM   29  O   UNL     1      -7.042   6.485  66.326  1.00  0.00    -0.064 OA 
HETATM   30  C   UNL     1      -6.906   5.218  65.679  1.00  0.00    -0.061 C  
ENDBRANCH  27  29
ENDBRANCH  17  27
TORSDOF 2
ENDMDL
MODEL       66
REMARK 921   NORMALIZED FREE ENERGY PREDICTED BY IDOCK:   -3.91 KCAL/MOL
REMARK 922        TOTAL FREE ENERGY PREDICTED BY IDOCK:   -4.75 KCAL/MOL
REMARK 923 INTER-LIGAND FREE ENERGY PREDICTED BY IDOCK:   -4.53 KCAL/MOL
REMARK 924 INTRA-LIGAND FREE ENERGY PREDICTED BY IDOCK:   -0.22 KCAL/MOL
REMARK 927      BINDING AFFINITY PREDICTED BY RF-SCORE:    0.00 PKD
ROOT
HETATM    1  C   UNL     1      -7.852  12.935  67.476  1.00  0.00    -0.177 C  
HETATM    2  C   UNL     1      -6.398  12.419  66.966  1.00  0.00     0.011 C  
HETATM    3  C   UNL     1      -6.579  10.947  66.644  1.00  0.00    -0.120 C  
HETATM    4  C   UNL     1      -8.030  10.812  67.027  1.00  0.00    -0.124 C  
HETATM    5  C   UNL     1      -8.164  11.745  68.326  1.00  0.00    -0.157 C  
HETATM    6  C   UNL     1      -8.847  11.364  65.777  1.00  0.00    -0.115 C  
HETATM    7  C   UNL     1      -7.067  12.192  69.597  1.00  0.00     0.297 C  
HETATM    8  C   UNL     1      -9.566  11.578  68.943  1.00  0.00    -0.045 C  
HETATM    9  C   UNL     1      -9.916  10.383  65.508  1.00  0.00    -0.348 C  
HETATM   10  C   UNL     1      -9.420   9.175  66.213  1.00  0.00    -0.237 C  
HETATM   11  C   UNL     1      -6.617  13.897  69.624  1.00  0.00    -0.082 C  
HETATM   12  O   UNL     1      -5.652  14.231  68.646  1.00  0.00    -0.081 OA 
HETATM   13  O   UNL     1      -8.459   9.466  67.147  1.00  0.00    -0.126 OA 
HETATM   14  O   UNL     1      -9.856   8.042  66.023  1.00  0.00    -0.073 OA 
HETATM   15  C   UNL     1      -6.823  14.951  68.280  1.00  0.00    -0.119 C  
HETATM   16  C   UNL     1      -7.915  14.416  67.360  1.00  0.00    -0.220 C  
HETATM   17  C   UNL     1      -9.211  15.116  67.916  1.00  0.00    -0.184 C  
HETATM   18  C   UNL     1      -6.162  16.593  66.465  1.00  0.00     0.099 C  
HETATM   19  C   UNL     1      -9.145  16.596  67.561  1.00  0.00    -0.204 C  
HETATM   20  C   UNL     1      -6.565  16.437  67.976  1.00  0.00    -0.146 C  
HETATM   21  C   UNL     1      -7.888  17.223  68.155  1.00  0.00    -0.220 C  
HETATM   22  C   UNL     1      -5.410  17.018  68.815  1.00  0.00    -0.133 C  
HETATM   23  C   UNL     1      -7.968  18.377  68.828  1.00  0.00    -0.278 C  
HETATM   24  C   UNL     1      -5.422  18.542  68.838  1.00  0.00    -0.198 C  
HETATM   25  C   UNL     1      -6.750  19.040  69.334  1.00  0.00    -0.266 C  
HETATM   26  O   UNL     1      -6.858  20.031  70.065  1.00  0.00    -0.290 OA 
ENDROOT
BRANCH  17  27
HETATM   27  C   UNL     1     -10.566  14.534  67.560  1.00  0.00    -0.262 C  
HETATM   28  O   UNL     1     -10.822  13.837  66.594  1.00  0.00    -0.285 OA 
BRANCH  27  29
HETATM   29  O   UNL     1     -11.458  14.907  68.528  1.00  0.00    -0.286 OA 
HETATM   30  C   UNL     1     -11.128  14.563  69.876  1.00  0.00    -0.163 C  
ENDBRANCH  27  29
ENDBRANCH  17  27
TORSDOF 2
ENDMDL
MODEL       67
REMARK 921   NORMALIZED FREE ENERGY PREDICTED BY IDOCK:   -3.84 KCAL/MOL
REMARK 922        TOTAL FREE ENERGY PREDICTED BY IDOCK:   -4.68 KCAL/MOL
REMARK 923 INTER-LIGAND FREE ENERGY PREDICTED BY IDOCK:   -4.33 KCAL/MOL
REMARK 924 INTRA-LIGAND FREE ENERGY PREDICTED BY IDOCK:   -0.35 KCAL/MOL
REMARK 927      BINDING AFFINITY PREDICTED BY RF-SCORE:    0.00 PKD
ROOT
HETATM    1  C   UNL     1     -10.376   7.573  69.712  1.00  0.00    -0.221 C  
HETATM    2  C   UNL     1     -10.623   6.037  70.181  1.00  0.00    -0.341 C  
HETATM    3  C   UNL     1     -11.503   6.125  71.415  1.00  0.00    -0.317 C  
HETATM    4  C   UNL     1     -11.609   7.625  71.506  1.00  0.00    -0.274 C  
HETATM    5  C   UNL     1     -10.147   8.133  71.079  1.00  0.00    -0.221 C  
HETATM    6  C   UNL     1     -12.738   8.030  70.459  1.00  0.00     0.536 C  
HETATM    7  C   UNL     1      -8.554   7.460  71.239  1.00  0.00    -0.118 C  
HETATM    8  C   UNL     1     -10.045   9.656  71.288  1.00  0.00    -0.026 C  
HETATM    9  C   UNL     1     -13.632   8.978  71.152  1.00  0.00    -0.143 C  
HETATM   10  C   UNL     1     -13.318   8.722  72.579  1.00  0.00    -0.354 C  
HETATM   11  C   UNL     1      -7.776   7.025  69.716  1.00  0.00    -0.109 C  
HETATM   12  O   UNL     1      -8.256   5.812  69.175  1.00  0.00    -0.100 OA 
HETATM   13  O   UNL     1     -12.118   8.080  72.749  1.00  0.00    -0.297 OA 
HETATM   14  O   UNL     1     -14.024   9.090  73.514  1.00  0.00     0.027 OA 
HETATM   15  C   UNL     1      -8.636   6.815  68.241  1.00  0.00    -0.124 C  
HETATM   16  C   UNL     1      -9.950   7.589  68.288  1.00  0.00    -0.193 C  
HETATM   17  C   UNL     1      -9.551   8.986  67.682  1.00  0.00    -0.183 C  
HETATM   18  C   UNL     1      -9.459   5.633  66.156  1.00  0.00    -0.157 C  
HETATM   19  C   UNL     1      -9.300   8.807  66.190  1.00  0.00    -0.297 C  
HETATM   20  C   UNL     1      -8.286   6.468  66.783  1.00  0.00    -0.110 C  
HETATM   21  C   UNL     1      -8.198   7.778  65.963  1.00  0.00    -0.123 C  
HETATM   22  C   UNL     1      -7.009   5.611  66.673  1.00  0.00    -0.064 C  
HETATM   23  C   UNL     1      -7.195   8.047  65.117  1.00  0.00    -0.065 C  
HETATM   24  C   UNL     1      -6.429   5.617  65.264  1.00  0.00    -0.039 C  
HETATM   25  C   UNL     1      -6.167   7.030  64.820  1.00  0.00    -0.037 C  
HETATM   26  O   UNL     1      -5.181   7.343  64.144  1.00  0.00    -0.028 OA 
ENDROOT
BRANCH  17  27
HETATM   27  C   UNL     1     -10.453  10.178  67.940  1.00  0.00    -0.222 C  
HETATM   28  O   UNL     1     -11.657  10.227  67.756  1.00  0.00    -0.331 OA 
BRANCH  27  29
HETATM   29  O   UNL     1      -9.685  11.193  68.442  1.00  0.00    -0.177 OA 
HETATM   30  C   UNL     1     -10.126  12.527  68.176  1.00  0.00    -0.225 C  
ENDBRANCH  27  29
ENDBRANCH  17  27
TORSDOF 2
ENDMDL
MODEL       68
REMARK 921   NORMALIZED FREE ENERGY PREDICTED BY IDOCK:   -3.81 KCAL/MOL
REMARK 922        TOTAL FREE ENERGY PREDICTED BY IDOCK:   -4.64 KCAL/MOL
REMARK 923 INTER-LIGAND FREE ENERGY PREDICTED BY IDOCK:   -4.35 KCAL/MOL
REMARK 924 INTRA-LIGAND FREE ENERGY PREDICTED BY IDOCK:   -0.29 KCAL/MOL
REMARK 927      BINDING AFFINITY PREDICTED BY RF-SCORE:    0.00 PKD
ROOT
HETATM    1  C   UNL     1      -8.688   7.135  68.206  1.00  0.00    -0.128 C  
HETATM    2  C   UNL     1      -8.300   5.561  68.095  1.00  0.00    -0.099 C  
HETATM    3  C   UNL     1      -8.837   4.920  69.361  1.00  0.00    -0.120 C  
HETATM    4  C   UNL     1      -9.401   6.155  70.014  1.00  0.00    -0.154 C  
HETATM    5  C   UNL     1      -8.332   7.295  69.650  1.00  0.00    -0.132 C  
HETATM    6  C   UNL     1     -10.816   6.386  69.324  1.00  0.00    -0.387 C  
HETATM    7  C   UNL     1      -6.617   7.282  69.371  1.00  0.00    -0.041 C  
HETATM    8  C   UNL     1      -8.684   8.595  70.398  1.00  0.00    -0.165 C  
HETATM    9  C   UNL     1     -11.776   6.651  70.414  1.00  0.00    -0.446 C  
HETATM   10  C   UNL     1     -11.063   6.117  71.599  1.00  0.00    -0.276 C  
HETATM   11  C   UNL     1      -6.130   7.669  67.721  1.00  0.00    -0.045 C  
HETATM   12  O   UNL     1      -6.304   6.592  66.824  1.00  0.00    -0.039 OA 
HETATM   13  O   UNL     1      -9.716   5.974  71.386  1.00  0.00    -0.163 OA 
HETATM   14  O   UNL     1     -11.604   5.877  72.676  1.00  0.00    -0.290 OA 
HETATM   15  C   UNL     1      -7.203   7.601  66.378  1.00  0.00    -0.078 C  
HETATM   16  C   UNL     1      -8.644   7.748  66.853  1.00  0.00    -0.130 C  
HETATM   17  C   UNL     1      -8.880   9.303  66.770  1.00  0.00    -0.142 C  
HETATM   18  C   UNL     1      -8.071   6.887  64.106  1.00  0.00    -0.026 C  
HETATM   19  C   UNL     1      -8.951   9.699  65.300  1.00  0.00    -0.246 C  
HETATM   20  C   UNL     1      -7.119   7.879  64.866  1.00  0.00    -0.067 C  
HETATM   21  C   UNL     1      -7.663   9.302  64.588  1.00  0.00    -0.116 C  
HETATM   22  C   UNL     1      -5.700   7.664  64.306  1.00  0.00    -0.041 C  
HETATM   23  C   UNL     1      -7.035  10.183  63.798  1.00  0.00    -0.105 C  
HETATM   24  C   UNL     1      -5.509   8.324  62.946  1.00  0.00    -0.068 C  
HETATM   25  C   UNL     1      -5.836   9.789  63.033  1.00  0.00    -0.105 C  
HETATM   26  O   UNL     1      -5.198  10.651  62.418  1.00  0.00    -0.110 OA 
ENDROOT
BRANCH  17  27
HETATM   27  C   UNL     1     -10.031   9.909  67.550  1.00  0.00    -0.185 C  
HETATM   28  O   UNL     1     -11.159   9.459  67.641  1.00  0.00    -0.149 OA 
BRANCH  27  29
HETATM   29  O   UNL     1      -9.579  11.048  68.160  1.00  0.00    -0.160 OA 
HETATM   30  C   UNL     1      -8.185  11.336  68.034  1.00  0.00    -0.134 C  
ENDBRANCH  27  29
ENDBRANCH  17  27
TORSDOF 2
ENDMDL
MODEL       69
REMARK 921   NORMALIZED FREE ENERGY PREDICTED BY IDOCK:   -3.71 KCAL/MOL
REMARK 922        TOTAL FREE ENERGY PREDICTED BY IDOCK:   -4.53 KCAL/MOL
REMARK 923 INTER-LIGAND FREE ENERGY PREDICTED BY IDOCK:   -4.61 KCAL/MOL
REMARK 924 INTRA-LIGAND FREE ENERGY PREDICTED BY IDOCK:    0.08 KCAL/MOL
REMARK 927      BINDING AFFINITY PREDICTED BY RF-SCORE:    0.00 PKD
ROOT
HETATM    1  C   UNL     1      -9.195   7.873  69.378  1.00  0.00    -0.145 C  
HETATM    2  C   UNL     1     -10.094   9.038  70.068  1.00  0.00    -0.215 C  
HETATM    3  C   UNL     1     -10.024  10.221  69.119  1.00  0.00    -0.235 C  
HETATM    4  C   UNL     1      -9.111   9.621  68.082  1.00  0.00    -0.122 C  
HETATM    5  C   UNL     1      -8.070   8.760  68.950  1.00  0.00    -0.114 C  
HETATM    6  C   UNL     1     -10.050   8.720  67.166  1.00  0.00    -0.320 C  
HETATM    7  C   UNL     1      -7.414   8.935  70.549  1.00  0.00    -0.089 C  
HETATM    8  C   UNL     1      -6.956   8.216  68.035  1.00  0.00    -0.077 C  
HETATM    9  C   UNL     1      -9.701   9.036  65.767  1.00  0.00    -0.254 C  
HETATM   10  C   UNL     1      -9.005  10.339  65.903  1.00  0.00    -0.158 C  
HETATM   11  C   UNL     1      -7.899   7.681  71.691  1.00  0.00    -0.087 C  
HETATM   12  O   UNL     1      -9.210   7.858  72.187  1.00  0.00    -0.135 OA 
HETATM   13  O   UNL     1      -8.573  10.576  67.183  1.00  0.00    -0.126 OA 
HETATM   14  O   UNL     1      -8.788  11.102  64.965  1.00  0.00    -0.135 OA 
HETATM   15  C   UNL     1      -9.251   6.647  71.442  1.00  0.00    -0.151 C  
HETATM   16  C   UNL     1      -9.573   6.556  69.954  1.00  0.00    -0.163 C  
HETATM   17  C   UNL     1      -8.727   5.311  69.492  1.00  0.00    -0.114 C  
HETATM   18  C   UNL     1     -11.471   5.530  71.944  1.00  0.00    -0.074 C  
HETATM   19  C   UNL     1      -9.369   4.055  70.069  1.00  0.00    -0.242 C  
HETATM   20  C   UNL     1      -9.920   5.482  72.193  1.00  0.00    -0.219 C  
HETATM   21  C   UNL     1      -9.424   4.145  71.590  1.00  0.00    -0.216 C  
HETATM   22  C   UNL     1      -9.704   5.563  73.717  1.00  0.00    -0.155 C  
HETATM   23  C   UNL     1      -9.015   3.112  72.337  1.00  0.00    -0.124 C  
HETATM   24  C   UNL     1      -9.985   4.236  74.412  1.00  0.00    -0.213 C  
HETATM   25  C   UNL     1      -9.141   3.149  73.808  1.00  0.00    -0.085 C  
HETATM   26  O   UNL     1      -8.636   2.246  74.483  1.00  0.00    -0.064 OA 
ENDROOT
BRANCH  17  27
HETATM   27  C   UNL     1      -8.430   5.137  68.015  1.00  0.00    -0.100 C  
HETATM   28  O   UNL     1      -7.443   5.538  67.424  1.00  0.00    -0.082 OA 
BRANCH  27  29
HETATM   29  O   UNL     1      -9.457   4.427  67.454  1.00  0.00    -0.148 OA 
HETATM   30  C   UNL     1     -10.067   4.986  66.289  1.00  0.00    -0.247 C  
ENDBRANCH  27  29
ENDBRANCH  17  27
TORSDOF 2
ENDMDL
MODEL       70
REMARK 921   NORMALIZED FREE ENERGY PREDICTED BY IDOCK:   -3.68 KCAL/MOL
REMARK 922        TOTAL FREE ENERGY PREDICTED BY IDOCK:   -4.50 KCAL/MOL
REMARK 923 INTER-LIGAND FREE ENERGY PREDICTED BY IDOCK:   -4.10 KCAL/MOL
REMARK 924 INTRA-LIGAND FREE ENERGY PREDICTED BY IDOCK:   -0.40 KCAL/MOL
REMARK 927      BINDING AFFINITY PREDICTED BY RF-SCORE:    0.00 PKD
ROOT
HETATM    1  C   UNL     1      -7.490   8.574  67.339  1.00  0.00    -0.093 C  
HETATM    2  C   UNL     1      -6.162   8.934  66.474  1.00  0.00    -0.061 C  
HETATM    3  C   UNL     1      -5.548  10.142  67.155  1.00  0.00    -0.045 C  
HETATM    4  C   UNL     1      -6.573  10.329  68.244  1.00  0.00    -0.057 C  
HETATM    5  C   UNL     1      -7.961   9.982  67.517  1.00  0.00    -0.106 C  
HETATM    6  C   UNL     1      -6.182   9.277  69.373  1.00  0.00    -0.040 C  
HETATM    7  C   UNL     1      -8.530  10.145  65.883  1.00  0.00    -0.146 C  
HETATM    8  C   UNL     1      -9.135  10.294  68.465  1.00  0.00    -0.138 C  
HETATM    9  C   UNL     1      -6.227  10.004  70.657  1.00  0.00    -0.103 C  
HETATM   10  C   UNL     1      -6.153  11.420  70.221  1.00  0.00    -0.145 C  
HETATM   11  C   UNL     1      -8.840   8.622  65.050  1.00  0.00    -0.070 C  
HETATM   12  O   UNL     1      -7.662   7.987  64.598  1.00  0.00    -0.110 OA 
HETATM   13  O   UNL     1      -6.478  11.583  68.899  1.00  0.00    -0.054 OA 
HETATM   14  O   UNL     1      -5.882  12.355  70.970  1.00  0.00    -0.344 OA 
HETATM   15  C   UNL     1      -8.209   7.111  65.576  1.00  0.00    -0.139 C  
HETATM   16  C   UNL     1      -7.888   7.168  67.065  1.00  0.00    -0.108 C  
HETATM   17  C   UNL     1      -9.226   6.668  67.728  1.00  0.00    -0.111 C  
HETATM   18  C   UNL     1      -6.928   4.927  65.431  1.00  0.00    -0.062 C  
HETATM   19  C   UNL     1      -9.367   5.176  67.455  1.00  0.00    -0.128 C  
HETATM   20  C   UNL     1      -8.290   5.644  65.115  1.00  0.00    -0.146 C  
HETATM   21  C   UNL     1      -9.370   4.915  65.952  1.00  0.00    -0.162 C  
HETATM   22  C   UNL     1      -8.528   5.517  63.597  1.00  0.00    -0.026 C  
HETATM   23  C   UNL     1     -10.302   4.121  65.412  1.00  0.00    -0.166 C  
HETATM   24  C   UNL     1      -9.022   4.130  63.204  1.00  0.00    -0.119 C  
HETATM   25  C   UNL     1     -10.268   3.789  63.974  1.00  0.00    -0.229 C  
HETATM   26  O   UNL     1     -11.210   3.165  63.472  1.00  0.00    -0.277 OA 
ENDROOT
BRANCH  17  27
HETATM   27  C   UNL     1      -9.476   6.977  69.191  1.00  0.00    -0.143 C  
HETATM   28  O   UNL     1      -8.640   7.012  70.076  1.00  0.00    -0.138 OA 
BRANCH  27  29
HETATM   29  O   UNL     1     -10.811   7.235  69.351  1.00  0.00    -0.236 OA 
HETATM   30  C   UNL     1     -11.497   6.483  70.354  1.00  0.00    -0.404 C  
ENDBRANCH  27  29
ENDBRANCH  17  27
TORSDOF 2
ENDMDL
MODEL       71
REMARK 921   NORMALIZED FREE ENERGY PREDICTED BY IDOCK:   -3.65 KCAL/MOL
REMARK 922        TOTAL FREE ENERGY PREDICTED BY IDOCK:   -4.47 KCAL/MOL
REMARK 923 INTER-LIGAND FREE ENERGY PREDICTED BY IDOCK:   -4.21 KCAL/MOL
REMARK 924 INTRA-LIGAND FREE ENERGY PREDICTED BY IDOCK:   -0.26 KCAL/MOL
REMARK 927      BINDING AFFINITY PREDICTED BY RF-SCORE:    0.00 PKD
ROOT
HETATM    1  C   UNL     1      -8.835   9.054  67.388  1.00  0.00    -0.125 C  
HETATM    2  C   UNL     1     -10.019   9.367  66.320  1.00  0.00    -0.353 C  
HETATM    3  C   UNL     1     -10.350  10.837  66.499  1.00  0.00    -0.300 C  
HETATM    4  C   UNL     1      -9.386  11.148  67.614  1.00  0.00    -0.165 C  
HETATM    5  C   UNL     1      -9.425   9.827  68.524  1.00  0.00    -0.148 C  
HETATM    6  C   UNL     1      -7.980  11.373  66.904  1.00  0.00    -0.158 C  
HETATM    7  C   UNL     1     -10.653   8.647  68.870  1.00  0.00    -0.166 C  
HETATM    8  C   UNL     1      -8.610  10.059  69.812  1.00  0.00    -0.192 C  
HETATM    9  C   UNL     1      -7.409  12.605  67.483  1.00  0.00    -0.151 C  
HETATM   10  C   UNL     1      -8.602  13.257  68.075  1.00  0.00    -0.178 C  
HETATM   11  C   UNL     1     -10.322   7.029  68.253  1.00  0.00    -0.194 C  
HETATM   12  O   UNL     1     -10.564   6.904  66.866  1.00  0.00    -0.288 OA 
HETATM   13  O   UNL     1      -9.645  12.386  68.256  1.00  0.00    -0.212 OA 
HETATM   14  O   UNL     1      -8.640  14.436  68.418  1.00  0.00    -0.163 OA 
HETATM   15  C   UNL     1      -9.164   6.704  67.023  1.00  0.00    -0.135 C  
HETATM   16  C   UNL     1      -8.121   7.816  66.981  1.00  0.00    -0.117 C  
HETATM   17  C   UNL     1      -7.008   7.284  67.959  1.00  0.00    -0.079 C  
HETATM   18  C   UNL     1      -8.273   5.846  64.810  1.00  0.00    -0.129 C  
HETATM   19  C   UNL     1      -6.301   6.112  67.289  1.00  0.00    -0.041 C  
HETATM   20  C   UNL     1      -8.631   5.460  66.290  1.00  0.00    -0.122 C  
HETATM   21  C   UNL     1      -7.306   5.014  66.956  1.00  0.00    -0.082 C  
HETATM   22  C   UNL     1      -9.673   4.326  66.222  1.00  0.00    -0.225 C  
HETATM   23  C   UNL     1      -7.040   3.742  67.276  1.00  0.00    -0.059 C  
HETATM   24  C   UNL     1      -9.041   2.979  65.890  1.00  0.00    -0.141 C  
HETATM   25  C   UNL     1      -7.961   2.657  66.884  1.00  0.00    -0.076 C  
HETATM   26  O   UNL     1      -7.763   1.512  67.304  1.00  0.00    -0.058 OA 
ENDROOT
BRANCH  17  27
HETATM   27  C   UNL     1      -6.003   8.268  68.527  1.00  0.00    -0.041 C  
HETATM   28  O   UNL     1      -5.599   9.282  67.985  1.00  0.00    -0.038 OA 
BRANCH  27  29
HETATM   29  O   UNL     1      -5.640   7.836  69.773  1.00  0.00    -0.023 OA 
HETATM   30  C   UNL     1      -6.690   7.372  70.625  1.00  0.00    -0.047 C  
ENDBRANCH  27  29
ENDBRANCH  17  27
TORSDOF 2
ENDMDL
MODEL       72
REMARK 921   NORMALIZED FREE ENERGY PREDICTED BY IDOCK:   -3.52 KCAL/MOL
REMARK 922        TOTAL FREE ENERGY PREDICTED BY IDOCK:   -4.32 KCAL/MOL
REMARK 923 INTER-LIGAND FREE ENERGY PREDICTED BY IDOCK:   -3.94 KCAL/MOL
REMARK 924 INTRA-LIGAND FREE ENERGY PREDICTED BY IDOCK:   -0.38 KCAL/MOL
REMARK 927      BINDING AFFINITY PREDICTED BY RF-SCORE:    0.00 PKD
ROOT
HETATM    1  C   UNL     1     -10.631  11.714  68.471  1.00  0.00    -0.241 C  
HETATM    2  C   UNL     1     -12.047  11.434  67.726  1.00  0.00     0.150 C  
HETATM    3  C   UNL     1     -12.225  12.581  66.748  1.00  0.00     0.024 C  
HETATM    4  C   UNL     1     -10.969  13.346  67.071  1.00  0.00    -0.287 C  
HETATM    5  C   UNL     1     -10.828  13.184  68.662  1.00  0.00    -0.287 C  
HETATM    6  C   UNL     1      -9.810  12.611  66.266  1.00  0.00    -0.266 C  
HETATM    7  C   UNL     1     -11.977  13.002  69.953  1.00  0.00    -0.381 C  
HETATM    8  C   UNL     1      -9.670  14.062  69.174  1.00  0.00     0.147 C  
HETATM    9  C   UNL     1      -9.025  13.669  65.599  1.00  0.00     0.880 C  
HETATM   10  C   UNL     1      -9.961  14.819  65.626  1.00  0.00    -0.360 C  
HETATM   11  C   UNL     1     -11.932  11.442  70.772  1.00  0.00    -0.252 C  
HETATM   12  O   UNL     1     -12.563  10.411  70.039  1.00  0.00    -0.219 OA 
HETATM   13  O   UNL     1     -10.961  14.666  66.551  1.00  0.00    -0.307 OA 
HETATM   14  O   UNL     1      -9.830  15.827  64.935  1.00  0.00    -0.263 OA 
HETATM   15  C   UNL     1     -11.190  10.041  70.101  1.00  0.00    -0.304 C  
HETATM   16  C   UNL     1     -10.137  10.449  69.077  1.00  0.00    -0.227 C  
HETATM   17  C   UNL     1      -8.827  10.542  69.945  1.00  0.00     0.283 C  
HETATM   18  C   UNL     1     -11.015   7.655  69.266  1.00  0.00    -0.030 C  
HETATM   19  C   UNL     1      -8.410   9.130  70.336  1.00  0.00    -0.206 C  
HETATM   20  C   UNL     1     -10.962   8.582  70.533  1.00  0.00    -0.263 C  
HETATM   21  C   UNL     1      -9.532   8.448  71.111  1.00  0.00    -0.227 C  
HETATM   22  C   UNL     1     -12.047   8.080  71.507  1.00  0.00    -0.330 C  
HETATM   23  C   UNL     1      -9.263   7.807  72.256  1.00  0.00    -0.207 C  
HETATM   24  C   UNL     1     -11.617   6.823  72.253  1.00  0.00    -0.311 C  
HETATM   25  C   UNL     1     -10.321   7.069  72.974  1.00  0.00    -0.260 C  
HETATM   26  O   UNL     1     -10.082   6.600  74.092  1.00  0.00    -0.306 OA 
ENDROOT
BRANCH  17  27
HETATM   27  C   UNL     1      -7.646  11.324  69.403  1.00  0.00     0.050 C  
HETATM   28  O   UNL     1      -6.997  12.162  70.003  1.00  0.00     0.245 OA 
BRANCH  27  29
HETATM   29  O   UNL     1      -7.413  10.910  68.119  1.00  0.00    -0.086 OA 
HETATM   30  C   UNL     1      -6.398  11.606  67.392  1.00  0.00    -0.100 C  
ENDBRANCH  27  29
ENDBRANCH  17  27
TORSDOF 2
ENDMDL
MODEL       73
REMARK 921   NORMALIZED FREE ENERGY PREDICTED BY IDOCK:   -3.50 KCAL/MOL
REMARK 922        TOTAL FREE ENERGY PREDICTED BY IDOCK:   -4.30 KCAL/MOL
REMARK 923 INTER-LIGAND FREE ENERGY PREDICTED BY IDOCK:   -4.08 KCAL/MOL
REMARK 924 INTRA-LIGAND FREE ENERGY PREDICTED BY IDOCK:   -0.22 KCAL/MOL
REMARK 927      BINDING AFFINITY PREDICTED BY RF-SCORE:    0.00 PKD
ROOT
HETATM    1  C   UNL     1      -7.916   7.016  69.407  1.00  0.00    -0.118 C  
HETATM    2  C   UNL     1      -6.480   7.696  69.065  1.00  0.00    -0.040 C  
HETATM    3  C   UNL     1      -6.096   8.480  70.306  1.00  0.00    -0.030 C  
HETATM    4  C   UNL     1      -7.318   8.191  71.139  1.00  0.00    -0.065 C  
HETATM    5  C   UNL     1      -8.516   8.214  70.071  1.00  0.00    -0.128 C  
HETATM    6  C   UNL     1      -7.069   6.748  71.763  1.00  0.00    -0.075 C  
HETATM    7  C   UNL     1      -8.778   9.078  68.586  1.00  0.00    -0.133 C  
HETATM    8  C   UNL     1      -9.867   8.102  70.803  1.00  0.00    -0.201 C  
HETATM    9  C   UNL     1      -7.409   6.847  73.196  1.00  0.00    -0.074 C  
HETATM   10  C   UNL     1      -7.359   8.310  73.432  1.00  0.00    -0.111 C  
HETATM   11  C   UNL     1      -8.812   8.072  67.138  1.00  0.00    -0.131 C  
HETATM   12  O   UNL     1      -7.526   7.679  66.706  1.00  0.00    -0.089 OA 
HETATM   13  O   UNL     1      -7.442   9.036  72.272  1.00  0.00    -0.340 OA 
HETATM   14  O   UNL     1      -7.304   8.824  74.547  1.00  0.00    -0.371 OA 
HETATM   15  C   UNL     1      -8.180   6.473  67.082  1.00  0.00    -0.113 C  
HETATM   16  C   UNL     1      -8.150   5.874  68.485  1.00  0.00    -0.106 C  
HETATM   17  C   UNL     1      -9.548   5.156  68.585  1.00  0.00    -0.194 C  
HETATM   18  C   UNL     1      -6.737   4.550  66.279  1.00  0.00    -0.050 C  
HETATM   19  C   UNL     1      -9.524   3.932  67.678  1.00  0.00    -0.233 C  
HETATM   20  C   UNL     1      -8.065   5.353  66.033  1.00  0.00    -0.107 C  
HETATM   21  C   UNL     1      -9.225   4.349  66.242  1.00  0.00    -0.141 C  
HETATM   22  C   UNL     1      -8.003   5.900  64.593  1.00  0.00    -0.123 C  
HETATM   23  C   UNL     1      -9.977   3.881  65.238  1.00  0.00    -0.154 C  
HETATM   24  C   UNL     1      -8.310   4.828  63.555  1.00  0.00    -0.117 C  
HETATM   25  C   UNL     1      -9.649   4.205  63.836  1.00  0.00    -0.141 C  
HETATM   26  O   UNL     1     -10.431   3.875  62.938  1.00  0.00    -0.194 OA 
ENDROOT
BRANCH  17  27
HETATM   27  C   UNL     1     -10.091   4.803  69.956  1.00  0.00    -0.238 C  
HETATM   28  O   UNL     1     -11.091   5.263  70.478  1.00  0.00    -0.059 OA 
BRANCH  27  29
HETATM   29  O   UNL     1      -9.273   3.854  70.507  1.00  0.00    -0.105 OA 
HETATM   30  C   UNL     1      -9.882   2.920  71.402  1.00  0.00    -0.100 C  
ENDBRANCH  27  29
ENDBRANCH  17  27
TORSDOF 2
ENDMDL
MODEL       74
REMARK 921   NORMALIZED FREE ENERGY PREDICTED BY IDOCK:   -3.50 KCAL/MOL
REMARK 922        TOTAL FREE ENERGY PREDICTED BY IDOCK:   -4.29 KCAL/MOL
REMARK 923 INTER-LIGAND FREE ENERGY PREDICTED BY IDOCK:   -4.40 KCAL/MOL
REMARK 924 INTRA-LIGAND FREE ENERGY PREDICTED BY IDOCK:    0.11 KCAL/MOL
REMARK 927      BINDING AFFINITY PREDICTED BY RF-SCORE:    0.00 PKD
ROOT
HETATM    1  C   UNL     1      -9.704   8.057  69.842  1.00  0.00    -0.180 C  
HETATM    2  C   UNL     1      -8.916   9.066  70.843  1.00  0.00    -0.300 C  
HETATM    3  C   UNL     1      -9.214   8.563  72.244  1.00  0.00    -0.343 C  
HETATM    4  C   UNL     1     -10.117   7.413  71.880  1.00  0.00    -0.178 C  
HETATM    5  C   UNL     1     -10.966   7.978  70.640  1.00  0.00    -0.250 C  
HETATM    6  C   UNL     1      -9.139   6.224  71.474  1.00  0.00    -0.145 C  
HETATM    7  C   UNL     1     -11.514   9.564  70.190  1.00  0.00    -0.205 C  
HETATM    8  C   UNL     1     -12.064   6.967  70.259  1.00  0.00    -0.182 C  
HETATM    9  C   UNL     1      -9.633   5.019  72.168  1.00  0.00    -0.191 C  
HETATM   10  C   UNL     1     -10.483   5.597  73.238  1.00  0.00    -0.231 C  
HETATM   11  C   UNL     1     -10.782  10.213  68.722  1.00  0.00    -0.220 C  
HETATM   12  O   UNL     1      -9.472  10.701  68.925  1.00  0.00    -0.178 OA 
HETATM   13  O   UNL     1     -10.843   6.895  72.982  1.00  0.00    -0.265 OA 
HETATM   14  O   UNL     1     -10.870   4.970  74.221  1.00  0.00    -0.320 OA 
HETATM   15  C   UNL     1      -9.328   9.598  68.039  1.00  0.00    -0.132 C  
HETATM   16  C   UNL     1      -9.112   8.155  68.482  1.00  0.00    -0.136 C  
HETATM   17  C   UNL     1      -9.819   7.332  67.340  1.00  0.00    -0.206 C  
HETATM   18  C   UNL     1      -6.948   9.638  67.166  1.00  0.00    -0.085 C  
HETATM   19  C   UNL     1      -8.974   7.444  66.077  1.00  0.00    -0.156 C  
HETATM   20  C   UNL     1      -8.455   9.903  66.808  1.00  0.00    -0.125 C  
HETATM   21  C   UNL     1      -8.815   8.907  65.679  1.00  0.00    -0.230 C  
HETATM   22  C   UNL     1      -8.563  11.374  66.361  1.00  0.00    -0.174 C  
HETATM   23  C   UNL     1      -9.026   9.284  64.411  1.00  0.00    -0.163 C  
HETATM   24  C   UNL     1      -8.057  11.584  64.939  1.00  0.00     0.979 C  
HETATM   25  C   UNL     1      -8.794  10.679  63.991  1.00  0.00    -0.164 C  
HETATM   26  O   UNL     1      -9.121  11.033  62.853  1.00  0.00    -0.272 OA 
ENDROOT
BRANCH  17  27
HETATM   27  C   UNL     1     -10.202   5.890  67.609  1.00  0.00    -0.187 C  
HETATM   28  O   UNL     1     -11.082   5.259  67.050  1.00  0.00     0.082 OA 
BRANCH  27  29
HETATM   29  O   UNL     1      -9.370   5.402  68.580  1.00  0.00    -0.111 OA 
HETATM   30  C   UNL     1      -9.063   4.007  68.523  1.00  0.00    -0.137 C  
ENDBRANCH  27  29
ENDBRANCH  17  27
TORSDOF 2
ENDMDL
MODEL       75
REMARK 921   NORMALIZED FREE ENERGY PREDICTED BY IDOCK:   -3.43 KCAL/MOL
REMARK 922        TOTAL FREE ENERGY PREDICTED BY IDOCK:   -4.22 KCAL/MOL
REMARK 923 INTER-LIGAND FREE ENERGY PREDICTED BY IDOCK:   -3.82 KCAL/MOL
REMARK 924 INTRA-LIGAND FREE ENERGY PREDICTED BY IDOCK:   -0.40 KCAL/MOL
REMARK 927      BINDING AFFINITY PREDICTED BY RF-SCORE:    0.00 PKD
ROOT
HETATM    1  C   UNL     1      -8.748   7.246  69.311  1.00  0.00    -0.137 C  
HETATM    2  C   UNL     1      -9.343   8.758  69.313  1.00  0.00    -0.149 C  
HETATM    3  C   UNL     1     -10.068   8.908  70.638  1.00  0.00    -0.262 C  
HETATM    4  C   UNL     1      -9.836   7.521  71.177  1.00  0.00    -0.173 C  
HETATM    5  C   UNL     1      -9.964   6.586  69.878  1.00  0.00    -0.191 C  
HETATM    6  C   UNL     1      -8.363   7.546  71.782  1.00  0.00    -0.116 C  
HETATM    7  C   UNL     1     -10.882   6.700  68.408  1.00  0.00    -0.320 C  
HETATM    8  C   UNL     1      -9.918   5.104  70.298  1.00  0.00    -0.320 C  
HETATM    9  C   UNL     1      -8.445   6.911  73.111  1.00  0.00    -0.133 C  
HETATM   10  C   UNL     1      -9.895   6.991  73.411  1.00  0.00    -0.237 C  
HETATM   11  C   UNL     1      -9.919   6.924  66.947  1.00  0.00    -0.200 C  
HETATM   12  O   UNL     1      -9.457   8.249  66.785  1.00  0.00    -0.168 OA 
HETATM   13  O   UNL     1     -10.655   7.202  72.290  1.00  0.00    -0.205 OA 
HETATM   14  O   UNL     1     -10.375   6.832  74.531  1.00  0.00    -0.283 OA 
HETATM   15  C   UNL     1      -8.285   7.462  66.964  1.00  0.00    -0.121 C  
HETATM   16  C   UNL     1      -7.648   7.154  68.315  1.00  0.00    -0.115 C  
HETATM   17  C   UNL     1      -7.018   5.729  68.085  1.00  0.00    -0.069 C  
HETATM   18  C   UNL     1      -6.297   8.934  66.413  1.00  0.00    -0.065 C  
HETATM   19  C   UNL     1      -5.820   5.880  67.156  1.00  0.00    -0.017 C  
HETATM   20  C   UNL     1      -7.189   7.738  65.920  1.00  0.00    -0.072 C  
HETATM   21  C   UNL     1      -6.256   6.506  65.835  1.00  0.00    -0.038 C  
HETATM   22  C   UNL     1      -7.769   8.141  64.550  1.00  0.00    -0.121 C  
HETATM   23  C   UNL     1      -5.864   5.963  64.675  1.00  0.00    -0.025 C  
HETATM   24  C   UNL     1      -6.747   8.006  63.428  1.00  0.00    -0.076 C  
HETATM   25  C   UNL     1      -6.204   6.605  63.390  1.00  0.00    -0.041 C  
HETATM   26  O   UNL     1      -5.949   6.019  62.333  1.00  0.00    -0.025 OA 
ENDROOT
BRANCH  17  27
HETATM   27  C   UNL     1      -6.664   4.883  69.292  1.00  0.00    -0.048 C  
HETATM   28  O   UNL     1      -6.105   5.266  70.305  1.00  0.00    -0.020 OA 
BRANCH  27  29
HETATM   29  O   UNL     1      -7.102   3.607  69.063  1.00  0.00    -0.048 OA 
HETATM   30  C   UNL     1      -6.103   2.619  68.805  1.00  0.00    -0.025 C  
ENDBRANCH  27  29
ENDBRANCH  17  27
TORSDOF 2
ENDMDL
MODEL       76
REMARK 921   NORMALIZED FREE ENERGY PREDICTED BY IDOCK:   -3.37 KCAL/MOL
REMARK 922        TOTAL FREE ENERGY PREDICTED BY IDOCK:   -4.15 KCAL/MOL
REMARK 923 INTER-LIGAND FREE ENERGY PREDICTED BY IDOCK:   -3.98 KCAL/MOL
REMARK 924 INTRA-LIGAND FREE ENERGY PREDICTED BY IDOCK:   -0.17 KCAL/MOL
REMARK 927      BINDING AFFINITY PREDICTED BY RF-SCORE:    0.00 PKD
ROOT
HETATM    1  C   UNL     1      -7.557   7.488  69.069  1.00  0.00    -0.108 C  
HETATM    2  C   UNL     1      -6.316   7.776  68.061  1.00  0.00    -0.050 C  
HETATM    3  C   UNL     1      -5.386   6.586  68.211  1.00  0.00    -0.008 C  
HETATM    4  C   UNL     1      -6.160   5.829  69.258  1.00  0.00    -0.031 C  
HETATM    5  C   UNL     1      -6.733   6.986  70.212  1.00  0.00    -0.052 C  
HETATM    6  C   UNL     1      -7.301   5.057  68.462  1.00  0.00    -0.063 C  
HETATM    7  C   UNL     1      -6.153   8.560  70.666  1.00  0.00    -0.032 C  
HETATM    8  C   UNL     1      -7.414   6.356  71.442  1.00  0.00    -0.089 C  
HETATM    9  C   UNL     1      -7.302   3.671  68.967  1.00  0.00    -0.053 C  
HETATM   10  C   UNL     1      -5.966   3.567  69.605  1.00  0.00    -0.023 C  
HETATM   11  C   UNL     1      -7.131   9.907  70.083  1.00  0.00    -0.145 C  
HETATM   12  O   UNL     1      -6.916  10.200  68.718  1.00  0.00    -0.063 OA 
HETATM   13  O   UNL     1      -5.413   4.792  69.873  1.00  0.00    -0.007 OA 
HETATM   14  O   UNL     1      -5.432   2.504  69.911  1.00  0.00    -0.015 OA 
HETATM   15  C   UNL     1      -8.268   9.766  68.800  1.00  0.00    -0.108 C  
HETATM   16  C   UNL     1      -8.722   8.317  68.662  1.00  0.00    -0.133 C  
HETATM   17  C   UNL     1      -9.992   8.261  69.592  1.00  0.00    -0.193 C  
HETATM   18  C   UNL     1      -9.360  10.273  66.569  1.00  0.00    -0.200 C  
HETATM   19  C   UNL     1     -11.111   9.047  68.921  1.00  0.00     0.125 C  
HETATM   20  C   UNL     1      -9.261  10.695  68.079  1.00  0.00    -0.148 C  
HETATM   21  C   UNL     1     -10.672  10.487  68.682  1.00  0.00    -0.247 C  
HETATM   22  C   UNL     1      -8.813  12.170  68.109  1.00  0.00    -0.187 C  
HETATM   23  C   UNL     1     -11.476  11.500  69.028  1.00  0.00    -0.355 C  
HETATM   24  C   UNL     1      -9.954  13.127  67.784  1.00  0.00    -0.227 C  
HETATM   25  C   UNL     1     -11.104  12.896  68.725  1.00  0.00    -0.263 C  
HETATM   26  O   UNL     1     -11.795  13.818  69.171  1.00  0.00    -0.310 OA 
ENDROOT
BRANCH  17  27
HETATM   27  C   UNL     1     -10.489   6.910  70.069  1.00  0.00    -0.207 C  
HETATM   28  O   UNL     1     -10.748   5.947  69.369  1.00  0.00    -0.272 OA 
BRANCH  27  29
HETATM   29  O   UNL     1     -10.577   6.945  71.434  1.00  0.00    -0.217 OA 
HETATM   30  C   UNL     1     -11.607   7.765  71.992  1.00  0.00    -0.300 C  
ENDBRANCH  27  29
ENDBRANCH  17  27
TORSDOF 2
ENDMDL
MODEL       77
REMARK 921   NORMALIZED FREE ENERGY PREDICTED BY IDOCK:   -3.32 KCAL/MOL
REMARK 922        TOTAL FREE ENERGY PREDICTED BY IDOCK:   -4.10 KCAL/MOL
REMARK 923 INTER-LIGAND FREE ENERGY PREDICTED BY IDOCK:   -3.79 KCAL/MOL
REMARK 924 INTRA-LIGAND FREE ENERGY PREDICTED BY IDOCK:   -0.31 KCAL/MOL
REMARK 927      BINDING AFFINITY PREDICTED BY RF-SCORE:    0.00 PKD
ROOT
HETATM    1  C   UNL     1      -8.676   6.110  68.826  1.00  0.00    -0.119 C  
HETATM    2  C   UNL     1      -8.754   7.646  68.301  1.00  0.00    -0.123 C  
HETATM    3  C   UNL     1      -9.029   8.484  69.536  1.00  0.00    -0.149 C  
HETATM    4  C   UNL     1      -9.103   7.371  70.548  1.00  0.00    -0.157 C  
HETATM    5  C   UNL     1      -9.845   6.189  69.754  1.00  0.00    -0.199 C  
HETATM    6  C   UNL     1      -7.591   7.026  70.906  1.00  0.00    -0.086 C  
HETATM    7  C   UNL     1     -11.031   6.161  68.485  1.00  0.00    -0.404 C  
HETATM    8  C   UNL     1     -10.151   5.027  70.719  1.00  0.00    -0.307 C  
HETATM    9  C   UNL     1      -7.517   6.940  72.377  1.00  0.00    -0.087 C  
HETATM   10  C   UNL     1      -8.743   7.662  72.798  1.00  0.00    -0.140 C  
HETATM   11  C   UNL     1     -10.460   5.511  66.949  1.00  0.00    -0.287 C  
HETATM   12  O   UNL     1      -9.670   6.427  66.218  1.00  0.00    -0.133 OA 
HETATM   13  O   UNL     1      -9.664   7.771  71.788  1.00  0.00    -0.158 OA 
HETATM   14  O   UNL     1      -8.940   8.073  73.939  1.00  0.00    -0.269 OA 
HETATM   15  C   UNL     1      -8.794   5.356  66.549  1.00  0.00    -0.118 C  
HETATM   16  C   UNL     1      -7.955   5.285  67.821  1.00  0.00    -0.099 C  
HETATM   17  C   UNL     1      -7.878   3.737  68.099  1.00  0.00    -0.072 C  
HETATM   18  C   UNL     1      -6.662   5.687  65.217  1.00  0.00    -0.041 C  
HETATM   19  C   UNL     1      -6.975   3.106  67.046  1.00  0.00    -0.053 C  
HETATM   20  C   UNL     1      -7.975   4.835  65.354  1.00  0.00    -0.099 C  
HETATM   21  C   UNL     1      -7.523   3.384  65.650  1.00  0.00    -0.077 C  
HETATM   22  C   UNL     1      -8.738   4.960  64.020  1.00  0.00    -0.119 C  
HETATM   23  C   UNL     1      -7.632   2.388  64.762  1.00  0.00    -0.072 C  
HETATM   24  C   UNL     1      -8.134   4.087  62.926  1.00  0.00    -0.076 C  
HETATM   25  C   UNL     1      -8.078   2.655  63.381  1.00  0.00    -0.074 C  
HETATM   26  O   UNL     1      -8.299   1.706  62.620  1.00  0.00    -0.059 OA 
ENDROOT
BRANCH  17  27
HETATM   27  C   UNL     1      -7.501   3.262  69.489  1.00  0.00    -0.045 C  
HETATM   28  O   UNL     1      -6.615   3.716  70.193  1.00  0.00    -0.031 OA 
BRANCH  27  29
HETATM   29  O   UNL     1      -8.346   2.243  69.836  1.00  0.00    -0.044 OA 
HETATM   30  C   UNL     1      -9.520   2.080  69.037  1.00  0.00    -0.092 C  
ENDBRANCH  27  29
ENDBRANCH  17  27
TORSDOF 2
ENDMDL
MODEL       78
REMARK 921   NORMALIZED FREE ENERGY PREDICTED BY IDOCK:   -3.31 KCAL/MOL
REMARK 922        TOTAL FREE ENERGY PREDICTED BY IDOCK:   -4.08 KCAL/MOL
REMARK 923 INTER-LIGAND FREE ENERGY PREDICTED BY IDOCK:   -4.08 KCAL/MOL
REMARK 924 INTRA-LIGAND FREE ENERGY PREDICTED BY IDOCK:   -0.01 KCAL/MOL
REMARK 927      BINDING AFFINITY PREDICTED BY RF-SCORE:    0.00 PKD
ROOT
HETATM    1  C   UNL     1      -8.451  15.155  68.202  1.00  0.00    -0.152 C  
HETATM    2  C   UNL     1      -7.775  15.063  69.677  1.00  0.00    -0.115 C  
HETATM    3  C   UNL     1      -7.210  16.444  69.952  1.00  0.00     0.419 C  
HETATM    4  C   UNL     1      -7.586  17.102  68.649  1.00  0.00    -0.258 C  
HETATM    5  C   UNL     1      -7.354  15.943  67.562  1.00  0.00    -0.198 C  
HETATM    6  C   UNL     1      -9.117  17.506  68.809  1.00  0.00    -0.212 C  
HETATM    7  C   UNL     1      -6.258  14.599  67.462  1.00  0.00    -0.005 C  
HETATM    8  C   UNL     1      -7.535  16.518  66.144  1.00  0.00     0.083 C  
HETATM    9  C   UNL     1      -9.235  18.898  68.333  1.00  0.00    -0.390 C  
HETATM   10  C   UNL     1      -7.830  19.370  68.386  1.00  0.00    -0.342 C  
HETATM   11  C   UNL     1      -7.020  13.012  67.551  1.00  0.00    -0.151 C  
HETATM   12  O   UNL     1      -7.383  12.644  68.866  1.00  0.00    -0.094 OA 
HETATM   13  O   UNL     1      -6.928  18.339  68.430  1.00  0.00    -0.229 OA 
HETATM   14  O   UNL     1      -7.501  20.553  68.341  1.00  0.00    -0.092 OA 
HETATM   15  C   UNL     1      -8.611  12.759  68.157  1.00  0.00    -0.185 C  
HETATM   16  C   UNL     1      -9.424  14.043  68.039  1.00  0.00    -0.206 C  
HETATM   17  C   UNL     1     -10.102  13.896  66.625  1.00  0.00    -0.273 C  
HETATM   18  C   UNL     1     -10.429  11.796  69.637  1.00  0.00     0.411 C  
HETATM   19  C   UNL     1     -11.167  12.810  66.716  1.00  0.00    -0.338 C  
HETATM   20  C   UNL     1      -9.554  11.559  68.354  1.00  0.00    -0.195 C  
HETATM   21  C   UNL     1     -10.539  11.494  67.161  1.00  0.00    -0.273 C  
HETATM   22  C   UNL     1      -8.788  10.238  68.566  1.00  0.00    -0.127 C  
HETATM   23  C   UNL     1     -10.816  10.362  66.503  1.00  0.00    -0.098 C  
HETATM   24  C   UNL     1      -9.671   9.016  68.343  1.00  0.00    -0.170 C  
HETATM   25  C   UNL     1     -10.285   9.067  66.972  1.00  0.00    -0.266 C  
HETATM   26  O   UNL     1     -10.443   8.058  66.276  1.00  0.00     0.022 OA 
ENDROOT
BRANCH  17  27
HETATM   27  C   UNL     1     -10.649  15.135  65.945  1.00  0.00    -0.337 C  
HETATM   28  O   UNL     1     -10.803  16.231  66.454  1.00  0.00    -0.236 OA 
BRANCH  27  29
HETATM   29  O   UNL     1     -10.923  14.820  64.641  1.00  0.00    -0.374 OA 
HETATM   30  C   UNL     1     -11.668  15.781  63.889  1.00  0.00     0.306 C  
ENDBRANCH  27  29
ENDBRANCH  17  27
TORSDOF 2
ENDMDL
MODEL       79
REMARK 921   NORMALIZED FREE ENERGY PREDICTED BY IDOCK:   -3.19 KCAL/MOL
REMARK 922        TOTAL FREE ENERGY PREDICTED BY IDOCK:   -3.96 KCAL/MOL
REMARK 923 INTER-LIGAND FREE ENERGY PREDICTED BY IDOCK:   -3.81 KCAL/MOL
REMARK 924 INTRA-LIGAND FREE ENERGY PREDICTED BY IDOCK:   -0.15 KCAL/MOL
REMARK 927      BINDING AFFINITY PREDICTED BY RF-SCORE:    0.00 PKD
ROOT
HETATM    1  C   UNL     1      -7.993   8.667  69.752  1.00  0.00    -0.095 C  
HETATM    2  C   UNL     1      -8.967   9.923  70.089  1.00  0.00    -0.159 C  
HETATM    3  C   UNL     1      -8.325  11.126  69.423  1.00  0.00     0.215 C  
HETATM    4  C   UNL     1      -7.110  10.442  68.852  1.00  0.00    -0.074 C  
HETATM    5  C   UNL     1      -6.703   9.385  69.990  1.00  0.00    -0.063 C  
HETATM    6  C   UNL     1      -7.610   9.749  67.510  1.00  0.00    -0.091 C  
HETATM    7  C   UNL     1      -6.856   9.372  71.720  1.00  0.00     0.267 C  
HETATM    8  C   UNL     1      -5.364   8.718  69.624  1.00  0.00    -0.030 C  
HETATM    9  C   UNL     1      -6.614  10.076  66.471  1.00  0.00    -0.074 C  
HETATM   10  C   UNL     1      -5.915  11.244  67.062  1.00  0.00    -0.100 C  
HETATM   11  C   UNL     1      -7.960   8.155  72.359  1.00  0.00    -0.138 C  
HETATM   12  O   UNL     1      -9.320   8.513  72.222  1.00  0.00    -0.259 OA 
HETATM   13  O   UNL     1      -6.106  11.344  68.416  1.00  0.00    -0.046 OA 
HETATM   14  O   UNL     1      -5.198  12.010  66.423  1.00  0.00    -0.334 OA 
HETATM   15  C   UNL     1      -9.151   7.362  71.402  1.00  0.00    -0.141 C  
HETATM   16  C   UNL     1      -8.748   7.399  69.932  1.00  0.00    -0.141 C  
HETATM   17  C   UNL     1      -7.936   6.061  69.761  1.00  0.00    -0.106 C  
HETATM   18  C   UNL     1     -11.461   6.587  70.703  1.00  0.00    -0.433 C  
HETATM   19  C   UNL     1      -8.915   4.895  69.829  1.00  0.00    -0.138 C  
HETATM   20  C   UNL     1     -10.224   6.282  71.623  1.00  0.00    -0.225 C  
HETATM   21  C   UNL     1      -9.663   4.915  71.158  1.00  0.00    -0.245 C  
HETATM   22  C   UNL     1     -10.737   6.251  73.076  1.00  0.00    -0.278 C  
HETATM   23  C   UNL     1      -9.775   3.794  71.882  1.00  0.00    -0.237 C  
HETATM   24  C   UNL     1     -11.463   4.952  73.405  1.00  0.00    -0.306 C  
HETATM   25  C   UNL     1     -10.568   3.776  73.126  1.00  0.00    -0.182 C  
HETATM   26  O   UNL     1     -10.547   2.771  73.845  1.00  0.00    -0.141 OA 
ENDROOT
BRANCH  17  27
HETATM   27  C   UNL     1      -7.006   5.917  68.572  1.00  0.00    -0.075 C  
HETATM   28  O   UNL     1      -5.802   5.733  68.613  1.00  0.00    -0.017 OA 
BRANCH  27  29
HETATM   29  O   UNL     1      -7.756   6.005  67.431  1.00  0.00    -0.095 OA 
HETATM   30  C   UNL     1      -7.128   6.597  66.291  1.00  0.00    -0.067 C  
ENDBRANCH  27  29
ENDBRANCH  17  27
TORSDOF 2
ENDMDL
MODEL       80
REMARK 921   NORMALIZED FREE ENERGY PREDICTED BY IDOCK:   -2.98 KCAL/MOL
REMARK 922        TOTAL FREE ENERGY PREDICTED BY IDOCK:   -3.72 KCAL/MOL
REMARK 923 INTER-LIGAND FREE ENERGY PREDICTED BY IDOCK:   -3.40 KCAL/MOL
REMARK 924 INTRA-LIGAND FREE ENERGY PREDICTED BY IDOCK:   -0.32 KCAL/MOL
REMARK 927      BINDING AFFINITY PREDICTED BY RF-SCORE:    0.00 PKD
ROOT
HETATM    1  C   UNL     1      -8.590   4.592  66.574  1.00  0.00    -0.112 C  
HETATM    2  C   UNL     1      -9.248   3.224  67.152  1.00  0.00    -0.214 C  
HETATM    3  C   UNL     1      -8.876   2.141  66.156  1.00  0.00    -0.122 C  
HETATM    4  C   UNL     1      -8.122   2.995  65.170  1.00  0.00    -0.086 C  
HETATM    5  C   UNL     1      -8.959   4.365  65.143  1.00  0.00    -0.143 C  
HETATM    6  C   UNL     1      -6.667   3.168  65.790  1.00  0.00    -0.044 C  
HETATM    7  C   UNL     1     -10.639   4.746  65.371  1.00  0.00    -0.105 C  
HETATM    8  C   UNL     1      -8.405   5.290  64.042  1.00  0.00    -0.125 C  
HETATM    9  C   UNL     1      -5.711   2.911  64.695  1.00  0.00    -0.014 C  
HETATM   10  C   UNL     1      -6.547   2.178  63.713  1.00  0.00    -0.026 C  
HETATM   11  C   UNL     1     -10.995   5.699  66.812  1.00  0.00    -0.093 C  
HETATM   12  O   UNL     1     -10.986   4.934  68.000  1.00  0.00     0.438 OA 
HETATM   13  O   UNL     1      -7.889   2.352  63.928  1.00  0.00    -0.070 OA 
HETATM   14  O   UNL     1      -6.092   1.528  62.775  1.00  0.00    -0.008 OA 
HETATM   15  C   UNL     1      -9.908   5.853  68.137  1.00  0.00    -0.133 C  
HETATM   16  C   UNL     1      -8.480   5.586  67.674  1.00  0.00    -0.102 C  
HETATM   17  C   UNL     1      -7.968   7.023  67.283  1.00  0.00    -0.111 C  
HETATM   18  C   UNL     1      -9.107   5.722  70.538  1.00  0.00    -0.161 C  
HETATM   19  C   UNL     1      -7.780   7.829  68.563  1.00  0.00    -0.118 C  
HETATM   20  C   UNL     1      -9.891   6.589  69.488  1.00  0.00    -0.167 C  
HETATM   21  C   UNL     1      -9.094   7.907  69.331  1.00  0.00    -0.145 C  
HETATM   22  C   UNL     1     -11.307   6.813  70.054  1.00  0.00    -0.396 C  
HETATM   23  C   UNL     1      -9.528   9.084  69.799  1.00  0.00    -0.181 C  
HETATM   24  C   UNL     1     -11.332   7.880  71.142  1.00  0.00    -0.289 C  
HETATM   25  C   UNL     1     -10.753   9.164  70.619  1.00  0.00    -0.254 C  
HETATM   26  O   UNL     1     -11.207  10.272  70.925  1.00  0.00    -0.336 OA 
ENDROOT
BRANCH  17  27
HETATM   27  C   UNL     1      -6.754   7.146  66.383  1.00  0.00    -0.053 C  
HETATM   28  O   UNL     1      -5.747   6.461  66.429  1.00  0.00    -0.013 OA 
BRANCH  27  29
HETATM   29  O   UNL     1      -6.989   8.150  65.484  1.00  0.00    -0.061 OA 
HETATM   30  C   UNL     1      -8.336   8.618  65.378  1.00  0.00    -0.157 C  
ENDBRANCH  27  29
ENDBRANCH  17  27
TORSDOF 2
ENDMDL
MODEL       81
REMARK 921   NORMALIZED FREE ENERGY PREDICTED BY IDOCK:   -2.93 KCAL/MOL
REMARK 922        TOTAL FREE ENERGY PREDICTED BY IDOCK:   -3.67 KCAL/MOL
REMARK 923 INTER-LIGAND FREE ENERGY PREDICTED BY IDOCK:   -3.42 KCAL/MOL
REMARK 924 INTRA-LIGAND FREE ENERGY PREDICTED BY IDOCK:   -0.25 KCAL/MOL
REMARK 927      BINDING AFFINITY PREDICTED BY RF-SCORE:    0.00 PKD
ROOT
HETATM    1  C   UNL     1      -9.238   8.718  68.688  1.00  0.00    -0.141 C  
HETATM    2  C   UNL     1     -10.815   8.489  68.372  1.00  0.00     0.021 C  
HETATM    3  C   UNL     1     -11.264   9.728  67.620  1.00  0.00     0.027 C  
HETATM    4  C   UNL     1      -9.959  10.482  67.636  1.00  0.00    -0.173 C  
HETATM    5  C   UNL     1      -9.353  10.155  69.085  1.00  0.00    -0.205 C  
HETATM    6  C   UNL     1      -9.101   9.861  66.448  1.00  0.00    -0.179 C  
HETATM    7  C   UNL     1     -10.067   9.814  70.632  1.00  0.00    -0.252 C  
HETATM    8  C   UNL     1      -8.086  10.999  69.321  1.00  0.00    -0.012 C  
HETATM    9  C   UNL     1      -8.539  11.000  65.696  1.00  0.00    -0.131 C  
HETATM   10  C   UNL     1      -9.412  12.121  66.123  1.00  0.00    -0.224 C  
HETATM   11  C   UNL     1      -9.798   8.176  71.229  1.00  0.00    -0.164 C  
HETATM   12  O   UNL     1     -10.630   7.216  70.610  1.00  0.00    -0.219 OA 
HETATM   13  O   UNL     1     -10.093  11.849  67.281  1.00  0.00    -0.195 OA 
HETATM   14  O   UNL     1      -9.481  13.198  65.536  1.00  0.00    -0.016 OA 
HETATM   15  C   UNL     1      -9.305   6.871  70.221  1.00  0.00    -0.162 C  
HETATM   16  C   UNL     1      -8.601   7.407  68.980  1.00  0.00    -0.133 C  
HETATM   17  C   UNL     1      -7.090   7.436  69.424  1.00  0.00    -0.070 C  
HETATM   18  C   UNL     1      -9.413   4.590  69.120  1.00  0.00    -0.233 C  
HETATM   19  C   UNL     1      -6.592   5.999  69.520  1.00  0.00    -0.044 C  
HETATM   20  C   UNL     1      -8.975   5.379  70.407  1.00  0.00    -0.155 C  
HETATM   21  C   UNL     1      -7.440   5.215  70.516  1.00  0.00    -0.070 C  
HETATM   22  C   UNL     1      -9.726   4.754  71.599  1.00  0.00    -0.230 C  
HETATM   23  C   UNL     1      -6.849   4.463  71.453  1.00  0.00    -0.031 C  
HETATM   24  C   UNL     1      -9.108   3.435  72.044  1.00  0.00    -0.158 C  
HETATM   25  C   UNL     1      -7.653   3.631  72.369  1.00  0.00    -0.062 C  
HETATM   26  O   UNL     1      -7.097   3.051  73.308  1.00  0.00    -0.038 OA 
ENDROOT
BRANCH  17  27
HETATM   27  C   UNL     1      -6.115   8.296  68.642  1.00  0.00    -0.045 C  
HETATM   28  O   UNL     1      -6.076   8.426  67.431  1.00  0.00    -0.049 OA 
BRANCH  27  29
HETATM   29  O   UNL     1      -5.292   8.927  69.535  1.00  0.00    -0.034 OA 
HETATM   30  C   UNL     1      -5.836   9.204  70.828  1.00  0.00    -0.042 C  
ENDBRANCH  27  29
ENDBRANCH  17  27
TORSDOF 2
ENDMDL
MODEL       82
REMARK 921   NORMALIZED FREE ENERGY PREDICTED BY IDOCK:   -2.92 KCAL/MOL
REMARK 922        TOTAL FREE ENERGY PREDICTED BY IDOCK:   -3.65 KCAL/MOL
REMARK 923 INTER-LIGAND FREE ENERGY PREDICTED BY IDOCK:   -3.52 KCAL/MOL
REMARK 924 INTRA-LIGAND FREE ENERGY PREDICTED BY IDOCK:   -0.14 KCAL/MOL
REMARK 927      BINDING AFFINITY PREDICTED BY RF-SCORE:    0.00 PKD
ROOT
HETATM    1  C   UNL     1      -7.661   7.236  67.987  1.00  0.00    -0.115 C  
HETATM    2  C   UNL     1      -6.311   6.684  67.270  1.00  0.00    -0.037 C  
HETATM    3  C   UNL     1      -6.454   5.174  67.240  1.00  0.00    -0.049 C  
HETATM    4  C   UNL     1      -7.783   5.063  67.940  1.00  0.00    -0.084 C  
HETATM    5  C   UNL     1      -7.712   6.203  69.067  1.00  0.00    -0.096 C  
HETATM    6  C   UNL     1      -8.874   5.363  66.821  1.00  0.00    -0.112 C  
HETATM    7  C   UNL     1      -6.410   6.899  69.985  1.00  0.00    -0.035 C  
HETATM    8  C   UNL     1      -8.943   6.102  69.988  1.00  0.00    -0.148 C  
HETATM    9  C   UNL     1      -9.907   4.316  66.950  1.00  0.00    -0.224 C  
HETATM   10  C   UNL     1      -9.197   3.266  67.721  1.00  0.00    -0.195 C  
HETATM   11  C   UNL     1      -6.080   8.595  69.635  1.00  0.00    -0.032 C  
HETATM   12  O   UNL     1      -5.360   8.784  68.433  1.00  0.00    -0.036 OA 
HETATM   13  O   UNL     1      -8.088   3.745  68.368  1.00  0.00    -0.074 OA 
HETATM   14  O   UNL     1      -9.585   2.104  67.817  1.00  0.00    -0.148 OA 
HETATM   15  C   UNL     1      -6.627   9.392  68.211  1.00  0.00    -0.058 C  
HETATM   16  C   UNL     1      -7.846   8.671  67.646  1.00  0.00    -0.103 C  
HETATM   17  C   UNL     1      -9.045   9.416  68.343  1.00  0.00    -0.128 C  
HETATM   18  C   UNL     1      -6.463  10.712  66.054  1.00  0.00    -0.129 C  
HETATM   19  C   UNL     1      -9.152  10.814  67.745  1.00  0.00    -0.151 C  
HETATM   20  C   UNL     1      -6.538  10.810  67.620  1.00  0.00    -0.061 C  
HETATM   21  C   UNL     1      -7.845  11.573  67.946  1.00  0.00    -0.123 C  
HETATM   22  C   UNL     1      -5.277  11.564  68.087  1.00  0.00    -0.043 C  
HETATM   23  C   UNL     1      -7.863  12.824  68.422  1.00  0.00    -0.132 C  
HETATM   24  C   UNL     1      -5.386  13.067  67.861  1.00  0.00    -0.113 C  
HETATM   25  C   UNL     1      -6.615  13.603  68.541  1.00  0.00    -0.088 C  
HETATM   26  O   UNL     1      -6.637  14.702  69.106  1.00  0.00    -0.098 OA 
ENDROOT
BRANCH  17  27
HETATM   27  C   UNL     1     -10.401   8.739  68.384  1.00  0.00    -0.204 C  
HETATM   28  O   UNL     1     -10.775   7.825  67.671  1.00  0.00    -0.225 OA 
BRANCH  27  29
HETATM   29  O   UNL     1     -11.136   9.317  69.384  1.00  0.00    -0.170 OA 
HETATM   30  C   UNL     1     -10.490   9.478  70.648  1.00  0.00    -0.308 C  
ENDBRANCH  27  29
ENDBRANCH  17  27
TORSDOF 2
ENDMDL
MODEL       83
REMARK 921   NORMALIZED FREE ENERGY PREDICTED BY IDOCK:   -2.91 KCAL/MOL
REMARK 922        TOTAL FREE ENERGY PREDICTED BY IDOCK:   -3.64 KCAL/MOL
REMARK 923 INTER-LIGAND FREE ENERGY PREDICTED BY IDOCK:   -3.46 KCAL/MOL
REMARK 924 INTRA-LIGAND FREE ENERGY PREDICTED BY IDOCK:   -0.18 KCAL/MOL
REMARK 927      BINDING AFFINITY PREDICTED BY RF-SCORE:    0.00 PKD
ROOT
HETATM    1  C   UNL     1      -9.567  15.806  66.864  1.00  0.00    -0.243 C  
HETATM    2  C   UNL     1      -8.964  15.850  65.356  1.00  0.00     0.801 C  
HETATM    3  C   UNL     1      -9.613  14.689  64.624  1.00  0.00     1.248 C  
HETATM    4  C   UNL     1     -10.432  14.139  65.763  1.00  0.00    -0.311 C  
HETATM    5  C   UNL     1      -9.475  14.323  67.038  1.00  0.00    -0.259 C  
HETATM    6  C   UNL     1     -11.733  15.053  65.824  1.00  0.00    -0.104 C  
HETATM    7  C   UNL     1      -7.751  14.316  67.252  1.00  0.00    -0.145 C  
HETATM    8  C   UNL     1     -10.112  13.645  68.267  1.00  0.00    -0.240 C  
HETATM    9  C   UNL     1     -12.885  14.137  65.940  1.00  0.00    -0.294 C  
HETATM   10  C   UNL     1     -12.311  12.849  65.479  1.00  0.00    -0.461 C  
HETATM   11  C   UNL     1      -7.056  15.863  67.733  1.00  0.00    -0.148 C  
HETATM   12  O   UNL     1      -6.939  16.776  66.661  1.00  0.00    -0.214 OA 
HETATM   13  O   UNL     1     -10.940  12.838  65.515  1.00  0.00    -0.273 OA 
HETATM   14  O   UNL     1     -12.985  11.876  65.149  1.00  0.00     0.162 OA 
HETATM   15  C   UNL     1      -7.876  17.365  67.555  1.00  0.00    -0.197 C  
HETATM   16  C   UNL     1      -9.383  17.134  67.505  1.00  0.00    -0.238 C  
HETATM   17  C   UNL     1      -9.803  17.256  69.017  1.00  0.00    -0.237 C  
HETATM   18  C   UNL     1      -8.261  19.748  66.781  1.00  0.00    -0.344 C  
HETATM   19  C   UNL     1      -9.683  18.718  69.431  1.00  0.00     0.010 C  
HETATM   20  C   UNL     1      -7.584  18.842  67.872  1.00  0.00    -0.283 C  
HETATM   21  C   UNL     1      -8.255  19.208  69.219  1.00  0.00    -0.043 C  
HETATM   22  C   UNL     1      -6.076  19.161  67.853  1.00  0.00    -0.218 C  
HETATM   23  C   UNL     1      -7.628  19.885  70.189  1.00  0.00     0.601 C  
HETATM   24  C   UNL     1      -5.754  20.472  68.560  1.00  0.00    -0.336 C  
HETATM   25  C   UNL     1      -6.278  20.441  69.969  1.00  0.00    -0.253 C  
HETATM   26  O   UNL     1      -5.667  20.943  70.918  1.00  0.00    -0.555 OA 
ENDROOT
BRANCH  17  27
HETATM   27  C   UNL     1     -11.135  16.677  69.455  1.00  0.00    -0.176 C  
HETATM   28  O   UNL     1     -12.085  16.425  68.735  1.00  0.00     0.004 OA 
BRANCH  27  29
HETATM   29  O   UNL     1     -11.083  16.462  70.805  1.00  0.00    -0.296 OA 
HETATM   30  C   UNL     1     -12.129  15.668  71.371  1.00  0.00    -0.418 C  
ENDBRANCH  27  29
ENDBRANCH  17  27
TORSDOF 2
ENDMDL
MODEL       84
REMARK 921   NORMALIZED FREE ENERGY PREDICTED BY IDOCK:   -2.64 KCAL/MOL
REMARK 922        TOTAL FREE ENERGY PREDICTED BY IDOCK:   -3.33 KCAL/MOL
REMARK 923 INTER-LIGAND FREE ENERGY PREDICTED BY IDOCK:   -3.12 KCAL/MOL
REMARK 924 INTRA-LIGAND FREE ENERGY PREDICTED BY IDOCK:   -0.22 KCAL/MOL
REMARK 927      BINDING AFFINITY PREDICTED BY RF-SCORE:    0.00 PKD
ROOT
HETATM    1  C   UNL     1      -8.253   7.247  66.881  1.00  0.00    -0.117 C  
HETATM    2  C   UNL     1      -8.091   6.654  65.377  1.00  0.00    -0.129 C  
HETATM    3  C   UNL     1      -8.645   7.725  64.456  1.00  0.00     0.201 C  
HETATM    4  C   UNL     1      -9.063   8.725  65.502  1.00  0.00    -0.163 C  
HETATM    5  C   UNL     1      -9.626   7.808  66.694  1.00  0.00    -0.286 C  
HETATM    6  C   UNL     1      -7.732   9.505  65.894  1.00  0.00    -0.100 C  
HETATM    7  C   UNL     1     -10.415   6.261  66.743  1.00  0.00    -0.311 C  
HETATM    8  C   UNL     1     -10.256   8.700  67.781  1.00  0.00    -0.282 C  
HETATM    9  C   UNL     1      -8.073  10.941  65.895  1.00  0.00    -0.120 C  
HETATM   10  C   UNL     1      -9.321  10.970  65.094  1.00  0.00    -0.220 C  
HETATM   11  C   UNL     1      -9.482   4.976  67.509  1.00  0.00    -0.135 C  
HETATM   12  O   UNL     1      -8.467   4.455  66.675  1.00  0.00    -0.105 OA 
HETATM   13  O   UNL     1      -9.919   9.740  65.003  1.00  0.00    -0.286 OA 
HETATM   14  O   UNL     1      -9.801  11.991  64.608  1.00  0.00    -0.237 OA 
HETATM   15  C   UNL     1      -7.782   5.064  67.763  1.00  0.00    -0.087 C  
HETATM   16  C   UNL     1      -7.334   6.521  67.797  1.00  0.00    -0.096 C  
HETATM   17  C   UNL     1      -7.430   6.879  69.327  1.00  0.00    -0.094 C  
HETATM   18  C   UNL     1      -5.350   4.367  67.609  1.00  0.00    -0.012 C  
HETATM   19  C   UNL     1      -6.311   6.149  70.060  1.00  0.00    -0.035 C  
HETATM   20  C   UNL     1      -6.699   4.170  68.391  1.00  0.00    -0.047 C  
HETATM   21  C   UNL     1      -6.434   4.645  69.841  1.00  0.00    -0.032 C  
HETATM   22  C   UNL     1      -7.054   2.672  68.311  1.00  0.00    -0.048 C  
HETATM   23  C   UNL     1      -6.353   3.807  70.882  1.00  0.00    -0.019 C  
HETATM   24  C   UNL     1      -6.225   1.830  69.274  1.00  0.00    -0.025 C  
HETATM   25  C   UNL     1      -6.384   2.345  70.677  1.00  0.00    -0.024 C  
HETATM   26  O   UNL     1      -6.443   1.596  71.659  1.00  0.00    -0.017 OA 
ENDROOT
BRANCH  17  27
HETATM   27  C   UNL     1      -7.481   8.339  69.735  1.00  0.00    -0.077 C  
HETATM   28  O   UNL     1      -8.439   8.924  70.209  1.00  0.00    -0.132 OA 
BRANCH  27  29
HETATM   29  O   UNL     1      -6.251   8.890  69.500  1.00  0.00    -0.042 OA 
HETATM   30  C   UNL     1      -6.216  10.292  69.224  1.00  0.00    -0.045 C  
ENDBRANCH  27  29
ENDBRANCH  17  27
TORSDOF 2
ENDMDL
MODEL       85
REMARK 921   NORMALIZED FREE ENERGY PREDICTED BY IDOCK:   -2.62 KCAL/MOL
REMARK 922        TOTAL FREE ENERGY PREDICTED BY IDOCK:   -3.32 KCAL/MOL
REMARK 923 INTER-LIGAND FREE ENERGY PREDICTED BY IDOCK:   -3.66 KCAL/MOL
REMARK 924 INTRA-LIGAND FREE ENERGY PREDICTED BY IDOCK:    0.34 KCAL/MOL
REMARK 927      BINDING AFFINITY PREDICTED BY RF-SCORE:    0.00 PKD
ROOT
HETATM    1  C   UNL     1      -7.824   8.816  69.335  1.00  0.00    -0.095 C  
HETATM    2  C   UNL     1      -6.433   8.081  68.930  1.00  0.00    -0.048 C  
HETATM    3  C   UNL     1      -6.654   6.607  69.213  1.00  0.00    -0.048 C  
HETATM    4  C   UNL     1      -8.060   6.692  69.749  1.00  0.00    -0.126 C  
HETATM    5  C   UNL     1      -8.057   8.053  70.600  1.00  0.00    -0.104 C  
HETATM    6  C   UNL     1      -8.996   6.764  68.464  1.00  0.00    -0.121 C  
HETATM    7  C   UNL     1      -6.834   8.900  71.498  1.00  0.00    -0.082 C  
HETATM    8  C   UNL     1      -9.390   8.195  71.358  1.00  0.00    -0.200 C  
HETATM    9  C   UNL     1     -10.093   5.802  68.689  1.00  0.00    -0.227 C  
HETATM   10  C   UNL     1      -9.535   4.932  69.753  1.00  0.00    -0.154 C  
HETATM   11  C   UNL     1      -6.372  10.465  70.830  1.00  0.00     0.001 C  
HETATM   12  O   UNL     1      -5.510  10.360  69.715  1.00  0.00    -0.037 OA 
HETATM   13  O   UNL     1      -8.483   5.513  70.413  1.00  0.00    -0.117 OA 
HETATM   14  O   UNL     1      -9.995   3.832  70.051  1.00  0.00    -0.125 OA 
HETATM   15  C   UNL     1      -6.707  10.938  69.210  1.00  0.00    -0.086 C  
HETATM   16  C   UNL     1      -7.890  10.143  68.667  1.00  0.00    -0.097 C  
HETATM   17  C   UNL     1      -9.119  11.058  69.029  1.00  0.00    -0.076 C  
HETATM   18  C   UNL     1      -6.222  11.737  66.853  1.00  0.00    -0.134 C  
HETATM   19  C   UNL     1      -9.080  12.289  68.131  1.00  0.00    -0.196 C  
HETATM   20  C   UNL     1      -6.472  12.185  68.338  1.00  0.00    -0.056 C  
HETATM   21  C   UNL     1      -7.765  13.037  68.323  1.00  0.00    -0.141 C  
HETATM   22  C   UNL     1      -5.235  12.989  68.783  1.00  0.00    -0.068 C  
HETATM   23  C   UNL     1      -7.769  14.363  68.508  1.00  0.00    -0.135 C  
HETATM   24  C   UNL     1      -5.234  14.406  68.222  1.00  0.00    -0.113 C  
HETATM   25  C   UNL     1      -6.503  15.114  68.609  1.00  0.00    -0.087 C  
HETATM   26  O   UNL     1      -6.530  16.312  68.913  1.00  0.00    -0.127 OA 
ENDROOT
BRANCH  17  27
HETATM   27  C   UNL     1     -10.506  10.446  69.048  1.00  0.00    -0.219 C  
HETATM   28  O   UNL     1     -11.071   9.964  70.014  1.00  0.00    -0.251 OA 
BRANCH  27  29
HETATM   29  O   UNL     1     -11.034  10.547  67.789  1.00  0.00    -0.271 OA 
HETATM   30  C   UNL     1     -10.720   9.496  66.873  1.00  0.00    -0.114 C  
ENDBRANCH  27  29
ENDBRANCH  17  27
TORSDOF 2
ENDMDL
MODEL       86
REMARK 921   NORMALIZED FREE ENERGY PREDICTED BY IDOCK:   -2.59 KCAL/MOL
REMARK 922        TOTAL FREE ENERGY PREDICTED BY IDOCK:   -3.28 KCAL/MOL
REMARK 923 INTER-LIGAND FREE ENERGY PREDICTED BY IDOCK:   -3.30 KCAL/MOL
REMARK 924 INTRA-LIGAND FREE ENERGY PREDICTED BY IDOCK:    0.02 KCAL/MOL
REMARK 927      BINDING AFFINITY PREDICTED BY RF-SCORE:    0.00 PKD
ROOT
HETATM    1  C   UNL     1      -7.928   6.759  69.477  1.00  0.00    -0.125 C  
HETATM    2  C   UNL     1      -6.422   6.766  70.085  1.00  0.00    -0.040 C  
HETATM    3  C   UNL     1      -6.548   6.208  71.491  1.00  0.00    -0.054 C  
HETATM    4  C   UNL     1      -8.040   6.000  71.514  1.00  0.00    -0.114 C  
HETATM    5  C   UNL     1      -8.609   7.266  70.708  1.00  0.00    -0.144 C  
HETATM    6  C   UNL     1      -8.284   4.621  70.758  1.00  0.00    -0.088 C  
HETATM    7  C   UNL     1      -8.060   8.902  70.506  1.00  0.00    -0.145 C  
HETATM    8  C   UNL     1     -10.148   7.286  70.792  1.00  0.00    -0.193 C  
HETATM    9  C   UNL     1      -9.221   3.844  71.593  1.00  0.00    -0.188 C  
HETATM   10  C   UNL     1      -9.102   4.517  72.910  1.00  0.00    -0.120 C  
HETATM   11  C   UNL     1      -7.559   9.320  68.868  1.00  0.00    -0.075 C  
HETATM   12  O   UNL     1      -6.276   8.827  68.537  1.00  0.00    -0.051 OA 
HETATM   13  O   UNL     1      -8.558   5.772  72.815  1.00  0.00    -0.120 OA 
HETATM   14  O   UNL     1      -9.495   4.031  73.968  1.00  0.00    -0.098 OA 
HETATM   15  C   UNL     1      -7.175   8.148  67.668  1.00  0.00    -0.092 C  
HETATM   16  C   UNL     1      -7.859   6.824  67.993  1.00  0.00    -0.113 C  
HETATM   17  C   UNL     1      -9.228   6.943  67.224  1.00  0.00    -0.137 C  
HETATM   18  C   UNL     1      -5.777   6.946  65.929  1.00  0.00    -0.030 C  
HETATM   19  C   UNL     1      -8.947   6.838  65.730  1.00  0.00    -0.043 C  
HETATM   20  C   UNL     1      -6.737   8.161  66.193  1.00  0.00    -0.054 C  
HETATM   21  C   UNL     1      -7.980   7.935  65.298  1.00  0.00    -0.126 C  
HETATM   22  C   UNL     1      -5.961   9.440  65.821  1.00  0.00    -0.055 C  
HETATM   23  C   UNL     1      -8.247   8.676  64.216  1.00  0.00    -0.160 C  
HETATM   24  C   UNL     1      -5.894   9.658  64.314  1.00  0.00    -0.085 C  
HETATM   25  C   UNL     1      -7.281   9.683  63.735  1.00  0.00    -0.114 C  
HETATM   26  O   UNL     1      -7.605  10.445  62.817  1.00  0.00    -0.143 OA 
ENDROOT
BRANCH  17  27
HETATM   27  C   UNL     1     -10.373   6.034  67.625  1.00  0.00    -0.206 C  
HETATM   28  O   UNL     1     -11.524   6.371  67.839  1.00  0.00    -0.150 OA 
BRANCH  27  29
HETATM   29  O   UNL     1      -9.898   4.751  67.685  1.00  0.00    -0.164 OA 
HETATM   30  C   UNL     1      -9.993   3.973  66.490  1.00  0.00    -0.073 C  
ENDBRANCH  27  29
ENDBRANCH  17  27
TORSDOF 2
ENDMDL
MODEL       87
REMARK 921   NORMALIZED FREE ENERGY PREDICTED BY IDOCK:   -2.48 KCAL/MOL
REMARK 922        TOTAL FREE ENERGY PREDICTED BY IDOCK:   -3.16 KCAL/MOL
REMARK 923 INTER-LIGAND FREE ENERGY PREDICTED BY IDOCK:   -2.79 KCAL/MOL
REMARK 924 INTRA-LIGAND FREE ENERGY PREDICTED BY IDOCK:   -0.36 KCAL/MOL
REMARK 927      BINDING AFFINITY PREDICTED BY RF-SCORE:    0.00 PKD
ROOT
HETATM    1  C   UNL     1      -7.922   9.893  68.676  1.00  0.00    -0.087 C  
HETATM    2  C   UNL     1      -7.032  10.993  69.476  1.00  0.00    -0.126 C  
HETATM    3  C   UNL     1      -7.352  12.326  68.825  1.00  0.00    -0.083 C  
HETATM    4  C   UNL     1      -8.307  11.834  67.769  1.00  0.00    -0.146 C  
HETATM    5  C   UNL     1      -7.669  10.435  67.306  1.00  0.00    -0.099 C  
HETATM    6  C   UNL     1      -9.704  11.665  68.512  1.00  0.00    -0.187 C  
HETATM    7  C   UNL     1      -6.042   9.833  67.217  1.00  0.00    -0.055 C  
HETATM    8  C   UNL     1      -8.449   9.884  66.097  1.00  0.00    -0.130 C  
HETATM    9  C   UNL     1     -10.720  12.291  67.643  1.00  0.00    -0.250 C  
HETATM   10  C   UNL     1      -9.894  13.156  66.765  1.00  0.00    -0.251 C  
HETATM   11  C   UNL     1      -5.677   8.514  68.329  1.00  0.00    -0.038 C  
HETATM   12  O   UNL     1      -5.466   8.949  69.657  1.00  0.00    -0.033 OA 
HETATM   13  O   UNL     1      -8.573  12.792  66.757  1.00  0.00    -0.174 OA 
HETATM   14  O   UNL     1     -10.348  14.067  66.077  1.00  0.00    -0.289 OA 
HETATM   15  C   UNL     1      -6.638   8.145  69.708  1.00  0.00    -0.037 C  
HETATM   16  C   UNL     1      -8.056   8.670  69.511  1.00  0.00    -0.110 C  
HETATM   17  C   UNL     1      -8.794   7.442  68.857  1.00  0.00    -0.131 C  
HETATM   18  C   UNL     1      -7.173   7.747  72.153  1.00  0.00    -0.079 C  
HETATM   19  C   UNL     1      -8.961   6.363  69.919  1.00  0.00    -0.142 C  
HETATM   20  C   UNL     1      -6.621   7.097  70.834  1.00  0.00    -0.048 C  
HETATM   21  C   UNL     1      -7.600   5.953  70.470  1.00  0.00    -0.091 C  
HETATM   22  C   UNL     1      -5.199   6.587  71.141  1.00  0.00    -0.019 C  
HETATM   23  C   UNL     1      -7.284   4.657  70.582  1.00  0.00    -0.048 C  
HETATM   24  C   UNL     1      -5.210   5.283  71.930  1.00  0.00    -0.005 C  
HETATM   25  C   UNL     1      -6.006   4.242  71.193  1.00  0.00    -0.014 C  
HETATM   26  O   UNL     1      -5.678   3.051  71.164  1.00  0.00    -0.012 OA 
ENDROOT
BRANCH  17  27
HETATM   27  C   UNL     1     -10.096   7.681  68.118  1.00  0.00    -0.186 C  
HETATM   28  O   UNL     1     -11.062   8.296  68.535  1.00  0.00     0.141 OA 
BRANCH  27  29
HETATM   29  O   UNL     1      -9.996   7.105  66.881  1.00  0.00    -0.194 OA 
HETATM   30  C   UNL     1     -11.080   6.269  66.470  1.00  0.00     0.130 C  
ENDBRANCH  27  29
ENDBRANCH  17  27
TORSDOF 2
ENDMDL
MODEL       88
REMARK 921   NORMALIZED FREE ENERGY PREDICTED BY IDOCK:   -2.36 KCAL/MOL
REMARK 922        TOTAL FREE ENERGY PREDICTED BY IDOCK:   -3.03 KCAL/MOL
REMARK 923 INTER-LIGAND FREE ENERGY PREDICTED BY IDOCK:   -3.34 KCAL/MOL
REMARK 924 INTRA-LIGAND FREE ENERGY PREDICTED BY IDOCK:    0.31 KCAL/MOL
REMARK 927      BINDING AFFINITY PREDICTED BY RF-SCORE:    0.00 PKD
ROOT
HETATM    1  C   UNL     1      -9.717  12.981  67.212  1.00  0.00    -0.225 C  
HETATM    2  C   UNL     1      -9.415  12.869  65.619  1.00  0.00     0.061 C  
HETATM    3  C   UNL     1      -9.337  11.383  65.323  1.00  0.00    -0.192 C  
HETATM    4  C   UNL     1      -9.558  10.866  66.721  1.00  0.00    -0.183 C  
HETATM    5  C   UNL     1      -8.761  11.914  67.640  1.00  0.00    -0.162 C  
HETATM    6  C   UNL     1     -11.133  10.915  66.944  1.00  0.00    -0.236 C  
HETATM    7  C   UNL     1      -7.345  12.889  67.390  1.00  0.00    -0.132 C  
HETATM    8  C   UNL     1      -8.750  11.421  69.100  1.00  0.00     0.186 C  
HETATM    9  C   UNL     1     -11.515   9.617  67.534  1.00  0.00     0.846 C  
HETATM   10  C   UNL     1     -10.350   8.763  67.196  1.00  0.00    -0.293 C  
HETATM   11  C   UNL     1      -7.637  14.628  67.363  1.00  0.00    -0.192 C  
HETATM   12  O   UNL     1      -8.188  15.079  66.142  1.00  0.00     0.300 OA 
HETATM   13  O   UNL     1      -9.235   9.493  66.873  1.00  0.00    -0.138 OA 
HETATM   14  O   UNL     1     -10.360   7.536  67.250  1.00  0.00    -0.235 OA 
HETATM   15  C   UNL     1      -9.192  15.323  67.119  1.00  0.00    -0.209 C  
HETATM   16  C   UNL     1     -10.277  14.325  67.512  1.00  0.00    -0.240 C  
HETATM   17  C   UNL     1     -10.529  14.666  69.028  1.00  0.00    -0.248 C  
HETATM   18  C   UNL     1     -10.973  16.759  66.027  1.00  0.00     0.117 C  
HETATM   19  C   UNL     1     -11.241  16.011  69.105  1.00  0.00    -0.342 C  
HETATM   20  C   UNL     1      -9.785  16.741  67.056  1.00  0.00    -0.254 C  
HETATM   21  C   UNL     1     -10.399  17.090  68.434  1.00  0.00    -0.351 C  
HETATM   22  C   UNL     1      -8.758  17.787  66.580  1.00  0.00    -0.281 C  
HETATM   23  C   UNL     1     -10.186  18.257  69.055  1.00  0.00    -0.217 C  
HETATM   24  C   UNL     1      -9.189  19.212  66.909  1.00  0.00    -0.348 C  
HETATM   25  C   UNL     1      -9.446  19.344  68.384  1.00  0.00    -0.374 C  
HETATM   26  O   UNL     1      -9.147  20.359  69.023  1.00  0.00     0.380 OA 
ENDROOT
BRANCH  17  27
HETATM   27  C   UNL     1     -11.218  13.638  69.904  1.00  0.00     0.041 C  
HETATM   28  O   UNL     1     -11.584  12.527  69.563  1.00  0.00    -0.284 OA 
BRANCH  27  29
HETATM   29  O   UNL     1     -11.342  14.162  71.161  1.00  0.00     0.124 OA 
HETATM   30  C   UNL     1     -12.594  13.965  71.822  1.00  0.00    -0.254 C  
ENDBRANCH  27  29
ENDBRANCH  17  27
TORSDOF 2
ENDMDL
MODEL       89
REMARK 921   NORMALIZED FREE ENERGY PREDICTED BY IDOCK:   -2.16 KCAL/MOL
REMARK 922        TOTAL FREE ENERGY PREDICTED BY IDOCK:   -2.80 KCAL/MOL
REMARK 923 INTER-LIGAND FREE ENERGY PREDICTED BY IDOCK:   -2.45 KCAL/MOL
REMARK 924 INTRA-LIGAND FREE ENERGY PREDICTED BY IDOCK:   -0.35 KCAL/MOL
REMARK 927      BINDING AFFINITY PREDICTED BY RF-SCORE:    0.00 PKD
ROOT
HETATM    1  C   UNL     1      -7.721   7.727  70.516  1.00  0.00    -0.088 C  
HETATM    2  C   UNL     1      -7.382   7.233  69.005  1.00  0.00    -0.091 C  
HETATM    3  C   UNL     1      -7.225   8.503  68.189  1.00  0.00    -0.087 C  
HETATM    4  C   UNL     1      -7.515   9.504  69.276  1.00  0.00    -0.078 C  
HETATM    5  C   UNL     1      -8.681   8.806  70.130  1.00  0.00    -0.153 C  
HETATM    6  C   UNL     1      -6.153   9.650  70.087  1.00  0.00    -0.053 C  
HETATM    7  C   UNL     1      -9.966   7.709  69.726  1.00  0.00    -0.184 C  
HETATM    8  C   UNL     1      -9.210   9.791  71.190  1.00  0.00     0.623 C  
HETATM    9  C   UNL     1      -5.925  11.097  70.268  1.00  0.00    -0.144 C  
HETATM   10  C   UNL     1      -6.802  11.687  69.226  1.00  0.00    -0.104 C  
HETATM   11  C   UNL     1      -9.823   6.103  70.441  1.00  0.00    -0.178 C  
HETATM   12  O   UNL     1      -8.886   5.281  69.775  1.00  0.00    -0.102 OA 
HETATM   13  O   UNL     1      -7.762  10.812  68.787  1.00  0.00    -0.104 OA 
HETATM   14  O   UNL     1      -6.717  12.848  68.834  1.00  0.00    -0.089 OA 
HETATM   15  C   UNL     1      -8.352   5.479  71.079  1.00  0.00    -0.121 C  
HETATM   16  C   UNL     1      -7.425   6.625  71.470  1.00  0.00    -0.088 C  
HETATM   17  C   UNL     1      -7.799   6.875  72.979  1.00  0.00    -0.104 C  
HETATM   18  C   UNL     1      -6.409   3.875  71.350  1.00  0.00    -0.015 C  
HETATM   19  C   UNL     1      -7.277   5.703  73.801  1.00  0.00    -0.086 C  
HETATM   20  C   UNL     1      -7.894   4.179  71.763  1.00  0.00    -0.075 C  
HETATM   21  C   UNL     1      -7.882   4.397  73.296  1.00  0.00    -0.091 C  
HETATM   22  C   UNL     1      -8.740   2.962  71.342  1.00  0.00    -0.115 C  
HETATM   23  C   UNL     1      -8.406   3.522  74.163  1.00  0.00    -0.085 C  
HETATM   24  C   UNL     1      -8.581   1.788  72.300  1.00  0.00    -0.061 C  
HETATM   25  C   UNL     1      -8.917   2.216  73.701  1.00  0.00    -0.066 C  
HETATM   26  O   UNL     1      -9.516   1.483  74.495  1.00  0.00    -0.060 OA 
ENDROOT
BRANCH  17  27
HETATM   27  C   UNL     1      -7.417   8.196  73.617  1.00  0.00    -0.154 C  
HETATM   28  O   UNL     1      -8.146   8.919  74.275  1.00  0.00    -0.293 OA 
BRANCH  27  29
HETATM   29  O   UNL     1      -6.097   8.434  73.349  1.00  0.00    -0.091 OA 
HETATM   30  C   UNL     1      -5.331   9.059  74.382  1.00  0.00    -0.116 C  
ENDBRANCH  27  29
ENDBRANCH  17  27
TORSDOF 2
ENDMDL
MODEL       90
REMARK 921   NORMALIZED FREE ENERGY PREDICTED BY IDOCK:   -1.90 KCAL/MOL
REMARK 922        TOTAL FREE ENERGY PREDICTED BY IDOCK:   -2.51 KCAL/MOL
REMARK 923 INTER-LIGAND FREE ENERGY PREDICTED BY IDOCK:   -2.48 KCAL/MOL
REMARK 924 INTRA-LIGAND FREE ENERGY PREDICTED BY IDOCK:   -0.02 KCAL/MOL
REMARK 927      BINDING AFFINITY PREDICTED BY RF-SCORE:    0.00 PKD
ROOT
HETATM    1  C   UNL     1     -10.155  11.433  68.269  1.00  0.00    -0.204 C  
HETATM    2  C   UNL     1      -9.977  12.308  66.912  1.00  0.00    -0.223 C  
HETATM    3  C   UNL     1      -9.323  11.376  65.909  1.00  0.00    -0.247 C  
HETATM    4  C   UNL     1      -9.187  10.162  66.790  1.00  0.00    -0.151 C  
HETATM    5  C   UNL     1      -8.812  10.778  68.225  1.00  0.00    -0.139 C  
HETATM    6  C   UNL     1     -10.617   9.464  66.768  1.00  0.00    -0.210 C  
HETATM    7  C   UNL     1      -7.948  12.199  68.727  1.00  0.00     0.007 C  
HETATM    8  C   UNL     1      -8.469   9.640  69.205  1.00  0.00    -0.150 C  
HETATM    9  C   UNL     1     -10.378   8.025  66.542  1.00  0.00    -0.144 C  
HETATM   10  C   UNL     1      -9.000   8.017  65.991  1.00  0.00    -0.163 C  
HETATM   11  C   UNL     1      -8.929  13.409  69.555  1.00  0.00     1.391 C  
HETATM   12  O   UNL     1      -9.723  14.178  68.674  1.00  0.00    -0.223 OA 
HETATM   13  O   UNL     1      -8.317   9.175  66.260  1.00  0.00    -0.115 OA 
HETATM   14  O   UNL     1      -8.501   7.060  65.403  1.00  0.00    -0.140 OA 
HETATM   15  C   UNL     1     -10.647  13.451  69.474  1.00  0.00     0.335 C  
HETATM   16  C   UNL     1     -11.187  12.067  69.131  1.00  0.00    -0.305 C  
HETATM   17  C   UNL     1     -11.420  11.423  70.549  1.00  0.00    -0.005 C  
HETATM   18  C   UNL     1     -12.950  14.411  69.026  1.00  0.00     1.224 C  
HETATM   19  C   UNL     1     -12.612  12.116  71.199  1.00  0.00    -0.360 C  
HETATM   20  C   UNL     1     -11.773  14.320  70.062  1.00  0.00    -0.364 C  
HETATM   21  C   UNL     1     -12.350  13.614  71.314  1.00  0.00    -0.359 C  
HETATM   22  C   UNL     1     -11.312  15.762  70.353  1.00  0.00    -0.389 C  
HETATM   23  C   UNL     1     -12.580  14.247  72.471  1.00  0.00    -0.319 C  
HETATM   24  C   UNL     1     -12.258  16.491  71.299  1.00  0.00     0.535 C  
HETATM   25  C   UNL     1     -12.414  15.710  72.575  1.00  0.00    -0.428 C  
HETATM   26  O   UNL     1     -12.502  16.254  73.681  1.00  0.00    -0.502 OA 
ENDROOT
BRANCH  17  27
HETATM   27  C   UNL     1     -11.546   9.916  70.656  1.00  0.00    -0.335 C  
HETATM   28  O   UNL     1     -11.681   9.134  69.731  1.00  0.00     0.109 OA 
BRANCH  27  29
HETATM   29  O   UNL     1     -11.459   9.573  71.977  1.00  0.00    -0.274 OA 
HETATM   30  C   UNL     1     -10.577   8.498  72.307  1.00  0.00    -0.338 C  
ENDBRANCH  27  29
ENDBRANCH  17  27
TORSDOF 2
ENDMDL
MODEL       91
REMARK 921   NORMALIZED FREE ENERGY PREDICTED BY IDOCK:   -1.64 KCAL/MOL
REMARK 922        TOTAL FREE ENERGY PREDICTED BY IDOCK:   -2.22 KCAL/MOL
REMARK 923 INTER-LIGAND FREE ENERGY PREDICTED BY IDOCK:   -1.96 KCAL/MOL
REMARK 924 INTRA-LIGAND FREE ENERGY PREDICTED BY IDOCK:   -0.26 KCAL/MOL
REMARK 927      BINDING AFFINITY PREDICTED BY RF-SCORE:    0.00 PKD
ROOT
HETATM    1  C   UNL     1      -8.138  10.819  67.653  1.00  0.00    -0.114 C  
HETATM    2  C   UNL     1      -8.467  11.279  69.176  1.00  0.00     0.088 C  
HETATM    3  C   UNL     1      -8.409  12.795  69.165  1.00  0.00     0.603 C  
HETATM    4  C   UNL     1      -8.037  12.993  67.718  1.00  0.00    -0.168 C  
HETATM    5  C   UNL     1      -7.021  11.786  67.423  1.00  0.00    -0.121 C  
HETATM    6  C   UNL     1      -9.404  12.866  66.912  1.00  0.00    -0.240 C  
HETATM    7  C   UNL     1      -5.881  10.915  68.402  1.00  0.00    -0.043 C  
HETATM    8  C   UNL     1      -6.414  11.951  66.016  1.00  0.00     1.065 C  
HETATM    9  C   UNL     1      -9.439  13.998  65.965  1.00  0.00    -0.164 C  
HETATM   10  C   UNL     1      -8.440  14.927  66.548  1.00  0.00    -0.005 C  
HETATM   11  C   UNL     1      -6.278   9.218  68.672  1.00  0.00    -0.045 C  
HETATM   12  O   UNL     1      -7.286   9.032  69.645  1.00  0.00    -0.056 OA 
HETATM   13  O   UNL     1      -7.589  14.306  67.425  1.00  0.00    -0.180 OA 
HETATM   14  O   UNL     1      -8.346  16.113  66.241  1.00  0.00    -0.310 OA 
HETATM   15  C   UNL     1      -7.850   8.564  68.426  1.00  0.00    -0.106 C  
HETATM   16  C   UNL     1      -8.628   9.431  67.443  1.00  0.00    -0.125 C  
HETATM   17  C   UNL     1      -8.298   8.765  66.055  1.00  0.00    -0.130 C  
HETATM   18  C   UNL     1     -10.006   7.364  69.005  1.00  0.00    -0.176 C  
HETATM   19  C   UNL     1      -9.015   7.422  65.985  1.00  0.00    -0.156 C  
HETATM   20  C   UNL     1      -8.515   7.181  68.544  1.00  0.00    -0.125 C  
HETATM   21  C   UNL     1      -8.572   6.530  67.140  1.00  0.00    -0.111 C  
HETATM   22  C   UNL     1      -7.825   6.283  69.589  1.00  0.00    -0.107 C  
HETATM   23  C   UNL     1      -8.216   5.261  66.907  1.00  0.00    -0.108 C  
HETATM   24  C   UNL     1      -8.191   4.813  69.419  1.00  0.00    -0.076 C  
HETATM   25  C   UNL     1      -7.867   4.359  68.023  1.00  0.00    -0.080 C  
HETATM   26  O   UNL     1      -7.414   3.236  67.776  1.00  0.00    -0.057 OA 
ENDROOT
BRANCH  17  27
HETATM   27  C   UNL     1      -8.524   9.566  64.787  1.00  0.00    -0.159 C  
HETATM   28  O   UNL     1      -7.763   9.651  63.840  1.00  0.00    -0.119 OA 
BRANCH  27  29
HETATM   29  O   UNL     1      -9.751  10.166  64.876  1.00  0.00    -0.287 OA 
HETATM   30  C   UNL     1     -10.058  11.155  63.890  1.00  0.00    -0.348 C  
ENDBRANCH  27  29
ENDBRANCH  17  27
TORSDOF 2
ENDMDL
MODEL       92
REMARK 921   NORMALIZED FREE ENERGY PREDICTED BY IDOCK:   -1.52 KCAL/MOL
REMARK 922        TOTAL FREE ENERGY PREDICTED BY IDOCK:   -2.08 KCAL/MOL
REMARK 923 INTER-LIGAND FREE ENERGY PREDICTED BY IDOCK:   -4.10 KCAL/MOL
REMARK 924 INTRA-LIGAND FREE ENERGY PREDICTED BY IDOCK:    2.01 KCAL/MOL
REMARK 927      BINDING AFFINITY PREDICTED BY RF-SCORE:    0.00 PKD
ROOT
HETATM    1  C   UNL     1      -7.740   8.030  67.256  1.00  0.00    -0.101 C  
HETATM    2  C   UNL     1      -6.506   6.976  67.335  1.00  0.00    -0.054 C  
HETATM    3  C   UNL     1      -5.638   7.276  66.127  1.00  0.00    -0.028 C  
HETATM    4  C   UNL     1      -6.466   8.382  65.527  1.00  0.00    -0.049 C  
HETATM    5  C   UNL     1      -7.977   7.904  65.785  1.00  0.00    -0.109 C  
HETATM    6  C   UNL     1      -6.079   9.690  66.347  1.00  0.00    -0.060 C  
HETATM    7  C   UNL     1      -8.735   6.345  65.900  1.00  0.00    -0.152 C  
HETATM    8  C   UNL     1      -8.953   8.858  65.071  1.00  0.00    -0.160 C  
HETATM    9  C   UNL     1      -5.844  10.755  65.353  1.00  0.00    -0.079 C  
HETATM   10  C   UNL     1      -5.628   9.980  64.106  1.00  0.00    -0.109 C  
HETATM   11  C   UNL     1      -9.371   5.945  67.496  1.00  0.00    -0.110 C  
HETATM   12  O   UNL     1      -8.368   5.547  68.409  1.00  0.00    -0.098 OA 
HETATM   13  O   UNL     1      -6.105   8.698  64.192  1.00  0.00    -0.069 OA 
HETATM   14  O   UNL     1      -5.126  10.447  63.086  1.00  0.00    -0.108 OA 
HETATM   15  C   UNL     1      -8.895   6.759  68.935  1.00  0.00    -0.128 C  
HETATM   16  C   UNL     1      -8.369   8.150  68.598  1.00  0.00    -0.126 C  
HETATM   17  C   UNL     1      -9.661   9.044  68.699  1.00  0.00    -0.158 C  
HETATM   18  C   UNL     1      -7.972   7.027  71.281  1.00  0.00    -0.103 C  
HETATM   19  C   UNL     1     -10.050   9.160  70.168  1.00  0.00    -0.233 C  
HETATM   20  C   UNL     1      -9.248   6.682  70.431  1.00  0.00    -0.156 C  
HETATM   21  C   UNL     1     -10.295   7.775  70.756  1.00  0.00    -0.206 C  
HETATM   22  C   UNL     1      -9.708   5.273  70.855  1.00  0.00    -0.244 C  
HETATM   23  C   UNL     1     -11.397   7.540  71.481  1.00  0.00    -0.283 C  
HETATM   24  C   UNL     1     -10.443   5.282  72.190  1.00  0.00    -0.278 C  
HETATM   25  C   UNL     1     -11.608   6.231  72.130  1.00  0.00    -0.319 C  
HETATM   26  O   UNL     1     -12.689   5.994  72.679  1.00  0.00     0.085 OA 
ENDROOT
BRANCH  17  27
HETATM   27  C   UNL     1      -9.662  10.405  68.030  1.00  0.00    -0.150 C  
HETATM   28  O   UNL     1     -10.378  10.758  67.110  1.00  0.00    -0.203 OA 
BRANCH  27  29
HETATM   29  O   UNL     1      -8.729  11.187  68.654  1.00  0.00    -0.155 OA 
HETATM   30  C   UNL     1      -7.745  10.513  69.442  1.00  0.00    -0.155 C  
ENDBRANCH  27  29
ENDBRANCH  17  27
TORSDOF 2
ENDMDL
MODEL       93
REMARK 921   NORMALIZED FREE ENERGY PREDICTED BY IDOCK:   -1.33 KCAL/MOL
REMARK 922        TOTAL FREE ENERGY PREDICTED BY IDOCK:   -1.87 KCAL/MOL
REMARK 923 INTER-LIGAND FREE ENERGY PREDICTED BY IDOCK:   -2.35 KCAL/MOL
REMARK 924 INTRA-LIGAND FREE ENERGY PREDICTED BY IDOCK:    0.48 KCAL/MOL
REMARK 927      BINDING AFFINITY PREDICTED BY RF-SCORE:    0.00 PKD
ROOT
HETATM    1  C   UNL     1      -9.175  14.291  67.459  1.00  0.00    -0.197 C  
HETATM    2  C   UNL     1      -8.948  13.944  65.889  1.00  0.00     0.509 C  
HETATM    3  C   UNL     1      -9.320  12.481  65.737  1.00  0.00     0.014 C  
HETATM    4  C   UNL     1      -9.660  12.188  67.175  1.00  0.00    -0.194 C  
HETATM    5  C   UNL     1      -8.573  13.034  67.999  1.00  0.00    -0.186 C  
HETATM    6  C   UNL     1     -11.145  12.725  67.374  1.00  0.00    -0.312 C  
HETATM    7  C   UNL     1      -6.935  13.515  67.674  1.00  0.00    -0.176 C  
HETATM    8  C   UNL     1      -8.683  12.701  69.499  1.00  0.00     1.606 C  
HETATM    9  C   UNL     1     -11.885  11.661  68.081  1.00  0.00    -0.315 C  
HETATM   10  C   UNL     1     -11.033  10.471  67.840  1.00  0.00    -0.295 C  
HETATM   11  C   UNL     1      -6.697  15.252  67.477  1.00  0.00    -0.168 C  
HETATM   12  O   UNL     1      -7.110  15.728  66.212  1.00  0.00     0.265 OA 
HETATM   13  O   UNL     1      -9.758  10.802  67.462  1.00  0.00    -0.164 OA 
HETATM   14  O   UNL     1     -11.407   9.313  68.012  1.00  0.00     0.143 OA 
HETATM   15  C   UNL     1      -7.980  16.351  67.149  1.00  0.00    -0.183 C  
HETATM   16  C   UNL     1      -9.305  15.763  67.623  1.00  0.00    -0.216 C  
HETATM   17  C   UNL     1      -9.418  16.306  69.097  1.00  0.00    -0.246 C  
HETATM   18  C   UNL     1      -9.271  18.142  65.904  1.00  0.00     0.163 C  
HETATM   19  C   UNL     1      -9.697  17.803  69.035  1.00  0.00    -0.187 C  
HETATM   20  C   UNL     1      -8.125  17.869  66.943  1.00  0.00    -0.250 C  
HETATM   21  C   UNL     1      -8.583  18.514  68.274  1.00  0.00    -0.341 C  
HETATM   22  C   UNL     1      -6.841  18.512  66.382  1.00  0.00    -0.245 C  
HETATM   23  C   UNL     1      -8.023  19.618  68.783  1.00  0.00    -0.314 C  
HETATM   24  C   UNL     1      -6.824  20.024  66.568  1.00  0.00    -0.246 C  
HETATM   25  C   UNL     1      -7.005  20.367  68.021  1.00  0.00    -0.282 C  
HETATM   26  O   UNL     1      -6.407  21.303  68.563  1.00  0.00    -0.119 OA 
ENDROOT
BRANCH  17  27
HETATM   27  C   UNL     1     -10.367  15.617  70.058  1.00  0.00    -0.298 C  
HETATM   28  O   UNL     1     -10.106  15.245  71.189  1.00  0.00     0.459 OA 
BRANCH  27  29
HETATM   29  O   UNL     1     -11.585  15.502  69.446  1.00  0.00    -0.308 OA 
HETATM   30  C   UNL     1     -12.314  14.296  69.683  1.00  0.00    -0.266 C  
ENDBRANCH  27  29
ENDBRANCH  17  27
TORSDOF 2
ENDMDL
MODEL       94
REMARK 921   NORMALIZED FREE ENERGY PREDICTED BY IDOCK:   -1.10 KCAL/MOL
REMARK 922        TOTAL FREE ENERGY PREDICTED BY IDOCK:   -1.61 KCAL/MOL
REMARK 923 INTER-LIGAND FREE ENERGY PREDICTED BY IDOCK:   -1.73 KCAL/MOL
REMARK 924 INTRA-LIGAND FREE ENERGY PREDICTED BY IDOCK:    0.11 KCAL/MOL
REMARK 927      BINDING AFFINITY PREDICTED BY RF-SCORE:    0.00 PKD
ROOT
HETATM    1  C   UNL     1      -9.101  12.482  67.325  1.00  0.00    -0.189 C  
HETATM    2  C   UNL     1      -7.554  12.977  67.325  1.00  0.00    -0.097 C  
HETATM    3  C   UNL     1      -7.611  14.490  67.226  1.00  0.00    -0.150 C  
HETATM    4  C   UNL     1      -9.107  14.652  67.150  1.00  0.00    -0.223 C  
HETATM    5  C   UNL     1      -9.574  13.407  66.250  1.00  0.00    -0.245 C  
HETATM    6  C   UNL     1      -9.617  14.558  68.655  1.00  0.00    -0.219 C  
HETATM    7  C   UNL     1      -8.826  12.516  64.961  1.00  0.00     1.258 C  
HETATM    8  C   UNL     1     -11.078  13.529  65.936  1.00  0.00    -0.292 C  
HETATM    9  C   UNL     1     -10.562  15.675  68.848  1.00  0.00    -0.228 C  
HETATM   10  C   UNL     1     -10.215  16.579  67.725  1.00  0.00    -0.278 C  
HETATM   11  C   UNL     1      -8.443  10.837  65.344  1.00  0.00    -0.132 C  
HETATM   12  O   UNL     1      -7.283  10.701  66.139  1.00  0.00    -0.129 OA 
HETATM   13  O   UNL     1      -9.515  15.945  66.732  1.00  0.00    -0.217 OA 
HETATM   14  O   UNL     1     -10.561  17.757  67.660  1.00  0.00    -0.383 OA 
HETATM   15  C   UNL     1      -8.352  10.231  66.952  1.00  0.00    -0.123 C  
HETATM   16  C   UNL     1      -9.176  11.108  67.888  1.00  0.00    -0.154 C  
HETATM   17  C   UNL     1     -10.587  10.409  67.865  1.00  0.00    -0.273 C  
HETATM   18  C   UNL     1      -7.321   9.113  68.980  1.00  0.00    -0.073 C  
HETATM   19  C   UNL     1     -10.480   9.090  68.620  1.00  0.00    -0.229 C  
HETATM   20  C   UNL     1      -8.070   8.874  67.620  1.00  0.00    -0.106 C  
HETATM   21  C   UNL     1      -9.419   8.202  67.978  1.00  0.00    -0.155 C  
HETATM   22  C   UNL     1      -7.167   7.970  66.758  1.00  0.00    -0.082 C  
HETATM   23  C   UNL     1      -9.690   6.918  67.714  1.00  0.00    -0.148 C  
HETATM   24  C   UNL     1      -7.226   6.511  67.193  1.00  0.00    -0.081 C  
HETATM   25  C   UNL     1      -8.648   6.024  67.173  1.00  0.00    -0.106 C  
HETATM   26  O   UNL     1      -8.955   4.882  66.812  1.00  0.00    -0.110 OA 
ENDROOT
BRANCH  17  27
HETATM   27  C   UNL     1     -11.800  11.196  68.321  1.00  0.00    -0.190 C  
HETATM   28  O   UNL     1     -12.958  10.992  67.999  1.00  0.00     2.141 OA 
BRANCH  27  29
HETATM   29  O   UNL     1     -11.377  12.172  69.181  1.00  0.00    -0.246 OA 
HETATM   30  C   UNL     1     -12.223  12.459  70.297  1.00  0.00    -0.267 C  
ENDBRANCH  27  29
ENDBRANCH  17  27
TORSDOF 2
ENDMDL
MODEL       95
REMARK 921   NORMALIZED FREE ENERGY PREDICTED BY IDOCK:   -0.60 KCAL/MOL
REMARK 922        TOTAL FREE ENERGY PREDICTED BY IDOCK:   -1.06 KCAL/MOL
REMARK 923 INTER-LIGAND FREE ENERGY PREDICTED BY IDOCK:   -0.76 KCAL/MOL
REMARK 924 INTRA-LIGAND FREE ENERGY PREDICTED BY IDOCK:   -0.30 KCAL/MOL
REMARK 927      BINDING AFFINITY PREDICTED BY RF-SCORE:    0.00 PKD
ROOT
HETATM    1  C   UNL     1      -8.750   9.136  66.633  1.00  0.00    -0.140 C  
HETATM    2  C   UNL     1      -9.725   7.845  66.781  1.00  0.00    -0.303 C  
HETATM    3  C   UNL     1      -9.091   6.757  65.933  1.00  0.00    -0.049 C  
HETATM    4  C   UNL     1      -7.915   7.541  65.409  1.00  0.00    -0.124 C  
HETATM    5  C   UNL     1      -8.520   9.007  65.161  1.00  0.00    -0.183 C  
HETATM    6  C   UNL     1      -6.833   7.504  66.575  1.00  0.00    -0.062 C  
HETATM    7  C   UNL     1     -10.097   9.592  64.724  1.00  0.00     0.402 C  
HETATM    8  C   UNL     1      -7.472   9.890  64.458  1.00  0.00    -0.140 C  
HETATM    9  C   UNL     1      -5.544   7.163  65.940  1.00  0.00    -0.031 C  
HETATM   10  C   UNL     1      -5.975   6.578  64.647  1.00  0.00    -0.034 C  
HETATM   11  C   UNL     1     -10.911  10.534  65.973  1.00  0.00     0.064 C  
HETATM   12  O   UNL     1     -11.469   9.735  66.996  1.00  0.00     0.270 OA 
HETATM   13  O   UNL     1      -7.261   6.915  64.317  1.00  0.00    -0.058 OA 
HETATM   14  O   UNL     1      -5.245   5.907  63.921  1.00  0.00    -0.016 OA 
HETATM   15  C   UNL     1     -10.454  10.502  67.632  1.00  0.00    -0.234 C  
HETATM   16  C   UNL     1      -8.997  10.069  67.763  1.00  0.00    -0.133 C  
HETATM   17  C   UNL     1      -8.224  11.441  67.733  1.00  0.00    -0.125 C  
HETATM   18  C   UNL     1     -10.726  10.187  70.132  1.00  0.00    -0.355 C  
HETATM   19  C   UNL     1      -8.495  12.172  69.042  1.00  0.00     0.347 C  
HETATM   20  C   UNL     1     -10.917  11.183  68.932  1.00  0.00    -0.276 C  
HETATM   21  C   UNL     1      -9.994  12.393  69.220  1.00  0.00     0.516 C  
HETATM   22  C   UNL     1     -12.409  11.569  68.895  1.00  0.00     0.070 C  
HETATM   23  C   UNL     1     -10.457  13.599  69.569  1.00  0.00     0.305 C  
HETATM   24  C   UNL     1     -12.767  12.592  69.966  1.00  0.00     0.265 C  
HETATM   25  C   UNL     1     -11.894  13.809  69.829  1.00  0.00    -0.331 C  
HETATM   26  O   UNL     1     -12.316  14.955  70.019  1.00  0.00    -0.324 OA 
ENDROOT
BRANCH  17  27
HETATM   27  C   UNL     1      -6.742  11.437  67.412  1.00  0.00    -0.094 C  
HETATM   28  O   UNL     1      -5.962  10.523  67.611  1.00  0.00    -0.045 OA 
BRANCH  27  29
HETATM   29  O   UNL     1      -6.428  12.637  66.833  1.00  0.00    -0.131 OA 
HETATM   30  C   UNL     1      -5.346  13.368  67.413  1.00  0.00     0.190 C  
ENDBRANCH  27  29
ENDBRANCH  17  27
TORSDOF 2
ENDMDL
MODEL       96
REMARK 921   NORMALIZED FREE ENERGY PREDICTED BY IDOCK:    1.98 KCAL/MOL
REMARK 922        TOTAL FREE ENERGY PREDICTED BY IDOCK:    1.83 KCAL/MOL
REMARK 923 INTER-LIGAND FREE ENERGY PREDICTED BY IDOCK:    1.19 KCAL/MOL
REMARK 924 INTRA-LIGAND FREE ENERGY PREDICTED BY IDOCK:    0.64 KCAL/MOL
REMARK 927      BINDING AFFINITY PREDICTED BY RF-SCORE:    0.00 PKD
ROOT
HETATM    1  C   UNL     1      -9.590  11.681  66.263  1.00  0.00    -0.241 C  
HETATM    2  C   UNL     1      -8.474  12.301  65.257  1.00  0.00     1.396 C  
HETATM    3  C   UNL     1      -9.162  13.452  64.547  1.00  0.00     1.796 C  
HETATM    4  C   UNL     1     -10.522  13.324  65.181  1.00  0.00    -0.333 C  
HETATM    5  C   UNL     1     -10.734  11.738  65.302  1.00  0.00    -0.338 C  
HETATM    6  C   UNL     1     -10.396  14.044  66.595  1.00  0.00    -0.278 C  
HETATM    7  C   UNL     1     -10.189  10.383  64.359  1.00  0.00    -0.245 C  
HETATM    8  C   UNL     1     -12.167  11.439  65.782  1.00  0.00     1.534 C  
HETATM    9  C   UNL     1     -11.578  14.918  66.729  1.00  0.00    -0.275 C  
HETATM   10  C   UNL     1     -12.034  15.047  65.323  1.00  0.00    -0.086 C  
HETATM   11  C   UNL     1      -9.060   9.310  65.186  1.00  0.00    -0.206 C  
HETATM   12  O   UNL     1      -7.746   9.825  65.244  1.00  0.00    -0.111 OA 
HETATM   13  O   UNL     1     -11.530  14.064  64.511  1.00  0.00    -0.367 OA 
HETATM   14  O   UNL     1     -12.821  15.907  64.933  1.00  0.00     0.915 OA 
HETATM   15  C   UNL     1      -8.184   9.763  66.596  1.00  0.00    -0.120 C  
HETATM   16  C   UNL     1      -8.910  10.890  67.322  1.00  0.00    -0.134 C  
HETATM   17  C   UNL     1      -9.835  10.113  68.331  1.00  0.00    -0.164 C  
HETATM   18  C   UNL     1      -6.160  10.182  68.063  1.00  0.00    -0.052 C  
HETATM   19  C   UNL     1      -8.955   9.503  69.416  1.00  0.00    -0.174 C  
HETATM   20  C   UNL     1      -7.171   9.097  67.544  1.00  0.00    -0.080 C  
HETATM   21  C   UNL     1      -7.923   8.571  68.791  1.00  0.00    -0.119 C  
HETATM   22  C   UNL     1      -6.341   8.002  66.844  1.00  0.00    -0.055 C  
HETATM   23  C   UNL     1      -7.731   7.347  69.299  1.00  0.00    -0.107 C  
HETATM   24  C   UNL     1      -5.657   7.072  67.838  1.00  0.00    -0.020 C  
HETATM   25  C   UNL     1      -6.677   6.465  68.762  1.00  0.00    -0.061 C  
HETATM   26  O   UNL     1      -6.606   5.295  69.154  1.00  0.00    -0.047 OA 
ENDROOT
BRANCH  17  27
HETATM   27  C   UNL     1     -11.022  10.836  68.940  1.00  0.00    -0.241 C  
HETATM   28  O   UNL     1     -11.391  11.967  68.678  1.00  0.00    -0.228 OA 
BRANCH  27  29
HETATM   29  O   UNL     1     -11.629   9.988  69.826  1.00  0.00    -0.216 OA 
HETATM   30  C   UNL     1     -11.514  10.314  71.212  1.00  0.00    -0.152 C  
ENDBRANCH  27  29
ENDBRANCH  17  27
TORSDOF 2
ENDMDL
MODEL       97
REMARK 921   NORMALIZED FREE ENERGY PREDICTED BY IDOCK:    2.91 KCAL/MOL
REMARK 922        TOTAL FREE ENERGY PREDICTED BY IDOCK:    2.87 KCAL/MOL
REMARK 923 INTER-LIGAND FREE ENERGY PREDICTED BY IDOCK:   -0.97 KCAL/MOL
REMARK 924 INTRA-LIGAND FREE ENERGY PREDICTED BY IDOCK:    3.84 KCAL/MOL
REMARK 927      BINDING AFFINITY PREDICTED BY RF-SCORE:    0.00 PKD
ROOT
HETATM    1  C   UNL     1     -10.277  15.251  67.572  1.00  0.00    -0.239 C  
HETATM    2  C   UNL     1     -11.650  15.419  66.719  1.00  0.00     0.044 C  
HETATM    3  C   UNL     1     -11.587  16.810  66.116  1.00  0.00     1.304 C  
HETATM    4  C   UNL     1     -10.270  17.247  66.703  1.00  0.00    -0.319 C  
HETATM    5  C   UNL     1     -10.288  16.617  68.179  1.00  0.00    -0.303 C  
HETATM    6  C   UNL     1      -9.158  16.602  65.765  1.00  0.00    -0.002 C  
HETATM    7  C   UNL     1     -11.556  16.256  69.310  1.00  0.00    -0.196 C  
HETATM    8  C   UNL     1      -9.069  17.123  68.975  1.00  0.00    -0.123 C  
HETATM    9  C   UNL     1      -8.183  17.671  65.473  1.00  0.00     0.855 C  
HETATM   10  C   UNL     1      -8.952  18.897  65.799  1.00  0.00     0.412 C  
HETATM   11  C   UNL     1     -11.794  14.539  69.635  1.00  0.00    -0.318 C  
HETATM   12  O   UNL     1     -12.494  13.871  68.605  1.00  0.00    -0.144 OA 
HETATM   13  O   UNL     1     -10.039  18.642  66.595  1.00  0.00    -0.338 OA 
HETATM   14  O   UNL     1      -8.627  20.026  65.441  1.00  0.00    -0.119 OA 
HETATM   15  C   UNL     1     -11.196  13.291  68.612  1.00  0.00    -0.274 C  
HETATM   16  C   UNL     1     -10.014  13.806  67.797  1.00  0.00    -0.242 C  
HETATM   17  C   UNL     1      -8.781  13.443  68.708  1.00  0.00     0.126 C  
HETATM   18  C   UNL     1     -11.276  11.245  67.118  1.00  0.00    -0.344 C  
HETATM   19  C   UNL     1      -8.596  11.931  68.683  1.00  0.00    -0.037 C  
HETATM   20  C   UNL     1     -11.206  11.752  68.604  1.00  0.00    -0.312 C  
HETATM   21  C   UNL     1      -9.862  11.239  69.175  1.00  0.00    -0.027 C  
HETATM   22  C   UNL     1     -12.428  11.168  69.340  1.00  0.00    -0.085 C  
HETATM   23  C   UNL     1      -9.780  10.264  70.090  1.00  0.00     0.065 C  
HETATM   24  C   UNL     1     -12.237   9.699  69.699  1.00  0.00     0.575 C  
HETATM   25  C   UNL     1     -10.986   9.525  70.514  1.00  0.00    -0.288 C  
HETATM   26  O   UNL     1     -10.908   8.726  71.453  1.00  0.00    -0.244 OA 
ENDROOT
BRANCH  17  27
HETATM   27  C   UNL     1      -7.463  14.154  68.470  1.00  0.00    -0.123 C  
HETATM   28  O   UNL     1      -7.263  15.353  68.554  1.00  0.00    -0.109 OA 
BRANCH  27  29
HETATM   29  O   UNL     1      -6.519  13.212  68.164  1.00  0.00    -0.080 OA 
HETATM   30  C   UNL     1      -6.669  11.928  68.775  1.00  0.00    -0.088 C  
ENDBRANCH  27  29
ENDBRANCH  17  27
TORSDOF 2
ENDMDL
MODEL       98
REMARK 921   NORMALIZED FREE ENERGY PREDICTED BY IDOCK:    3.30 KCAL/MOL
REMARK 922        TOTAL FREE ENERGY PREDICTED BY IDOCK:    3.29 KCAL/MOL
REMARK 923 INTER-LIGAND FREE ENERGY PREDICTED BY IDOCK:    3.41 KCAL/MOL
REMARK 924 INTRA-LIGAND FREE ENERGY PREDICTED BY IDOCK:   -0.12 KCAL/MOL
REMARK 927      BINDING AFFINITY PREDICTED BY RF-SCORE:    0.00 PKD
ROOT
HETATM    1  C   UNL     1     -10.296  15.725  67.586  1.00  0.00    -0.281 C  
HETATM    2  C   UNL     1     -11.832  15.917  67.091  1.00  0.00     0.610 C  
HETATM    3  C   UNL     1     -12.260  17.276  67.613  1.00  0.00     2.627 C  
HETATM    4  C   UNL     1     -10.990  17.648  68.332  1.00  0.00     0.016 C  
HETATM    5  C   UNL     1     -10.496  16.259  68.968  1.00  0.00    -0.276 C  
HETATM    6  C   UNL     1     -10.013  18.197  67.202  1.00  0.00    -0.341 C  
HETATM    7  C   UNL     1     -11.325  14.846  69.545  1.00  0.00    -0.307 C  
HETATM    8  C   UNL     1      -9.285  16.510  69.886  1.00  0.00     0.807 C  
HETATM    9  C   UNL     1      -9.431  19.450  67.723  1.00  0.00    -0.406 C  
HETATM   10  C   UNL     1     -10.377  19.810  68.808  1.00  0.00    -0.252 C  
HETATM   11  C   UNL     1     -11.048  13.385  68.597  1.00  0.00    -0.263 C  
HETATM   12  O   UNL     1     -11.790  13.354  67.395  1.00  0.00    -0.353 OA 
HETATM   13  O   UNL     1     -11.142  18.748  69.215  1.00  0.00     1.400 OA 
HETATM   14  O   UNL     1     -10.435  20.923  69.326  1.00  0.00     0.331 OA 
HETATM   15  C   UNL     1     -10.426  13.401  66.993  1.00  0.00    -0.257 C  
HETATM   16  C   UNL     1      -9.639  14.685  66.751  1.00  0.00    -0.266 C  
HETATM   17  C   UNL     1      -8.173  14.274  67.155  1.00  0.00    -0.184 C  
HETATM   18  C   UNL     1     -10.358  12.944  64.501  1.00  0.00    -0.380 C  
HETATM   19  C   UNL     1      -7.633  13.324  66.093  1.00  0.00     2.441 C  
HETATM   20  C   UNL     1     -10.059  12.354  65.926  1.00  0.00    -0.272 C  
HETATM   21  C   UNL     1      -8.533  12.098  65.979  1.00  0.00     0.352 C  
HETATM   22  C   UNL     1     -10.884  11.060  66.063  1.00  0.00    -0.189 C  
HETATM   23  C   UNL     1      -7.996  10.872  65.970  1.00  0.00    -0.132 C  
HETATM   24  C   UNL     1     -10.258   9.893  65.310  1.00  0.00    -0.095 C  
HETATM   25  C   UNL     1      -8.844   9.679  65.773  1.00  0.00    -0.157 C  
HETATM   26  O   UNL     1      -8.348   8.554  65.902  1.00  0.00    -0.123 OA 
ENDROOT
BRANCH  17  27
HETATM   27  C   UNL     1      -7.168  15.366  67.466  1.00  0.00    -0.196 C  
HETATM   28  O   UNL     1      -6.747  16.204  66.688  1.00  0.00    -0.249 OA 
BRANCH  27  29
HETATM   29  O   UNL     1      -6.825  15.267  68.787  1.00  0.00    -0.102 OA 
HETATM   30  C   UNL     1      -5.578  14.635  69.084  1.00  0.00    -0.091 C  
ENDBRANCH  27  29
ENDBRANCH  17  27
TORSDOF 2
ENDMDL
MODEL       99
REMARK 921   NORMALIZED FREE ENERGY PREDICTED BY IDOCK:    4.02 KCAL/MOL
REMARK 922        TOTAL FREE ENERGY PREDICTED BY IDOCK:    4.11 KCAL/MOL
REMARK 923 INTER-LIGAND FREE ENERGY PREDICTED BY IDOCK:    2.67 KCAL/MOL
REMARK 924 INTRA-LIGAND FREE ENERGY PREDICTED BY IDOCK:    1.44 KCAL/MOL
REMARK 927      BINDING AFFINITY PREDICTED BY RF-SCORE:    0.00 PKD
ROOT
HETATM    1  C   UNL     1      -9.144  15.587  68.418  1.00  0.00    -0.190 C  
HETATM    2  C   UNL     1      -7.601  16.010  68.137  1.00  0.00    -0.139 C  
HETATM    3  C   UNL     1      -7.592  17.527  68.119  1.00  0.00    -0.221 C  
HETATM    4  C   UNL     1      -9.063  17.761  68.344  1.00  0.00    -0.278 C  
HETATM    5  C   UNL     1      -9.764  16.590  67.498  1.00  0.00    -0.242 C  
HETATM    6  C   UNL     1      -9.278  17.609  69.913  1.00  0.00     1.449 C  
HETATM    7  C   UNL     1      -9.329  15.736  66.049  1.00  0.00    -0.384 C  
HETATM    8  C   UNL     1     -11.291  16.797  67.490  1.00  0.00     0.226 C  
HETATM    9  C   UNL     1     -10.105  18.755  70.337  1.00  0.00     1.564 C  
HETATM   10  C   UNL     1      -9.932  19.703  69.209  1.00  0.00    -0.269 C  
HETATM   11  C   UNL     1      -8.973  14.024  66.276  1.00  0.00     0.086 C  
HETATM   12  O   UNL     1      -7.690  13.791  66.822  1.00  0.00     0.238 OA 
HETATM   13  O   UNL     1      -9.472  19.092  68.071  1.00  0.00    -0.299 OA 
HETATM   14  O   UNL     1     -10.218  20.897  69.265  1.00  0.00     0.443 OA 
HETATM   15  C   UNL     1      -8.606  13.328  67.806  1.00  0.00    -0.184 C  
HETATM   16  C   UNL     1      -9.185  14.189  68.923  1.00  0.00    -0.003 C  
HETATM   17  C   UNL     1     -10.610  13.557  69.146  1.00  0.00    -0.055 C  
HETATM   18  C   UNL     1      -7.268  12.055  69.542  1.00  0.00     0.246 C  
HETATM   19  C   UNL     1     -10.432  12.196  69.806  1.00  0.00     0.839 C  
HETATM   20  C   UNL     1      -8.277  11.924  68.345  1.00  0.00    -0.160 C  
HETATM   21  C   UNL     1      -9.566  11.297  68.931  1.00  0.00    -0.119 C  
HETATM   22  C   UNL     1      -7.608  11.028  67.284  1.00  0.00    -0.111 C  
HETATM   23  C   UNL     1      -9.954  10.043  68.668  1.00  0.00    -0.176 C  
HETATM   24  C   UNL     1      -7.663   9.552  67.658  1.00  0.00    -0.095 C  
HETATM   25  C   UNL     1      -9.087   9.132  67.894  1.00  0.00    -0.127 C  
HETATM   26  O   UNL     1      -9.520   8.027  67.550  1.00  0.00    -0.141 OA 
ENDROOT
BRANCH  17  27
HETATM   27  C   UNL     1     -11.667  14.374  69.864  1.00  0.00    -0.303 C  
HETATM   28  O   UNL     1     -11.867  15.569  69.739  1.00  0.00    -0.316 OA 
BRANCH  27  29
HETATM   29  O   UNL     1     -12.384  13.530  70.669  1.00  0.00    -0.345 OA 
HETATM   30  C   UNL     1     -13.345  12.689  70.026  1.00  0.00     1.732 C  
ENDBRANCH  27  29
ENDBRANCH  17  27
TORSDOF 2
ENDMDL
MODEL      100
REMARK 921   NORMALIZED FREE ENERGY PREDICTED BY IDOCK:    4.15 KCAL/MOL
REMARK 922        TOTAL FREE ENERGY PREDICTED BY IDOCK:    4.25 KCAL/MOL
REMARK 923 INTER-LIGAND FREE ENERGY PREDICTED BY IDOCK:    4.43 KCAL/MOL
REMARK 924 INTRA-LIGAND FREE ENERGY PREDICTED BY IDOCK:   -0.19 KCAL/MOL
REMARK 927      BINDING AFFINITY PREDICTED BY RF-SCORE:    0.00 PKD
ROOT
HETATM    1  C   UNL     1     -10.278  15.460  66.355  1.00  0.00    -0.296 C  
HETATM    2  C   UNL     1     -11.011  16.594  65.452  1.00  0.00    -0.096 C  
HETATM    3  C   UNL     1     -11.883  15.832  64.471  1.00  0.00    -0.126 C  
HETATM    4  C   UNL     1     -11.525  14.432  64.897  1.00  0.00    -0.386 C  
HETATM    5  C   UNL     1      -9.958  14.529  65.230  1.00  0.00    -0.322 C  
HETATM    6  C   UNL     1     -12.417  14.142  66.183  1.00  0.00    -0.426 C  
HETATM    7  C   UNL     1      -8.661  15.505  64.609  1.00  0.00     6.287 C  
HETATM    8  C   UNL     1      -9.400  13.123  65.520  1.00  0.00     0.295 C  
HETATM    9  C   UNL     1     -13.009  12.804  65.990  1.00  0.00     1.070 C  
HETATM   10  C   UNL     1     -12.862  12.602  64.528  1.00  0.00    -0.270 C  
HETATM   11  C   UNL     1      -7.979  16.653  65.761  1.00  0.00     0.570 C  
HETATM   12  O   UNL     1      -8.783  17.801  65.942  1.00  0.00    -0.514 OA 
HETATM   13  O   UNL     1     -11.931  13.439  63.970  1.00  0.00    -0.427 OA 
HETATM   14  O   UNL     1     -13.468  11.744  63.889  1.00  0.00    -0.474 OA 
HETATM   15  C   UNL     1      -8.784  17.140  67.201  1.00  0.00    -0.212 C  
HETATM   16  C   UNL     1      -9.795  16.077  67.619  1.00  0.00    -0.235 C  
HETATM   17  C   UNL     1      -8.953  15.156  68.580  1.00  0.00    -0.186 C  
HETATM   18  C   UNL     1      -9.825  18.725  68.884  1.00  0.00    -0.415 C  
HETATM   19  C   UNL     1      -8.693  15.923  69.871  1.00  0.00     0.402 C  
HETATM   20  C   UNL     1      -8.484  18.071  68.389  1.00  0.00    -0.306 C  
HETATM   21  C   UNL     1      -7.953  17.222  69.570  1.00  0.00     0.507 C  
HETATM   22  C   UNL     1      -7.532  19.222  68.008  1.00  0.00    -0.312 C  
HETATM   23  C   UNL     1      -6.874  17.561  70.287  1.00  0.00     1.174 C  
HETATM   24  C   UNL     1      -6.907  19.883  69.231  1.00  0.00    -0.336 C  
HETATM   25  C   UNL     1      -6.198  18.854  70.067  1.00  0.00    -0.131 C  
HETATM   26  O   UNL     1      -5.130  19.086  70.644  1.00  0.00    -0.195 OA 
ENDROOT
BRANCH  17  27
HETATM   27  C   UNL     1      -9.453  13.755  68.874  1.00  0.00     0.089 C  
HETATM   28  O   UNL     1     -10.595  13.440  69.157  1.00  0.00    -0.142 OA 
BRANCH  27  29
HETATM   29  O   UNL     1      -8.400  12.891  68.744  1.00  0.00    -0.020 OA 
HETATM   30  C   UNL     1      -7.312  13.319  67.922  1.00  0.00    -0.134 C  
ENDBRANCH  27  29
ENDBRANCH  17  27
TORSDOF 2
ENDMDL
MODEL      101
REMARK 921   NORMALIZED FREE ENERGY PREDICTED BY IDOCK:    7.43 KCAL/MOL
REMARK 922        TOTAL FREE ENERGY PREDICTED BY IDOCK:    7.91 KCAL/MOL
REMARK 923 INTER-LIGAND FREE ENERGY PREDICTED BY IDOCK:    6.98 KCAL/MOL
REMARK 924 INTRA-LIGAND FREE ENERGY PREDICTED BY IDOCK:    0.93 KCAL/MOL
REMARK 927      BINDING AFFINITY PREDICTED BY RF-SCORE:    0.00 PKD
ROOT
HETATM    1  C   UNL     1     -10.206   6.854  71.607  1.00  0.00    -0.205 C  
HETATM    2  C   UNL     1     -10.092   7.266  73.174  1.00  0.00    -0.319 C  
HETATM    3  C   UNL     1     -10.776   6.148  73.940  1.00  0.00    -0.137 C  
HETATM    4  C   UNL     1     -11.201   5.304  72.767  1.00  0.00    -0.284 C  
HETATM    5  C   UNL     1     -11.625   6.385  71.658  1.00  0.00    -0.363 C  
HETATM    6  C   UNL     1      -9.909   4.469  72.359  1.00  0.00    -0.220 C  
HETATM    7  C   UNL     1     -12.296   7.986  71.743  1.00  0.00    -0.352 C  
HETATM    8  C   UNL     1     -12.250   5.669  70.446  1.00  0.00     2.398 C  
HETATM    9  C   UNL     1     -10.351   3.073  72.178  1.00  0.00    -0.063 C  
HETATM   10  C   UNL     1     -11.645   3.055  72.905  1.00  0.00     0.502 C  
HETATM   11  C   UNL     1     -11.228   9.269  71.176  1.00  0.00    -0.343 C  
HETATM   12  O   UNL     1     -10.230   9.616  72.115  1.00  0.00     0.510 OA 
HETATM   13  O   UNL     1     -12.157   4.311  73.103  1.00  0.00     0.033 OA 
HETATM   14  O   UNL     1     -12.225   2.028  73.247  1.00  0.00    -0.022 OA 
HETATM   15  C   UNL     1      -9.527   9.077  71.002  1.00  0.00    -0.274 C  
HETATM   16  C   UNL     1      -9.184   7.601  70.828  1.00  0.00    -0.157 C  
HETATM   17  C   UNL     1      -9.212   7.421  69.264  1.00  0.00    -0.147 C  
HETATM   18  C   UNL     1      -7.064   9.561  71.360  1.00  0.00     0.219 C  
HETATM   19  C   UNL     1      -8.002   8.137  68.677  1.00  0.00    -0.115 C  
HETATM   20  C   UNL     1      -8.346   9.947  70.536  1.00  0.00     0.148 C  
HETATM   21  C   UNL     1      -8.029   9.613  69.058  1.00  0.00    -0.088 C  
HETATM   22  C   UNL     1      -8.596  11.450  70.766  1.00  0.00     5.637 C  
HETATM   23  C   UNL     1      -7.826  10.550  68.124  1.00  0.00    -0.109 C  
HETATM   24  C   UNL     1      -7.653  12.325  69.949  1.00  0.00     1.448 C  
HETATM   25  C   UNL     1      -7.763  11.978  68.490  1.00  0.00    -0.127 C  
HETATM   26  O   UNL     1      -7.709  12.832  67.597  1.00  0.00    -0.136 OA 
ENDROOT
BRANCH  17  27
HETATM   27  C   UNL     1      -9.344   6.022  68.692  1.00  0.00    -0.117 C  
HETATM   28  O   UNL     1      -9.675   5.020  69.301  1.00  0.00    -0.147 OA 
BRANCH  27  29
HETATM   29  O   UNL     1      -9.048   6.078  67.357  1.00  0.00    -0.109 OA 
HETATM   30  C   UNL     1      -9.919   6.858  66.536  1.00  0.00    -0.081 C  
ENDBRANCH  27  29
ENDBRANCH  17  27
TORSDOF 2
ENDMDL
MODEL      102
REMARK 921   NORMALIZED FREE ENERGY PREDICTED BY IDOCK:    7.99 KCAL/MOL
REMARK 922        TOTAL FREE ENERGY PREDICTED BY IDOCK:    8.54 KCAL/MOL
REMARK 923 INTER-LIGAND FREE ENERGY PREDICTED BY IDOCK:    6.29 KCAL/MOL
REMARK 924 INTRA-LIGAND FREE ENERGY PREDICTED BY IDOCK:    2.25 KCAL/MOL
REMARK 927      BINDING AFFINITY PREDICTED BY RF-SCORE:    0.00 PKD
ROOT
HETATM    1  C   UNL     1      -8.855  13.311  68.787  1.00  0.00     0.146 C  
HETATM    2  C   UNL     1     -10.057  13.475  67.707  1.00  0.00    -0.236 C  
HETATM    3  C   UNL     1      -9.733  14.736  66.926  1.00  0.00    -0.247 C  
HETATM    4  C   UNL     1      -8.471  15.128  67.650  1.00  0.00    -0.160 C  
HETATM    5  C   UNL     1      -8.783  14.752  69.180  1.00  0.00    -0.085 C  
HETATM    6  C   UNL     1      -7.324  14.229  67.011  1.00  0.00     0.343 C  
HETATM    7  C   UNL     1     -10.237  14.710  70.129  1.00  0.00     0.357 C  
HETATM    8  C   UNL     1      -7.639  15.255  70.081  1.00  0.00     0.295 C  
HETATM    9  C   UNL     1      -6.191  15.132  66.730  1.00  0.00     1.426 C  
HETATM   10  C   UNL     1      -6.840  16.466  66.744  1.00  0.00    -0.148 C  
HETATM   11  C   UNL     1     -10.733  13.101  70.656  1.00  0.00     2.762 C  
HETATM   12  O   UNL     1     -11.354  12.349  69.633  1.00  0.00    -0.217 OA 
HETATM   13  O   UNL     1      -8.054  16.456  67.380  1.00  0.00    -0.143 OA 
HETATM   14  O   UNL     1      -6.327  17.483  66.284  1.00  0.00    -0.212 OA 
HETATM   15  C   UNL     1     -10.153  11.650  69.937  1.00  0.00     1.267 C  
HETATM   16  C   UNL     1      -8.810  11.903  69.261  1.00  0.00     0.683 C  
HETATM   17  C   UNL     1      -7.778  11.571  70.403  1.00  0.00     2.631 C  
HETATM   18  C   UNL     1     -10.271   9.406  68.764  1.00  0.00    -0.221 C  
HETATM   19  C   UNL     1      -7.782  10.064  70.629  1.00  0.00     0.297 C  
HETATM   20  C   UNL     1     -10.355  10.139  70.151  1.00  0.00    -0.280 C  
HETATM   21  C   UNL     1      -9.183   9.593  71.003  1.00  0.00     0.181 C  
HETATM   22  C   UNL     1     -11.734   9.809  70.755  1.00  0.00    -0.407 C  
HETATM   23  C   UNL     1      -9.359   8.778  72.051  1.00  0.00    -0.322 C  
HETATM   24  C   UNL     1     -11.784   8.407  71.350  1.00  0.00    -0.332 C  
HETATM   25  C   UNL     1     -10.696   8.243  72.374  1.00  0.00    -0.341 C  
HETATM   26  O   UNL     1     -10.857   7.604  73.420  1.00  0.00    -0.380 OA 
ENDROOT
BRANCH  17  27
HETATM   27  C   UNL     1      -6.361  12.097  70.283  1.00  0.00     0.129 C  
HETATM   28  O   UNL     1      -5.975  12.969  69.524  1.00  0.00    -0.095 OA 
BRANCH  27  29
HETATM   29  O   UNL     1      -5.583  11.438  71.196  1.00  0.00    -0.322 OA 
HETATM   30  C   UNL     1      -5.433  10.028  71.016  1.00  0.00    -0.080 C  
ENDBRANCH  27  29
ENDBRANCH  17  27
TORSDOF 2
ENDMDL
MODEL      103
REMARK 921   NORMALIZED FREE ENERGY PREDICTED BY IDOCK:   10.81 KCAL/MOL
REMARK 922        TOTAL FREE ENERGY PREDICTED BY IDOCK:   11.69 KCAL/MOL
REMARK 923 INTER-LIGAND FREE ENERGY PREDICTED BY IDOCK:   10.82 KCAL/MOL
REMARK 924 INTRA-LIGAND FREE ENERGY PREDICTED BY IDOCK:    0.86 KCAL/MOL
REMARK 927      BINDING AFFINITY PREDICTED BY RF-SCORE:    0.00 PKD
ROOT
HETATM    1  C   UNL     1      -9.763  14.455  67.654  1.00  0.00    -0.219 C  
HETATM    2  C   UNL     1      -8.875  14.851  66.352  1.00  0.00    -0.196 C  
HETATM    3  C   UNL     1      -8.858  13.610  65.478  1.00  0.00     1.389 C  
HETATM    4  C   UNL     1      -9.667  12.701  66.367  1.00  0.00    -0.258 C  
HETATM    5  C   UNL     1      -9.180  13.091  67.846  1.00  0.00    -0.208 C  
HETATM    6  C   UNL     1     -11.186  13.086  66.090  1.00  0.00    -0.320 C  
HETATM    7  C   UNL     1      -7.678  13.673  68.497  1.00  0.00    -0.129 C  
HETATM    8  C   UNL     1      -9.799  12.120  68.870  1.00  0.00     0.068 C  
HETATM    9  C   UNL     1     -11.914  11.816  65.906  1.00  0.00     0.207 C  
HETATM   10  C   UNL     1     -10.816  10.863  65.609  1.00  0.00    -0.042 C  
HETATM   11  C   UNL     1      -7.735  15.314  69.141  1.00  0.00    -0.200 C  
HETATM   12  O   UNL     1      -7.706  16.306  68.135  1.00  0.00    -0.150 OA 
HETATM   13  O   UNL     1      -9.589  11.334  65.998  1.00  0.00    -0.203 OA 
HETATM   14  O   UNL     1     -10.988   9.750  65.117  1.00  0.00     1.164 OA 
HETATM   15  C   UNL     1      -8.979  16.439  68.756  1.00  0.00    -0.245 C  
HETATM   16  C   UNL     1     -10.237  15.696  68.320  1.00  0.00    -0.223 C  
HETATM   17  C   UNL     1     -11.023  15.519  69.673  1.00  0.00    -0.288 C  
HETATM   18  C   UNL     1     -10.011  18.594  67.909  1.00  0.00    -0.385 C  
HETATM   19  C   UNL     1     -11.549  16.883  70.102  1.00  0.00     0.884 C  
HETATM   20  C   UNL     1      -9.333  17.887  69.138  1.00  0.00     0.034 C  
HETATM   21  C   UNL     1     -10.393  17.864  70.265  1.00  0.00     1.320 C  
HETATM   22  C   UNL     1      -8.088  18.719  69.508  1.00  0.00     0.388 C  
HETATM   23  C   UNL     1     -10.310  18.625  71.364  1.00  0.00     3.233 C  
HETATM   24  C   UNL     1      -8.448  19.987  70.274  1.00  0.00     1.350 C  
HETATM   25  C   UNL     1      -9.247  19.640  71.499  1.00  0.00     3.311 C  
HETATM   26  O   UNL     1      -9.108  20.235  72.574  1.00  0.00     1.775 OA 
ENDROOT
BRANCH  17  27
HETATM   27  C   UNL     1     -12.114  14.469  69.752  1.00  0.00    -0.331 C  
HETATM   28  O   UNL     1     -12.052  13.329  69.326  1.00  0.00    -0.301 OA 
BRANCH  27  29
HETATM   29  O   UNL     1     -13.183  15.013  70.410  1.00  0.00    -0.249 OA 
HETATM   30  C   UNL     1     -13.649  14.317  71.568  1.00  0.00    -0.355 C  
ENDBRANCH  27  29
ENDBRANCH  17  27
TORSDOF 2
ENDMDL
MODEL      104
REMARK 921   NORMALIZED FREE ENERGY PREDICTED BY IDOCK:   12.21 KCAL/MOL
REMARK 922        TOTAL FREE ENERGY PREDICTED BY IDOCK:   13.25 KCAL/MOL
REMARK 923 INTER-LIGAND FREE ENERGY PREDICTED BY IDOCK:   13.18 KCAL/MOL
REMARK 924 INTRA-LIGAND FREE ENERGY PREDICTED BY IDOCK:    0.07 KCAL/MOL
REMARK 927      BINDING AFFINITY PREDICTED BY RF-SCORE:    0.00 PKD
ROOT
HETATM    1  C   UNL     1      -7.459  14.105  69.083  1.00  0.00    -0.037 C  
HETATM    2  C   UNL     1      -5.907  14.583  69.109  1.00  0.00    -0.092 C  
HETATM    3  C   UNL     1      -5.148  13.465  69.801  1.00  0.00    -0.082 C  
HETATM    4  C   UNL     1      -6.313  12.557  70.097  1.00  0.00     0.063 C  
HETATM    5  C   UNL     1      -7.496  13.572  70.479  1.00  0.00     2.352 C  
HETATM    6  C   UNL     1      -6.585  11.768  68.741  1.00  0.00    -0.074 C  
HETATM    7  C   UNL     1      -7.530  15.141  71.225  1.00  0.00     2.369 C  
HETATM    8  C   UNL     1      -8.720  12.780  70.977  1.00  0.00    10.962 C  
HETATM    9  C   UNL     1      -6.739  10.346  69.106  1.00  0.00    -0.061 C  
HETATM   10  C   UNL     1      -6.113  10.296  70.450  1.00  0.00    -0.110 C  
HETATM   11  C   UNL     1      -8.069  16.451  70.173  1.00  0.00     1.582 C  
HETATM   12  O   UNL     1      -7.073  16.881  69.267  1.00  0.00    -0.237 OA 
HETATM   13  O   UNL     1      -6.008  11.534  71.031  1.00  0.00    -0.379 OA 
HETATM   14  O   UNL     1      -5.771   9.257  71.010  1.00  0.00    -0.044 OA 
HETATM   15  C   UNL     1      -8.105  16.332  68.457  1.00  0.00    -0.193 C  
HETATM   16  C   UNL     1      -8.190  14.868  68.037  1.00  0.00    -0.140 C  
HETATM   17  C   UNL     1      -9.742  14.625  67.936  1.00  0.00    -0.216 C  
HETATM   18  C   UNL     1      -7.583  16.945  66.053  1.00  0.00    -0.063 C  
HETATM   19  C   UNL     1     -10.265  15.373  66.716  1.00  0.00    -0.273 C  
HETATM   20  C   UNL     1      -8.517  17.237  67.282  1.00  0.00    -0.212 C  
HETATM   21  C   UNL     1      -9.951  16.860  66.837  1.00  0.00    -0.279 C  
HETATM   22  C   UNL     1      -8.371  18.735  67.616  1.00  0.00    -0.291 C  
HETATM   23  C   UNL     1     -10.907  17.768  66.603  1.00  0.00     0.015 C  
HETATM   24  C   UNL     1      -9.152  19.620  66.651  1.00  0.00    -0.429 C  
HETATM   25  C   UNL     1     -10.598  19.212  66.632  1.00  0.00    -0.432 C  
HETATM   26  O   UNL     1     -11.520  20.031  66.546  1.00  0.00     0.350 OA 
ENDROOT
BRANCH  17  27
HETATM   27  C   UNL     1     -10.262  13.201  67.961  1.00  0.00    -0.233 C  
HETATM   28  O   UNL     1     -11.339  12.831  68.395  1.00  0.00    -0.253 OA 
BRANCH  27  29
HETATM   29  O   UNL     1      -9.318  12.392  67.388  1.00  0.00    -0.173 OA 
HETATM   30  C   UNL     1      -9.465  12.120  65.992  1.00  0.00    -0.207 C  
ENDBRANCH  27  29
ENDBRANCH  17  27
TORSDOF 2
ENDMDL
MODEL      105
REMARK 921   NORMALIZED FREE ENERGY PREDICTED BY IDOCK:   13.07 KCAL/MOL
REMARK 922        TOTAL FREE ENERGY PREDICTED BY IDOCK:   14.21 KCAL/MOL
REMARK 923 INTER-LIGAND FREE ENERGY PREDICTED BY IDOCK:    9.79 KCAL/MOL
REMARK 924 INTRA-LIGAND FREE ENERGY PREDICTED BY IDOCK:    4.42 KCAL/MOL
REMARK 927      BINDING AFFINITY PREDICTED BY RF-SCORE:    0.00 PKD
ROOT
HETATM    1  C   UNL     1     -10.051   8.425  69.903  1.00  0.00    -0.195 C  
HETATM    2  C   UNL     1      -9.685   6.948  69.333  1.00  0.00    -0.157 C  
HETATM    3  C   UNL     1     -10.323   5.969  70.301  1.00  0.00    -0.282 C  
HETATM    4  C   UNL     1     -10.910   6.963  71.269  1.00  0.00    -0.234 C  
HETATM    5  C   UNL     1      -9.796   8.117  71.344  1.00  0.00    -0.223 C  
HETATM    6  C   UNL     1     -12.267   7.452  70.597  1.00  0.00    -0.125 C  
HETATM    7  C   UNL     1      -8.067   8.123  71.183  1.00  0.00    -0.111 C  
HETATM    8  C   UNL     1     -10.178   9.136  72.435  1.00  0.00     0.443 C  
HETATM    9  C   UNL     1     -13.298   7.405  71.652  1.00  0.00    -0.426 C  
HETATM   10  C   UNL     1     -12.681   6.503  72.656  1.00  0.00     0.543 C  
HETATM   11  C   UNL     1      -7.456   8.981  69.769  1.00  0.00    -0.062 C  
HETATM   12  O   UNL     1      -7.584   8.242  68.572  1.00  0.00    -0.096 OA 
HETATM   13  O   UNL     1     -11.326   6.381  72.493  1.00  0.00    -0.261 OA 
HETATM   14  O   UNL     1     -13.303   5.964  73.569  1.00  0.00     2.440 OA 
HETATM   15  C   UNL     1      -8.430   9.374  68.407  1.00  0.00    -0.120 C  
HETATM   16  C   UNL     1      -9.899   9.423  68.812  1.00  0.00    -0.172 C  
HETATM   17  C   UNL     1     -10.101  10.936  69.202  1.00  0.00    -0.198 C  
HETATM   18  C   UNL     1      -9.146   9.431  65.976  1.00  0.00    -0.228 C  
HETATM   19  C   UNL     1     -10.058  11.768  67.927  1.00  0.00    -0.195 C  
HETATM   20  C   UNL     1      -8.233  10.101  67.065  1.00  0.00    -0.118 C  
HETATM   21  C   UNL     1      -8.729  11.561  67.209  1.00  0.00    -0.151 C  
HETATM   22  C   UNL     1      -6.781  10.014  66.556  1.00  0.00    -0.082 C  
HETATM   23  C   UNL     1      -8.031  12.617  66.772  1.00  0.00     0.115 C  
HETATM   24  C   UNL     1      -6.482  11.054  65.482  1.00  0.00     0.168 C  
HETATM   25  C   UNL     1      -6.787  12.432  66.000  1.00  0.00     2.244 C  
HETATM   26  O   UNL     1      -6.092  13.415  65.725  1.00  0.00     4.990 OA 
ENDROOT
BRANCH  17  27
HETATM   27  C   UNL     1     -11.293  11.317  70.058  1.00  0.00    -0.208 C  
HETATM   28  O   UNL     1     -11.350  12.243  70.848  1.00  0.00     0.952 OA 
BRANCH  27  29
HETATM   29  O   UNL     1     -12.314  10.451  69.776  1.00  0.00    -0.192 OA 
HETATM   30  C   UNL     1     -12.095   9.520  68.714  1.00  0.00     1.726 C  
ENDBRANCH  27  29
ENDBRANCH  17  27
TORSDOF 2
ENDMDL
MODEL      106
REMARK 921   NORMALIZED FREE ENERGY PREDICTED BY IDOCK:   14.89 KCAL/MOL
REMARK 922        TOTAL FREE ENERGY PREDICTED BY IDOCK:   16.24 KCAL/MOL
REMARK 923 INTER-LIGAND FREE ENERGY PREDICTED BY IDOCK:   15.03 KCAL/MOL
REMARK 924 INTRA-LIGAND FREE ENERGY PREDICTED BY IDOCK:    1.22 KCAL/MOL
REMARK 927      BINDING AFFINITY PREDICTED BY RF-SCORE:    0.00 PKD
ROOT
HETATM    1  C   UNL     1      -9.750  11.490  65.295  1.00  0.00    -0.268 C  
HETATM    2  C   UNL     1      -8.638  12.673  65.367  1.00  0.00     1.491 C  
HETATM    3  C   UNL     1      -9.426  13.968  65.423  1.00  0.00     0.215 C  
HETATM    4  C   UNL     1     -10.814  13.388  65.343  1.00  0.00    -0.294 C  
HETATM    5  C   UNL     1     -10.653  12.167  64.314  1.00  0.00    -0.385 C  
HETATM    6  C   UNL     1     -11.158  12.913  66.823  1.00  0.00    -0.315 C  
HETATM    7  C   UNL     1      -9.615  11.881  62.950  1.00  0.00     0.104 C  
HETATM    8  C   UNL     1     -12.037  11.571  63.993  1.00  0.00    -0.079 C  
HETATM    9  C   UNL     1     -12.518  13.404  67.117  1.00  0.00    -0.021 C  
HETATM   10  C   UNL     1     -12.697  14.467  66.097  1.00  0.00    -0.029 C  
HETATM   11  C   UNL     1      -8.451  10.573  63.165  1.00  0.00    -0.167 C  
HETATM   12  O   UNL     1      -7.342  10.942  63.958  1.00  0.00     0.292 OA 
HETATM   13  O   UNL     1     -11.814  14.352  65.054  1.00  0.00    -0.367 OA 
HETATM   14  O   UNL     1     -13.572  15.327  66.148  1.00  0.00     2.249 OA 
HETATM   15  C   UNL     1      -8.017   9.936  64.703  1.00  0.00    -0.141 C  
HETATM   16  C   UNL     1      -9.128  10.206  65.712  1.00  0.00    -0.206 C  
HETATM   17  C   UNL     1     -10.022   8.914  65.598  1.00  0.00     0.168 C  
HETATM   18  C   UNL     1      -6.498   9.271  66.620  1.00  0.00    -0.067 C  
HETATM   19  C   UNL     1      -9.259   7.749  66.215  1.00  0.00    -0.217 C  
HETATM   20  C   UNL     1      -7.087   8.830  65.232  1.00  0.00    -0.083 C  
HETATM   21  C   UNL     1      -7.926   7.556  65.501  1.00  0.00    -0.121 C  
HETATM   22  C   UNL     1      -5.892   8.568  64.295  1.00  0.00    -0.065 C  
HETATM   23  C   UNL     1      -7.549   6.335  65.102  1.00  0.00    -0.092 C  
HETATM   24  C   UNL     1      -5.219   7.230  64.577  1.00  0.00    -0.029 C  
HETATM   25  C   UNL     1      -6.225   6.117  64.487  1.00  0.00    -0.030 C  
HETATM   26  O   UNL     1      -5.953   5.011  64.007  1.00  0.00    -0.020 OA 
ENDROOT
BRANCH  17  27
HETATM   27  C   UNL     1     -11.446   8.964  66.115  1.00  0.00     3.945 C  
HETATM   28  O   UNL     1     -11.994   9.921  66.633  1.00  0.00     2.061 OA 
BRANCH  27  29
HETATM   29  O   UNL     1     -12.028   7.748  65.879  1.00  0.00     6.009 OA 
HETATM   30  C   UNL     1     -11.701   6.690  66.782  1.00  0.00     1.487 C  
ENDBRANCH  27  29
ENDBRANCH  17  27
TORSDOF 2
ENDMDL
MODEL      107
REMARK 921   NORMALIZED FREE ENERGY PREDICTED BY IDOCK:   17.47 KCAL/MOL
REMARK 922        TOTAL FREE ENERGY PREDICTED BY IDOCK:   19.12 KCAL/MOL
REMARK 923 INTER-LIGAND FREE ENERGY PREDICTED BY IDOCK:   19.44 KCAL/MOL
REMARK 924 INTRA-LIGAND FREE ENERGY PREDICTED BY IDOCK:   -0.31 KCAL/MOL
REMARK 927      BINDING AFFINITY PREDICTED BY RF-SCORE:    0.00 PKD
ROOT
HETATM    1  C   UNL     1      -9.583   8.127  67.048  1.00  0.00    -0.253 C  
HETATM    2  C   UNL     1     -10.067   6.577  67.107  1.00  0.00    -0.223 C  
HETATM    3  C   UNL     1      -9.268   5.861  66.034  1.00  0.00    -0.143 C  
HETATM    4  C   UNL     1      -8.497   7.042  65.505  1.00  0.00    -0.114 C  
HETATM    5  C   UNL     1      -9.563   8.241  65.558  1.00  0.00     0.340 C  
HETATM    6  C   UNL     1      -7.286   7.241  66.517  1.00  0.00    -0.080 C  
HETATM    7  C   UNL     1     -11.292   8.313  65.402  1.00  0.00     7.561 C  
HETATM    8  C   UNL     1      -8.971   9.493  64.882  1.00  0.00    -0.264 C  
HETATM    9  C   UNL     1      -6.075   7.419  65.693  1.00  0.00    -0.038 C  
HETATM   10  C   UNL     1      -6.500   6.867  64.384  1.00  0.00    -0.036 C  
HETATM   11  C   UNL     1     -12.150   8.790  66.867  1.00  0.00     6.635 C  
HETATM   12  O   UNL     1     -12.259   7.744  67.812  1.00  0.00     3.171 OA 
HETATM   13  O   UNL     1      -7.864   6.791  64.261  1.00  0.00    -0.108 OA 
HETATM   14  O   UNL     1      -5.723   6.560  63.483  1.00  0.00    -0.028 OA 
HETATM   15  C   UNL     1     -11.447   8.732  68.436  1.00  0.00     1.034 C  
HETATM   16  C   UNL     1      -9.927   8.797  68.330  1.00  0.00    -0.202 C  
HETATM   17  C   UNL     1      -9.639  10.342  68.422  1.00  0.00    -0.153 C  
HETATM   18  C   UNL     1     -11.204   8.077  70.873  1.00  0.00    -0.282 C  
HETATM   19  C   UNL     1      -9.913  10.796  69.851  1.00  0.00     0.250 C  
HETATM   20  C   UNL     1     -11.886   9.076  69.870  1.00  0.00     0.394 C  
HETATM   21  C   UNL     1     -11.356  10.485  70.233  1.00  0.00    -0.407 C  
HETATM   22  C   UNL     1     -13.410   8.945  70.067  1.00  0.00     2.127 C  
HETATM   23  C   UNL     1     -12.112  11.424  70.815  1.00  0.00    -0.433 C  
HETATM   24  C   UNL     1     -13.895   9.669  71.317  1.00  0.00    -0.139 C  
HETATM   25  C   UNL     1     -13.482  11.114  71.269  1.00  0.00     0.256 C  
HETATM   26  O   UNL     1     -14.206  12.027  71.681  1.00  0.00     1.072 OA 
ENDROOT
BRANCH  17  27
HETATM   27  C   UNL     1      -8.302  10.866  67.935  1.00  0.00    -0.119 C  
HETATM   28  O   UNL     1      -7.249  10.253  67.915  1.00  0.00    -0.084 OA 
BRANCH  27  29
HETATM   29  O   UNL     1      -8.482  12.149  67.494  1.00  0.00    -0.151 OA 
HETATM   30  C   UNL     1      -7.445  13.086  67.797  1.00  0.00    -0.146 C  
ENDBRANCH  27  29
ENDBRANCH  17  27
TORSDOF 2
ENDMDL
MODEL      108
REMARK 921   NORMALIZED FREE ENERGY PREDICTED BY IDOCK:   22.58 KCAL/MOL
REMARK 922        TOTAL FREE ENERGY PREDICTED BY IDOCK:   24.83 KCAL/MOL
REMARK 923 INTER-LIGAND FREE ENERGY PREDICTED BY IDOCK:   20.57 KCAL/MOL
REMARK 924 INTRA-LIGAND FREE ENERGY PREDICTED BY IDOCK:    4.26 KCAL/MOL
REMARK 927      BINDING AFFINITY PREDICTED BY RF-SCORE:    0.00 PKD
ROOT
HETATM    1  C   UNL     1      -8.055  12.428  66.591  1.00  0.00     0.096 C  
HETATM    2  C   UNL     1      -7.218  12.881  65.273  1.00  0.00     6.649 C  
HETATM    3  C   UNL     1      -7.439  11.779  64.253  1.00  0.00     2.929 C  
HETATM    4  C   UNL     1      -8.300  10.870  65.090  1.00  0.00     0.001 C  
HETATM    5  C   UNL     1      -7.657  10.987  66.556  1.00  0.00    -0.146 C  
HETATM    6  C   UNL     1      -9.766  11.482  65.004  1.00  0.00    -0.268 C  
HETATM    7  C   UNL     1      -6.044  11.275  67.136  1.00  0.00    -0.091 C  
HETATM    8  C   UNL     1      -8.329   9.972  67.501  1.00  0.00    -0.118 C  
HETATM    9  C   UNL     1     -10.677  10.353  64.728  1.00  0.00     0.274 C  
HETATM   10  C   UNL     1      -9.748   9.317  64.214  1.00  0.00     0.876 C  
HETATM   11  C   UNL     1      -5.823  12.806  67.983  1.00  0.00    -0.097 C  
HETATM   12  O   UNL     1      -5.730  13.915  67.112  1.00  0.00    -0.218 OA 
HETATM   13  O   UNL     1      -8.442   9.568  64.546  1.00  0.00    -0.156 OA 
HETATM   14  O   UNL     1     -10.109   8.314  63.604  1.00  0.00     4.345 OA 
HETATM   15  C   UNL     1      -6.922  14.124  67.859  1.00  0.00    -0.165 C  
HETATM   16  C   UNL     1      -8.301  13.617  67.448  1.00  0.00    -0.198 C  
HETATM   17  C   UNL     1      -9.002  13.359  68.834  1.00  0.00     0.249 C  
HETATM   18  C   UNL     1      -7.702  16.489  67.387  1.00  0.00    -0.174 C  
HETATM   19  C   UNL     1      -9.299  14.707  69.479  1.00  0.00     0.190 C  
HETATM   20  C   UNL     1      -7.041  15.540  68.450  1.00  0.00    -0.111 C  
HETATM   21  C   UNL     1      -8.009  15.499  69.658  1.00  0.00    -0.123 C  
HETATM   22  C   UNL     1      -5.669  16.145  68.807  1.00  0.00    -0.109 C  
HETATM   23  C   UNL     1      -7.739  16.084  70.832  1.00  0.00     3.157 C  
HETATM   24  C   UNL     1      -5.790  17.331  69.756  1.00  0.00    -0.236 C  
HETATM   25  C   UNL     1      -6.538  16.926  70.996  1.00  0.00     2.406 C  
HETATM   26  O   UNL     1      -6.239  17.344  72.120  1.00  0.00     2.341 OA 
ENDROOT
BRANCH  17  27
HETATM   27  C   UNL     1     -10.220  12.457  68.880  1.00  0.00    -0.004 C  
HETATM   28  O   UNL     1     -10.247  11.264  68.630  1.00  0.00    -0.191 OA 
BRANCH  27  29
HETATM   29  O   UNL     1     -11.293  13.209  69.275  1.00  0.00    -0.266 OA 
HETATM   30  C   UNL     1     -11.105  14.625  69.324  1.00  0.00    -0.269 C  
ENDBRANCH  27  29
ENDBRANCH  17  27
TORSDOF 2
ENDMDL
MODEL      109
REMARK 921   NORMALIZED FREE ENERGY PREDICTED BY IDOCK:   24.02 KCAL/MOL
REMARK 922        TOTAL FREE ENERGY PREDICTED BY IDOCK:   26.43 KCAL/MOL
REMARK 923 INTER-LIGAND FREE ENERGY PREDICTED BY IDOCK:   11.49 KCAL/MOL
REMARK 924 INTRA-LIGAND FREE ENERGY PREDICTED BY IDOCK:   14.95 KCAL/MOL
REMARK 927      BINDING AFFINITY PREDICTED BY RF-SCORE:    0.00 PKD
ROOT
HETATM    1  C   UNL     1      -9.208  10.138  68.562  1.00  0.00    -0.144 C  
HETATM    2  C   UNL     1      -7.965   9.230  68.042  1.00  0.00    -0.100 C  
HETATM    3  C   UNL     1      -7.268   8.738  69.297  1.00  0.00    -0.062 C  
HETATM    4  C   UNL     1      -8.138   9.425  70.318  1.00  0.00    -0.164 C  
HETATM    5  C   UNL     1      -8.458  10.846  69.644  1.00  0.00     0.342 C  
HETATM    6  C   UNL     1      -9.425   8.501  70.463  1.00  0.00    -0.193 C  
HETATM    7  C   UNL     1      -7.583  11.878  68.554  1.00  0.00    -0.127 C  
HETATM    8  C   UNL     1      -9.207  11.741  70.651  1.00  0.00     6.190 C  
HETATM    9  C   UNL     1      -9.668   8.343  71.910  1.00  0.00    -0.331 C  
HETATM   10  C   UNL     1      -8.357   8.719  72.492  1.00  0.00     0.137 C  
HETATM   11  C   UNL     1      -8.311  12.058  66.958  1.00  0.00    -0.178 C  
HETATM   12  O   UNL     1      -8.086  10.945  66.117  1.00  0.00    -0.161 OA 
HETATM   13  O   UNL     1      -7.578   9.436  71.621  1.00  0.00    -0.310 OA 
HETATM   14  O   UNL     1      -8.021   8.466  73.647  1.00  0.00    -0.305 OA 
HETATM   15  C   UNL     1      -9.492  10.977  66.329  1.00  0.00    -0.193 C  
HETATM   16  C   UNL     1     -10.211  10.267  67.472  1.00  0.00    -0.254 C  
HETATM   17  C   UNL     1     -11.440  11.211  67.747  1.00  0.00    -0.349 C  
HETATM   18  C   UNL     1     -10.536   9.330  64.710  1.00  0.00     3.127 C  
HETATM   19  C   UNL     1     -12.414  11.081  66.583  1.00  0.00     3.678 C  
HETATM   20  C   UNL     1     -10.316  10.851  65.035  1.00  0.00    -0.356 C  
HETATM   21  C   UNL     1     -11.722  11.452  65.276  1.00  0.00     0.258 C  
HETATM   22  C   UNL     1      -9.601  11.476  63.820  1.00  0.00    -0.232 C  
HETATM   23  C   UNL     1     -12.314  12.294  64.419  1.00  0.00    -0.493 C  
HETATM   24  C   UNL     1     -10.555  11.732  62.659  1.00  0.00     0.641 C  
HETATM   25  C   UNL     1     -11.699  12.596  63.112  1.00  0.00    -0.217 C  
HETATM   26  O   UNL     1     -12.193  13.474  62.397  1.00  0.00     0.669 OA 
ENDROOT
BRANCH  17  27
HETATM   27  C   UNL     1     -12.165  11.098  69.075  1.00  0.00    -0.125 C  
HETATM   28  O   UNL     1     -13.301  11.470  69.312  1.00  0.00     1.233 OA 
BRANCH  27  29
HETATM   29  O   UNL     1     -11.331  10.479  69.965  1.00  0.00    -0.272 OA 
HETATM   30  C   UNL     1     -10.646   9.313  69.503  1.00  0.00    -0.224 C  
ENDBRANCH  27  29
ENDBRANCH  17  27
TORSDOF 2
ENDMDL
MODEL      110
REMARK 921   NORMALIZED FREE ENERGY PREDICTED BY IDOCK:   28.01 KCAL/MOL
REMARK 922        TOTAL FREE ENERGY PREDICTED BY IDOCK:   30.90 KCAL/MOL
REMARK 923 INTER-LIGAND FREE ENERGY PREDICTED BY IDOCK:   28.91 KCAL/MOL
REMARK 924 INTRA-LIGAND FREE ENERGY PREDICTED BY IDOCK:    1.99 KCAL/MOL
REMARK 927      BINDING AFFINITY PREDICTED BY RF-SCORE:    0.00 PKD
ROOT
HETATM    1  C   UNL     1     -10.641   9.203  69.524  1.00  0.00    -0.233 C  
HETATM    2  C   UNL     1     -10.786   8.514  68.060  1.00  0.00    -0.022 C  
HETATM    3  C   UNL     1     -11.633   7.273  68.276  1.00  0.00     0.869 C  
HETATM    4  C   UNL     1     -11.820   7.389  69.766  1.00  0.00     0.371 C  
HETATM    5  C   UNL     1     -10.403   7.936  70.283  1.00  0.00    -0.212 C  
HETATM    6  C   UNL     1     -13.001   8.439  69.961  1.00  0.00     2.016 C  
HETATM    7  C   UNL     1      -8.770   7.745  69.722  1.00  0.00    -0.139 C  
HETATM    8  C   UNL     1     -10.380   7.947  71.823  1.00  0.00    -0.260 C  
HETATM    9  C   UNL     1     -13.926   7.852  70.950  1.00  0.00     0.114 C  
HETATM   10  C   UNL     1     -13.554   6.416  70.916  1.00  0.00     1.569 C  
HETATM   11  C   UNL     1      -8.015   9.219  69.116  1.00  0.00    -0.097 C  
HETATM   12  O   UNL     1      -8.442   9.567  67.815  1.00  0.00    -0.118 OA 
HETATM   13  O   UNL     1     -12.316   6.204  70.367  1.00  0.00     0.274 OA 
HETATM   14  O   UNL     1     -14.252   5.516  71.376  1.00  0.00     2.759 OA 
HETATM   15  C   UNL     1      -8.905  10.617  68.655  1.00  0.00    -0.151 C  
HETATM   16  C   UNL     1     -10.258  10.630  69.359  1.00  0.00    -0.218 C  
HETATM   17  C   UNL     1      -9.957  11.440  70.675  1.00  0.00     3.586 C  
HETATM   18  C   UNL     1      -9.723  12.484  67.148  1.00  0.00    -0.205 C  
HETATM   19  C   UNL     1      -9.742  12.901  70.299  1.00  0.00     4.081 C  
HETATM   20  C   UNL     1      -8.580  12.024  68.123  1.00  0.00    -0.173 C  
HETATM   21  C   UNL     1      -8.591  13.023  69.307  1.00  0.00     0.893 C  
HETATM   22  C   UNL     1      -7.262  12.061  67.325  1.00  0.00    -0.150 C  
HETATM   23  C   UNL     1      -7.630  13.934  69.503  1.00  0.00     0.356 C  
HETATM   24  C   UNL     1      -6.725  13.478  67.162  1.00  0.00     0.383 C  
HETATM   25  C   UNL     1      -6.556  14.124  68.508  1.00  0.00    -0.096 C  
HETATM   26  O   UNL     1      -5.610  14.874  68.772  1.00  0.00    -0.083 OA 
ENDROOT
BRANCH  17  27
HETATM   27  C   UNL     1     -10.916  11.318  71.844  1.00  0.00     5.479 C  
HETATM   28  O   UNL     1     -10.655  10.882  72.951  1.00  0.00     8.560 OA 
BRANCH  27  29
HETATM   29  O   UNL     1     -12.133  11.805  71.450  1.00  0.00    -0.014 OA 
HETATM   30  C   UNL     1     -12.202  12.389  70.147  1.00  0.00    -0.229 C  
ENDBRANCH  27  29
ENDBRANCH  17  27
TORSDOF 2
ENDMDL
MODEL      111
REMARK 921   NORMALIZED FREE ENERGY PREDICTED BY IDOCK:   30.28 KCAL/MOL
REMARK 922        TOTAL FREE ENERGY PREDICTED BY IDOCK:   33.43 KCAL/MOL
REMARK 923 INTER-LIGAND FREE ENERGY PREDICTED BY IDOCK:   33.15 KCAL/MOL
REMARK 924 INTRA-LIGAND FREE ENERGY PREDICTED BY IDOCK:    0.27 KCAL/MOL
REMARK 927      BINDING AFFINITY PREDICTED BY RF-SCORE:    0.00 PKD
ROOT
HETATM    1  C   UNL     1     -10.866  15.889  67.729  1.00  0.00    -0.324 C  
HETATM    2  C   UNL     1     -10.946  14.791  66.534  1.00  0.00    -0.325 C  
HETATM    3  C   UNL     1     -10.428  15.500  65.295  1.00  0.00    -0.437 C  
HETATM    4  C   UNL     1     -10.167  16.852  65.906  1.00  0.00    -0.314 C  
HETATM    5  C   UNL     1     -11.385  17.043  66.933  1.00  0.00     0.662 C  
HETATM    6  C   UNL     1      -8.757  16.720  66.632  1.00  0.00    -0.281 C  
HETATM    7  C   UNL     1     -13.033  16.492  66.951  1.00  0.00     5.295 C  
HETATM    8  C   UNL     1     -11.353  18.468  67.519  1.00  0.00     0.513 C  
HETATM    9  C   UNL     1      -7.973  17.911  66.247  1.00  0.00    -0.279 C  
HETATM   10  C   UNL     1      -8.691  18.383  65.038  1.00  0.00     3.187 C  
HETATM   11  C   UNL     1     -13.417  15.342  68.232  1.00  0.00     4.568 C  
HETATM   12  O   UNL     1     -12.961  14.033  67.958  1.00  0.00     1.025 OA 
HETATM   13  O   UNL     1      -9.961  17.875  64.945  1.00  0.00     0.902 OA 
HETATM   14  O   UNL     1      -8.224  19.184  64.231  1.00  0.00     3.886 OA 
HETATM   15  C   UNL     1     -12.223  14.457  69.098  1.00  0.00    -0.220 C  
HETATM   16  C   UNL     1     -10.886  15.189  69.040  1.00  0.00    -0.242 C  
HETATM   17  C   UNL     1     -10.931  16.095  70.327  1.00  0.00    -0.345 C  
HETATM   18  C   UNL     1     -11.018  12.423  70.013  1.00  0.00     0.594 C  
HETATM   19  C   UNL     1     -10.790  15.196  71.550  1.00  0.00     0.084 C  
HETATM   20  C   UNL     1     -12.206  13.426  70.241  1.00  0.00    -0.405 C  
HETATM   21  C   UNL     1     -11.907  14.159  71.572  1.00  0.00     0.017 C  
HETATM   22  C   UNL     1     -13.500  12.591  70.299  1.00  0.00     1.743 C  
HETATM   23  C   UNL     1     -12.603  13.947  72.695  1.00  0.00    -0.148 C  
HETATM   24  C   UNL     1     -13.672  11.886  71.639  1.00  0.00     0.385 C  
HETATM   25  C   UNL     1     -13.629  12.888  72.758  1.00  0.00     0.192 C  
HETATM   26  O   UNL     1     -14.350  12.800  73.759  1.00  0.00     4.111 OA 
ENDROOT
BRANCH  17  27
HETATM   27  C   UNL     1      -9.994  17.283  70.417  1.00  0.00     1.712 C  
HETATM   28  O   UNL     1      -8.915  17.397  69.863  1.00  0.00     0.981 OA 
BRANCH  27  29
HETATM   29  O   UNL     1     -10.579  18.228  71.216  1.00  0.00     1.912 OA 
HETATM   30  C   UNL     1     -11.868  17.914  71.747  1.00  0.00     4.704 C  
ENDBRANCH  27  29
ENDBRANCH  17  27
TORSDOF 2
ENDMDL
MODEL      112
REMARK 921   NORMALIZED FREE ENERGY PREDICTED BY IDOCK:   32.32 KCAL/MOL
REMARK 922        TOTAL FREE ENERGY PREDICTED BY IDOCK:   35.71 KCAL/MOL
REMARK 923 INTER-LIGAND FREE ENERGY PREDICTED BY IDOCK:   34.35 KCAL/MOL
REMARK 924 INTRA-LIGAND FREE ENERGY PREDICTED BY IDOCK:    1.36 KCAL/MOL
REMARK 927      BINDING AFFINITY PREDICTED BY RF-SCORE:    0.00 PKD
ROOT
HETATM    1  C   UNL     1      -8.798  13.081  69.337  1.00  0.00     1.230 C  
HETATM    2  C   UNL     1      -9.993  14.146  69.061  1.00  0.00    -0.067 C  
HETATM    3  C   UNL     1      -9.382  15.515  69.298  1.00  0.00    -0.266 C  
HETATM    4  C   UNL     1      -7.997  15.074  69.694  1.00  0.00    -0.069 C  
HETATM    5  C   UNL     1      -8.257  13.749  70.561  1.00  0.00     3.497 C  
HETATM    6  C   UNL     1      -7.241  14.783  68.324  1.00  0.00    -0.115 C  
HETATM    7  C   UNL     1      -9.558  13.227  71.588  1.00  0.00    12.602 C  
HETATM    8  C   UNL     1      -6.933  13.269  71.187  1.00  0.00     2.973 C  
HETATM    9  C   UNL     1      -5.922  15.436  68.425  1.00  0.00    -0.105 C  
HETATM   10  C   UNL     1      -6.135  16.408  69.526  1.00  0.00    -0.188 C  
HETATM   11  C   UNL     1     -10.461  11.834  70.993  1.00  0.00     4.861 C  
HETATM   12  O   UNL     1     -11.376  12.164  69.967  1.00  0.00    -0.135 OA 
HETATM   13  O   UNL     1      -7.227  16.103  70.295  1.00  0.00     0.503 OA 
HETATM   14  O   UNL     1      -5.386  17.354  69.761  1.00  0.00    -0.177 OA 
HETATM   15  C   UNL     1     -10.418  11.309  69.355  1.00  0.00    -0.050 C  
HETATM   16  C   UNL     1      -9.133  11.788  68.687  1.00  0.00    -0.075 C  
HETATM   17  C   UNL     1      -8.143  10.589  68.939  1.00  0.00    -0.138 C  
HETATM   18  C   UNL     1     -11.319  10.682  67.070  1.00  0.00     0.023 C  
HETATM   19  C   UNL     1      -8.579   9.417  68.069  1.00  0.00    -0.120 C  
HETATM   20  C   UNL     1     -11.043  10.170  68.530  1.00  0.00    -0.266 C  
HETATM   21  C   UNL     1     -10.013   9.021  68.400  1.00  0.00    -0.200 C  
HETATM   22  C   UNL     1     -12.392   9.698  69.107  1.00  0.00     1.500 C  
HETATM   23  C   UNL     1     -10.323   7.735  68.604  1.00  0.00    -0.221 C  
HETATM   24  C   UNL     1     -12.804   8.332  68.570  1.00  0.00     8.273 C  
HETATM   25  C   UNL     1     -11.721   7.324  68.841  1.00  0.00     0.898 C  
HETATM   26  O   UNL     1     -11.965   6.155  69.159  1.00  0.00     0.376 OA 
ENDROOT
BRANCH  17  27
HETATM   27  C   UNL     1      -6.652  10.834  68.812  1.00  0.00    -0.054 C  
HETATM   28  O   UNL     1      -6.093  11.916  68.834  1.00  0.00    -0.055 OA 
BRANCH  27  29
HETATM   29  O   UNL     1      -6.030   9.621  68.690  1.00  0.00    -0.043 OA 
HETATM   30  C   UNL     1      -5.796   9.148  67.361  1.00  0.00    -0.046 C  
ENDBRANCH  27  29
ENDBRANCH  17  27
TORSDOF 2
ENDMDL
MODEL      113
REMARK 921   NORMALIZED FREE ENERGY PREDICTED BY IDOCK:   32.77 KCAL/MOL
REMARK 922        TOTAL FREE ENERGY PREDICTED BY IDOCK:   36.21 KCAL/MOL
REMARK 923 INTER-LIGAND FREE ENERGY PREDICTED BY IDOCK:   36.27 KCAL/MOL
REMARK 924 INTRA-LIGAND FREE ENERGY PREDICTED BY IDOCK:   -0.06 KCAL/MOL
REMARK 927      BINDING AFFINITY PREDICTED BY RF-SCORE:    0.00 PKD
ROOT
HETATM    1  C   UNL     1      -8.138  10.274  67.848  1.00  0.00    -0.102 C  
HETATM    2  C   UNL     1      -8.620   8.916  68.598  1.00  0.00    -0.133 C  
HETATM    3  C   UNL     1      -8.173   7.776  67.701  1.00  0.00    -0.125 C  
HETATM    4  C   UNL     1      -7.557   8.592  66.595  1.00  0.00    -0.082 C  
HETATM    5  C   UNL     1      -8.537   9.857  66.469  1.00  0.00    -0.131 C  
HETATM    6  C   UNL     1      -6.105   8.980  67.117  1.00  0.00    -0.058 C  
HETATM    7  C   UNL     1     -10.238  10.084  66.744  1.00  0.00    -0.295 C  
HETATM    8  C   UNL     1      -8.132  10.709  65.252  1.00  0.00    -0.086 C  
HETATM    9  C   UNL     1      -5.172   8.706  66.006  1.00  0.00    -0.030 C  
HETATM   10  C   UNL     1      -5.963   7.789  65.150  1.00  0.00    -0.038 C  
HETATM   11  C   UNL     1     -10.636  11.146  68.094  1.00  0.00    -0.193 C  
HETATM   12  O   UNL     1     -10.496  10.519  69.353  1.00  0.00    -0.218 OA 
HETATM   13  O   UNL     1      -7.307   7.845  65.415  1.00  0.00    -0.072 OA 
HETATM   14  O   UNL     1      -5.479   7.092  64.261  1.00  0.00    -0.031 OA 
HETATM   15  C   UNL     1      -9.519  11.554  69.339  1.00  0.00     0.565 C  
HETATM   16  C   UNL     1      -8.090  11.387  68.833  1.00  0.00    -0.067 C  
HETATM   17  C   UNL     1      -7.753  12.818  68.269  1.00  0.00    -0.136 C  
HETATM   18  C   UNL     1      -8.612  11.767  71.696  1.00  0.00    14.167 C  
HETATM   19  C   UNL     1      -7.602  13.773  69.447  1.00  0.00     0.304 C  
HETATM   20  C   UNL     1      -9.527  12.429  70.604  1.00  0.00     7.123 C  
HETATM   21  C   UNL     1      -8.885  13.798  70.271  1.00  0.00     3.197 C  
HETATM   22  C   UNL     1     -10.936  12.566  71.216  1.00  0.00     4.401 C  
HETATM   23  C   UNL     1      -9.424  14.968  70.636  1.00  0.00     1.262 C  
HETATM   24  C   UNL     1     -11.032  13.736  72.188  1.00  0.00     4.279 C  
HETATM   25  C   UNL     1     -10.616  15.009  71.505  1.00  0.00     0.758 C  
HETATM   26  O   UNL     1     -11.174  16.091  71.719  1.00  0.00    -0.244 OA 
ENDROOT
BRANCH  17  27
HETATM   27  C   UNL     1      -6.597  12.968  67.299  1.00  0.00     0.008 C  
HETATM   28  O   UNL     1      -5.516  12.410  67.371  1.00  0.00    -0.116 OA 
BRANCH  27  29
HETATM   29  O   UNL     1      -6.983  13.826  66.305  1.00  0.00     1.936 OA 
HETATM   30  C   UNL     1      -8.176  14.580  66.531  1.00  0.00     0.424 C  
ENDBRANCH  27  29
ENDBRANCH  17  27
TORSDOF 2
ENDMDL
MODEL      114
REMARK 921   NORMALIZED FREE ENERGY PREDICTED BY IDOCK:   46.08 KCAL/MOL
REMARK 922        TOTAL FREE ENERGY PREDICTED BY IDOCK:   51.08 KCAL/MOL
REMARK 923 INTER-LIGAND FREE ENERGY PREDICTED BY IDOCK:   48.91 KCAL/MOL
REMARK 924 INTRA-LIGAND FREE ENERGY PREDICTED BY IDOCK:    2.17 KCAL/MOL
REMARK 927      BINDING AFFINITY PREDICTED BY RF-SCORE:    0.00 PKD
ROOT
HETATM    1  C   UNL     1      -9.327  11.121  66.103  1.00  0.00    -0.227 C  
HETATM    2  C   UNL     1      -9.838   9.997  67.160  1.00  0.00    -0.231 C  
HETATM    3  C   UNL     1      -8.985   8.771  66.894  1.00  0.00    -0.155 C  
HETATM    4  C   UNL     1      -8.163   9.314  65.754  1.00  0.00    -0.117 C  
HETATM    5  C   UNL     1      -9.211  10.206  64.927  1.00  0.00    -0.281 C  
HETATM    6  C   UNL     1      -7.015  10.179  66.438  1.00  0.00    -0.105 C  
HETATM    7  C   UNL     1     -10.925  10.101  64.664  1.00  0.00     1.680 C  
HETATM    8  C   UNL     1      -8.557  10.698  63.621  1.00  0.00    -0.110 C  
HETATM    9  C   UNL     1      -5.751   9.795  65.780  1.00  0.00    -0.052 C  
HETATM   10  C   UNL     1      -6.103   8.494  65.159  1.00  0.00    -0.052 C  
HETATM   11  C   UNL     1     -11.866  11.412  65.376  1.00  0.00     0.559 C  
HETATM   12  O   UNL     1     -12.051  11.268  66.770  1.00  0.00    -0.019 OA 
HETATM   13  O   UNL     1      -7.456   8.314  65.040  1.00  0.00    -0.082 OA 
HETATM   14  O   UNL     1      -5.275   7.686  64.745  1.00  0.00    -0.029 OA 
HETATM   15  C   UNL     1     -11.265  12.443  66.614  1.00  0.00    -0.315 C  
HETATM   16  C   UNL     1      -9.741  12.467  66.580  1.00  0.00    -0.229 C  
HETATM   17  C   UNL     1      -9.434  13.682  65.627  1.00  0.00     0.086 C  
HETATM   18  C   UNL     1     -11.187  13.601  68.868  1.00  0.00    -0.309 C  
HETATM   19  C   UNL     1      -9.790  14.969  66.362  1.00  0.00    -0.290 C  
HETATM   20  C   UNL     1     -11.788  13.648  67.417  1.00  0.00    -0.429 C  
HETATM   21  C   UNL     1     -11.259  14.951  66.769  1.00  0.00    -0.338 C  
HETATM   22  C   UNL     1     -13.323  13.636  67.562  1.00  0.00     4.286 C  
HETATM   23  C   UNL     1     -12.036  16.014  66.526  1.00  0.00     1.224 C  
HETATM   24  C   UNL     1     -13.875  14.996  67.972  1.00  0.00     7.943 C  
HETATM   25  C   UNL     1     -13.436  16.047  66.990  1.00  0.00     6.127 C  
HETATM   26  O   UNL     1     -14.170  16.977  66.639  1.00  0.00    10.136 OA 
ENDROOT
BRANCH  17  27
HETATM   27  C   UNL     1      -8.060  13.784  64.992  1.00  0.00     6.678 C  
HETATM   28  O   UNL     1      -7.773  13.504  63.842  1.00  0.00    10.286 OA 
BRANCH  27  29
HETATM   29  O   UNL     1      -7.192  14.270  65.931  1.00  0.00     3.372 OA 
HETATM   30  C   UNL     1      -7.637  14.256  67.289  1.00  0.00    -0.092 C  
ENDBRANCH  27  29
ENDBRANCH  17  27
TORSDOF 2
ENDMDL
MODEL      115
REMARK 921   NORMALIZED FREE ENERGY PREDICTED BY IDOCK:   70.81 KCAL/MOL
REMARK 922        TOTAL FREE ENERGY PREDICTED BY IDOCK:   78.70 KCAL/MOL
REMARK 923 INTER-LIGAND FREE ENERGY PREDICTED BY IDOCK:   76.83 KCAL/MOL
REMARK 924 INTRA-LIGAND FREE ENERGY PREDICTED BY IDOCK:    1.86 KCAL/MOL
REMARK 927      BINDING AFFINITY PREDICTED BY RF-SCORE:    0.00 PKD
ROOT
HETATM    1  C   UNL     1     -11.349   5.973  68.995  1.00  0.00    -0.141 C  
HETATM    2  C   UNL     1     -12.663   6.535  69.769  1.00  0.00     2.197 C  
HETATM    3  C   UNL     1     -13.282   7.555  68.831  1.00  0.00     8.312 C  
HETATM    4  C   UNL     1     -12.272   7.474  67.716  1.00  0.00     4.481 C  
HETATM    5  C   UNL     1     -10.875   7.296  68.485  1.00  0.00    -0.106 C  
HETATM    6  C   UNL     1     -12.684   6.190  66.870  1.00  0.00     8.175 C  
HETATM    7  C   UNL     1     -10.282   7.833  70.028  1.00  0.00    -0.210 C  
HETATM    8  C   UNL     1      -9.713   7.368  67.476  1.00  0.00    -0.186 C  
HETATM    9  C   UNL     1     -12.654   6.595  65.451  1.00  0.00     9.551 C  
HETATM   10  C   UNL     1     -12.716   8.074  65.544  1.00  0.00    17.003 C  
HETATM   11  C   UNL     1      -9.966   6.545  71.190  1.00  0.00    -0.182 C  
HETATM   12  O   UNL     1     -11.141   6.042  71.794  1.00  0.00    -0.259 OA 
HETATM   13  O   UNL     1     -12.370   8.540  66.786  1.00  0.00     6.214 OA 
HETATM   14  O   UNL     1     -12.993   8.811  64.600  1.00  0.00    17.490 OA 
HETATM   15  C   UNL     1     -10.612   4.957  71.042  1.00  0.00    -0.015 C  
HETATM   16  C   UNL     1     -10.954   4.667  69.584  1.00  0.00     1.762 C  
HETATM   17  C   UNL     1      -9.628   4.015  69.040  1.00  0.00    -0.223 C  
HETATM   18  C   UNL     1     -11.899   2.878  71.711  1.00  0.00     4.247 C  
HETATM   19  C   UNL     1      -9.489   2.627  69.653  1.00  0.00    -0.138 C  
HETATM   20  C   UNL     1     -10.530   3.639  71.832  1.00  0.00     0.108 C  
HETATM   21  C   UNL     1      -9.466   2.726  71.175  1.00  0.00    -0.225 C  
HETATM   22  C   UNL     1     -10.271   3.869  73.334  1.00  0.00    -0.215 C  
HETATM   23  C   UNL     1      -8.530   2.072  71.874  1.00  0.00    -0.073 C  
HETATM   24  C   UNL     1      -9.777   2.608  74.035  1.00  0.00    -0.131 C  
HETATM   25  C   UNL     1      -8.545   2.087  73.350  1.00  0.00    -0.065 C  
HETATM   26  O   UNL     1      -7.598   1.591  73.971  1.00  0.00    -0.028 OA 
ENDROOT
BRANCH  17  27
HETATM   27  C   UNL     1      -9.397   3.970  67.542  1.00  0.00    -0.183 C  
HETATM   28  O   UNL     1     -10.179   4.330  66.679  1.00  0.00    -0.186 OA 
BRANCH  27  29
HETATM   29  O   UNL     1      -8.142   3.474  67.318  1.00  0.00    -0.082 OA 
HETATM   30  C   UNL     1      -7.774   2.299  68.044  1.00  0.00    -0.055 C  
ENDBRANCH  27  29
ENDBRANCH  17  27
TORSDOF 2
ENDMDL
MODEL      116
REMARK 921   NORMALIZED FREE ENERGY PREDICTED BY IDOCK:   76.78 KCAL/MOL
REMARK 922        TOTAL FREE ENERGY PREDICTED BY IDOCK:   85.37 KCAL/MOL
REMARK 923 INTER-LIGAND FREE ENERGY PREDICTED BY IDOCK:   84.21 KCAL/MOL
REMARK 924 INTRA-LIGAND FREE ENERGY PREDICTED BY IDOCK:    1.17 KCAL/MOL
REMARK 927      BINDING AFFINITY PREDICTED BY RF-SCORE:    0.00 PKD
ROOT
HETATM    1  C   UNL     1      -8.310  16.096  65.303  1.00  0.00     2.684 C  
HETATM    2  C   UNL     1      -6.882  15.435  64.898  1.00  0.00    12.856 C  
HETATM    3  C   UNL     1      -6.101  16.542  64.214  1.00  0.00     9.869 C  
HETATM    4  C   UNL     1      -7.146  17.626  64.282  1.00  0.00     6.329 C  
HETATM    5  C   UNL     1      -8.521  16.839  64.024  1.00  0.00    12.068 C  
HETATM    6  C   UNL     1      -7.038  18.222  65.753  1.00  0.00    -0.260 C  
HETATM    7  C   UNL     1      -8.936  15.422  63.107  1.00  0.00    18.124 C  
HETATM    8  C   UNL     1      -9.679  17.847  63.893  1.00  0.00    10.962 C  
HETATM    9  C   UNL     1      -7.035  19.691  65.612  1.00  0.00    -0.325 C  
HETATM   10  C   UNL     1      -6.668  19.870  64.186  1.00  0.00     0.507 C  
HETATM   11  C   UNL     1      -9.466  14.044  64.071  1.00  0.00     3.651 C  
HETATM   12  O   UNL     1      -8.398  13.356  64.691  1.00  0.00     4.136 OA 
HETATM   13  O   UNL     1      -6.865  18.735  63.443  1.00  0.00     2.895 OA 
HETATM   14  O   UNL     1      -6.280  20.932  63.705  1.00  0.00    -0.302 OA 
HETATM   15  C   UNL     1      -9.165  13.898  65.759  1.00  0.00     0.300 C  
HETATM   16  C   UNL     1      -8.943  15.278  66.371  1.00  0.00    -0.339 C  
HETATM   17  C   UNL     1     -10.394  15.696  66.819  1.00  0.00    -0.287 C  
HETATM   18  C   UNL     1      -8.308  12.858  67.906  1.00  0.00    -0.170 C  
HETATM   19  C   UNL     1     -10.791  14.839  68.014  1.00  0.00    -0.261 C  
HETATM   20  C   UNL     1      -9.487  12.881  66.868  1.00  0.00    -0.237 C  
HETATM   21  C   UNL     1     -10.739  13.362  67.642  1.00  0.00    -0.257 C  
HETATM   22  C   UNL     1      -9.639  11.446  66.323  1.00  0.00    -0.237 C  
HETATM   23  C   UNL     1     -11.763  12.556  67.950  1.00  0.00    -0.416 C  
HETATM   24  C   UNL     1     -10.354  10.528  67.307  1.00  0.00    -0.275 C  
HETATM   25  C   UNL     1     -11.692  11.108  67.674  1.00  0.00    -0.083 C  
HETATM   26  O   UNL     1     -12.697  10.408  67.842  1.00  0.00     2.449 OA 
ENDROOT
BRANCH  17  27
HETATM   27  C   UNL     1     -10.683  17.161  67.083  1.00  0.00    -0.177 C  
HETATM   28  O   UNL     1     -11.018  17.992  66.257  1.00  0.00    -0.043 OA 
BRANCH  27  29
HETATM   29  O   UNL     1     -10.525  17.392  68.422  1.00  0.00    -0.357 OA 
HETATM   30  C   UNL     1     -11.664  17.162  69.254  1.00  0.00     1.403 C  
ENDBRANCH  27  29
ENDBRANCH  17  27
TORSDOF 2
ENDMDL
MODEL      117
REMARK 921   NORMALIZED FREE ENERGY PREDICTED BY IDOCK:   78.91 KCAL/MOL
REMARK 922        TOTAL FREE ENERGY PREDICTED BY IDOCK:   87.74 KCAL/MOL
REMARK 923 INTER-LIGAND FREE ENERGY PREDICTED BY IDOCK:   86.85 KCAL/MOL
REMARK 924 INTRA-LIGAND FREE ENERGY PREDICTED BY IDOCK:    0.89 KCAL/MOL
REMARK 927      BINDING AFFINITY PREDICTED BY RF-SCORE:    0.00 PKD
ROOT
HETATM    1  C   UNL     1      -7.935  12.758  71.016  1.00  0.00     7.959 C  
HETATM    2  C   UNL     1      -9.267  13.595  71.422  1.00  0.00     9.607 C  
HETATM    3  C   UNL     1      -8.905  15.056  71.229  1.00  0.00     3.453 C  
HETATM    4  C   UNL     1      -7.474  14.875  70.794  1.00  0.00     1.235 C  
HETATM    5  C   UNL     1      -6.956  13.656  71.702  1.00  0.00     3.372 C  
HETATM    6  C   UNL     1      -7.548  14.509  69.247  1.00  0.00    -0.073 C  
HETATM    7  C   UNL     1      -7.356  13.101  73.299  1.00  0.00     8.639 C  
HETATM    8  C   UNL     1      -5.442  13.460  71.494  1.00  0.00    -0.164 C  
HETATM    9  C   UNL     1      -6.543  15.351  68.568  1.00  0.00    -0.109 C  
HETATM   10  C   UNL     1      -6.306  16.423  69.565  1.00  0.00    -0.203 C  
HETATM   11  C   UNL     1      -8.147  11.526  73.360  1.00  0.00    19.582 C  
HETATM   12  O   UNL     1      -9.516  11.578  73.014  1.00  0.00    17.483 OA 
HETATM   13  O   UNL     1      -6.719  16.074  70.825  1.00  0.00     0.765 OA 
HETATM   14  O   UNL     1      -5.751  17.489  69.308  1.00  0.00    -0.184 OA 
HETATM   15  C   UNL     1      -8.902  10.793  71.999  1.00  0.00     9.914 C  
HETATM   16  C   UNL     1      -8.312  11.353  70.710  1.00  0.00     5.299 C  
HETATM   17  C   UNL     1      -7.134  10.354  70.405  1.00  0.00     0.049 C  
HETATM   18  C   UNL     1     -10.761   9.738  70.636  1.00  0.00    -0.394 C  
HETATM   19  C   UNL     1      -7.736   9.024  69.968  1.00  0.00    -0.082 C  
HETATM   20  C   UNL     1      -9.641   9.475  71.706  1.00  0.00     0.726 C  
HETATM   21  C   UNL     1      -8.648   8.477  71.061  1.00  0.00    -0.190 C  
HETATM   22  C   UNL     1     -10.335   8.899  72.956  1.00  0.00     1.101 C  
HETATM   23  C   UNL     1      -8.540   7.199  71.447  1.00  0.00    -0.116 C  
HETATM   24  C   UNL     1     -10.698   7.428  72.790  1.00  0.00    -0.362 C  
HETATM   25  C   UNL     1      -9.472   6.631  72.441  1.00  0.00    -0.148 C  
HETATM   26  O   UNL     1      -9.271   5.493  72.880  1.00  0.00    -0.135 OA 
ENDROOT
BRANCH  17  27
HETATM   27  C   UNL     1      -6.035  10.788  69.454  1.00  0.00    -0.046 C  
HETATM   28  O   UNL     1      -5.758  11.933  69.144  1.00  0.00    -0.055 OA 
BRANCH  27  29
HETATM   29  O   UNL     1      -5.383   9.667  69.016  1.00  0.00    -0.036 OA 
HETATM   30  C   UNL     1      -5.450   9.389  67.615  1.00  0.00    -0.037 C  
ENDBRANCH  27  29
ENDBRANCH  17  27
TORSDOF 2
ENDMDL
MODEL      118
REMARK 921   NORMALIZED FREE ENERGY PREDICTED BY IDOCK:   81.67 KCAL/MOL
REMARK 922        TOTAL FREE ENERGY PREDICTED BY IDOCK:   90.83 KCAL/MOL
REMARK 923 INTER-LIGAND FREE ENERGY PREDICTED BY IDOCK:   90.74 KCAL/MOL
REMARK 924 INTRA-LIGAND FREE ENERGY PREDICTED BY IDOCK:    0.09 KCAL/MOL
REMARK 927      BINDING AFFINITY PREDICTED BY RF-SCORE:    0.00 PKD
ROOT
HETATM    1  C   UNL     1      -7.345  13.413  69.704  1.00  0.00     0.524 C  
HETATM    2  C   UNL     1      -5.752  13.430  70.022  1.00  0.00    -0.124 C  
HETATM    3  C   UNL     1      -5.161  12.301  69.199  1.00  0.00    -0.059 C  
HETATM    4  C   UNL     1      -6.434  11.789  68.577  1.00  0.00    -0.056 C  
HETATM    5  C   UNL     1      -7.512  11.929  69.758  1.00  0.00     0.770 C  
HETATM    6  C   UNL     1      -6.724  12.762  67.352  1.00  0.00    -0.138 C  
HETATM    7  C   UNL     1      -7.407  11.841  71.490  1.00  0.00     7.019 C  
HETATM    8  C   UNL     1      -8.842  11.280  69.328  1.00  0.00     0.249 C  
HETATM    9  C   UNL     1      -7.057  11.900  66.201  1.00  0.00     0.681 C  
HETATM   10  C   UNL     1      -6.509  10.587  66.621  1.00  0.00    -0.086 C  
HETATM   11  C   UNL     1      -7.740  13.355  72.332  1.00  0.00    10.196 C  
HETATM   12  O   UNL     1      -6.658  14.262  72.292  1.00  0.00     0.545 OA 
HETATM   13  O   UNL     1      -6.294  10.513  67.973  1.00  0.00    -0.058 OA 
HETATM   14  O   UNL     1      -6.316   9.647  65.855  1.00  0.00    -0.072 OA 
HETATM   15  C   UNL     1      -7.703  14.893  71.562  1.00  0.00     3.371 C  
HETATM   16  C   UNL     1      -7.931  14.732  70.062  1.00  0.00     0.430 C  
HETATM   17  C   UNL     1      -9.494  14.873  69.932  1.00  0.00     0.243 C  
HETATM   18  C   UNL     1      -6.993  17.292  71.150  1.00  0.00     4.096 C  
HETATM   19  C   UNL     1      -9.866  16.327  70.191  1.00  0.00     0.530 C  
HETATM   20  C   UNL     1      -7.949  16.355  71.974  1.00  0.00    10.581 C  
HETATM   21  C   UNL     1      -9.393  16.751  71.577  1.00  0.00     7.166 C  
HETATM   22  C   UNL     1      -7.653  16.604  73.466  1.00  0.00    14.984 C  
HETATM   23  C   UNL     1     -10.227  17.398  72.402  1.00  0.00     6.323 C  
HETATM   24  C   UNL     1      -8.278  17.898  73.971  1.00  0.00    12.942 C  
HETATM   25  C   UNL     1      -9.759  17.891  73.712  1.00  0.00     9.473 C  
HETATM   26  O   UNL     1     -10.576  18.364  74.509  1.00  0.00     2.128 OA 
ENDROOT
BRANCH  17  27
HETATM   27  C   UNL     1     -10.171  14.356  68.678  1.00  0.00    -0.245 C  
HETATM   28  O   UNL     1     -11.308  13.924  68.596  1.00  0.00    -0.245 OA 
BRANCH  27  29
HETATM   29  O   UNL     1      -9.292  14.478  67.636  1.00  0.00    -0.195 OA 
HETATM   30  C   UNL     1      -9.377  15.674  66.859  1.00  0.00    -0.234 C  
ENDBRANCH  27  29
ENDBRANCH  17  27
TORSDOF 2
ENDMDL
